MODEL 1
REMARK minimizedAffinity 2.29305005
REMARK minimizedRMSD -1
REMARK  1 active torsions:
REMARK  status: ('A' for Active; 'I' for Inactive)
REMARK    1  A    between atoms: C1_2  and  C2_3 
ROOT
ATOM      1  C2  UNL d   1       1.790   4.169  -3.801  0.00  0.00    -0.073 A 
ATOM      2  C3  UNL d   1       1.396   3.935  -5.124  0.00  0.00    -0.002 A 
ATOM      3  C4  UNL d   1       1.147   2.635  -5.566  0.00  0.00     0.004 A 
ATOM      4  C5  UNL d   1       1.282   1.558  -4.690  0.00  0.00    -0.004 A 
ATOM      5  C6  UNL d   1       1.663   1.772  -3.362  0.00  0.00    -0.075 A 
ATOM      6  C7  UNL d   1       1.815   0.624  -2.408  0.00  0.00     0.076 C 
ATOM      7  C8  UNL d   1       1.914   3.081  -2.926  0.00  0.00     0.001 A 
ENDROOT
BRANCH   1   8
ATOM      8  C1  UNL d   1       2.053   5.572  -3.318  0.00  0.00     0.053 C 
ATOM      9  C   UNL d   1       3.258   5.639  -2.393  0.00  0.00     0.018 C 
ENDBRANCH   1   8
TORSDOF 1
ENDMDL
