MODEL 1
REMARK minimizedAffinity 6.27945852
REMARK minimizedRMSD -1
REMARK  1 active torsions:
REMARK  status: ('A' for Active; 'I' for Inactive)
REMARK    1  A    between atoms: C1_2  and  C2_3 
ROOT
ATOM      1  C2  UNL d   1       1.444   0.997  -2.087  0.00  0.00    -0.073 A 
ATOM      2  C3  UNL d   1       0.077   0.946  -1.791  0.00  0.00    -0.002 A 
ATOM      3  C4  UNL d   1      -0.482  -0.209  -1.242  0.00  0.00     0.004 A 
ATOM      4  C5  UNL d   1       0.319  -1.320  -0.978  0.00  0.00    -0.004 A 
ATOM      5  C6  UNL d   1       1.689  -1.284  -1.256  0.00  0.00    -0.075 A 
ATOM      6  C7  UNL d   1       2.564  -2.471  -0.980  0.00  0.00     0.076 C 
ATOM      7  C8  UNL d   1       2.243  -0.122  -1.810  0.00  0.00     0.001 A 
ENDROOT
BRANCH   1   8
ATOM      8  C1  UNL d   1       2.054   2.244  -2.674  0.00  0.00     0.053 C 
ATOM      9  C   UNL d   1       1.030   3.078  -3.428  0.00  0.00     0.018 C 
ENDBRANCH   1   8
TORSDOF 1
ENDMDL
