MODEL 1
REMARK minimizedAffinity 3.38838267
REMARK minimizedRMSD -1
REMARK  1 active torsions:
REMARK  status: ('A' for Active; 'I' for Inactive)
REMARK    1  A    between atoms: C1_2  and  C2_3 
ROOT
ATOM      1  C2  UNL d   1       0.410   1.691  -0.713  0.00  0.00    -0.073 A 
ATOM      2  C3  UNL d   1       1.199   0.589  -1.062  0.00  0.00    -0.002 A 
ATOM      3  C4  UNL d   1       1.796   0.519  -2.321  0.00  0.00     0.004 A 
ATOM      4  C5  UNL d   1       1.615   1.551  -3.242  0.00  0.00    -0.004 A 
ATOM      5  C6  UNL d   1       0.840   2.666  -2.908  0.00  0.00    -0.075 A 
ATOM      6  C7  UNL d   1       0.634   3.784  -3.888  0.00  0.00     0.076 C 
ATOM      7  C8  UNL d   1       0.242   2.728  -1.642  0.00  0.00     0.001 A 
ENDROOT
BRANCH   1   8
ATOM      8  C1  UNL d   1      -0.231   1.774   0.648  0.00  0.00     0.053 C 
ATOM      9  C   UNL d   1       0.726   2.320   1.696  0.00  0.00     0.018 C 
ENDBRANCH   1   8
TORSDOF 1
ENDMDL
