MODEL 1
REMARK minimizedAffinity -3.09316158
REMARK minimizedRMSD -1
REMARK  1 active torsions:
REMARK  status: ('A' for Active; 'I' for Inactive)
REMARK    1  A    between atoms: N_2  and  C1_3 
ROOT
ATOM      1  C1  UNL d   1      -3.682  -0.882   3.764  0.00  0.00     0.143 A 
ATOM      2  C2  UNL d   1      -2.699  -0.178   4.467  0.00  0.00    -0.057 A 
ATOM      3  C3  UNL d   1      -1.805   0.675   3.808  0.00  0.00     0.033 A 
ATOM      4  C4  UNL d   1      -1.861   0.817   2.425  0.00  0.00    -0.042 A 
ATOM      5  C5  UNL d   1      -2.815   0.107   1.703  0.00  0.00     0.033 A 
ATOM      6  C6  UNL d   1      -3.708  -0.738   2.368  0.00  0.00    -0.057 A 
ENDROOT
BRANCH   1   7
ATOM      7  N   UNL d   1      -4.536  -1.821   4.349  0.00  0.00    -0.732 N 
ATOM      8  C   UNL d   1      -5.504  -2.538   3.548  0.00  0.00     0.284 C 
ATOM      9  H3  UNL d   1      -4.063  -2.395   5.044  0.00  0.00     0.395 HD
ENDBRANCH   1   7
TORSDOF 1
ENDMDL
