MODEL 1
REMARK minimizedAffinity -2.17888308
REMARK minimizedRMSD -1
REMARK  1 active torsions:
REMARK  status: ('A' for Active; 'I' for Inactive)
REMARK    1  A    between atoms: N_2  and  C1_3 
ROOT
ATOM      1  C1  UNL d   1      -1.412   0.560   1.136  0.00  0.00     0.143 A 
ATOM      2  C2  UNL d   1      -2.301  -0.143   1.955  0.00  0.00    -0.057 A 
ATOM      3  C3  UNL d   1      -2.733   0.384   3.178  0.00  0.00     0.033 A 
ATOM      4  C4  UNL d   1      -2.257   1.615   3.619  0.00  0.00    -0.042 A 
ATOM      5  C5  UNL d   1      -1.353   2.320   2.832  0.00  0.00     0.033 A 
ATOM      6  C6  UNL d   1      -0.931   1.792   1.609  0.00  0.00    -0.057 A 
ENDROOT
BRANCH   1   7
ATOM      7  N   UNL d   1      -0.870   0.046  -0.045  0.00  0.00    -0.732 N 
ATOM      8  C   UNL d   1       0.321  -0.776  -0.012  0.00  0.00     0.284 C 
ATOM      9  H3  UNL d   1      -1.585  -0.282  -0.690  0.00  0.00     0.395 HD
ENDBRANCH   1   7
TORSDOF 1
ENDMDL
