MODEL 1
REMARK minimizedAffinity -4.16138649
REMARK minimizedRMSD -1
REMARK  1 active torsions:
REMARK  status: ('A' for Active; 'I' for Inactive)
REMARK    1  A    between atoms: N_2  and  C1_3 
ROOT
ATOM      1  C1  UNL d   1      -1.060   0.250   0.278  0.00  0.00     0.143 A 
ATOM      2  C2  UNL d   1       0.197   0.794  -0.005  0.00  0.00    -0.057 A 
ATOM      3  C3  UNL d   1       1.273  -0.020  -0.379  0.00  0.00     0.033 A 
ATOM      4  C4  UNL d   1       1.117  -1.400  -0.450  0.00  0.00    -0.042 A 
ATOM      5  C5  UNL d   1      -0.117  -1.965  -0.149  0.00  0.00     0.033 A 
ATOM      6  C6  UNL d   1      -1.189  -1.146   0.218  0.00  0.00    -0.057 A 
ENDROOT
BRANCH   1   7
ATOM      7  N   UNL d   1      -2.142   0.996   0.751  0.00  0.00    -0.732 N 
ATOM      8  C   UNL d   1      -2.183   1.447   2.125  0.00  0.00     0.284 C 
ATOM      9  H3  UNL d   1      -2.461   1.689   0.076  0.00  0.00     0.395 HD
ENDBRANCH   1   7
TORSDOF 1
ENDMDL
