MODEL 1
REMARK minimizedAffinity -5.09911728
REMARK minimizedRMSD -1
REMARK  1 active torsions:
REMARK  status: ('A' for Active; 'I' for Inactive)
REMARK    1  A    between atoms: N_2  and  C1_3 
ROOT
ATOM      1  C1  UNL d   1       1.074  -0.069  -0.775  0.00  0.00     0.143 A 
ATOM      2  C2  UNL d   1       2.208  -0.815  -1.116  0.00  0.00    -0.057 A 
ATOM      3  C3  UNL d   1       3.174  -0.307  -1.993  0.00  0.00     0.033 A 
ATOM      4  C4  UNL d   1       3.009   0.948  -2.569  0.00  0.00    -0.042 A 
ATOM      5  C5  UNL d   1       1.877   1.696  -2.264  0.00  0.00     0.033 A 
ATOM      6  C6  UNL d   1       0.919   1.187  -1.383  0.00  0.00    -0.057 A 
ENDROOT
BRANCH   1   7
ATOM      7  N   UNL d   1       0.029  -0.558   0.013  0.00  0.00    -0.732 N 
ATOM      8  C   UNL d   1      -1.135   0.257   0.282  0.00  0.00     0.284 C 
ATOM      9  H3  UNL d   1      -0.183  -1.534  -0.185  0.00  0.00     0.395 HD
ENDBRANCH   1   7
TORSDOF 1
ENDMDL
