MODEL 1
REMARK minimizedAffinity -2.86726332
REMARK minimizedRMSD -1
REMARK  1 active torsions:
REMARK  status: ('A' for Active; 'I' for Inactive)
REMARK    1  A    between atoms: N_2  and  C1_3 
ROOT
ATOM      1  C1  UNL d   1      -0.675  -0.300  -0.149  0.00  0.00     0.143 A 
ATOM      2  C2  UNL d   1       0.156   0.582  -0.847  0.00  0.00    -0.057 A 
ATOM      3  C3  UNL d   1       1.269   0.120  -1.561  0.00  0.00     0.033 A 
ATOM      4  C4  UNL d   1       1.586  -1.235  -1.566  0.00  0.00    -0.042 A 
ATOM      5  C5  UNL d   1       0.787  -2.127  -0.859  0.00  0.00     0.033 A 
ATOM      6  C6  UNL d   1      -0.326  -1.660  -0.153  0.00  0.00    -0.057 A 
ENDROOT
BRANCH   1   7
ATOM      7  N   UNL d   1      -1.738   0.108   0.660  0.00  0.00    -0.732 N 
ATOM      8  C   UNL d   1      -1.494   0.661   1.975  0.00  0.00     0.284 C 
ATOM      9  H3  UNL d   1      -2.463   0.592   0.134  0.00  0.00     0.395 HD
ENDBRANCH   1   7
TORSDOF 1
ENDMDL
