MODEL 1
REMARK minimizedAffinity -4.68364573
REMARK minimizedRMSD -1
REMARK  1 active torsions:
REMARK  status: ('A' for Active; 'I' for Inactive)
REMARK    1  A    between atoms: N_2  and  C1_3 
ROOT
ATOM      1  C1  UNL d   1      -0.266   0.172  -0.144  0.00  0.00     0.143 A 
ATOM      2  C2  UNL d   1       0.784   0.850  -0.773  0.00  0.00    -0.057 A 
ATOM      3  C3  UNL d   1       1.937   0.175  -1.191  0.00  0.00     0.033 A 
ATOM      4  C4  UNL d   1       2.073  -1.190  -0.962  0.00  0.00    -0.042 A 
ATOM      5  C5  UNL d   1       1.053  -1.880  -0.316  0.00  0.00     0.033 A 
ATOM      6  C6  UNL d   1      -0.099  -1.201   0.094  0.00  0.00    -0.057 A 
ENDROOT
BRANCH   1   7
ATOM      7  N   UNL d   1      -1.395   0.804   0.383  0.00  0.00    -0.732 N 
ATOM      8  C   UNL d   1      -1.954   0.379   1.649  0.00  0.00     0.284 C 
ATOM      9  H3  UNL d   1      -1.369   1.814   0.259  0.00  0.00     0.395 HD
ENDBRANCH   1   7
TORSDOF 1
ENDMDL
