MODEL 1
REMARK minimizedAffinity -3.70173097
REMARK minimizedRMSD -1
REMARK  1 active torsions:
REMARK  status: ('A' for Active; 'I' for Inactive)
REMARK    1  A    between atoms: N_2  and  C1_3 
ROOT
ATOM      1  C1  UNL d   1       1.324  -0.064  -0.402  0.00  0.00     0.143 A 
ATOM      2  C2  UNL d   1       0.733   1.168  -0.700  0.00  0.00    -0.057 A 
ATOM      3  C3  UNL d   1      -0.614   1.418  -0.408  0.00  0.00     0.033 A 
ATOM      4  C4  UNL d   1      -1.403   0.425   0.163  0.00  0.00    -0.042 A 
ATOM      5  C5  UNL d   1      -0.843  -0.816   0.445  0.00  0.00     0.033 A 
ATOM      6  C6  UNL d   1       0.504  -1.057   0.157  0.00  0.00    -0.057 A 
ENDROOT
BRANCH   1   7
ATOM      7  N   UNL d   1       2.631  -0.406  -0.757  0.00  0.00    -0.732 N 
ATOM      8  C   UNL d   1       2.881  -1.385  -1.793  0.00  0.00     0.284 C 
ATOM      9  H3  UNL d   1       3.248   0.402  -0.791  0.00  0.00     0.395 HD
ENDBRANCH   1   7
TORSDOF 1
ENDMDL
