MODEL 1
REMARK minimizedAffinity -5.04434681
REMARK minimizedRMSD -1
REMARK  1 active torsions:
REMARK  status: ('A' for Active; 'I' for Inactive)
REMARK    1  A    between atoms: N_2  and  C1_3 
ROOT
ATOM      1  C1  UNL d   1       0.798  -0.246  -0.744  0.00  0.00     0.143 A 
ATOM      2  C2  UNL d   1       2.023  -0.895  -0.937  0.00  0.00    -0.057 A 
ATOM      3  C3  UNL d   1       2.990  -0.376  -1.807  0.00  0.00     0.033 A 
ATOM      4  C4  UNL d   1       2.736   0.788  -2.524  0.00  0.00    -0.042 A 
ATOM      5  C5  UNL d   1       1.516   1.435  -2.368  0.00  0.00     0.033 A 
ATOM      6  C6  UNL d   1       0.557   0.917  -1.492  0.00  0.00    -0.057 A 
ENDROOT
BRANCH   1   7
ATOM      7  N   UNL d   1      -0.242  -0.763   0.032  0.00  0.00    -0.732 N 
ATOM      8  C   UNL d   1      -1.186   0.120   0.682  0.00  0.00     0.284 C 
ATOM      9  H3  UNL d   1      -0.665  -1.589  -0.386  0.00  0.00     0.395 HD
ENDBRANCH   1   7
TORSDOF 1
ENDMDL
