MODEL 1
REMARK minimizedAffinity -5.44761276
REMARK minimizedRMSD -1
REMARK  1 active torsions:
REMARK  status: ('A' for Active; 'I' for Inactive)
REMARK    1  A    between atoms: N_2  and  C1_3 
ROOT
ATOM      1  C1  UNL d   1       0.094   0.519  -0.627  0.00  0.00     0.143 A 
ATOM      2  C2  UNL d   1       0.803  -0.669  -0.420  0.00  0.00    -0.057 A 
ATOM      3  C3  UNL d   1       2.057  -0.877  -1.006  0.00  0.00     0.033 A 
ATOM      4  C4  UNL d   1       2.613   0.091  -1.836  0.00  0.00    -0.042 A 
ATOM      5  C5  UNL d   1       1.915   1.270  -2.076  0.00  0.00     0.033 A 
ATOM      6  C6  UNL d   1       0.666   1.474  -1.482  0.00  0.00    -0.057 A 
ENDROOT
BRANCH   1   7
ATOM      7  N   UNL d   1      -1.200   0.745  -0.152  0.00  0.00    -0.732 N 
ATOM      8  C   UNL d   1      -1.579   0.330   1.182  0.00  0.00     0.284 C 
ATOM      9  H3  UNL d   1      -1.558   1.659  -0.420  0.00  0.00     0.395 HD
ENDBRANCH   1   7
TORSDOF 1
ENDMDL
