MODEL 1
REMARK minimizedAffinity -4.29897022
REMARK minimizedRMSD -1
REMARK  1 active torsions:
REMARK  status: ('A' for Active; 'I' for Inactive)
REMARK    1  A    between atoms: N_2  and  C1_3 
ROOT
ATOM      1  C1  UNL d   1      -0.477   0.016   0.035  0.00  0.00     0.143 A 
ATOM      2  C2  UNL d   1       0.712   0.658  -0.327  0.00  0.00    -0.057 A 
ATOM      3  C3  UNL d   1       1.792  -0.059  -0.855  0.00  0.00     0.033 A 
ATOM      4  C4  UNL d   1       1.712  -1.439  -1.004  0.00  0.00    -0.042 A 
ATOM      5  C5  UNL d   1       0.549  -2.102  -0.628  0.00  0.00     0.033 A 
ATOM      6  C6  UNL d   1      -0.529  -1.379  -0.107  0.00  0.00    -0.057 A 
ENDROOT
BRANCH   1   7
ATOM      7  N   UNL d   1      -1.550   0.660   0.657  0.00  0.00    -0.732 N 
ATOM      8  C   UNL d   1      -1.758   0.533   2.084  0.00  0.00     0.284 C 
ATOM      9  H3  UNL d   1      -1.702   1.599   0.297  0.00  0.00     0.395 HD
ENDBRANCH   1   7
TORSDOF 1
ENDMDL
