MODEL 1
REMARK minimizedAffinity -3.47895408
REMARK minimizedRMSD -1
REMARK  3 active torsions:
REMARK  status: ('A' for Active; 'I' for Inactive)
REMARK    1  A    between atoms: C3'_2  and  C2'_3 
REMARK    2  A    between atoms: C2'_3  and  C1'_4 
REMARK    3  A    between atoms: C1'_4  and  C1_5 
ROOT
ATOM      1  C1  N4B d   1      -1.658   0.117   1.836  0.00  0.00    -0.075 A 
ATOM      2  C2  N4B d   1      -3.029   0.088   1.497  0.00  0.00     0.002 A 
ATOM      3  C3  N4B d   1      -3.940   0.778   2.259  0.00  0.00     0.002 A 
ATOM      4  C4  N4B d   1      -3.507   1.486   3.370  0.00  0.00    -0.004 A 
ATOM      5  C5  N4B d   1      -2.178   1.530   3.676  0.00  0.00     0.002 A 
ATOM      6  C6  N4B d   1      -1.252   0.844   2.916  0.00  0.00     0.002 A 
ENDROOT
BRANCH   1   7
ATOM      7  C1' N4B d   1      -0.637  -0.691   1.083  0.00  0.00     0.057 C 
BRANCH   7   8
ATOM      8  C2' N4B d   1      -0.647  -0.271  -0.384  0.00  0.00     0.009 C 
BRANCH   8   9
ATOM      9  C3' N4B d   1       0.391   0.798  -0.675  0.00  0.00     0.004 C 
ATOM     10  C4' N4B d   1       1.376   0.380  -1.726  0.00  0.00     0.003 C 
ENDBRANCH   8   9
ENDBRANCH   7   8
ENDBRANCH   1   7
TORSDOF 3
ENDMDL
