MODEL 1
REMARK minimizedAffinity -1.80048251
REMARK minimizedRMSD -1
REMARK  3 active torsions:
REMARK  status: ('A' for Active; 'I' for Inactive)
REMARK    1  A    between atoms: C3'_2  and  C2'_3 
REMARK    2  A    between atoms: C2'_3  and  C1'_4 
REMARK    3  A    between atoms: C1'_4  and  C1_5 
ROOT
ATOM      1  C1  N4B d   1      -0.797  -0.537   0.377  0.00  0.00    -0.075 A 
ATOM      2  C2  N4B d   1      -0.575  -0.234  -0.984  0.00  0.00     0.002 A 
ATOM      3  C3  N4B d   1      -0.116  -1.207  -1.838  0.00  0.00     0.002 A 
ATOM      4  C4  N4B d   1       0.145  -2.479  -1.352  0.00  0.00    -0.004 A 
ATOM      5  C5  N4B d   1      -0.096  -2.770  -0.041  0.00  0.00     0.002 A 
ATOM      6  C6  N4B d   1      -0.562  -1.803   0.828  0.00  0.00     0.002 A 
ENDROOT
BRANCH   1   7
ATOM      7  C1' N4B d   1      -1.217   0.516   1.366  0.00  0.00     0.057 C 
BRANCH   7   8
ATOM      8  C2' N4B d   1      -2.610   0.182   1.892  0.00  0.00     0.009 C 
BRANCH   8   9
ATOM      9  C3' N4B d   1      -3.496   1.413   1.974  0.00  0.00     0.004 C 
ATOM     10  C4' N4B d   1      -3.199   2.264   3.173  0.00  0.00     0.003 C 
ENDBRANCH   8   9
ENDBRANCH   7   8
ENDBRANCH   1   7
TORSDOF 3
ENDMDL
