MODEL 1
REMARK minimizedAffinity -2.48910522
REMARK minimizedRMSD -1
REMARK  3 active torsions:
REMARK  status: ('A' for Active; 'I' for Inactive)
REMARK    1  A    between atoms: C3'_2  and  C2'_3 
REMARK    2  A    between atoms: C2'_3  and  C1'_4 
REMARK    3  A    between atoms: C1'_4  and  C1_5 
ROOT
ATOM      1  C1  N4B d   1      -0.579   0.188   0.822  0.00  0.00    -0.075 A 
ATOM      2  C2  N4B d   1      -0.476  -1.219   0.771  0.00  0.00     0.002 A 
ATOM      3  C3  N4B d   1       0.186  -1.822  -0.271  0.00  0.00     0.002 A 
ATOM      4  C4  N4B d   1       0.734  -1.042  -1.278  0.00  0.00    -0.004 A 
ATOM      5  C5  N4B d   1       0.652   0.318  -1.208  0.00  0.00     0.002 A 
ATOM      6  C6  N4B d   1      -0.007   0.937  -0.165  0.00  0.00     0.002 A 
ENDROOT
BRANCH   1   7
ATOM      7  C1' N4B d   1      -1.366   0.889   1.895  0.00  0.00     0.057 C 
BRANCH   7   8
ATOM      8  C2' N4B d   1      -2.851   0.594   1.700  0.00  0.00     0.009 C 
BRANCH   8   9
ATOM      9  C3' N4B d   1      -3.712   1.816   1.969  0.00  0.00     0.004 C 
ATOM     10  C4' N4B d   1      -3.233   2.619   3.141  0.00  0.00     0.003 C 
ENDBRANCH   8   9
ENDBRANCH   7   8
ENDBRANCH   1   7
TORSDOF 3
ENDMDL
