MODEL 1
REMARK minimizedAffinity -4.7481761
REMARK minimizedRMSD -1
REMARK  3 active torsions:
REMARK  status: ('A' for Active; 'I' for Inactive)
REMARK    1  A    between atoms: C3'_2  and  C2'_3 
REMARK    2  A    between atoms: C2'_3  and  C1'_4 
REMARK    3  A    between atoms: C1'_4  and  C1_5 
ROOT
ATOM      1  C1  N4B d   1       0.233  -0.025  -0.072  0.00  0.00    -0.075 A 
ATOM      2  C2  N4B d   1       1.066   1.049  -0.453  0.00  0.00     0.002 A 
ATOM      3  C3  N4B d   1       1.662   1.051  -1.690  0.00  0.00     0.002 A 
ATOM      4  C4  N4B d   1       1.454  -0.015  -2.553  0.00  0.00    -0.004 A 
ATOM      5  C5  N4B d   1       0.627  -1.036  -2.187  0.00  0.00     0.002 A 
ATOM      6  C6  N4B d   1       0.019  -1.050  -0.948  0.00  0.00     0.002 A 
ENDROOT
BRANCH   1   7
ATOM      7  C1' N4B d   1      -0.371  -0.113   1.303  0.00  0.00     0.057 C 
BRANCH   7   8
ATOM      8  C2' N4B d   1      -0.127   1.199   2.042  0.00  0.00     0.009 C 
BRANCH   8   9
ATOM      9  C3' N4B d   1       0.847   1.030   3.196  0.00  0.00     0.004 C 
ATOM     10  C4' N4B d   1       1.875   2.120   3.253  0.00  0.00     0.003 C 
ENDBRANCH   8   9
ENDBRANCH   7   8
ENDBRANCH   1   7
TORSDOF 3
ENDMDL
