MODEL 1
REMARK minimizedAffinity -5.59498787
REMARK minimizedRMSD -1
REMARK  3 active torsions:
REMARK  status: ('A' for Active; 'I' for Inactive)
REMARK    1  A    between atoms: C3'_2  and  C2'_3 
REMARK    2  A    between atoms: C2'_3  and  C1'_4 
REMARK    3  A    between atoms: C1'_4  and  C1_5 
ROOT
ATOM      1  C1  N4B d   1       0.275   0.002  -0.155  0.00  0.00    -0.075 A 
ATOM      2  C2  N4B d   1       1.020   1.122  -0.583  0.00  0.00     0.002 A 
ATOM      3  C3  N4B d   1       1.775   1.048  -1.728  0.00  0.00     0.002 A 
ATOM      4  C4  N4B d   1       1.816  -0.137  -2.447  0.00  0.00    -0.004 A 
ATOM      5  C5  N4B d   1       1.074  -1.207  -2.041  0.00  0.00     0.002 A 
ATOM      6  C6  N4B d   1       0.307  -1.145  -0.894  0.00  0.00     0.002 A 
ENDROOT
BRANCH   1   7
ATOM      7  C1' N4B d   1      -0.497   0.007   1.136  0.00  0.00     0.057 C 
BRANCH   7   8
ATOM      8  C2' N4B d   1      -1.991  -0.029   0.826  0.00  0.00     0.009 C 
BRANCH   8   9
ATOM      9  C3' N4B d   1      -2.834  -0.018   2.090  0.00  0.00     0.004 C 
ATOM     10  C4' N4B d   1      -4.151   0.675   1.903  0.00  0.00     0.003 C 
ENDBRANCH   8   9
ENDBRANCH   7   8
ENDBRANCH   1   7
TORSDOF 3
ENDMDL
