MODEL 1
REMARK minimizedAffinity -1.01439333
REMARK minimizedRMSD -1
REMARK  3 active torsions:
REMARK  status: ('A' for Active; 'I' for Inactive)
REMARK    1  A    between atoms: C3'_2  and  C2'_3 
REMARK    2  A    between atoms: C2'_3  and  C1'_4 
REMARK    3  A    between atoms: C1'_4  and  C1_5 
ROOT
ATOM      1  C1  N4B d   1      -3.415  -2.974  -3.252  0.00  0.00    -0.075 A 
ATOM      2  C2  N4B d   1      -4.211  -2.188  -4.113  0.00  0.00     0.002 A 
ATOM      3  C3  N4B d   1      -4.291  -2.498  -5.448  0.00  0.00     0.002 A 
ATOM      4  C4  N4B d   1      -3.571  -3.574  -5.947  0.00  0.00    -0.004 A 
ATOM      5  C5  N4B d   1      -2.824  -4.344  -5.103  0.00  0.00     0.002 A 
ATOM      6  C6  N4B d   1      -2.738  -4.046  -3.758  0.00  0.00     0.002 A 
ENDROOT
BRANCH   1   7
ATOM      7  C1' N4B d   1      -3.228  -2.623  -1.801  0.00  0.00     0.057 C 
BRANCH   7   8
ATOM      8  C2' N4B d   1      -4.378  -1.727  -1.351  0.00  0.00     0.009 C 
BRANCH   8   9
ATOM      9  C3' N4B d   1      -4.316  -1.426   0.137  0.00  0.00     0.004 C 
ATOM     10  C4' N4B d   1      -4.350   0.043   0.434  0.00  0.00     0.003 C 
ENDBRANCH   8   9
ENDBRANCH   7   8
ENDBRANCH   1   7
TORSDOF 3
ENDMDL
