MODEL 1
REMARK minimizedAffinity 0.197769254
REMARK minimizedRMSD -1
REMARK  3 active torsions:
REMARK  status: ('A' for Active; 'I' for Inactive)
REMARK    1  A    between atoms: C3'_2  and  C2'_3 
REMARK    2  A    between atoms: C2'_3  and  C1'_4 
REMARK    3  A    between atoms: C1'_4  and  C1_5 
ROOT
ATOM      1  C1  N4B d   1      -1.525   1.293   3.330  0.00  0.00    -0.075 A 
ATOM      2  C2  N4B d   1      -2.705   0.520   3.281  0.00  0.00     0.002 A 
ATOM      3  C3  N4B d   1      -3.927   1.119   3.467  0.00  0.00     0.002 A 
ATOM      4  C4  N4B d   1      -3.991   2.481   3.720  0.00  0.00    -0.004 A 
ATOM      5  C5  N4B d   1      -2.847   3.225   3.740  0.00  0.00     0.002 A 
ATOM      6  C6  N4B d   1      -1.613   2.637   3.551  0.00  0.00     0.002 A 
ENDROOT
BRANCH   1   7
ATOM      7  C1' N4B d   1      -0.161   0.668   3.218  0.00  0.00     0.057 C 
BRANCH   7   8
ATOM      8  C2' N4B d   1      -0.112  -0.206   1.969  0.00  0.00     0.009 C 
BRANCH   8   9
ATOM      9  C3' N4B d   1       0.304   0.583   0.739  0.00  0.00     0.004 C 
ATOM     10  C4' N4B d   1       0.712  -0.296  -0.405  0.00  0.00     0.003 C 
ENDBRANCH   8   9
ENDBRANCH   7   8
ENDBRANCH   1   7
TORSDOF 3
ENDMDL
