MODEL 1
REMARK minimizedAffinity -3.70384979
REMARK minimizedRMSD -1
REMARK  0 active torsions:
REMARK  status: ('A' for Active; 'I' for Inactive)
ROOT
ATOM      1  C   UNL d   1       0.184   1.754  -0.855  0.00  0.00     0.078 C 
ATOM      2  C1  UNL d   1      -0.034   0.366  -0.331  0.00  0.00    -0.077 A 
ATOM      3  C2  UNL d   1      -0.859   0.134   0.776  0.00  0.00    -0.001 A 
ATOM      4  C3  UNL d   1      -1.046  -1.162   1.259  0.00  0.00     0.003 A 
ATOM      5  C4  UNL d   1      -0.410  -2.237   0.641  0.00  0.00    -0.005 A 
ATOM      6  C5  UNL d   1       0.415  -2.016  -0.460  0.00  0.00     0.003 A 
ATOM      7  C6  UNL d   1       0.602  -0.720  -0.945  0.00  0.00    -0.001 A 
ENDROOT
TORSDOF 0
ENDMDL
