MODEL 1
REMARK minimizedAffinity -3.39923429
REMARK minimizedRMSD -1
REMARK  0 active torsions:
REMARK  status: ('A' for Active; 'I' for Inactive)
ROOT
ATOM      1  C   UNL d   1       0.420   1.314  -0.388  0.00  0.00     0.078 C 
ATOM      2  C1  UNL d   1      -0.182   0.042   0.130  0.00  0.00    -0.077 A 
ATOM      3  C2  UNL d   1       0.134  -1.194  -0.449  0.00  0.00    -0.001 A 
ATOM      4  C3  UNL d   1      -0.441  -2.369   0.037  0.00  0.00     0.003 A 
ATOM      5  C4  UNL d   1      -1.337  -2.320   1.104  0.00  0.00    -0.005 A 
ATOM      6  C5  UNL d   1      -1.659  -1.095   1.685  0.00  0.00     0.003 A 
ATOM      7  C6  UNL d   1      -1.085   0.081   1.200  0.00  0.00    -0.001 A 
ENDROOT
TORSDOF 0
ENDMDL
