MODEL 1
REMARK minimizedAffinity -4.45025826
REMARK minimizedRMSD -1
REMARK  0 active torsions:
REMARK  status: ('A' for Active; 'I' for Inactive)
ROOT
ATOM      1  C   UNL d   1      -0.011  -3.187   0.790  0.00  0.00     0.078 C 
ATOM      2  C1  UNL d   1       0.036  -1.727   0.452  0.00  0.00    -0.077 A 
ATOM      3  C2  UNL d   1      -0.582  -0.776   1.273  0.00  0.00    -0.001 A 
ATOM      4  C3  UNL d   1      -0.539   0.579   0.941  0.00  0.00     0.003 A 
ATOM      5  C4  UNL d   1       0.121   0.996  -0.214  0.00  0.00    -0.005 A 
ATOM      6  C5  UNL d   1       0.737   0.057  -1.038  0.00  0.00     0.003 A 
ATOM      7  C6  UNL d   1       0.694  -1.299  -0.708  0.00  0.00    -0.001 A 
ENDROOT
TORSDOF 0
ENDMDL
