MODEL 1
REMARK minimizedAffinity -3.14978814
REMARK minimizedRMSD -1
REMARK  0 active torsions:
REMARK  status: ('A' for Active; 'I' for Inactive)
ROOT
ATOM      1  C   UNL d   1       0.088  -3.133   0.548  0.00  0.00     0.078 C 
ATOM      2  C1  UNL d   1       0.024  -1.638   0.441  0.00  0.00    -0.077 A 
ATOM      3  C2  UNL d   1       0.774  -0.951  -0.520  0.00  0.00    -0.001 A 
ATOM      4  C3  UNL d   1       0.712   0.441  -0.602  0.00  0.00     0.003 A 
ATOM      5  C4  UNL d   1      -0.099   1.158   0.276  0.00  0.00    -0.005 A 
ATOM      6  C5  UNL d   1      -0.848   0.483   1.238  0.00  0.00     0.003 A 
ATOM      7  C6  UNL d   1      -0.787  -0.909   1.321  0.00  0.00    -0.001 A 
ENDROOT
TORSDOF 0
ENDMDL
