MODEL 1
REMARK minimizedAffinity -3.30451775
REMARK minimizedRMSD -1
REMARK  0 active torsions:
REMARK  status: ('A' for Active; 'I' for Inactive)
ROOT
ATOM      1  C   UNL d   1      -0.577  -3.371   0.452  0.00  0.00     0.078 C 
ATOM      2  C1  UNL d   1      -0.587  -1.877   0.328  0.00  0.00    -0.077 A 
ATOM      3  C2  UNL d   1      -1.220  -1.077   1.287  0.00  0.00    -0.001 A 
ATOM      4  C3  UNL d   1      -1.229   0.312   1.153  0.00  0.00     0.003 A 
ATOM      5  C4  UNL d   1      -0.609   0.914   0.061  0.00  0.00    -0.005 A 
ATOM      6  C5  UNL d   1       0.021   0.127  -0.901  0.00  0.00     0.003 A 
ATOM      7  C6  UNL d   1       0.032  -1.263  -0.768  0.00  0.00    -0.001 A 
ENDROOT
TORSDOF 0
ENDMDL
