MODEL 1
REMARK minimizedAffinity -4.90572309
REMARK minimizedRMSD -1
REMARK  0 active torsions:
REMARK  status: ('A' for Active; 'I' for Inactive)
ROOT
ATOM      1  C   UNL d   1       0.296  -3.063   0.506  0.00  0.00     0.078 C 
ATOM      2  C1  UNL d   1       0.105  -1.663   0.003  0.00  0.00    -0.077 A 
ATOM      3  C2  UNL d   1       0.549  -1.288  -1.271  0.00  0.00    -0.001 A 
ATOM      4  C3  UNL d   1       0.374   0.021  -1.722  0.00  0.00     0.003 A 
ATOM      5  C4  UNL d   1      -0.244   0.966  -0.906  0.00  0.00    -0.005 A 
ATOM      6  C5  UNL d   1      -0.687   0.603   0.365  0.00  0.00     0.003 A 
ATOM      7  C6  UNL d   1      -0.512  -0.706   0.818  0.00  0.00    -0.001 A 
ENDROOT
TORSDOF 0
ENDMDL
