MODEL 1
REMARK minimizedAffinity -4.65679312
REMARK minimizedRMSD -1
REMARK  0 active torsions:
REMARK  status: ('A' for Active; 'I' for Inactive)
ROOT
ATOM      1  C   UNL d   1       0.150  -0.018   0.356  0.00  0.00     0.078 C 
ATOM      2  C1  UNL d   1       0.777   1.317   0.626  0.00  0.00    -0.077 A 
ATOM      3  C2  UNL d   1       1.775   1.461   1.598  0.00  0.00    -0.001 A 
ATOM      4  C3  UNL d   1       2.343   2.712   1.846  0.00  0.00     0.003 A 
ATOM      5  C4  UNL d   1       1.919   3.828   1.128  0.00  0.00    -0.005 A 
ATOM      6  C5  UNL d   1       0.925   3.694   0.160  0.00  0.00     0.003 A 
ATOM      7  C6  UNL d   1       0.356   2.445  -0.089  0.00  0.00    -0.001 A 
ENDROOT
TORSDOF 0
ENDMDL
