MODEL 1
REMARK minimizedAffinity -2.3473165
REMARK minimizedRMSD -1
REMARK  0 active torsions:
REMARK  status: ('A' for Active; 'I' for Inactive)
ROOT
ATOM      1  C   UNL d   1      -0.125   1.596  -0.234  0.00  0.00     0.078 C 
ATOM      2  C1  UNL d   1       0.276   0.218  -0.667  0.00  0.00    -0.077 A 
ATOM      3  C2  UNL d   1       0.559  -0.063  -2.009  0.00  0.00    -0.001 A 
ATOM      4  C3  UNL d   1       0.922  -1.353  -2.400  0.00  0.00     0.003 A 
ATOM      5  C4  UNL d   1       1.004  -2.373  -1.454  0.00  0.00    -0.005 A 
ATOM      6  C5  UNL d   1       0.723  -2.103  -0.116  0.00  0.00     0.003 A 
ATOM      7  C6  UNL d   1       0.360  -0.814   0.276  0.00  0.00    -0.001 A 
ENDROOT
TORSDOF 0
ENDMDL
