MODEL 1
REMARK minimizedAffinity -3.08335066
REMARK minimizedRMSD -1
REMARK  0 active torsions:
REMARK  status: ('A' for Active; 'I' for Inactive)
ROOT
ATOM      1  C   UNL d   1       0.680  -2.927  -0.067  0.00  0.00     0.078 C 
ATOM      2  C1  UNL d   1       0.252  -1.544  -0.460  0.00  0.00    -0.077 A 
ATOM      3  C2  UNL d   1       0.511  -1.046  -1.743  0.00  0.00    -0.001 A 
ATOM      4  C3  UNL d   1       0.115   0.246  -2.091  0.00  0.00     0.003 A 
ATOM      5  C4  UNL d   1      -0.540   1.052  -1.162  0.00  0.00    -0.005 A 
ATOM      6  C5  UNL d   1      -0.800   0.566   0.117  0.00  0.00     0.003 A 
ATOM      7  C6  UNL d   1      -0.405  -0.726   0.468  0.00  0.00    -0.001 A 
ENDROOT
TORSDOF 0
ENDMDL
