MODEL 1
REMARK minimizedAffinity -4.36969614
REMARK minimizedRMSD -1
REMARK  0 active torsions:
REMARK  status: ('A' for Active; 'I' for Inactive)
ROOT
ATOM      1  C   UNL d   1       0.123  -3.170   0.195  0.00  0.00     0.078 C 
ATOM      2  C1  UNL d   1      -0.015  -1.690  -0.004  0.00  0.00    -0.077 A 
ATOM      3  C2  UNL d   1       0.482  -1.067  -1.155  0.00  0.00    -0.001 A 
ATOM      4  C3  UNL d   1       0.355   0.313  -1.321  0.00  0.00     0.003 A 
ATOM      5  C4  UNL d   1      -0.268   1.082  -0.341  0.00  0.00    -0.005 A 
ATOM      6  C5  UNL d   1      -0.765   0.471   0.809  0.00  0.00     0.003 A 
ATOM      7  C6  UNL d   1      -0.639  -0.909   0.978  0.00  0.00    -0.001 A 
ENDROOT
TORSDOF 0
ENDMDL
