MODEL 1
REMARK minimizedAffinity -3.88403654
REMARK minimizedRMSD -1
REMARK  0 active torsions:
REMARK  status: ('A' for Active; 'I' for Inactive)
ROOT
ATOM      1  C   UNL d   1       0.538   1.455   0.037  0.00  0.00     0.078 C 
ATOM      2  C1  UNL d   1      -0.058   0.080   0.000  0.00  0.00    -0.077 A 
ATOM      3  C2  UNL d   1      -0.576  -0.512   1.158  0.00  0.00    -0.001 A 
ATOM      4  C3  UNL d   1      -1.120  -1.797   1.112  0.00  0.00     0.003 A 
ATOM      5  C4  UNL d   1      -1.148  -2.502  -0.090  0.00  0.00    -0.005 A 
ATOM      6  C5  UNL d   1      -0.632  -1.922  -1.248  0.00  0.00     0.003 A 
ATOM      7  C6  UNL d   1      -0.089  -0.637  -1.203  0.00  0.00    -0.001 A 
ENDROOT
TORSDOF 0
ENDMDL
