MODEL 1
REMARK minimizedAffinity -4.75151157
REMARK minimizedRMSD -1
REMARK  0 active torsions:
REMARK  status: ('A' for Active; 'I' for Inactive)
ROOT
ATOM      1  C   UNL d   1       0.368  -3.652   0.087  0.00  0.00     0.078 C 
ATOM      2  C1  UNL d   1       0.016  -2.195   0.105  0.00  0.00    -0.077 A 
ATOM      3  C2  UNL d   1      -0.860  -1.675   1.065  0.00  0.00    -0.001 A 
ATOM      4  C3  UNL d   1      -1.186  -0.318   1.063  0.00  0.00     0.003 A 
ATOM      5  C4  UNL d   1      -0.641   0.531   0.102  0.00  0.00    -0.005 A 
ATOM      6  C5  UNL d   1       0.230   0.023  -0.859  0.00  0.00     0.003 A 
ATOM      7  C6  UNL d   1       0.557  -1.334  -0.859  0.00  0.00    -0.001 A 
ENDROOT
TORSDOF 0
ENDMDL
