MODEL 1
REMARK minimizedAffinity -4.1800499
REMARK minimizedRMSD -1
REMARK  0 active torsions:
REMARK  status: ('A' for Active; 'I' for Inactive)
ROOT
ATOM      1  C   UNL d   1       0.357  -2.982   0.143  0.00  0.00     0.078 C 
ATOM      2  C1  UNL d   1       0.079  -1.510   0.089  0.00  0.00    -0.077 A 
ATOM      3  C2  UNL d   1      -0.780  -0.903   1.014  0.00  0.00    -0.001 A 
ATOM      4  C3  UNL d   1      -1.037   0.467   0.946  0.00  0.00     0.003 A 
ATOM      5  C4  UNL d   1      -0.440   1.242  -0.047  0.00  0.00    -0.005 A 
ATOM      6  C5  UNL d   1       0.414   0.647  -0.973  0.00  0.00     0.003 A 
ATOM      7  C6  UNL d   1       0.672  -0.723  -0.906  0.00  0.00    -0.001 A 
ENDROOT
TORSDOF 0
ENDMDL
