MODEL 1
REMARK minimizedAffinity 3.63416982
REMARK minimizedRMSD -1
REMARK  2 active torsions:
REMARK  status: ('A' for Active; 'I' for Inactive)
REMARK    1  A    between atoms: C2'_3  and  C1'_4 
REMARK    2  A    between atoms: C1'_4  and  C1_5 
ROOT
ATOM      1  C1  I4B d   1      -1.047  -2.525   0.781  0.00  0.00    -0.075 A 
ATOM      2  C2  I4B d   1      -2.317  -2.624   0.270  0.00  0.00     0.003 A 
ATOM      3  C3  I4B d   1      -2.631  -3.638  -0.667  0.00  0.00     0.002 A 
ATOM      4  C4  I4B d   1      -1.639  -4.494  -1.101  0.00  0.00    -0.004 A 
ATOM      5  C5  I4B d   1      -0.357  -4.406  -0.564  0.00  0.00     0.002 A 
ATOM      6  C6  I4B d   1      -0.062  -3.423   0.392  0.00  0.00     0.003 A 
ENDROOT
BRANCH   1   7
ATOM      7  C1' I4B d   1      -0.743  -1.421   1.744  0.00  0.00     0.060 C 
BRANCH   7   8
ATOM      8  C2' I4B d   1       0.601  -0.832   1.368  0.00  0.00    -0.013 C 
ATOM      9  C4' I4B d   1       0.485   0.637   1.058  0.00  0.00     0.013 C 
ATOM     10  C3' I4B d   1       1.547  -1.071   2.507  0.00  0.00     0.013 C 
ENDBRANCH   7   8
ENDBRANCH   1   7
TORSDOF 2
ENDMDL
