MODEL 1
REMARK minimizedAffinity 4.35703468
REMARK minimizedRMSD -1
REMARK  2 active torsions:
REMARK  status: ('A' for Active; 'I' for Inactive)
REMARK    1  A    between atoms: C2'_3  and  C1'_4 
REMARK    2  A    between atoms: C1'_4  and  C1_5 
ROOT
ATOM      1  C1  I4B d   1      -0.910  -4.386  -1.784  0.00  0.00    -0.075 A 
ATOM      2  C2  I4B d   1      -1.517  -5.418  -1.113  0.00  0.00     0.003 A 
ATOM      3  C3  I4B d   1      -2.627  -5.166  -0.270  0.00  0.00     0.002 A 
ATOM      4  C4  I4B d   1      -3.062  -3.869  -0.090  0.00  0.00    -0.004 A 
ATOM      5  C5  I4B d   1      -2.460  -2.826  -0.789  0.00  0.00     0.002 A 
ATOM      6  C6  I4B d   1      -1.385  -3.088  -1.651  0.00  0.00     0.003 A 
ENDROOT
BRANCH   1   7
ATOM      7  C1' I4B d   1       0.280  -4.684  -2.639  0.00  0.00     0.060 C 
BRANCH   7   8
ATOM      8  C2' I4B d   1       1.306  -5.395  -1.780  0.00  0.00    -0.013 C 
ATOM      9  C4' I4B d   1       2.400  -5.996  -2.623  0.00  0.00     0.013 C 
ATOM     10  C3' I4B d   1       1.860  -4.402  -0.802  0.00  0.00     0.013 C 
ENDBRANCH   7   8
ENDBRANCH   1   7
TORSDOF 2
ENDMDL
