MODEL 1
REMARK minimizedAffinity 2.77559757
REMARK minimizedRMSD -1
REMARK  2 active torsions:
REMARK  status: ('A' for Active; 'I' for Inactive)
REMARK    1  A    between atoms: C2'_3  and  C1'_4 
REMARK    2  A    between atoms: C1'_4  and  C1_5 
ROOT
ATOM      1  C1  I4B d   1       0.587  -0.824   1.948  0.00  0.00    -0.075 A 
ATOM      2  C2  I4B d   1       0.427  -0.097   3.101  0.00  0.00     0.003 A 
ATOM      3  C3  I4B d   1       1.088  -0.491   4.289  0.00  0.00     0.002 A 
ATOM      4  C4  I4B d   1       1.853  -1.640   4.293  0.00  0.00    -0.004 A 
ATOM      5  C5  I4B d   1       2.032  -2.363   3.117  0.00  0.00     0.002 A 
ATOM      6  C6  I4B d   1       1.405  -1.946   1.934  0.00  0.00     0.003 A 
ENDROOT
BRANCH   1   7
ATOM      7  C1' I4B d   1      -0.152  -0.398   0.719  0.00  0.00     0.060 C 
BRANCH   7   8
ATOM      8  C2' I4B d   1      -1.598  -0.823   0.872  0.00  0.00    -0.013 C 
ATOM      9  C4' I4B d   1      -2.536   0.307   0.539  0.00  0.00     0.013 C 
ATOM     10  C3' I4B d   1      -1.832  -2.003  -0.023  0.00  0.00     0.013 C 
ENDBRANCH   7   8
ENDBRANCH   1   7
TORSDOF 2
ENDMDL
