MODEL 1
REMARK minimizedAffinity 4.38197851
REMARK minimizedRMSD -1
REMARK  2 active torsions:
REMARK  status: ('A' for Active; 'I' for Inactive)
REMARK    1  A    between atoms: C2'_3  and  C1'_4 
REMARK    2  A    between atoms: C1'_4  and  C1_5 
ROOT
ATOM      1  C1  I4B d   1      -1.042  -0.199   0.480  0.00  0.00    -0.075 A 
ATOM      2  C2  I4B d   1      -1.646  -1.431   0.456  0.00  0.00     0.003 A 
ATOM      3  C3  I4B d   1      -0.910  -2.592   0.797  0.00  0.00     0.002 A 
ATOM      4  C4  I4B d   1       0.430  -2.481   1.105  0.00  0.00    -0.004 A 
ATOM      5  C5  I4B d   1       1.035  -1.229   1.151  0.00  0.00     0.002 A 
ATOM      6  C6  I4B d   1       0.292  -0.078   0.849  0.00  0.00     0.003 A 
ENDROOT
BRANCH   1   7
ATOM      7  C1' I4B d   1      -1.839   1.003   0.082  0.00  0.00     0.060 C 
BRANCH   7   8
ATOM      8  C2' I4B d   1      -1.355   2.178   0.906  0.00  0.00    -0.013 C 
ATOM      9  C4' I4B d   1      -0.338   2.992   0.150  0.00  0.00     0.013 C 
ATOM     10  C3' I4B d   1      -2.548   3.009   1.274  0.00  0.00     0.013 C 
ENDBRANCH   7   8
ENDBRANCH   1   7
TORSDOF 2
ENDMDL
