MODEL 1
REMARK minimizedAffinity 1.72803903
REMARK minimizedRMSD -1
REMARK  2 active torsions:
REMARK  status: ('A' for Active; 'I' for Inactive)
REMARK    1  A    between atoms: C2'_3  and  C1'_4 
REMARK    2  A    between atoms: C1'_4  and  C1_5 
ROOT
ATOM      1  C1  I4B d   1       5.989   3.685  -3.069  0.00  0.00    -0.075 A 
ATOM      2  C2  I4B d   1       6.000   5.020  -3.386  0.00  0.00     0.003 A 
ATOM      3  C3  I4B d   1       5.971   5.997  -2.362  0.00  0.00     0.002 A 
ATOM      4  C4  I4B d   1       5.881   5.598  -1.044  0.00  0.00    -0.004 A 
ATOM      5  C5  I4B d   1       5.893   4.243  -0.723  0.00  0.00     0.002 A 
ATOM      6  C6  I4B d   1       5.960   3.281  -1.740  0.00  0.00     0.003 A 
ENDROOT
BRANCH   1   7
ATOM      7  C1' I4B d   1       5.987   2.681  -4.177  0.00  0.00     0.060 C 
BRANCH   7   8
ATOM      8  C2' I4B d   1       5.393   1.394  -3.640  0.00  0.00    -0.013 C 
ATOM      9  C4' I4B d   1       3.890   1.407  -3.735  0.00  0.00     0.013 C 
ATOM     10  C3' I4B d   1       5.976   0.254  -4.421  0.00  0.00     0.013 C 
ENDBRANCH   7   8
ENDBRANCH   1   7
TORSDOF 2
ENDMDL
