MODEL 1
REMARK minimizedAffinity 2.55173564
REMARK minimizedRMSD -1
REMARK  2 active torsions:
REMARK  status: ('A' for Active; 'I' for Inactive)
REMARK    1  A    between atoms: C2'_3  and  C1'_4 
REMARK    2  A    between atoms: C1'_4  and  C1_5 
ROOT
ATOM      1  C1  I4B d   1       1.275  -1.875   2.094  0.00  0.00    -0.075 A 
ATOM      2  C2  I4B d   1       1.962  -0.793   2.584  0.00  0.00     0.003 A 
ATOM      3  C3  I4B d   1       1.696   0.505   2.085  0.00  0.00     0.002 A 
ATOM      4  C4  I4B d   1       0.778   0.668   1.068  0.00  0.00    -0.004 A 
ATOM      5  C5  I4B d   1       0.065  -0.427   0.589  0.00  0.00     0.002 A 
ATOM      6  C6  I4B d   1       0.306  -1.706   1.113  0.00  0.00     0.003 A 
ENDROOT
BRANCH   1   7
ATOM      7  C1' I4B d   1       1.604  -3.236   2.620  0.00  0.00     0.060 C 
BRANCH   7   8
ATOM      8  C2' I4B d   1       1.568  -3.173   4.133  0.00  0.00    -0.013 C 
ATOM      9  C4' I4B d   1       0.318  -3.813   4.676  0.00  0.00     0.013 C 
ATOM     10  C3' I4B d   1       2.797  -3.858   4.654  0.00  0.00     0.013 C 
ENDBRANCH   7   8
ENDBRANCH   1   7
TORSDOF 2
ENDMDL
