MODEL 1
REMARK minimizedAffinity 2.65196466
REMARK minimizedRMSD -1
REMARK  0 active torsions:
REMARK  status: ('A' for Active; 'I' for Inactive)
ROOT
ATOM      1  C   UNL d   1       4.873  -5.994   3.374  0.00  0.00     0.172 C 
ATOM      2  N   UNL d   1       5.109  -4.862   4.240  0.00  0.00    -0.070 N 
ATOM      3  C1  UNL d   1       5.604  -4.923   5.516  0.00  0.00    -0.004 A 
ATOM      4  C2  UNL d   1       5.681  -3.634   6.000  0.00  0.00    -0.047 A 
ATOM      5  C3  UNL d   1       5.216  -2.770   4.980  0.00  0.00    -0.047 A 
ATOM      6  C4  UNL d   1       4.869  -3.557   3.902  0.00  0.00    -0.004 A 
ENDROOT
TORSDOF 0
ENDMDL
