MODEL 1
REMARK minimizedAffinity 0.0172631331
REMARK minimizedRMSD -1
REMARK  0 active torsions:
REMARK  status: ('A' for Active; 'I' for Inactive)
ROOT
ATOM      1  C   UNL d   1      -0.073  -1.229   2.826  0.00  0.00     0.172 C 
ATOM      2  N   UNL d   1       0.711  -2.334   2.327  0.00  0.00    -0.070 N 
ATOM      3  C1  UNL d   1       0.388  -3.660   2.443  0.00  0.00    -0.004 A 
ATOM      4  C2  UNL d   1       1.388  -4.392   1.841  0.00  0.00    -0.047 A 
ATOM      5  C3  UNL d   1       2.345  -3.475   1.346  0.00  0.00    -0.047 A 
ATOM      6  C4  UNL d   1       1.902  -2.208   1.661  0.00  0.00    -0.004 A 
ENDROOT
TORSDOF 0
ENDMDL
