MODEL 1
REMARK minimizedAffinity -2.32993007
REMARK minimizedRMSD -1
REMARK  0 active torsions:
REMARK  status: ('A' for Active; 'I' for Inactive)
ROOT
ATOM      1  C   UNL d   1      -2.162   4.475   5.199  0.00  0.00     0.172 C 
ATOM      2  N   UNL d   1      -3.515   4.079   4.885  0.00  0.00    -0.070 N 
ATOM      3  C1  UNL d   1      -3.989   2.794   4.878  0.00  0.00    -0.004 A 
ATOM      4  C2  UNL d   1      -5.322   2.839   4.530  0.00  0.00    -0.047 A 
ATOM      5  C3  UNL d   1      -5.660   4.197   4.320  0.00  0.00    -0.047 A 
ATOM      6  C4  UNL d   1      -4.523   4.943   4.546  0.00  0.00    -0.004 A 
ENDROOT
TORSDOF 0
ENDMDL
