MODEL 1
REMARK minimizedAffinity 5.43571806
REMARK minimizedRMSD -1
REMARK  0 active torsions:
REMARK  status: ('A' for Active; 'I' for Inactive)
ROOT
ATOM      1  C   UNL d   1       0.659   0.332  -3.061  0.00  0.00     0.172 C 
ATOM      2  N   UNL d   1       0.675  -0.528  -1.902  0.00  0.00    -0.070 N 
ATOM      3  C1  UNL d   1       1.779  -0.839  -1.154  0.00  0.00    -0.004 A 
ATOM      4  C2  UNL d   1       1.379  -1.683  -0.141  0.00  0.00    -0.047 A 
ATOM      5  C3  UNL d   1      -0.014  -1.888  -0.285  0.00  0.00    -0.047 A 
ATOM      6  C4  UNL d   1      -0.424  -1.161  -1.384  0.00  0.00    -0.004 A 
ENDROOT
TORSDOF 0
ENDMDL
