MODEL 1
REMARK minimizedAffinity 0.595737696
REMARK minimizedRMSD -1
REMARK  0 active torsions:
REMARK  status: ('A' for Active; 'I' for Inactive)
ROOT
ATOM      1  C   UNL d   1      -4.183   4.928  -4.308  0.00  0.00     0.172 C 
ATOM      2  N   UNL d   1      -3.116   3.974  -4.122  0.00  0.00    -0.070 N 
ATOM      3  C1  UNL d   1      -1.958   3.919  -4.851  0.00  0.00    -0.004 A 
ATOM      4  C2  UNL d   1      -1.203   2.873  -4.366  0.00  0.00    -0.047 A 
ATOM      5  C3  UNL d   1      -1.933   2.278  -3.310  0.00  0.00    -0.047 A 
ATOM      6  C4  UNL d   1      -3.113   2.979  -3.180  0.00  0.00    -0.004 A 
ENDROOT
TORSDOF 0
ENDMDL
