MODEL 1
REMARK minimizedAffinity 1.2691344
REMARK minimizedRMSD -1
REMARK  0 active torsions:
REMARK  status: ('A' for Active; 'I' for Inactive)
ROOT
ATOM      1  C   UNL d   1       1.352   4.592  -5.999  0.00  0.00     0.172 C 
ATOM      2  N   UNL d   1       2.782   4.790  -5.969  0.00  0.00    -0.070 N 
ATOM      3  C1  UNL d   1       3.422   6.000  -5.999  0.00  0.00    -0.004 A 
ATOM      4  C2  UNL d   1       4.778   5.762  -5.954  0.00  0.00    -0.047 A 
ATOM      5  C3  UNL d   1       4.960   4.359  -5.895  0.00  0.00    -0.047 A 
ATOM      6  C4  UNL d   1       3.708   3.782  -5.906  0.00  0.00    -0.004 A 
ENDROOT
TORSDOF 0
ENDMDL
