MODEL 1
REMARK minimizedAffinity 9.39778805
REMARK minimizedRMSD -1
REMARK  0 active torsions:
REMARK  status: ('A' for Active; 'I' for Inactive)
ROOT
ATOM      1  O1  BZF d   1       1.264  -0.710   2.310  0.00  0.00    -0.204 OA
ATOM      2  C2  BZF d   1       1.008  -1.087   3.614  0.00  0.00     0.174 A 
ATOM      3  C3  BZF d   1      -0.295  -0.915   3.915  0.00  0.00    -0.012 A 
ATOM      4  C3A BZF d   1      -0.909  -0.485   2.696  0.00  0.00    -0.107 A 
ATOM      5  C4  BZF d   1      -2.192  -0.167   2.353  0.00  0.00     0.055 A 
ATOM      6  C5  BZF d   1      -2.447   0.287   1.098  0.00  0.00    -0.016 A 
ATOM      7  C6  BZF d   1      -1.443   0.440   0.164  0.00  0.00     0.022 A 
ATOM      8  C7  BZF d   1      -0.156   0.133   0.456  0.00  0.00     0.029 A 
ATOM      9  C7A BZF d   1       0.099  -0.357   1.714  0.00  0.00     0.058 A 
ENDROOT
TORSDOF 0
ENDMDL
