MODEL 1
REMARK minimizedAffinity -1.66874957
REMARK minimizedRMSD -1
REMARK  0 active torsions:
REMARK  status: ('A' for Active; 'I' for Inactive)
ROOT
ATOM      1  O1  BZF d   1       1.477   0.684  -4.072  0.00  0.00    -0.204 OA
ATOM      2  C2  BZF d   1       0.379   0.071  -4.644  0.00  0.00     0.174 A 
ATOM      3  C3  BZF d   1      -0.179  -0.807  -3.785  0.00  0.00    -0.012 A 
ATOM      4  C3A BZF d   1       0.565  -0.671  -2.571  0.00  0.00    -0.107 A 
ATOM      5  C4  BZF d   1       0.477  -1.266  -1.345  0.00  0.00     0.055 A 
ATOM      6  C5  BZF d   1       1.402  -0.963  -0.396  0.00  0.00    -0.016 A 
ATOM      7  C6  BZF d   1       2.429  -0.075  -0.641  0.00  0.00     0.022 A 
ATOM      8  C7  BZF d   1       2.554   0.544  -1.840  0.00  0.00     0.029 A 
ATOM      9  C7A BZF d   1       1.602   0.265  -2.790  0.00  0.00     0.058 A 
ENDROOT
TORSDOF 0
ENDMDL
