MODEL 1
REMARK minimizedAffinity -3.09468937
REMARK minimizedRMSD -1
REMARK  0 active torsions:
REMARK  status: ('A' for Active; 'I' for Inactive)
ROOT
ATOM      1  O1  BZF d   1      -0.107  -0.798  -3.592  0.00  0.00    -0.204 OA
ATOM      2  C2  BZF d   1       0.320   0.051  -4.594  0.00  0.00     0.174 A 
ATOM      3  C3  BZF d   1       1.403   0.751  -4.200  0.00  0.00    -0.012 A 
ATOM      4  C3A BZF d   1       1.725   0.245  -2.901  0.00  0.00    -0.107 A 
ATOM      5  C4  BZF d   1       2.710   0.532  -1.999  0.00  0.00     0.055 A 
ATOM      6  C5  BZF d   1       2.701  -0.090  -0.791  0.00  0.00    -0.016 A 
ATOM      7  C6  BZF d   1       1.722  -1.000  -0.450  0.00  0.00     0.022 A 
ATOM      8  C7  BZF d   1       0.727  -1.321  -1.313  0.00  0.00     0.029 A 
ATOM      9  C7A BZF d   1       0.752  -0.718  -2.547  0.00  0.00     0.058 A 
ENDROOT
TORSDOF 0
ENDMDL
