MODEL 1
REMARK minimizedAffinity 9.34718704
REMARK minimizedRMSD -1
REMARK  0 active torsions:
REMARK  status: ('A' for Active; 'I' for Inactive)
ROOT
ATOM      1  O1  BZF d   1       0.103  -1.439   3.867  0.00  0.00    -0.204 OA
ATOM      2  C2  BZF d   1       1.086  -0.822   3.117  0.00  0.00     0.174 A 
ATOM      3  C3  BZF d   1       0.544  -0.126   2.097  0.00  0.00    -0.012 A 
ATOM      4  C3A BZF d   1      -0.871  -0.244   2.271  0.00  0.00    -0.107 A 
ATOM      5  C4  BZF d   1      -1.946   0.243   1.583  0.00  0.00     0.055 A 
ATOM      6  C5  BZF d   1      -3.197  -0.117   1.971  0.00  0.00    -0.016 A 
ATOM      7  C6  BZF d   1      -3.410  -0.966   3.038  0.00  0.00     0.022 A 
ATOM      8  C7  BZF d   1      -2.376  -1.471   3.754  0.00  0.00     0.029 A 
ATOM      9  C7A BZF d   1      -1.112  -1.082   3.384  0.00  0.00     0.058 A 
ENDROOT
TORSDOF 0
ENDMDL
