MODEL 1
REMARK minimizedAffinity 3.12556601
REMARK minimizedRMSD -1
REMARK  0 active torsions:
REMARK  status: ('A' for Active; 'I' for Inactive)
ROOT
ATOM      1  O1  BZF d   1       4.252   3.158   3.702  0.00  0.00    -0.204 OA
ATOM      2  C2  BZF d   1       3.243   2.525   3.003  0.00  0.00     0.174 A 
ATOM      3  C3  BZF d   1       3.025   3.136   1.820  0.00  0.00    -0.012 A 
ATOM      4  C3A BZF d   1       4.019   4.162   1.737  0.00  0.00    -0.107 A 
ATOM      5  C4  BZF d   1       4.326   5.097   0.791  0.00  0.00     0.055 A 
ATOM      6  C5  BZF d   1       5.308   6.000   1.049  0.00  0.00    -0.016 A 
ATOM      7  C6  BZF d   1       6.000   5.999   2.243  0.00  0.00     0.022 A 
ATOM      8  C7  BZF d   1       5.734   5.088   3.210  0.00  0.00     0.029 A 
ATOM      9  C7A BZF d   1       4.764   4.154   2.939  0.00  0.00     0.058 A 
ENDROOT
TORSDOF 0
ENDMDL
