MODEL 1
REMARK minimizedAffinity 0.894410372
REMARK minimizedRMSD -1
REMARK  0 active torsions:
REMARK  status: ('A' for Active; 'I' for Inactive)
ROOT
ATOM      1  O1  BZF d   1       0.952  -0.816   1.009  0.00  0.00    -0.204 OA
ATOM      2  C2  BZF d   1       0.105  -0.317   0.038  0.00  0.00     0.174 A 
ATOM      3  C3  BZF d   1      -1.106  -0.032   0.559  0.00  0.00    -0.012 A 
ATOM      4  C3A BZF d   1      -0.981  -0.288   1.961  0.00  0.00    -0.107 A 
ATOM      5  C4  BZF d   1      -1.842  -0.177   3.016  0.00  0.00     0.055 A 
ATOM      6  C5  BZF d   1      -1.432  -0.577   4.248  0.00  0.00    -0.016 A 
ATOM      7  C6  BZF d   1      -0.172  -1.097   4.461  0.00  0.00     0.022 A 
ATOM      8  C7  BZF d   1       0.719  -1.222   3.447  0.00  0.00     0.029 A 
ATOM      9  C7A BZF d   1       0.319  -0.788   2.206  0.00  0.00     0.058 A 
ENDROOT
TORSDOF 0
ENDMDL
