MODEL 1
REMARK minimizedAffinity 0.153723553
REMARK minimizedRMSD -1
REMARK  0 active torsions:
REMARK  status: ('A' for Active; 'I' for Inactive)
ROOT
ATOM      1  O1  BZF d   1       1.002  -1.117   3.165  0.00  0.00    -0.204 OA
ATOM      2  C2  BZF d   1       0.487  -1.101   4.447  0.00  0.00     0.174 A 
ATOM      3  C3  BZF d   1      -0.775  -0.626   4.449  0.00  0.00    -0.012 A 
ATOM      4  C3A BZF d   1      -1.099  -0.411   3.072  0.00  0.00    -0.107 A 
ATOM      5  C4  BZF d   1      -2.218   0.037   2.430  0.00  0.00     0.055 A 
ATOM      6  C5  BZF d   1      -2.184   0.200   1.081  0.00  0.00    -0.016 A 
ATOM      7  C6  BZF d   1      -1.049  -0.071   0.345  0.00  0.00     0.022 A 
ATOM      8  C7  BZF d   1       0.083  -0.523   0.937  0.00  0.00     0.029 A 
ATOM      9  C7A BZF d   1       0.042  -0.720   2.296  0.00  0.00     0.058 A 
ENDROOT
TORSDOF 0
ENDMDL
