MODEL 1
REMARK minimizedAffinity 1.13183749
REMARK minimizedRMSD -1
REMARK  0 active torsions:
REMARK  status: ('A' for Active; 'I' for Inactive)
ROOT
ATOM      1  O1  BZF d   1       0.837   0.482  -0.420  0.00  0.00    -0.204 OA
ATOM      2  C2  BZF d   1       0.210   1.249  -1.383  0.00  0.00     0.174 A 
ATOM      3  C3  BZF d   1      -1.117   1.317  -1.153  0.00  0.00    -0.012 A 
ATOM      4  C3A BZF d   1      -1.320   0.621   0.081  0.00  0.00    -0.107 A 
ATOM      5  C4  BZF d   1      -2.425   0.360   0.840  0.00  0.00     0.055 A 
ATOM      6  C5  BZF d   1      -2.295  -0.410   1.953  0.00  0.00    -0.016 A 
ATOM      7  C6  BZF d   1      -1.078  -0.939   2.331  0.00  0.00     0.022 A 
ATOM      8  C7  BZF d   1       0.047  -0.703   1.612  0.00  0.00     0.029 A 
ATOM      9  C7A BZF d   1      -0.076   0.102   0.506  0.00  0.00     0.058 A 
ENDROOT
TORSDOF 0
ENDMDL
