MODEL 1
REMARK minimizedAffinity -4.29468966
REMARK minimizedRMSD -1
REMARK  2 active torsions:
REMARK  status: ('A' for Active; 'I' for Inactive)
REMARK    1  A    between atoms: C1_2  and  C2_3 
REMARK    2  A    between atoms: C2_3  and  C3_4 
ROOT
ATOM      1  C3  UNL d   1      -0.095   0.380   0.204  0.00  0.00    -0.075 A 
ATOM      2  C4  UNL d   1      -0.051   0.511   1.600  0.00  0.00     0.002 A 
ATOM      3  C5  UNL d   1      -0.496   1.681   2.216  0.00  0.00     0.002 A 
ATOM      4  C6  UNL d   1      -0.980   2.736   1.446  0.00  0.00    -0.004 A 
ATOM      5  C7  UNL d   1      -1.013   2.623   0.058  0.00  0.00     0.002 A 
ATOM      6  C8  UNL d   1      -0.572   1.452  -0.561  0.00  0.00     0.002 A 
ENDROOT
BRANCH   1   7
ATOM      7  C2  UNL d   1       0.358  -0.895  -0.467  0.00  0.00     0.056 C 
BRANCH   7   8
ATOM      8  C1  UNL d   1      -0.781  -1.711  -1.088  0.00  0.00     0.007 C 
ATOM      9  C   UNL d   1      -0.382  -3.143  -1.420  0.00  0.00     0.009 C 
ENDBRANCH   7   8
ENDBRANCH   1   7
TORSDOF 2
ENDMDL
