MODEL 1
REMARK minimizedAffinity -3.47362304
REMARK minimizedRMSD -1
REMARK  2 active torsions:
REMARK  status: ('A' for Active; 'I' for Inactive)
REMARK    1  A    between atoms: C1_2  and  C2_3 
REMARK    2  A    between atoms: C2_3  and  C3_4 
ROOT
ATOM      1  C3  UNL d   1       0.362  -0.691   0.115  0.00  0.00    -0.075 A 
ATOM      2  C4  UNL d   1       0.650  -1.193   1.392  0.00  0.00     0.002 A 
ATOM      3  C5  UNL d   1       0.567  -0.367   2.513  0.00  0.00     0.002 A 
ATOM      4  C6  UNL d   1       0.208   0.971   2.371  0.00  0.00    -0.004 A 
ATOM      5  C7  UNL d   1      -0.064   1.486   1.105  0.00  0.00     0.002 A 
ATOM      6  C8  UNL d   1       0.013   0.660  -0.018  0.00  0.00     0.002 A 
ENDROOT
BRANCH   1   7
ATOM      7  C2  UNL d   1       0.420  -1.587  -1.099  0.00  0.00     0.056 C 
BRANCH   7   8
ATOM      8  C1  UNL d   1       0.161  -3.066  -0.795  0.00  0.00     0.007 C 
ATOM      9  C   UNL d   1      -1.038  -3.631  -1.544  0.00  0.00     0.009 C 
ENDBRANCH   7   8
ENDBRANCH   1   7
TORSDOF 2
ENDMDL
