MODEL 1
REMARK minimizedAffinity -5.89797974
REMARK minimizedRMSD -1
REMARK  2 active torsions:
REMARK  status: ('A' for Active; 'I' for Inactive)
REMARK    1  A    between atoms: C1_2  and  C2_3 
REMARK    2  A    between atoms: C2_3  and  C3_4 
ROOT
ATOM      1  C3  UNL d   1      -0.413   0.868   0.395  0.00  0.00    -0.075 A 
ATOM      2  C4  UNL d   1      -0.541   1.467  -0.867  0.00  0.00     0.002 A 
ATOM      3  C5  UNL d   1      -0.812   2.830  -0.980  0.00  0.00     0.002 A 
ATOM      4  C6  UNL d   1      -0.970   3.609   0.164  0.00  0.00    -0.004 A 
ATOM      5  C7  UNL d   1      -0.862   3.022   1.423  0.00  0.00     0.002 A 
ATOM      6  C8  UNL d   1      -0.586   1.659   1.539  0.00  0.00     0.002 A 
ENDROOT
BRANCH   1   7
ATOM      7  C2  UNL d   1      -0.090  -0.601   0.524  0.00  0.00     0.056 C 
BRANCH   7   8
ATOM      8  C1  UNL d   1       0.283  -1.276  -0.800  0.00  0.00     0.007 C 
ATOM      9  C   UNL d   1      -0.406  -2.619  -1.004  0.00  0.00     0.009 C 
ENDBRANCH   7   8
ENDBRANCH   1   7
TORSDOF 2
ENDMDL
