MODEL 1
REMARK minimizedAffinity -5.21223354
REMARK minimizedRMSD -1
REMARK  2 active torsions:
REMARK  status: ('A' for Active; 'I' for Inactive)
REMARK    1  A    between atoms: C1_2  and  C2_3 
REMARK    2  A    between atoms: C2_3  and  C3_4 
ROOT
ATOM      1  C3  UNL d   1       0.103   0.068  -0.100  0.00  0.00    -0.075 A 
ATOM      2  C4  UNL d   1      -0.680   1.165  -0.490  0.00  0.00     0.002 A 
ATOM      3  C5  UNL d   1      -1.086   2.114   0.449  0.00  0.00     0.002 A 
ATOM      4  C6  UNL d   1      -0.725   1.974   1.787  0.00  0.00    -0.004 A 
ATOM      5  C7  UNL d   1       0.038   0.879   2.188  0.00  0.00     0.002 A 
ATOM      6  C8  UNL d   1       0.450  -0.069   1.250  0.00  0.00     0.002 A 
ENDROOT
BRANCH   1   7
ATOM      7  C2  UNL d   1       0.571  -0.947  -1.116  0.00  0.00     0.056 C 
BRANCH   7   8
ATOM      8  C1  UNL d   1       0.140  -2.384  -0.806  0.00  0.00     0.007 C 
ATOM      9  C   UNL d   1      -1.002  -2.871  -1.688  0.00  0.00     0.009 C 
ENDBRANCH   7   8
ENDBRANCH   1   7
TORSDOF 2
ENDMDL
