MODEL 1
REMARK minimizedAffinity -4.37608147
REMARK minimizedRMSD -1
REMARK  2 active torsions:
REMARK  status: ('A' for Active; 'I' for Inactive)
REMARK    1  A    between atoms: C1_2  and  C2_3 
REMARK    2  A    between atoms: C2_3  and  C3_4 
ROOT
ATOM      1  C3  UNL d   1      -0.796   1.062   0.419  0.00  0.00    -0.075 A 
ATOM      2  C4  UNL d   1       0.078   0.098   0.943  0.00  0.00     0.002 A 
ATOM      3  C5  UNL d   1       1.052  -0.488   0.135  0.00  0.00     0.002 A 
ATOM      4  C6  UNL d   1       1.159  -0.127  -1.206  0.00  0.00    -0.004 A 
ATOM      5  C7  UNL d   1       0.286   0.818  -1.741  0.00  0.00     0.002 A 
ATOM      6  C8  UNL d   1      -0.688   1.409  -0.934  0.00  0.00     0.002 A 
ENDROOT
BRANCH   1   7
ATOM      7  C2  UNL d   1      -1.834   1.722   1.296  0.00  0.00     0.056 C 
BRANCH   7   8
ATOM      8  C1  UNL d   1      -1.472   3.147   1.726  0.00  0.00     0.007 C 
ATOM      9  C   UNL d   1       0.027   3.416   1.713  0.00  0.00     0.009 C 
ENDBRANCH   7   8
ENDBRANCH   1   7
TORSDOF 2
ENDMDL
