MODEL 1
REMARK minimizedAffinity -3.67211628
REMARK minimizedRMSD -1
REMARK  2 active torsions:
REMARK  status: ('A' for Active; 'I' for Inactive)
REMARK    1  A    between atoms: C1_2  and  C2_3 
REMARK    2  A    between atoms: C2_3  and  C3_4 
ROOT
ATOM      1  C3  UNL d   1       0.424  -0.295   0.080  0.00  0.00    -0.075 A 
ATOM      2  C4  UNL d   1       0.091  -0.810   1.341  0.00  0.00     0.002 A 
ATOM      3  C5  UNL d   1      -0.013   0.035   2.447  0.00  0.00     0.002 A 
ATOM      4  C6  UNL d   1       0.224   1.401   2.308  0.00  0.00    -0.004 A 
ATOM      5  C7  UNL d   1       0.571   1.921   1.063  0.00  0.00     0.002 A 
ATOM      6  C8  UNL d   1       0.672   1.079  -0.046  0.00  0.00     0.002 A 
ENDROOT
BRANCH   1   7
ATOM      7  C2  UNL d   1       0.509  -1.200  -1.126  0.00  0.00     0.056 C 
BRANCH   7   8
ATOM      8  C1  UNL d   1       0.549  -2.693  -0.784  0.00  0.00     0.007 C 
ATOM      9  C   UNL d   1      -0.466  -3.515  -1.567  0.00  0.00     0.009 C 
ENDBRANCH   7   8
ENDBRANCH   1   7
TORSDOF 2
ENDMDL
