MODEL 1
REMARK minimizedAffinity -5.64103127
REMARK minimizedRMSD -1
REMARK  1 active torsions:
REMARK  status: ('A' for Active; 'I' for Inactive)
REMARK    1  A    between atoms: C1_2  and  C2_3 
ROOT
ATOM      1  C2  UNL d   1       0.537   0.201   0.291  0.00  0.00    -0.076 A 
ATOM      2  C3  UNL d   1      -0.535   1.099   0.150  0.00  0.00     0.004 A 
ATOM      3  C4  UNL d   1      -0.330   2.476   0.210  0.00  0.00    -0.003 A 
ATOM      4  C5  UNL d   1       0.952   2.978   0.412  0.00  0.00     0.000 A 
ATOM      5  C6  UNL d   1       2.029   2.102   0.536  0.00  0.00     0.000 A 
ATOM      6  C7  UNL d   1       1.842   0.711   0.461  0.00  0.00    -0.073 A 
ATOM      7  C8  UNL d   1       3.039  -0.188   0.608  0.00  0.00     0.078 C 
ENDROOT
BRANCH   1   8
ATOM      8  C1  UNL d   1       0.249  -1.283   0.243  0.00  0.00     0.053 C 
ATOM      9  C   UNL d   1      -0.090  -1.766  -1.158  0.00  0.00     0.018 C 
ENDBRANCH   1   8
TORSDOF 1
ENDMDL
