MODEL 1
REMARK minimizedAffinity -2.1081028
REMARK minimizedRMSD -1
REMARK  1 active torsions:
REMARK  status: ('A' for Active; 'I' for Inactive)
REMARK    1  A    between atoms: C1_2  and  C2_3 
ROOT
ATOM      1  C2  UNL d   1       0.002   1.267   0.497  0.00  0.00    -0.076 A 
ATOM      2  C3  UNL d   1       1.300   0.875   0.126  0.00  0.00     0.004 A 
ATOM      3  C4  UNL d   1       1.688  -0.462   0.180  0.00  0.00    -0.003 A 
ATOM      4  C5  UNL d   1       0.785  -1.430   0.606  0.00  0.00     0.000 A 
ATOM      5  C6  UNL d   1      -0.512  -1.061   0.961  0.00  0.00     0.000 A 
ATOM      6  C7  UNL d   1      -0.925   0.281   0.897  0.00  0.00    -0.073 A 
ATOM      7  C8  UNL d   1      -2.334   0.623   1.297  0.00  0.00     0.078 C 
ENDROOT
BRANCH   1   8
ATOM      8  C1  UNL d   1      -0.354   2.736   0.444  0.00  0.00     0.053 C 
ATOM      9  C   UNL d   1       0.843   3.636   0.711  0.00  0.00     0.018 C 
ENDBRANCH   1   8
TORSDOF 1
ENDMDL
