MODEL 1
REMARK minimizedAffinity -3.33533239
REMARK minimizedRMSD -1
REMARK  1 active torsions:
REMARK  status: ('A' for Active; 'I' for Inactive)
REMARK    1  A    between atoms: C1_2  and  C2_3 
ROOT
ATOM      1  C2  UNL d   1       0.558   2.326   0.270  0.00  0.00    -0.076 A 
ATOM      2  C3  UNL d   1       0.932   1.379  -0.699  0.00  0.00     0.004 A 
ATOM      3  C4  UNL d   1       0.255   0.166  -0.815  0.00  0.00    -0.003 A 
ATOM      4  C5  UNL d   1      -0.806  -0.120   0.036  0.00  0.00     0.000 A 
ATOM      5  C6  UNL d   1      -1.202   0.815   0.992  0.00  0.00     0.000 A 
ATOM      6  C7  UNL d   1      -0.541   2.049   1.112  0.00  0.00    -0.073 A 
ATOM      7  C8  UNL d   1      -1.005   3.018   2.164  0.00  0.00     0.078 C 
ENDROOT
BRANCH   1   8
ATOM      8  C1  UNL d   1       1.346   3.613   0.367  0.00  0.00     0.053 C 
ATOM      9  C   UNL d   1       2.786   3.383   0.799  0.00  0.00     0.018 C 
ENDBRANCH   1   8
TORSDOF 1
ENDMDL
