MODEL 1
REMARK minimizedAffinity -4.94396877
REMARK minimizedRMSD -1
REMARK  1 active torsions:
REMARK  status: ('A' for Active; 'I' for Inactive)
REMARK    1  A    between atoms: C1_2  and  C2_3 
ROOT
ATOM      1  C2  UNL d   1       0.443   1.401  -0.013  0.00  0.00    -0.076 A 
ATOM      2  C3  UNL d   1      -0.766   0.825   0.413  0.00  0.00     0.004 A 
ATOM      3  C4  UNL d   1      -0.850  -0.535   0.705  0.00  0.00    -0.003 A 
ATOM      4  C5  UNL d   1       0.275  -1.342   0.577  0.00  0.00     0.000 A 
ATOM      5  C6  UNL d   1       1.488  -0.785   0.173  0.00  0.00     0.000 A 
ATOM      6  C7  UNL d   1       1.593   0.588  -0.111  0.00  0.00    -0.073 A 
ATOM      7  C8  UNL d   1       2.924   1.135  -0.549  0.00  0.00     0.078 C 
ENDROOT
BRANCH   1   8
ATOM      8  C1  UNL d   1       0.467   2.876  -0.343  0.00  0.00     0.053 C 
ATOM      9  C   UNL d   1      -0.077   3.734   0.789  0.00  0.00     0.018 C 
ENDBRANCH   1   8
TORSDOF 1
ENDMDL
