MODEL 1
REMARK minimizedAffinity -5.4033041
REMARK minimizedRMSD -1
REMARK  1 active torsions:
REMARK  status: ('A' for Active; 'I' for Inactive)
REMARK    1  A    between atoms: C1_2  and  C2_3 
ROOT
ATOM      1  C2  UNL d   1       0.657   0.548   0.197  0.00  0.00    -0.076 A 
ATOM      2  C3  UNL d   1       2.042   0.700   0.387  0.00  0.00     0.004 A 
ATOM      3  C4  UNL d   1       2.604   1.960   0.585  0.00  0.00    -0.003 A 
ATOM      4  C5  UNL d   1       1.791   3.088   0.597  0.00  0.00     0.000 A 
ATOM      5  C6  UNL d   1       0.414   2.954   0.427  0.00  0.00     0.000 A 
ATOM      6  C7  UNL d   1      -0.171   1.689   0.243  0.00  0.00    -0.073 A 
ATOM      7  C8  UNL d   1      -1.662   1.603   0.059  0.00  0.00     0.078 C 
ENDROOT
BRANCH   1   8
ATOM      8  C1  UNL d   1       0.107  -0.840  -0.041  0.00  0.00     0.053 C 
ATOM      9  C   UNL d   1       0.868  -1.908   0.731  0.00  0.00     0.018 C 
ENDBRANCH   1   8
TORSDOF 1
ENDMDL
