MODEL 1
REMARK minimizedAffinity -2.37965965
REMARK minimizedRMSD -1
REMARK  1 active torsions:
REMARK  status: ('A' for Active; 'I' for Inactive)
REMARK    1  A    between atoms: C1_2  and  C2_3 
ROOT
ATOM      1  C2  UNL d   1       0.837   0.885   0.056  0.00  0.00    -0.076 A 
ATOM      2  C3  UNL d   1      -0.448   1.268   0.476  0.00  0.00     0.004 A 
ATOM      3  C4  UNL d   1      -0.755   2.606   0.718  0.00  0.00    -0.003 A 
ATOM      4  C5  UNL d   1       0.218   3.583   0.542  0.00  0.00     0.000 A 
ATOM      5  C6  UNL d   1       1.494   3.223   0.108  0.00  0.00     0.000 A 
ATOM      6  C7  UNL d   1       1.815   1.881  -0.156  0.00  0.00    -0.073 A 
ATOM      7  C8  UNL d   1       3.208   1.549  -0.616  0.00  0.00     0.078 C 
ENDROOT
BRANCH   1   8
ATOM      8  C1  UNL d   1       1.120  -0.584  -0.164  0.00  0.00     0.053 C 
ATOM      9  C   UNL d   1      -0.123  -1.447  -0.004  0.00  0.00     0.018 C 
ENDBRANCH   1   8
TORSDOF 1
ENDMDL
