MODEL 1
REMARK minimizedAffinity -6.60507441
REMARK minimizedRMSD -1
REMARK  1 active torsions:
REMARK  status: ('A' for Active; 'I' for Inactive)
REMARK    1  A    between atoms: C1_2  and  C2_3 
ROOT
ATOM      1  C2  UNL d   1       0.507   0.474   0.247  0.00  0.00    -0.076 A 
ATOM      2  C3  UNL d   1      -0.785   1.004   0.086  0.00  0.00     0.004 A 
ATOM      3  C4  UNL d   1      -1.001   2.381   0.091  0.00  0.00    -0.003 A 
ATOM      4  C5  UNL d   1       0.072   3.251   0.256  0.00  0.00     0.000 A 
ATOM      5  C6  UNL d   1       1.363   2.743   0.398  0.00  0.00     0.000 A 
ATOM      6  C7  UNL d   1       1.600   1.357   0.379  0.00  0.00    -0.073 A 
ATOM      7  C8  UNL d   1       3.012   0.865   0.544  0.00  0.00     0.078 C 
ENDROOT
BRANCH   1   8
ATOM      8  C1  UNL d   1       0.677  -1.028   0.260  0.00  0.00     0.053 C 
ATOM      9  C   UNL d   1      -0.241  -1.728  -0.730  0.00  0.00     0.018 C 
ENDBRANCH   1   8
TORSDOF 1
ENDMDL
