MODEL 1
REMARK minimizedAffinity -3.09163833
REMARK minimizedRMSD -1
REMARK  1 active torsions:
REMARK  status: ('A' for Active; 'I' for Inactive)
REMARK    1  A    between atoms: C1_2  and  C2_3 
ROOT
ATOM      1  C2  UNL d   1      -0.540  -0.583  -1.282  0.00  0.00    -0.076 A 
ATOM      2  C3  UNL d   1      -1.355   0.515  -1.606  0.00  0.00     0.004 A 
ATOM      3  C4  UNL d   1      -1.686   1.471  -0.647  0.00  0.00    -0.003 A 
ATOM      4  C5  UNL d   1      -1.207   1.344   0.653  0.00  0.00     0.000 A 
ATOM      5  C6  UNL d   1      -0.383   0.270   0.987  0.00  0.00     0.000 A 
ATOM      6  C7  UNL d   1      -0.026  -0.694   0.028  0.00  0.00    -0.073 A 
ATOM      7  C8  UNL d   1       0.861  -1.834   0.446  0.00  0.00     0.078 C 
ENDROOT
BRANCH   1   8
ATOM      8  C1  UNL d   1      -0.237  -1.602  -2.357  0.00  0.00     0.053 C 
ATOM      9  C   UNL d   1      -1.399  -2.552  -2.604  0.00  0.00     0.018 C 
ENDBRANCH   1   8
TORSDOF 1
ENDMDL
