MODEL 1
REMARK minimizedAffinity -3.59972596
REMARK minimizedRMSD -1
REMARK  1 active torsions:
REMARK  status: ('A' for Active; 'I' for Inactive)
REMARK    1  A    between atoms: C1_2  and  C2_3 
ROOT
ATOM      1  C2  UNL d   1      -0.028  -0.210   0.335  0.00  0.00    -0.076 A 
ATOM      2  C3  UNL d   1       1.064   0.453  -0.251  0.00  0.00     0.004 A 
ATOM      3  C4  UNL d   1       1.077   1.842  -0.376  0.00  0.00    -0.003 A 
ATOM      4  C5  UNL d   1      -0.001   2.589   0.085  0.00  0.00     0.000 A 
ATOM      5  C6  UNL d   1      -1.084   1.949   0.685  0.00  0.00     0.000 A 
ATOM      6  C7  UNL d   1      -1.107   0.552   0.833  0.00  0.00    -0.073 A 
ATOM      7  C8  UNL d   1      -2.304  -0.087   1.483  0.00  0.00     0.078 C 
ENDROOT
BRANCH   1   8
ATOM      8  C1  UNL d   1       0.002  -1.719   0.418  0.00  0.00     0.053 C 
ATOM      9  C   UNL d   1       0.008  -2.378  -0.953  0.00  0.00     0.018 C 
ENDBRANCH   1   8
TORSDOF 1
ENDMDL
