MODEL 1
REMARK minimizedAffinity -5.29654694
REMARK minimizedRMSD -1
REMARK  1 active torsions:
REMARK  status: ('A' for Active; 'I' for Inactive)
REMARK    1  A    between atoms: C1_2  and  C2_3 
ROOT
ATOM      1  C2  UNL d   1       0.812   1.025   0.273  0.00  0.00    -0.076 A 
ATOM      2  C3  UNL d   1      -0.474   1.533   0.020  0.00  0.00     0.004 A 
ATOM      3  C4  UNL d   1      -0.716   2.905   0.017  0.00  0.00    -0.003 A 
ATOM      4  C5  UNL d   1       0.325   3.793   0.266  0.00  0.00     0.000 A 
ATOM      5  C6  UNL d   1       1.611   3.308   0.502  0.00  0.00     0.000 A 
ATOM      6  C7  UNL d   1       1.875   1.928   0.492  0.00  0.00    -0.073 A 
ATOM      7  C8  UNL d   1       3.280   1.460   0.758  0.00  0.00     0.078 C 
ENDROOT
BRANCH   1   8
ATOM      8  C1  UNL d   1       1.009  -0.474   0.290  0.00  0.00     0.053 C 
ATOM      9  C   UNL d   1      -0.308  -1.234   0.288  0.00  0.00     0.018 C 
ENDBRANCH   1   8
TORSDOF 1
ENDMDL
