MODEL 1
REMARK minimizedAffinity -3.15686011
REMARK minimizedRMSD -1
REMARK  1 active torsions:
REMARK  status: ('A' for Active; 'I' for Inactive)
REMARK    1  A    between atoms: C1_2  and  C2_3 
ROOT
ATOM      1  C2  UNL d   1      -0.179  -0.196   0.011  0.00  0.00    -0.076 A 
ATOM      2  C3  UNL d   1      -1.396   0.120   0.640  0.00  0.00     0.004 A 
ATOM      3  C4  UNL d   1      -1.746   1.444   0.901  0.00  0.00    -0.003 A 
ATOM      4  C5  UNL d   1      -0.884   2.473   0.539  0.00  0.00     0.000 A 
ATOM      5  C6  UNL d   1       0.319   2.179  -0.101  0.00  0.00     0.000 A 
ATOM      6  C7  UNL d   1       0.679   0.851  -0.387  0.00  0.00    -0.073 A 
ATOM      7  C8  UNL d   1       1.992   0.591  -1.074  0.00  0.00     0.078 C 
ENDROOT
BRANCH   1   8
ATOM      8  C1  UNL d   1       0.159  -1.651  -0.222  0.00  0.00     0.053 C 
ATOM      9  C   UNL d   1      -0.399  -2.175  -1.537  0.00  0.00     0.018 C 
ENDBRANCH   1   8
TORSDOF 1
ENDMDL
