MODEL 1
REMARK minimizedAffinity 0.143311679
REMARK minimizedRMSD -1
REMARK  0 active torsions:
REMARK  status: ('A' for Active; 'I' for Inactive)
ROOT
ATOM      1  C2' OXE d   1       4.587  -5.669  -2.271  0.00  0.00     0.078 C 
ATOM      2  C1' OXE d   1       5.997  -5.859  -4.691  0.00  0.00     0.078 C 
ATOM      3  C1  OXE d   1       4.490  -5.863  -4.753  0.00  0.00    -0.078 A 
ATOM      4  C2  OXE d   1       3.808  -5.817  -3.561  0.00  0.00    -0.078 A 
ATOM      5  C3  OXE d   1       2.417  -5.763  -3.564  0.00  0.00     0.003 A 
ATOM      6  C4  OXE d   1       1.705  -5.911  -4.760  0.00  0.00    -0.002 A 
ATOM      7  C5  OXE d   1       2.380  -5.999  -5.982  0.00  0.00    -0.002 A 
ATOM      8  C6  OXE d   1       3.769  -5.934  -6.000  0.00  0.00     0.003 A 
ENDROOT
TORSDOF 0
ENDMDL
