MODEL 1
REMARK minimizedAffinity 0.357981324
REMARK minimizedRMSD -1
REMARK  0 active torsions:
REMARK  status: ('A' for Active; 'I' for Inactive)
ROOT
ATOM      1  C2' OXE d   1       5.064  -5.908  -5.271  0.00  0.00     0.078 C 
ATOM      2  C1' OXE d   1       2.353  -5.996  -5.996  0.00  0.00     0.078 C 
ATOM      3  C1  OXE d   1       2.688  -5.969  -4.525  0.00  0.00    -0.078 A 
ATOM      4  C2  OXE d   1       4.018  -5.973  -4.179  0.00  0.00    -0.078 A 
ATOM      5  C3  OXE d   1       4.382  -5.893  -2.838  0.00  0.00     0.003 A 
ATOM      6  C4  OXE d   1       3.408  -5.964  -1.834  0.00  0.00    -0.002 A 
ATOM      7  C5  OXE d   1       2.049  -6.000  -2.164  0.00  0.00    -0.002 A 
ATOM      8  C6  OXE d   1       1.672  -5.960  -3.502  0.00  0.00     0.003 A 
ENDROOT
TORSDOF 0
ENDMDL
