MODEL 1
REMARK minimizedAffinity -0.679349065
REMARK minimizedRMSD -1
REMARK  0 active torsions:
REMARK  status: ('A' for Active; 'I' for Inactive)
ROOT
ATOM      1  C2' OXE d   1       3.035  -1.122  -3.749  0.00  0.00     0.078 C 
ATOM      2  C1' OXE d   1       5.306  -1.747  -5.276  0.00  0.00     0.078 C 
ATOM      3  C1  OXE d   1       4.834  -0.315  -5.271  0.00  0.00    -0.078 A 
ATOM      4  C2  OXE d   1       3.695  -0.027  -4.558  0.00  0.00    -0.078 A 
ATOM      5  C3  OXE d   1       3.248   1.289  -4.476  0.00  0.00     0.003 A 
ATOM      6  C4  OXE d   1       3.858   2.294  -5.236  0.00  0.00    -0.002 A 
ATOM      7  C5  OXE d   1       4.996   2.014  -5.999  0.00  0.00    -0.002 A 
ATOM      8  C6  OXE d   1       5.521   0.727  -5.994  0.00  0.00     0.003 A 
ENDROOT
TORSDOF 0
ENDMDL
