MODEL 1
REMARK minimizedAffinity 4.23372364
REMARK minimizedRMSD -1
REMARK  0 active torsions:
REMARK  status: ('A' for Active; 'I' for Inactive)
ROOT
ATOM      1  C2' OXE d   1       3.704  -5.999  -1.776  0.00  0.00     0.078 C 
ATOM      2  C1' OXE d   1       1.009  -6.000  -2.563  0.00  0.00     0.078 C 
ATOM      3  C1  OXE d   1       2.059  -5.986  -3.646  0.00  0.00    -0.078 A 
ATOM      4  C2  OXE d   1       3.374  -5.938  -3.252  0.00  0.00    -0.078 A 
ATOM      5  C3  OXE d   1       4.383  -5.979  -4.210  0.00  0.00     0.003 A 
ATOM      6  C4  OXE d   1       4.069  -5.912  -5.573  0.00  0.00    -0.002 A 
ATOM      7  C5  OXE d   1       2.736  -5.920  -5.996  0.00  0.00    -0.002 A 
ATOM      8  C6  OXE d   1       1.721  -5.999  -5.048  0.00  0.00     0.003 A 
ENDROOT
TORSDOF 0
ENDMDL
