MODEL 1
REMARK minimizedAffinity 2.02282643
REMARK minimizedRMSD -1
REMARK  0 active torsions:
REMARK  status: ('A' for Active; 'I' for Inactive)
ROOT
ATOM      1  C2' OXE d   1       1.878  -5.899  -6.000  0.00  0.00     0.078 C 
ATOM      2  C1' OXE d   1       4.684  -5.858  -5.939  0.00  0.00     0.078 C 
ATOM      3  C1  OXE d   1       3.952  -5.918  -4.621  0.00  0.00    -0.078 A 
ATOM      4  C2  OXE d   1       2.579  -5.891  -4.658  0.00  0.00    -0.078 A 
ATOM      5  C3  OXE d   1       1.855  -6.000  -3.475  0.00  0.00     0.003 A 
ATOM      6  C4  OXE d   1       2.511  -5.982  -2.238  0.00  0.00    -0.002 A 
ATOM      7  C5  OXE d   1       3.909  -5.970  -2.176  0.00  0.00    -0.002 A 
ATOM      8  C6  OXE d   1       4.643  -5.981  -3.357  0.00  0.00     0.003 A 
ENDROOT
TORSDOF 0
ENDMDL
