MODEL 1
REMARK minimizedAffinity -1.01554239
REMARK minimizedRMSD -1
REMARK  0 active torsions:
REMARK  status: ('A' for Active; 'I' for Inactive)
ROOT
ATOM      1  C2' OXE d   1       5.402  -5.973  -4.500  0.00  0.00     0.078 C 
ATOM      2  C1' OXE d   1       3.836  -5.969  -2.171  0.00  0.00     0.078 C 
ATOM      3  C1  OXE d   1       3.121  -5.972  -3.499  0.00  0.00    -0.078 A 
ATOM      4  C2  OXE d   1       3.895  -5.927  -4.633  0.00  0.00    -0.078 A 
ATOM      5  C3  OXE d   1       3.288  -5.983  -5.885  0.00  0.00     0.003 A 
ATOM      6  C4  OXE d   1       1.894  -5.930  -5.999  0.00  0.00    -0.002 A 
ATOM      7  C5  OXE d   1       1.087  -5.935  -4.856  0.00  0.00    -0.002 A 
ATOM      8  C6  OXE d   1       1.683  -5.999  -3.601  0.00  0.00     0.003 A 
ENDROOT
TORSDOF 0
ENDMDL
