MODEL 1
REMARK minimizedAffinity 6.94912434
REMARK minimizedRMSD -1
REMARK  0 active torsions:
REMARK  status: ('A' for Active; 'I' for Inactive)
ROOT
ATOM      1  C2' OXE d   1       5.034  -2.897   4.611  0.00  0.00     0.078 C 
ATOM      2  C1' OXE d   1       3.176  -4.914   5.213  0.00  0.00     0.078 C 
ATOM      3  C1  OXE d   1       2.739  -3.810   4.283  0.00  0.00    -0.078 A 
ATOM      4  C2  OXE d   1       3.639  -2.803   4.030  0.00  0.00    -0.078 A 
ATOM      5  C3  OXE d   1       3.306  -1.789   3.136  0.00  0.00     0.003 A 
ATOM      6  C4  OXE d   1       2.011  -1.704   2.612  0.00  0.00    -0.002 A 
ATOM      7  C5  OXE d   1       1.066  -2.698   2.887  0.00  0.00    -0.002 A 
ATOM      8  C6  OXE d   1       1.427  -3.779   3.685  0.00  0.00     0.003 A 
ENDROOT
TORSDOF 0
ENDMDL
