MODEL 1
REMARK minimizedAffinity 2.9269886
REMARK minimizedRMSD -1
REMARK  0 active torsions:
REMARK  status: ('A' for Active; 'I' for Inactive)
ROOT
ATOM      1  C2' OXE d   1      -2.806  -4.999  -1.059  0.00  0.00     0.078 C 
ATOM      2  C1' OXE d   1      -0.944  -3.079  -0.209  0.00  0.00     0.078 C 
ATOM      3  C1  OXE d   1      -1.907  -2.689  -1.302  0.00  0.00    -0.078 A 
ATOM      4  C2  OXE d   1      -2.784  -3.650  -1.744  0.00  0.00    -0.078 A 
ATOM      5  C3  OXE d   1      -3.731  -3.326  -2.712  0.00  0.00     0.003 A 
ATOM      6  C4  OXE d   1      -3.697  -2.079  -3.347  0.00  0.00    -0.002 A 
ATOM      7  C5  OXE d   1      -2.786  -1.099  -2.939  0.00  0.00    -0.002 A 
ATOM      8  C6  OXE d   1      -1.914  -1.373  -1.891  0.00  0.00     0.003 A 
ENDROOT
TORSDOF 0
ENDMDL
