MODEL 1
REMARK minimizedAffinity 1.52705467
REMARK minimizedRMSD -1
REMARK  0 active torsions:
REMARK  status: ('A' for Active; 'I' for Inactive)
ROOT
ATOM      1  C2' OXE d   1       2.771  -0.817   2.405  0.00  0.00     0.078 C 
ATOM      2  C1' OXE d   1       1.283  -0.566   4.772  0.00  0.00     0.078 C 
ATOM      3  C1  OXE d   1       1.615  -1.958   4.293  0.00  0.00    -0.078 A 
ATOM      4  C2  OXE d   1       2.303  -2.072   3.109  0.00  0.00    -0.078 A 
ATOM      5  C3  OXE d   1       2.682  -3.330   2.650  0.00  0.00     0.003 A 
ATOM      6  C4  OXE d   1       2.236  -4.486   3.303  0.00  0.00    -0.002 A 
ATOM      7  C5  OXE d   1       1.500  -4.393   4.489  0.00  0.00    -0.002 A 
ATOM      8  C6  OXE d   1       1.218  -3.139   5.019  0.00  0.00     0.003 A 
ENDROOT
TORSDOF 0
ENDMDL
