MODEL 1
REMARK minimizedAffinity -3.19642067
REMARK minimizedRMSD -1
REMARK  0 active torsions:
REMARK  status: ('A' for Active; 'I' for Inactive)
ROOT
ATOM      1  C   UNL d   1      -0.313  -3.103  -2.214  0.00  0.00    -0.002 A 
ATOM      2  C1  UNL d   1      -0.659  -3.604  -0.967  0.00  0.00     0.010 A 
ATOM      3  C2  UNL d   1      -0.770  -2.753   0.135  0.00  0.00     0.041 A 
ATOM      4  C3  UNL d   1      -0.527  -1.376  -0.041  0.00  0.00    -0.075 A 
ATOM      5  S   UNL d   1      -0.605  -0.145   1.164  0.00  0.00     0.015 SA
ATOM      6  C4  UNL d   1      -0.182   1.075   0.051  0.00  0.00     0.022 A 
ATOM      7  C5  UNL d   1       0.017   0.573  -1.213  0.00  0.00     0.026 A 
ATOM      8  C6  UNL d   1      -0.179  -0.848  -1.287  0.00  0.00    -0.082 A 
ATOM      9  C7  UNL d   1      -0.073  -1.737  -2.384  0.00  0.00     0.045 A 
ENDROOT
TORSDOF 0
ENDMDL
