MODEL 1
REMARK minimizedAffinity 0.104707979
REMARK minimizedRMSD -1
REMARK  0 active torsions:
REMARK  status: ('A' for Active; 'I' for Inactive)
ROOT
ATOM      1  C   UNL d   1      -0.215  -1.377   1.399  0.00  0.00    -0.002 A 
ATOM      2  C1  UNL d   1      -1.386  -1.013   0.749  0.00  0.00     0.010 A 
ATOM      3  C2  UNL d   1      -1.508   0.245   0.157  0.00  0.00     0.041 A 
ATOM      4  C3  UNL d   1      -0.422   1.140   0.226  0.00  0.00    -0.075 A 
ATOM      5  S   UNL d   1      -0.343   2.733  -0.428  0.00  0.00     0.015 SA
ATOM      6  C4  UNL d   1       1.247   2.968   0.138  0.00  0.00     0.022 A 
ATOM      7  C5  UNL d   1       1.722   1.868   0.812  0.00  0.00     0.026 A 
ATOM      8  C6  UNL d   1       0.769   0.796   0.874  0.00  0.00    -0.082 A 
ATOM      9  C7  UNL d   1       0.861  -0.487   1.466  0.00  0.00     0.045 A 
ENDROOT
TORSDOF 0
ENDMDL
