MODEL 1
REMARK minimizedAffinity 3.47375464
REMARK minimizedRMSD -1
REMARK  0 active torsions:
REMARK  status: ('A' for Active; 'I' for Inactive)
ROOT
ATOM      1  C   UNL d   1       0.294   2.418  -0.020  0.00  0.00    -0.002 A 
ATOM      2  C1  UNL d   1       0.009   1.741   1.157  0.00  0.00     0.010 A 
ATOM      3  C2  UNL d   1      -0.177   0.357   1.153  0.00  0.00     0.041 A 
ATOM      4  C3  UNL d   1      -0.069  -0.342  -0.066  0.00  0.00    -0.075 A 
ATOM      5  S   UNL d   1      -0.255  -2.038  -0.311  0.00  0.00     0.015 SA
ATOM      6  C4  UNL d   1       0.040  -1.904  -1.985  0.00  0.00     0.022 A 
ATOM      7  C5  UNL d   1       0.277  -0.604  -2.364  0.00  0.00     0.026 A 
ATOM      8  C6  UNL d   1       0.219   0.318  -1.264  0.00  0.00    -0.082 A 
ATOM      9  C7  UNL d   1       0.401   1.721  -1.227  0.00  0.00     0.045 A 
ENDROOT
TORSDOF 0
ENDMDL
