MODEL 1
REMARK minimizedAffinity -1.61902094
REMARK minimizedRMSD -1
REMARK  0 active torsions:
REMARK  status: ('A' for Active; 'I' for Inactive)
ROOT
ATOM      1  C   UNL d   1       0.193  -2.583   1.207  0.00  0.00    -0.002 A 
ATOM      2  C1  UNL d   1      -0.659  -2.780   0.129  0.00  0.00     0.010 A 
ATOM      3  C2  UNL d   1      -0.986  -1.721  -0.720  0.00  0.00     0.041 A 
ATOM      4  C3  UNL d   1      -0.436  -0.449  -0.466  0.00  0.00    -0.075 A 
ATOM      5  S   UNL d   1      -0.695   0.995  -1.372  0.00  0.00     0.015 SA
ATOM      6  C4  UNL d   1       0.320   1.907  -0.350  0.00  0.00     0.022 A 
ATOM      7  C5  UNL d   1       0.851   1.144   0.663  0.00  0.00     0.026 A 
ATOM      8  C6  UNL d   1       0.425  -0.226   0.613  0.00  0.00    -0.082 A 
ATOM      9  C7  UNL d   1       0.737  -1.320   1.456  0.00  0.00     0.045 A 
ENDROOT
TORSDOF 0
ENDMDL
