MODEL 1
REMARK minimizedAffinity -2.47994161
REMARK minimizedRMSD -1
REMARK  0 active torsions:
REMARK  status: ('A' for Active; 'I' for Inactive)
ROOT
ATOM      1  C   UNL d   1      -0.991  -1.728   0.935  0.00  0.00    -0.002 A 
ATOM      2  C1  UNL d   1       0.020  -1.829   1.880  0.00  0.00     0.010 A 
ATOM      3  C2  UNL d   1       0.953  -0.802   2.034  0.00  0.00     0.041 A 
ATOM      4  C3  UNL d   1       0.851   0.340   1.216  0.00  0.00    -0.075 A 
ATOM      5  S   UNL d   1       1.881   1.723   1.228  0.00  0.00     0.015 SA
ATOM      6  C4  UNL d   1       1.002   2.481  -0.020  0.00  0.00     0.022 A 
ATOM      7  C5  UNL d   1      -0.054   1.712  -0.447  0.00  0.00     0.026 A 
ATOM      8  C6  UNL d   1      -0.159   0.466   0.258  0.00  0.00    -0.082 A 
ATOM      9  C7  UNL d   1      -1.090  -0.593   0.126  0.00  0.00     0.045 A 
ENDROOT
TORSDOF 0
ENDMDL
