MODEL 1
REMARK minimizedAffinity -0.940150082
REMARK minimizedRMSD -1
REMARK  0 active torsions:
REMARK  status: ('A' for Active; 'I' for Inactive)
ROOT
ATOM      1  C   UNL d   1      -1.036  -2.100   1.219  0.00  0.00    -0.002 A 
ATOM      2  C1  UNL d   1      -0.681  -2.662   0.001  0.00  0.00     0.010 A 
ATOM      3  C2  UNL d   1      -0.176  -1.864  -1.028  0.00  0.00     0.041 A 
ATOM      4  C3  UNL d   1      -0.031  -0.480  -0.809  0.00  0.00    -0.075 A 
ATOM      5  S   UNL d   1       0.567   0.691  -1.924  0.00  0.00     0.015 SA
ATOM      6  C4  UNL d   1       0.365   1.965  -0.809  0.00  0.00     0.022 A 
ATOM      7  C5  UNL d   1      -0.145   1.525   0.390  0.00  0.00     0.026 A 
ATOM      8  C6  UNL d   1      -0.381   0.108   0.409  0.00  0.00    -0.082 A 
ATOM      9  C7  UNL d   1      -0.891  -0.727   1.433  0.00  0.00     0.045 A 
ENDROOT
TORSDOF 0
ENDMDL
