MODEL 1
REMARK minimizedAffinity -1.01957488
REMARK minimizedRMSD -1
REMARK  0 active torsions:
REMARK  status: ('A' for Active; 'I' for Inactive)
ROOT
ATOM      1  C   UNL d   1      -0.544  -1.137   1.889  0.00  0.00    -0.002 A 
ATOM      2  C1  UNL d   1      -0.167   0.044   1.266  0.00  0.00     0.010 A 
ATOM      3  C2  UNL d   1       0.059   0.079  -0.111  0.00  0.00     0.041 A 
ATOM      4  C3  UNL d   1      -0.104  -1.104  -0.859  0.00  0.00    -0.075 A 
ATOM      5  S   UNL d   1       0.117  -1.298  -2.558  0.00  0.00     0.015 SA
ATOM      6  C4  UNL d   1      -0.285  -2.953  -2.497  0.00  0.00     0.022 A 
ATOM      7  C5  UNL d   1      -0.583  -3.364  -1.219  0.00  0.00     0.026 A 
ATOM      8  C6  UNL d   1      -0.484  -2.305  -0.254  0.00  0.00    -0.082 A 
ATOM      9  C7  UNL d   1      -0.705  -2.309   1.144  0.00  0.00     0.045 A 
ENDROOT
TORSDOF 0
ENDMDL
