MODEL 1
REMARK minimizedAffinity -2.14628935
REMARK minimizedRMSD -1
REMARK  0 active torsions:
REMARK  status: ('A' for Active; 'I' for Inactive)
ROOT
ATOM      1  C   UNL d   1      -0.797  -0.858   0.830  0.00  0.00    -0.002 A 
ATOM      2  C1  UNL d   1      -0.492  -0.768   2.181  0.00  0.00     0.010 A 
ATOM      3  C2  UNL d   1       0.161   0.358   2.688  0.00  0.00     0.041 A 
ATOM      4  C3  UNL d   1       0.504   1.401   1.806  0.00  0.00    -0.075 A 
ATOM      5  S   UNL d   1       1.306   2.875   2.201  0.00  0.00     0.015 SA
ATOM      6  C4  UNL d   1       1.262   3.419   0.587  0.00  0.00     0.022 A 
ATOM      7  C5  UNL d   1       0.654   2.511  -0.247  0.00  0.00     0.026 A 
ATOM      8  C6  UNL d   1       0.206   1.333   0.442  0.00  0.00    -0.082 A 
ATOM      9  C7  UNL d   1      -0.456   0.179  -0.041  0.00  0.00     0.045 A 
ENDROOT
TORSDOF 0
ENDMDL
