MODEL 1
REMARK minimizedAffinity 9.22645569
REMARK minimizedRMSD -1
REMARK  0 active torsions:
REMARK  status: ('A' for Active; 'I' for Inactive)
ROOT
ATOM      1  C   UNL d   1       1.593  -0.315  -4.029  0.00  0.00    -0.002 A 
ATOM      2  C1  UNL d   1       1.154  -1.631  -4.056  0.00  0.00     0.010 A 
ATOM      3  C2  UNL d   1       0.803  -2.287  -2.875  0.00  0.00     0.041 A 
ATOM      4  C3  UNL d   1       0.899  -1.590  -1.654  0.00  0.00    -0.075 A 
ATOM      5  S   UNL d   1       0.522  -2.190  -0.082  0.00  0.00     0.015 SA
ATOM      6  C4  UNL d   1       0.933  -0.712   0.662  0.00  0.00     0.022 A 
ATOM      7  C5  UNL d   1       1.350   0.226  -0.252  0.00  0.00     0.026 A 
ATOM      8  C6  UNL d   1       1.337  -0.264  -1.602  0.00  0.00    -0.082 A 
ATOM      9  C7  UNL d   1       1.686   0.373  -2.817  0.00  0.00     0.045 A 
ENDROOT
TORSDOF 0
ENDMDL
