MODEL 1
REMARK minimizedAffinity 2.63847995
REMARK minimizedRMSD -1
REMARK  0 active torsions:
REMARK  status: ('A' for Active; 'I' for Inactive)
ROOT
ATOM      1  C   UNL d   1      -4.146   4.563   1.513  0.00  0.00    -0.002 A 
ATOM      2  C1  UNL d   1      -3.272   3.738   2.208  0.00  0.00     0.010 A 
ATOM      3  C2  UNL d   1      -3.311   3.676   3.602  0.00  0.00     0.041 A 
ATOM      4  C3  UNL d   1      -4.252   4.464   4.293  0.00  0.00    -0.075 A 
ATOM      5  S   UNL d   1      -4.483   4.550   6.000  0.00  0.00     0.015 SA
ATOM      6  C4  UNL d   1      -5.747   5.683   5.847  0.00  0.00     0.022 A 
ATOM      7  C5  UNL d   1      -6.000   5.999   4.533  0.00  0.00     0.026 A 
ATOM      8  C6  UNL d   1      -5.143   5.301   3.616  0.00  0.00    -0.082 A 
ATOM      9  C7  UNL d   1      -5.078   5.343   2.202  0.00  0.00     0.045 A 
ENDROOT
TORSDOF 0
ENDMDL
