MODEL 1
REMARK minimizedAffinity -0.321355581
REMARK minimizedRMSD -1
REMARK  0 active torsions:
REMARK  status: ('A' for Active; 'I' for Inactive)
ROOT
ATOM      1  C   UNL d   1      -5.854   0.761   2.988  0.00  0.00    -0.002 A 
ATOM      2  C1  UNL d   1      -6.000  -0.545   2.541  0.00  0.00     0.010 A 
ATOM      3  C2  UNL d   1      -4.971  -1.473   2.712  0.00  0.00     0.041 A 
ATOM      4  C3  UNL d   1      -3.782  -1.063   3.347  0.00  0.00    -0.075 A 
ATOM      5  S   UNL d   1      -2.388  -2.027   3.666  0.00  0.00     0.015 SA
ATOM      6  C4  UNL d   1      -1.567  -0.728   4.403  0.00  0.00     0.022 A 
ATOM      7  C5  UNL d   1      -2.322   0.420   4.414  0.00  0.00     0.026 A 
ATOM      8  C6  UNL d   1      -3.612   0.246   3.806  0.00  0.00    -0.082 A 
ATOM      9  C7  UNL d   1      -4.673   1.164   3.617  0.00  0.00     0.045 A 
ENDROOT
TORSDOF 0
ENDMDL
