MODEL 1
REMARK minimizedAffinity 2.39802575
REMARK minimizedRMSD -1
REMARK  0 active torsions:
REMARK  status: ('A' for Active; 'I' for Inactive)
ROOT
ATOM      1  C   UNL d   1       1.410  -0.721  -1.074  0.00  0.00    -0.002 A 
ATOM      2  C1  UNL d   1       0.025  -0.720  -1.164  0.00  0.00     0.010 A 
ATOM      3  C2  UNL d   1      -0.726  -1.737  -0.572  0.00  0.00     0.041 A 
ATOM      4  C3  UNL d   1      -0.055  -2.764   0.121  0.00  0.00    -0.075 A 
ATOM      5  S   UNL d   1      -0.768  -4.112   0.926  0.00  0.00     0.015 SA
ATOM      6  C4  UNL d   1       0.749  -4.721   1.410  0.00  0.00     0.022 A 
ATOM      7  C5  UNL d   1       1.785  -3.927   0.976  0.00  0.00     0.026 A 
ATOM      8  C6  UNL d   1       1.338  -2.787   0.227  0.00  0.00    -0.082 A 
ATOM      9  C7  UNL d   1       2.072  -1.742  -0.386  0.00  0.00     0.045 A 
ENDROOT
TORSDOF 0
ENDMDL
