MODEL 1
REMARK minimizedAffinity 14.0448084
REMARK minimizedRMSD -1
REMARK  0 active torsions:
REMARK  status: ('A' for Active; 'I' for Inactive)
ROOT
ATOM      1  C   UNL d   1      -3.951   5.215   1.481  0.00  0.00    -0.002 A 
ATOM      2  C1  UNL d   1      -2.778   4.836   2.118  0.00  0.00     0.010 A 
ATOM      3  C2  UNL d   1      -2.689   4.848   3.511  0.00  0.00     0.041 A 
ATOM      4  C3  UNL d   1      -3.812   5.250   4.261  0.00  0.00    -0.075 A 
ATOM      5  S   UNL d   1      -3.936   5.342   5.979  0.00  0.00     0.015 SA
ATOM      6  C4  UNL d   1      -5.549   5.885   5.908  0.00  0.00     0.022 A 
ATOM      7  C5  UNL d   1      -5.999   5.999   4.614  0.00  0.00     0.026 A 
ATOM      8  C6  UNL d   1      -5.005   5.634   3.644  0.00  0.00    -0.082 A 
ATOM      9  C7  UNL d   1      -5.063   5.612   2.229  0.00  0.00     0.045 A 
ENDROOT
TORSDOF 0
ENDMDL
