MODEL 1
REMARK minimizedAffinity 14.7049341
REMARK minimizedRMSD -1
REMARK  0 active torsions:
REMARK  status: ('A' for Active; 'I' for Inactive)
ROOT
ATOM      1  C   UNL d   1       0.830  -1.472  -0.567  0.00  0.00    -0.002 A 
ATOM      2  C1  UNL d   1       0.190  -0.337  -0.089  0.00  0.00     0.010 A 
ATOM      3  C2  UNL d   1       0.159   0.834  -0.849  0.00  0.00     0.041 A 
ATOM      4  C3  UNL d   1       0.786   0.844  -2.110  0.00  0.00    -0.075 A 
ATOM      5  S   UNL d   1       0.875   2.164  -3.216  0.00  0.00     0.015 SA
ATOM      6  C4  UNL d   1       1.763   1.253  -4.349  0.00  0.00     0.022 A 
ATOM      7  C5  UNL d   1       1.995  -0.030  -3.911  0.00  0.00     0.026 A 
ATOM      8  C6  UNL d   1       1.436  -0.286  -2.614  0.00  0.00    -0.082 A 
ATOM      9  C7  UNL d   1       1.451  -1.458  -1.819  0.00  0.00     0.045 A 
ENDROOT
TORSDOF 0
ENDMDL
