MODEL 1
REMARK minimizedAffinity 3.88532686
REMARK minimizedRMSD -1
REMARK  0 active torsions:
REMARK  status: ('A' for Active; 'I' for Inactive)
ROOT
ATOM      1  C   UNL d   1       1.691  -1.949  -4.101  0.00  0.00    -0.002 A 
ATOM      2  C1  UNL d   1       1.472  -0.654  -4.546  0.00  0.00     0.010 A 
ATOM      3  C2  UNL d   1       1.031   0.335  -3.665  0.00  0.00     0.041 A 
ATOM      4  C3  UNL d   1       0.814  -0.003  -2.314  0.00  0.00    -0.075 A 
ATOM      5  S   UNL d   1       0.275   1.044  -1.054  0.00  0.00     0.015 SA
ATOM      6  C4  UNL d   1       0.325  -0.205   0.105  0.00  0.00     0.022 A 
ATOM      7  C5  UNL d   1       0.740  -1.397  -0.439  0.00  0.00     0.026 A 
ATOM      8  C6  UNL d   1       1.029  -1.301  -1.842  0.00  0.00    -0.082 A 
ATOM      9  C7  UNL d   1       1.475  -2.281  -2.760  0.00  0.00     0.045 A 
ENDROOT
TORSDOF 0
ENDMDL
