MODEL 1
REMARK minimizedAffinity 2.56064057
REMARK minimizedRMSD -1
REMARK  0 active torsions:
REMARK  status: ('A' for Active; 'I' for Inactive)
ROOT
ATOM      1  C   UNL d   1       1.126  -0.131  -0.869  0.00  0.00    -0.002 A 
ATOM      2  C1  UNL d   1       0.281   0.966  -0.783  0.00  0.00     0.010 A 
ATOM      3  C2  UNL d   1       0.186   1.874  -1.840  0.00  0.00     0.041 A 
ATOM      4  C3  UNL d   1       0.961   1.657  -2.996  0.00  0.00    -0.075 A 
ATOM      5  S   UNL d   1       1.007   2.635  -4.415  0.00  0.00     0.015 SA
ATOM      6  C4  UNL d   1       2.149   1.619  -5.169  0.00  0.00     0.022 A 
ATOM      7  C5  UNL d   1       2.498   0.555  -4.372  0.00  0.00     0.026 A 
ATOM      8  C6  UNL d   1       1.819   0.559  -3.107  0.00  0.00    -0.082 A 
ATOM      9  C7  UNL d   1       1.893  -0.343  -2.018  0.00  0.00     0.045 A 
ENDROOT
TORSDOF 0
ENDMDL
