MODEL 1
REMARK minimizedAffinity 16.7505932
REMARK minimizedRMSD -1
REMARK  0 active torsions:
REMARK  status: ('A' for Active; 'I' for Inactive)
ROOT
ATOM      1  C   UNL d   1       1.289   1.684  -2.872  0.00  0.00    -0.002 A 
ATOM      2  C1  UNL d   1       0.837   1.864  -1.573  0.00  0.00     0.010 A 
ATOM      3  C2  UNL d   1       0.435   0.770  -0.803  0.00  0.00     0.041 A 
ATOM      4  C3  UNL d   1       0.498  -0.520  -1.367  0.00  0.00    -0.075 A 
ATOM      5  S   UNL d   1       0.059  -2.006  -0.612  0.00  0.00     0.015 SA
ATOM      6  C4  UNL d   1       0.462  -2.915  -1.997  0.00  0.00     0.022 A 
ATOM      7  C5  UNL d   1       0.922  -2.119  -3.019  0.00  0.00     0.026 A 
ATOM      8  C6  UNL d   1       0.951  -0.726  -2.673  0.00  0.00    -0.082 A 
ATOM      9  C7  UNL d   1       1.350   0.403  -3.428  0.00  0.00     0.045 A 
ENDROOT
TORSDOF 0
ENDMDL
