MODEL 1
REMARK minimizedAffinity 7.63993073
REMARK minimizedRMSD -1
REMARK  0 active torsions:
REMARK  status: ('A' for Active; 'I' for Inactive)
ROOT
ATOM      1  C   UNL d   1       0.767   1.829  -3.010  0.00  0.00    -0.002 A 
ATOM      2  C1  UNL d   1       1.376   0.829  -3.754  0.00  0.00     0.010 A 
ATOM      3  C2  UNL d   1       1.580  -0.440  -3.207  0.00  0.00     0.041 A 
ATOM      4  C3  UNL d   1       1.156  -0.689  -1.887  0.00  0.00    -0.075 A 
ATOM      5  S   UNL d   1       1.301  -2.166  -1.010  0.00  0.00     0.015 SA
ATOM      6  C4  UNL d   1       0.557  -1.505   0.373  0.00  0.00     0.022 A 
ATOM      7  C5  UNL d   1       0.201  -0.190   0.188  0.00  0.00     0.026 A 
ATOM      8  C6  UNL d   1       0.540   0.302  -1.118  0.00  0.00    -0.082 A 
ATOM      9  C7  UNL d   1       0.348   1.578  -1.700  0.00  0.00     0.045 A 
ENDROOT
TORSDOF 0
ENDMDL
