MODEL 1
REMARK minimizedAffinity 5.21788168
REMARK minimizedRMSD -1
REMARK  0 active torsions:
REMARK  status: ('A' for Active; 'I' for Inactive)
ROOT
ATOM      1  C   UNL d   1       0.770   1.913  -1.869  0.00  0.00    -0.002 A 
ATOM      2  C1  UNL d   1       0.670   1.069  -0.772  0.00  0.00     0.010 A 
ATOM      3  C2  UNL d   1       0.774  -0.314  -0.928  0.00  0.00     0.041 A 
ATOM      4  C3  UNL d   1       0.984  -0.840  -2.218  0.00  0.00    -0.075 A 
ATOM      5  S   UNL d   1       1.144  -2.502  -2.649  0.00  0.00     0.015 SA
ATOM      6  C4  UNL d   1       1.350  -2.131  -4.300  0.00  0.00     0.022 A 
ATOM      7  C5  UNL d   1       1.301  -0.777  -4.534  0.00  0.00     0.026 A 
ATOM      8  C6  UNL d   1       1.090  -0.011  -3.338  0.00  0.00    -0.082 A 
ATOM      9  C7  UNL d   1       0.979   1.388  -3.147  0.00  0.00     0.045 A 
ENDROOT
TORSDOF 0
ENDMDL
