MODEL 1
REMARK minimizedAffinity 14.9138947
REMARK minimizedRMSD -1
REMARK  0 active torsions:
REMARK  status: ('A' for Active; 'I' for Inactive)
ROOT
ATOM      1  C   UNL d   1       4.702  -5.998   4.252  0.00  0.00    -0.002 A 
ATOM      2  C1  UNL d   1       3.767  -5.997   5.277  0.00  0.00     0.010 A 
ATOM      3  C2  UNL d   1       2.400  -5.996   4.991  0.00  0.00     0.041 A 
ATOM      4  C3  UNL d   1       1.986  -5.997   3.645  0.00  0.00    -0.075 A 
ATOM      5  S   UNL d   1       0.365  -5.997   3.056  0.00  0.00     0.015 SA
ATOM      6  C4  UNL d   1       0.877  -5.998   1.430  0.00  0.00     0.022 A 
ATOM      7  C5  UNL d   1       2.247  -5.999   1.321  0.00  0.00     0.026 A 
ATOM      8  C6  UNL d   1       2.909  -5.999   2.595  0.00  0.00    -0.082 A 
ATOM      9  C7  UNL d   1       4.287  -5.999   2.918  0.00  0.00     0.045 A 
ENDROOT
TORSDOF 0
ENDMDL
