MODEL 1
REMARK minimizedAffinity -3.09498453
REMARK minimizedRMSD -1
REMARK  0 active torsions:
REMARK  status: ('A' for Active; 'I' for Inactive)
ROOT
ATOM      1  C   UNL d   1      -0.168  -1.510  -3.355  0.00  0.00     0.172 C 
ATOM      2  N   UNL d   1       1.126  -0.965  -3.018  0.00  0.00    -0.070 N 
ATOM      3  C1  UNL d   1       1.381   0.341  -2.692  0.00  0.00    -0.004 A 
ATOM      4  C2  UNL d   1       2.731   0.456  -2.438  0.00  0.00    -0.047 A 
ATOM      5  C3  UNL d   1       3.306  -0.824  -2.618  0.00  0.00    -0.047 A 
ATOM      6  C4  UNL d   1       2.290  -1.685  -2.977  0.00  0.00    -0.004 A 
ENDROOT
TORSDOF 0
ENDMDL
