MODEL 1
REMARK minimizedAffinity -2.79801869
REMARK minimizedRMSD -1
REMARK  0 active torsions:
REMARK  status: ('A' for Active; 'I' for Inactive)
ROOT
ATOM      1  C   UNL d   1       0.051   0.695  -1.795  0.00  0.00     0.172 C 
ATOM      2  N   UNL d   1       0.845  -0.102  -2.700  0.00  0.00    -0.070 N 
ATOM      3  C1  UNL d   1       0.363  -1.058  -3.554  0.00  0.00    -0.004 A 
ATOM      4  C2  UNL d   1       1.433  -1.587  -4.243  0.00  0.00    -0.047 A 
ATOM      5  C3  UNL d   1       2.599  -0.927  -3.786  0.00  0.00    -0.047 A 
ATOM      6  C4  UNL d   1       2.205  -0.013  -2.831  0.00  0.00    -0.004 A 
ENDROOT
TORSDOF 0
ENDMDL
