MODEL 1
REMARK minimizedAffinity -3.26411986
REMARK minimizedRMSD -1
REMARK  0 active torsions:
REMARK  status: ('A' for Active; 'I' for Inactive)
ROOT
ATOM      1  C   UNL d   1       0.089  -0.374   0.326  0.00  0.00     0.172 C 
ATOM      2  N   UNL d   1      -0.862  -0.166   1.392  0.00  0.00    -0.070 N 
ATOM      3  C1  UNL d   1      -0.624  -0.371   2.725  0.00  0.00    -0.004 A 
ATOM      4  C2  UNL d   1      -1.778  -0.060   3.412  0.00  0.00    -0.047 A 
ATOM      5  C3  UNL d   1      -2.743   0.344   2.459  0.00  0.00    -0.047 A 
ATOM      6  C4  UNL d   1      -2.149   0.269   1.217  0.00  0.00    -0.004 A 
ENDROOT
TORSDOF 0
ENDMDL
