MODEL 1
REMARK minimizedAffinity -4.3138237
REMARK minimizedRMSD -1
REMARK  0 active torsions:
REMARK  status: ('A' for Active; 'I' for Inactive)
ROOT
ATOM      1  C   UNL d   1       0.579  -0.687   0.595  0.00  0.00     0.172 C 
ATOM      2  N   UNL d   1      -0.429  -0.233   1.524  0.00  0.00    -0.070 N 
ATOM      3  C1  UNL d   1      -0.206   0.148   2.821  0.00  0.00    -0.004 A 
ATOM      4  C2  UNL d   1      -1.418   0.512   3.367  0.00  0.00    -0.047 A 
ATOM      5  C3  UNL d   1      -2.403   0.343   2.365  0.00  0.00    -0.047 A 
ATOM      6  C4  UNL d   1      -1.763  -0.119   1.235  0.00  0.00    -0.004 A 
ENDROOT
TORSDOF 0
ENDMDL
