MODEL 1
REMARK minimizedAffinity -3.721138
REMARK minimizedRMSD -1
REMARK  0 active torsions:
REMARK  status: ('A' for Active; 'I' for Inactive)
ROOT
ATOM      1  C   UNL d   1      -0.279   0.733  -0.926  0.00  0.00     0.172 C 
ATOM      2  N   UNL d   1      -0.252   0.278   0.445  0.00  0.00    -0.070 N 
ATOM      3  C1  UNL d   1       0.734   0.546   1.356  0.00  0.00    -0.004 A 
ATOM      4  C2  UNL d   1       0.390  -0.064   2.542  0.00  0.00    -0.047 A 
ATOM      5  C3  UNL d   1      -0.847  -0.721   2.338  0.00  0.00    -0.047 A 
ATOM      6  C4  UNL d   1      -1.221  -0.493   1.030  0.00  0.00    -0.004 A 
ENDROOT
TORSDOF 0
ENDMDL
