MODEL 1
REMARK minimizedAffinity -3.09818792
REMARK minimizedRMSD -1
REMARK  0 active torsions:
REMARK  status: ('A' for Active; 'I' for Inactive)
ROOT
ATOM      1  C   UNL d   1       0.014  -0.005  -1.061  0.00  0.00     0.172 C 
ATOM      2  N   UNL d   1      -0.208   0.005   0.366  0.00  0.00    -0.070 N 
ATOM      3  C1  UNL d   1      -1.430   0.038   0.984  0.00  0.00    -0.004 A 
ATOM      4  C2  UNL d   1      -1.215   0.036   2.345  0.00  0.00    -0.047 A 
ATOM      5  C3  UNL d   1       0.184   0.000   2.553  0.00  0.00    -0.047 A 
ATOM      6  C4  UNL d   1       0.784  -0.018   1.311  0.00  0.00    -0.004 A 
ENDROOT
TORSDOF 0
ENDMDL
