MODEL 1
REMARK minimizedAffinity -3.2284174
REMARK minimizedRMSD -1
REMARK  0 active torsions:
REMARK  status: ('A' for Active; 'I' for Inactive)
ROOT
ATOM      1  C   UNL d   1      -0.104   0.429  -0.654  0.00  0.00     0.172 C 
ATOM      2  N   UNL d   1      -0.280   0.054   0.729  0.00  0.00    -0.070 N 
ATOM      3  C1  UNL d   1      -1.368  -0.596   1.248  0.00  0.00    -0.004 A 
ATOM      4  C2  UNL d   1      -1.153  -0.769   2.598  0.00  0.00    -0.047 A 
ATOM      5  C3  UNL d   1       0.107  -0.202   2.902  0.00  0.00    -0.047 A 
ATOM      6  C4  UNL d   1       0.626   0.301   1.727  0.00  0.00    -0.004 A 
ENDROOT
TORSDOF 0
ENDMDL
