MODEL 1
REMARK minimizedAffinity -3.40996289
REMARK minimizedRMSD -1
REMARK  0 active torsions:
REMARK  status: ('A' for Active; 'I' for Inactive)
ROOT
ATOM      1  C   UNL d   1       0.015   0.366  -1.263  0.00  0.00     0.172 C 
ATOM      2  N   UNL d   1      -0.079   0.122   0.157  0.00  0.00    -0.070 N 
ATOM      3  C1  UNL d   1       0.814   0.551   1.102  0.00  0.00    -0.004 A 
ATOM      4  C2  UNL d   1       0.369   0.115   2.332  0.00  0.00    -0.047 A 
ATOM      5  C3  UNL d   1      -0.832  -0.602   2.118  0.00  0.00    -0.047 A 
ATOM      6  C4  UNL d   1      -1.087  -0.582   0.763  0.00  0.00    -0.004 A 
ENDROOT
TORSDOF 0
ENDMDL
