MODEL 1
REMARK minimizedAffinity -3.24113345
REMARK minimizedRMSD -1
REMARK  0 active torsions:
REMARK  status: ('A' for Active; 'I' for Inactive)
ROOT
ATOM      1  C   UNL d   1      -0.085   0.295  -0.636  0.00  0.00     0.172 C 
ATOM      2  N   UNL d   1      -0.546  -0.026   0.694  0.00  0.00    -0.070 N 
ATOM      3  C1  UNL d   1       0.212   0.013   1.834  0.00  0.00    -0.004 A 
ATOM      4  C2  UNL d   1      -0.592  -0.361   2.889  0.00  0.00    -0.047 A 
ATOM      5  C3  UNL d   1      -1.878  -0.635   2.365  0.00  0.00    -0.047 A 
ATOM      6  C4  UNL d   1      -1.822  -0.420   1.004  0.00  0.00    -0.004 A 
ENDROOT
TORSDOF 0
ENDMDL
