MODEL 1
REMARK minimizedAffinity -3.25562358
REMARK minimizedRMSD -1
REMARK  0 active torsions:
REMARK  status: ('A' for Active; 'I' for Inactive)
ROOT
ATOM      1  C   UNL d   1      -0.286  -1.589  -3.104  0.00  0.00     0.172 C 
ATOM      2  N   UNL d   1       1.088  -1.147  -3.152  0.00  0.00    -0.070 N 
ATOM      3  C1  UNL d   1       2.173  -1.939  -3.416  0.00  0.00    -0.004 A 
ATOM      4  C2  UNL d   1       3.298  -1.143  -3.369  0.00  0.00    -0.047 A 
ATOM      5  C3  UNL d   1       2.873   0.172  -3.065  0.00  0.00    -0.047 A 
ATOM      6  C4  UNL d   1       1.501   0.142  -2.936  0.00  0.00    -0.004 A 
ENDROOT
TORSDOF 0
ENDMDL
