MODEL 1
REMARK minimizedAffinity -3.12342453
REMARK minimizedRMSD -1
REMARK  0 active torsions:
REMARK  status: ('A' for Active; 'I' for Inactive)
ROOT
ATOM      1  C   UNL d   1       0.241  -0.076  -0.738  0.00  0.00     0.172 C 
ATOM      2  N   UNL d   1       0.199  -0.225   0.698  0.00  0.00    -0.070 N 
ATOM      3  C1  UNL d   1       0.782  -1.237   1.413  0.00  0.00    -0.004 A 
ATOM      4  C2  UNL d   1       0.514  -1.019   2.747  0.00  0.00    -0.047 A 
ATOM      5  C3  UNL d   1      -0.257   0.164   2.837  0.00  0.00    -0.047 A 
ATOM      6  C4  UNL d   1      -0.438   0.635   1.554  0.00  0.00    -0.004 A 
ENDROOT
TORSDOF 0
ENDMDL
