MODEL 1
REMARK minimizedAffinity -3.17442298
REMARK minimizedRMSD -1
REMARK  0 active torsions:
REMARK  status: ('A' for Active; 'I' for Inactive)
ROOT
ATOM      1  C   UNL d   1      -0.036   0.251  -1.058  0.00  0.00     0.172 C 
ATOM      2  N   UNL d   1      -0.387  -0.151   0.284  0.00  0.00    -0.070 N 
ATOM      3  C1  UNL d   1       0.497  -0.487   1.273  0.00  0.00    -0.004 A 
ATOM      4  C2  UNL d   1      -0.231  -0.808   2.399  0.00  0.00    -0.047 A 
ATOM      5  C3  UNL d   1      -1.601  -0.660   2.074  0.00  0.00    -0.047 A 
ATOM      6  C4  UNL d   1      -1.669  -0.253   0.758  0.00  0.00    -0.004 A 
ENDROOT
TORSDOF 0
ENDMDL
