MODEL 1
REMARK minimizedAffinity -3.02586532
REMARK minimizedRMSD -1
REMARK  0 active torsions:
REMARK  status: ('A' for Active; 'I' for Inactive)
ROOT
ATOM      1  C   UNL d   1       0.341   0.274  -1.096  0.00  0.00     0.172 C 
ATOM      2  N   UNL d   1       0.157  -0.047   0.300  0.00  0.00    -0.070 N 
ATOM      3  C1  UNL d   1      -0.932  -0.681   0.836  0.00  0.00    -0.004 A 
ATOM      4  C2  UNL d   1      -0.724  -0.800   2.194  0.00  0.00    -0.047 A 
ATOM      5  C3  UNL d   1       0.532  -0.215   2.483  0.00  0.00    -0.047 A 
ATOM      6  C4  UNL d   1       1.055   0.243   1.292  0.00  0.00    -0.004 A 
ENDROOT
TORSDOF 0
ENDMDL
