MODEL 1
REMARK minimizedAffinity -3.11617351
REMARK minimizedRMSD -1
REMARK  0 active torsions:
REMARK  status: ('A' for Active; 'I' for Inactive)
ROOT
ATOM      1  C   UNL d   1      -0.635  -0.992   2.897  0.00  0.00     0.172 C 
ATOM      2  N   UNL d   1      -0.645  -0.380   1.589  0.00  0.00    -0.070 N 
ATOM      3  C1  UNL d   1      -1.706  -0.364   0.723  0.00  0.00    -0.004 A 
ATOM      4  C2  UNL d   1      -1.315   0.315  -0.410  0.00  0.00    -0.047 A 
ATOM      5  C3  UNL d   1       0.028   0.719  -0.220  0.00  0.00    -0.047 A 
ATOM      6  C4  UNL d   1       0.417   0.276   1.026  0.00  0.00    -0.004 A 
ENDROOT
TORSDOF 0
ENDMDL
