MODEL 1
REMARK minimizedAffinity -1.7923938
REMARK minimizedRMSD -1
REMARK  0 active torsions:
REMARK  status: ('A' for Active; 'I' for Inactive)
ROOT
ATOM      1  C   UNL d   1       0.234   0.164  -0.439  0.00  0.00     0.172 C 
ATOM      2  N   UNL d   1      -0.219  -0.123   0.903  0.00  0.00    -0.070 N 
ATOM      3  C1  UNL d   1      -0.942  -1.221   1.284  0.00  0.00    -0.004 A 
ATOM      4  C2  UNL d   1      -1.173  -1.125   2.639  0.00  0.00    -0.047 A 
ATOM      5  C3  UNL d   1      -0.569   0.074   3.088  0.00  0.00    -0.047 A 
ATOM      6  C4  UNL d   1       0.015   0.675   1.992  0.00  0.00    -0.004 A 
ENDROOT
TORSDOF 0
ENDMDL
