MODEL 1
REMARK minimizedAffinity 15.22293
REMARK minimizedRMSD -1
REMARK  0 active torsions:
REMARK  status: ('A' for Active; 'I' for Inactive)
ROOT
ATOM      1  C   UNL d   1       2.833  -1.204  -0.374  0.00  0.00    -0.002 A 
ATOM      2  C1  UNL d   1       3.294  -2.418   0.115  0.00  0.00     0.010 A 
ATOM      3  C2  UNL d   1       2.839  -3.621  -0.427  0.00  0.00     0.041 A 
ATOM      4  C3  UNL d   1       1.904  -3.584  -1.480  0.00  0.00    -0.075 A 
ATOM      5  S   UNL d   1       1.206  -4.931  -2.300  0.00  0.00     0.015 SA
ATOM      6  C4  UNL d   1       0.280  -3.927  -3.319  0.00  0.00     0.022 A 
ATOM      7  C5  UNL d   1       0.486  -2.593  -3.054  0.00  0.00     0.026 A 
ATOM      8  C6  UNL d   1       1.425  -2.374  -1.990  0.00  0.00    -0.082 A 
ATOM      9  C7  UNL d   1       1.905  -1.171  -1.419  0.00  0.00     0.045 A 
ENDROOT
TORSDOF 0
ENDMDL
