MODEL 1
REMARK minimizedAffinity 8.5546627
REMARK minimizedRMSD -1
REMARK  0 active torsions:
REMARK  status: ('A' for Active; 'I' for Inactive)
ROOT
ATOM      1  C   UNL d   1      -0.216   1.118   2.269  0.00  0.00    -0.002 A 
ATOM      2  C1  UNL d   1      -0.963   1.938   3.102  0.00  0.00     0.010 A 
ATOM      3  C2  UNL d   1      -2.290   1.623   3.405  0.00  0.00     0.041 A 
ATOM      4  C3  UNL d   1      -2.856   0.457   2.852  0.00  0.00    -0.075 A 
ATOM      5  S   UNL d   1      -4.461  -0.129   3.084  0.00  0.00     0.015 SA
ATOM      6  C4  UNL d   1      -4.192  -1.482   2.084  0.00  0.00     0.022 A 
ATOM      7  C5  UNL d   1      -2.914  -1.502   1.576  0.00  0.00     0.026 A 
ATOM      8  C6  UNL d   1      -2.123  -0.385   2.011  0.00  0.00    -0.082 A 
ATOM      9  C7  UNL d   1      -0.781  -0.037   1.723  0.00  0.00     0.045 A 
ENDROOT
TORSDOF 0
ENDMDL
