MODEL 1
REMARK minimizedAffinity 16.567667
REMARK minimizedRMSD -1
REMARK  0 active torsions:
REMARK  status: ('A' for Active; 'I' for Inactive)
ROOT
ATOM      1  C   UNL d   1       3.216  -2.387   0.147  0.00  0.00    -0.002 A 
ATOM      2  C1  UNL d   1       2.201  -1.836  -0.623  0.00  0.00     0.010 A 
ATOM      3  C2  UNL d   1       2.064  -0.451  -0.732  0.00  0.00     0.041 A 
ATOM      4  C3  UNL d   1       2.974   0.380  -0.049  0.00  0.00    -0.075 A 
ATOM      5  S   UNL d   1       3.001   2.104  -0.038  0.00  0.00     0.015 SA
ATOM      6  C4  UNL d   1       4.361   2.150   0.988  0.00  0.00     0.022 A 
ATOM      7  C5  UNL d   1       4.797   0.890   1.324  0.00  0.00     0.026 A 
ATOM      8  C6  UNL d   1       4.005  -0.151   0.731  0.00  0.00    -0.082 A 
ATOM      9  C7  UNL d   1       4.117  -1.559   0.822  0.00  0.00     0.045 A 
ENDROOT
TORSDOF 0
ENDMDL
