MODEL 1
REMARK minimizedAffinity 13.1701155
REMARK minimizedRMSD -1
REMARK  0 active torsions:
REMARK  status: ('A' for Active; 'I' for Inactive)
ROOT
ATOM      1  C   UNL d   1       2.214  -3.733  -0.513  0.00  0.00    -0.002 A 
ATOM      2  C1  UNL d   1       1.449  -3.739  -1.670  0.00  0.00     0.010 A 
ATOM      3  C2  UNL d   1       1.193  -2.552  -2.359  0.00  0.00     0.041 A 
ATOM      4  C3  UNL d   1       1.725  -1.346  -1.861  0.00  0.00    -0.075 A 
ATOM      5  S   UNL d   1       1.543   0.229  -2.537  0.00  0.00     0.015 SA
ATOM      6  C4  UNL d   1       2.478   0.947  -1.307  0.00  0.00     0.022 A 
ATOM      7  C5  UNL d   1       2.926   0.023  -0.393  0.00  0.00     0.026 A 
ATOM      8  C6  UNL d   1       2.500  -1.315  -0.698  0.00  0.00    -0.082 A 
ATOM      9  C7  UNL d   1       2.741  -2.535  -0.022  0.00  0.00     0.045 A 
ENDROOT
TORSDOF 0
ENDMDL
