MODEL 1
REMARK minimizedAffinity 14.768364
REMARK minimizedRMSD -1
REMARK  0 active torsions:
REMARK  status: ('A' for Active; 'I' for Inactive)
ROOT
ATOM      1  C   UNL d   1       1.829  -4.257  -1.780  0.00  0.00    -0.002 A 
ATOM      2  C1  UNL d   1       2.557  -4.219  -0.599  0.00  0.00     0.010 A 
ATOM      3  C2  UNL d   1       2.881  -2.999  -0.004  0.00  0.00     0.041 A 
ATOM      4  C3  UNL d   1       2.456  -1.805  -0.620  0.00  0.00    -0.075 A 
ATOM      5  S   UNL d   1       2.736  -0.195  -0.072  0.00  0.00     0.015 SA
ATOM      6  C4  UNL d   1       1.896   0.481  -1.392  0.00  0.00     0.022 A 
ATOM      7  C5  UNL d   1       1.407  -0.484  -2.240  0.00  0.00     0.026 A 
ATOM      8  C6  UNL d   1       1.721  -1.818  -1.809  0.00  0.00    -0.082 A 
ATOM      9  C7  UNL d   1       1.409  -3.071  -2.389  0.00  0.00     0.045 A 
ENDROOT
TORSDOF 0
ENDMDL
