MODEL 1
REMARK minimizedAffinity 12.2011948
REMARK minimizedRMSD -1
REMARK  0 active torsions:
REMARK  status: ('A' for Active; 'I' for Inactive)
ROOT
ATOM      1  C   UNL d   1       3.976   1.825  -0.455  0.00  0.00    -0.002 A 
ATOM      2  C1  UNL d   1       4.510   2.543   0.605  0.00  0.00     0.010 A 
ATOM      3  C2  UNL d   1       3.818   2.645   1.814  0.00  0.00     0.041 A 
ATOM      4  C3  UNL d   1       2.570   2.004   1.941  0.00  0.00    -0.075 A 
ATOM      5  S   UNL d   1       1.545   1.991   3.327  0.00  0.00     0.015 SA
ATOM      6  C4  UNL d   1       0.374   1.030   2.544  0.00  0.00     0.022 A 
ATOM      7  C5  UNL d   1       0.740   0.719   1.256  0.00  0.00     0.026 A 
ATOM      8  C6  UNL d   1       2.012   1.274   0.887  0.00  0.00    -0.082 A 
ATOM      9  C7  UNL d   1       2.737   1.191  -0.326  0.00  0.00     0.045 A 
ENDROOT
TORSDOF 0
ENDMDL
