MODEL 1
REMARK minimizedAffinity 11.4532604
REMARK minimizedRMSD -1
REMARK  0 active torsions:
REMARK  status: ('A' for Active; 'I' for Inactive)
ROOT
ATOM      1  C   UNL d   1       2.718  -1.925  -0.240  0.00  0.00    -0.002 A 
ATOM      2  C1  UNL d   1       3.526  -2.980   0.159  0.00  0.00     0.010 A 
ATOM      3  C2  UNL d   1       3.419  -4.229  -0.457  0.00  0.00     0.041 A 
ATOM      4  C3  UNL d   1       2.479  -4.400  -1.492  0.00  0.00    -0.075 A 
ATOM      5  S   UNL d   1       2.173  -5.839  -2.391  0.00  0.00     0.015 SA
ATOM      6  C4  UNL d   1       0.964  -5.087  -3.326  0.00  0.00     0.022 A 
ATOM      7  C5  UNL d   1       0.784  -3.770  -2.975  0.00  0.00     0.026 A 
ATOM      8  C6  UNL d   1       1.655  -3.352  -1.912  0.00  0.00    -0.082 A 
ATOM      9  C7  UNL d   1       1.787  -2.099  -1.267  0.00  0.00     0.045 A 
ENDROOT
TORSDOF 0
ENDMDL
