MODEL 1
REMARK minimizedAffinity 9.63764191
REMARK minimizedRMSD -1
REMARK  0 active torsions:
REMARK  status: ('A' for Active; 'I' for Inactive)
ROOT
ATOM      1  C   UNL d   1       0.127  -5.592  -2.926  0.00  0.00    -0.002 A 
ATOM      2  C1  UNL d   1      -0.993  -6.000  -2.216  0.00  0.00     0.010 A 
ATOM      3  C2  UNL d   1      -2.276  -5.732  -2.697  0.00  0.00     0.041 A 
ATOM      4  C3  UNL d   1      -2.416  -5.043  -3.918  0.00  0.00    -0.075 A 
ATOM      5  S   UNL d   1      -3.888  -4.606  -4.703  0.00  0.00     0.015 SA
ATOM      6  C4  UNL d   1      -3.064  -3.868  -6.000  0.00  0.00     0.022 A 
ATOM      7  C5  UNL d   1      -1.699  -3.944  -5.854  0.00  0.00     0.026 A 
ATOM      8  C6  UNL d   1      -1.303  -4.623  -4.652  0.00  0.00    -0.082 A 
ATOM      9  C7  UNL d   1      -0.016  -4.908  -4.137  0.00  0.00     0.045 A 
ENDROOT
TORSDOF 0
ENDMDL
