MODEL 1
REMARK minimizedAffinity 18.4919586
REMARK minimizedRMSD -1
REMARK  0 active torsions:
REMARK  status: ('A' for Active; 'I' for Inactive)
ROOT
ATOM      1  C   UNL d   1      -0.438  -5.105  -3.108  0.00  0.00    -0.002 A 
ATOM      2  C1  UNL d   1      -1.504  -5.249  -2.231  0.00  0.00     0.010 A 
ATOM      3  C2  UNL d   1      -2.786  -4.832  -2.596  0.00  0.00     0.041 A 
ATOM      4  C3  UNL d   1      -2.980  -4.266  -3.871  0.00  0.00    -0.075 A 
ATOM      5  S   UNL d   1      -4.462  -3.685  -4.536  0.00  0.00     0.015 SA
ATOM      6  C4  UNL d   1      -3.715  -3.234  -6.000  0.00  0.00     0.022 A 
ATOM      7  C5  UNL d   1      -2.368  -3.512  -5.999  0.00  0.00     0.026 A 
ATOM      8  C6  UNL d   1      -1.923  -4.112  -4.772  0.00  0.00    -0.082 A 
ATOM      9  C7  UNL d   1      -0.635  -4.543  -4.372  0.00  0.00     0.045 A 
ENDROOT
TORSDOF 0
ENDMDL
