MODEL 1
REMARK minimizedAffinity 16.8828278
REMARK minimizedRMSD -1
REMARK  0 active torsions:
REMARK  status: ('A' for Active; 'I' for Inactive)
ROOT
ATOM      1  C   UNL d   1      -3.008  -0.518   3.904  0.00  0.00    -0.002 A 
ATOM      2  C1  UNL d   1      -2.816  -0.425   5.275  0.00  0.00     0.010 A 
ATOM      3  C2  UNL d   1      -3.370   0.632   6.000  0.00  0.00     0.041 A 
ATOM      4  C3  UNL d   1      -4.130   1.602   5.317  0.00  0.00    -0.075 A 
ATOM      5  S   UNL d   1      -4.905   2.984   5.997  0.00  0.00     0.015 SA
ATOM      6  C4  UNL d   1      -5.509   3.483   4.484  0.00  0.00     0.022 A 
ATOM      7  C5  UNL d   1      -5.138   2.628   3.473  0.00  0.00     0.026 A 
ATOM      8  C6  UNL d   1      -4.337   1.530   3.937  0.00  0.00    -0.082 A 
ATOM      9  C7  UNL d   1      -3.762   0.446   3.230  0.00  0.00     0.045 A 
ENDROOT
TORSDOF 0
ENDMDL
