MODEL 1
REMARK minimizedAffinity 25.223671
REMARK minimizedRMSD -1
REMARK  0 active torsions:
REMARK  status: ('A' for Active; 'I' for Inactive)
ROOT
ATOM      1  C   UNL d   1       1.222   0.379   2.069  0.00  0.00    -0.002 A 
ATOM      2  C1  UNL d   1       1.176   1.242   3.155  0.00  0.00     0.010 A 
ATOM      3  C2  UNL d   1      -0.049   1.636   3.697  0.00  0.00     0.041 A 
ATOM      4  C3  UNL d   1      -1.238   1.142   3.125  0.00  0.00    -0.075 A 
ATOM      5  S   UNL d   1      -2.852   1.487   3.622  0.00  0.00     0.015 SA
ATOM      6  C4  UNL d   1      -3.518   0.497   2.405  0.00  0.00     0.022 A 
ATOM      7  C5  UNL d   1      -2.547  -0.090   1.629  0.00  0.00     0.026 A 
ATOM      8  C6  UNL d   1      -1.217   0.271   2.032  0.00  0.00    -0.082 A 
ATOM      9  C7  UNL d   1       0.041  -0.109   1.504  0.00  0.00     0.045 A 
ENDROOT
TORSDOF 0
ENDMDL
