MODEL 1
REMARK minimizedAffinity 24.4377956
REMARK minimizedRMSD -1
REMARK  0 active torsions:
REMARK  status: ('A' for Active; 'I' for Inactive)
ROOT
ATOM      1  C   UNL d   1       1.378  -1.947  -1.765  0.00  0.00    -0.002 A 
ATOM      2  C1  UNL d   1       1.887  -2.546  -0.622  0.00  0.00     0.010 A 
ATOM      3  C2  UNL d   1       2.752  -1.847   0.222  0.00  0.00     0.041 A 
ATOM      4  C3  UNL d   1       3.098  -0.521  -0.104  0.00  0.00    -0.075 A 
ATOM      5  S   UNL d   1       4.139   0.530   0.782  0.00  0.00     0.015 SA
ATOM      6  C4  UNL d   1       3.932   1.800  -0.335  0.00  0.00     0.022 A 
ATOM      7  C5  UNL d   1       3.092   1.448  -1.366  0.00  0.00     0.026 A 
ATOM      8  C6  UNL d   1       2.597   0.105  -1.249  0.00  0.00    -0.082 A 
ATOM      9  C7  UNL d   1       1.724  -0.631  -2.086  0.00  0.00     0.045 A 
ENDROOT
TORSDOF 0
ENDMDL
