MODEL 1
REMARK minimizedAffinity 7.0774107
REMARK minimizedRMSD -1
REMARK  0 active torsions:
REMARK  status: ('A' for Active; 'I' for Inactive)
ROOT
ATOM      1  C   UNL d   1       2.103  -6.000  -1.842  0.00  0.00    -0.002 A 
ATOM      2  C1  UNL d   1       3.121  -5.781  -0.924  0.00  0.00     0.010 A 
ATOM      3  C2  UNL d   1       3.524  -4.482  -0.608  0.00  0.00     0.041 A 
ATOM      4  C3  UNL d   1       2.880  -3.397  -1.234  0.00  0.00    -0.075 A 
ATOM      5  S   UNL d   1       3.206  -1.720  -1.002  0.00  0.00     0.015 SA
ATOM      6  C4  UNL d   1       2.002  -1.255  -2.115  0.00  0.00     0.022 A 
ATOM      7  C5  UNL d   1       1.357  -2.340  -2.660  0.00  0.00     0.026 A 
ATOM      8  C6  UNL d   1       1.853  -3.592  -2.161  0.00  0.00    -0.082 A 
ATOM      9  C7  UNL d   1       1.467  -4.921  -2.461  0.00  0.00     0.045 A 
ENDROOT
TORSDOF 0
ENDMDL
