MODEL 1
REMARK minimizedAffinity 1.63433719
REMARK minimizedRMSD -1
REMARK  1 active torsions:
REMARK  status: ('A' for Active; 'I' for Inactive)
REMARK    1  A    between atoms: C3_4  and  O_7 
ROOT
ATOM      1  C   UNL d   1       0.587  -2.085   1.885  0.00  0.00    -0.033 A 
ATOM      2  C1  UNL d   1       1.643  -1.184   2.035  0.00  0.00     0.039 A 
ATOM      3  C2  UNL d   1       1.493   0.143   1.630  0.00  0.00    -0.080 A 
ATOM      4  C3  UNL d   1       0.284   0.557   1.078  0.00  0.00     0.150 A 
ATOM      5  C4  UNL d   1      -0.773  -0.335   0.929  0.00  0.00    -0.007 A 
ATOM      6  C5  UNL d   1      -0.621  -1.660   1.333  0.00  0.00     0.039 A 
ENDROOT
BRANCH   4   7
ATOM      7  O   UNL d   1       0.092   1.841   0.663  0.00  0.00    -0.526 OA
ATOM      8  H5  UNL d   1       0.917   2.336   0.801  0.00  0.00     0.418 HD
ENDBRANCH   4   7
TORSDOF 1
ENDMDL
