MODEL 1
REMARK minimizedAffinity -0.0338165015
REMARK minimizedRMSD -1
REMARK  1 active torsions:
REMARK  status: ('A' for Active; 'I' for Inactive)
REMARK    1  A    between atoms: C3_4  and  O_7 
ROOT
ATOM      1  C   UNL d   1       0.857  -1.032   1.606  0.00  0.00    -0.033 A 
ATOM      2  C1  UNL d   1      -0.360  -0.360   1.735  0.00  0.00     0.039 A 
ATOM      3  C2  UNL d   1      -1.560  -1.032   1.490  0.00  0.00    -0.080 A 
ATOM      4  C3  UNL d   1      -1.528  -2.373   1.118  0.00  0.00     0.150 A 
ATOM      5  C4  UNL d   1      -0.319  -3.049   0.992  0.00  0.00    -0.007 A 
ATOM      6  C5  UNL d   1       0.877  -2.377   1.236  0.00  0.00     0.039 A 
ENDROOT
BRANCH   4   7
ATOM      7  O   UNL d   1      -2.673  -3.069   0.864  0.00  0.00    -0.526 OA
ATOM      8  H5  UNL d   1      -3.428  -2.466   0.963  0.00  0.00     0.418 HD
ENDBRANCH   4   7
TORSDOF 1
ENDMDL
