MODEL 1
REMARK minimizedAffinity 8.86560631
REMARK minimizedRMSD -1
REMARK  1 active torsions:
REMARK  status: ('A' for Active; 'I' for Inactive)
REMARK    1  A    between atoms: C3_4  and  O_7 
ROOT
ATOM      1  C   UNL d   1       0.035   6.000   0.129  0.00  0.00    -0.033 A 
ATOM      2  C1  UNL d   1      -1.082   5.672   0.900  0.00  0.00     0.039 A 
ATOM      3  C2  UNL d   1      -1.450   4.335   1.067  0.00  0.00    -0.080 A 
ATOM      4  C3  UNL d   1      -0.692   3.338   0.460  0.00  0.00     0.150 A 
ATOM      5  C4  UNL d   1       0.424   3.657  -0.307  0.00  0.00    -0.007 A 
ATOM      6  C5  UNL d   1       0.789   4.992  -0.473  0.00  0.00     0.039 A 
ENDROOT
BRANCH   4   7
ATOM      7  O   UNL d   1      -1.014   2.019   0.590  0.00  0.00    -0.526 OA
ATOM      8  H5  UNL d   1      -1.825   1.952   1.122  0.00  0.00     0.418 HD
ENDBRANCH   4   7
TORSDOF 1
ENDMDL
