MODEL 1
REMARK minimizedAffinity 7.75420237
REMARK minimizedRMSD -1
REMARK  1 active torsions:
REMARK  status: ('A' for Active; 'I' for Inactive)
REMARK    1  A    between atoms: C3_4  and  O_7 
ROOT
ATOM      1  C   UNL d   1       1.976  -1.071   2.172  0.00  0.00    -0.033 A 
ATOM      2  C1  UNL d   1       2.333  -2.416   2.283  0.00  0.00     0.039 A 
ATOM      3  C2  UNL d   1       2.244  -3.064   3.516  0.00  0.00    -0.080 A 
ATOM      4  C3  UNL d   1       1.795  -2.358   4.629  0.00  0.00     0.150 A 
ATOM      5  C4  UNL d   1       1.434  -1.019   4.524  0.00  0.00    -0.007 A 
ATOM      6  C5  UNL d   1       1.525  -0.372   3.292  0.00  0.00     0.039 A 
ENDROOT
BRANCH   4   7
ATOM      7  O   UNL d   1       1.695  -2.947   5.854  0.00  0.00    -0.526 OA
ATOM      8  H5  UNL d   1       2.005  -3.865   5.780  0.00  0.00     0.418 HD
ENDBRANCH   4   7
TORSDOF 1
ENDMDL
