MODEL 1
REMARK minimizedAffinity 0.186474428
REMARK minimizedRMSD -1
REMARK  1 active torsions:
REMARK  status: ('A' for Active; 'I' for Inactive)
REMARK    1  A    between atoms: C3_4  and  O_7 
ROOT
ATOM      1  C   UNL d   1      -2.805  -3.860  -0.063  0.00  0.00    -0.033 A 
ATOM      2  C1  UNL d   1      -2.430  -5.196  -0.210  0.00  0.00     0.039 A 
ATOM      3  C2  UNL d   1      -1.470  -5.554  -1.158  0.00  0.00    -0.080 A 
ATOM      4  C3  UNL d   1      -0.892  -4.566  -1.951  0.00  0.00     0.150 A 
ATOM      5  C4  UNL d   1      -1.258  -3.232  -1.808  0.00  0.00    -0.007 A 
ATOM      6  C5  UNL d   1      -2.218  -2.877  -0.861  0.00  0.00     0.039 A 
ENDROOT
BRANCH   4   7
ATOM      7  O   UNL d   1       0.046  -4.867  -2.894  0.00  0.00    -0.526 OA
ATOM      8  H5  UNL d   1       0.179  -5.830  -2.900  0.00  0.00     0.418 HD
ENDBRANCH   4   7
TORSDOF 1
ENDMDL
