MODEL 1
REMARK minimizedAffinity 1.69118977
REMARK minimizedRMSD -1
REMARK  1 active torsions:
REMARK  status: ('A' for Active; 'I' for Inactive)
REMARK    1  A    between atoms: C3_4  and  O_7 
ROOT
ATOM      1  C   UNL d   1      -0.102  -1.030   0.944  0.00  0.00    -0.033 A 
ATOM      2  C1  UNL d   1      -0.544  -2.151   0.239  0.00  0.00     0.039 A 
ATOM      3  C2  UNL d   1      -1.816  -2.159  -0.336  0.00  0.00    -0.080 A 
ATOM      4  C3  UNL d   1      -2.635  -1.042  -0.200  0.00  0.00     0.150 A 
ATOM      5  C4  UNL d   1      -2.200   0.080   0.498  0.00  0.00    -0.007 A 
ATOM      6  C5  UNL d   1      -0.930   0.086   1.073  0.00  0.00     0.039 A 
ENDROOT
BRANCH   4   7
ATOM      7  O   UNL d   1      -3.886  -1.005  -0.740  0.00  0.00    -0.526 OA
ATOM      8  H5  UNL d   1      -4.062  -1.860  -1.168  0.00  0.00     0.418 HD
ENDBRANCH   4   7
TORSDOF 1
ENDMDL
