MODEL 1
REMARK minimizedAffinity 3.29214668
REMARK minimizedRMSD -1
REMARK  1 active torsions:
REMARK  status: ('A' for Active; 'I' for Inactive)
REMARK    1  A    between atoms: C3_4  and  O_7 
ROOT
ATOM      1  C   UNL d   1      -0.544  -1.949   1.046  0.00  0.00    -0.033 A 
ATOM      2  C1  UNL d   1      -1.752  -1.343   0.694  0.00  0.00     0.039 A 
ATOM      3  C2  UNL d   1      -1.797   0.027   0.430  0.00  0.00    -0.080 A 
ATOM      4  C3  UNL d   1      -0.629   0.779   0.520  0.00  0.00     0.150 A 
ATOM      5  C4  UNL d   1       0.578   0.182   0.865  0.00  0.00    -0.007 A 
ATOM      6  C5  UNL d   1       0.621  -1.186   1.130  0.00  0.00     0.039 A 
ENDROOT
BRANCH   4   7
ATOM      7  O   UNL d   1      -0.625   2.121   0.276  0.00  0.00    -0.526 OA
ATOM      8  H5  UNL d   1      -1.534   2.400   0.077  0.00  0.00     0.418 HD
ENDBRANCH   4   7
TORSDOF 1
ENDMDL
