MODEL 1
REMARK minimizedAffinity -1.74072969
REMARK minimizedRMSD -1
REMARK  1 active torsions:
REMARK  status: ('A' for Active; 'I' for Inactive)
REMARK    1  A    between atoms: C3_4  and  O_7 
ROOT
ATOM      1  C   UNL d   1       5.999   4.433  -1.929  0.00  0.00    -0.033 A 
ATOM      2  C1  UNL d   1       4.860   4.415  -1.121  0.00  0.00     0.039 A 
ATOM      3  C2  UNL d   1       3.718   3.728  -1.536  0.00  0.00    -0.080 A 
ATOM      4  C3  UNL d   1       3.728   3.062  -2.759  0.00  0.00     0.150 A 
ATOM      5  C4  UNL d   1       4.860   3.073  -3.567  0.00  0.00    -0.007 A 
ATOM      6  C5  UNL d   1       5.999   3.761  -3.151  0.00  0.00     0.039 A 
ENDROOT
BRANCH   4   7
ATOM      7  O   UNL d   1       2.636   2.382  -3.209  0.00  0.00    -0.526 OA
ATOM      8  H5  UNL d   1       1.920   2.485  -2.560  0.00  0.00     0.418 HD
ENDBRANCH   4   7
TORSDOF 1
ENDMDL
