MODEL 1
REMARK minimizedAffinity 1.90294993
REMARK minimizedRMSD -1
REMARK  1 active torsions:
REMARK  status: ('A' for Active; 'I' for Inactive)
REMARK    1  A    between atoms: C3_4  and  O_7 
ROOT
ATOM      1  C   UNL d   1       1.907  -1.360   3.170  0.00  0.00    -0.033 A 
ATOM      2  C1  UNL d   1       1.812  -0.810   4.449  0.00  0.00     0.039 A 
ATOM      3  C2  UNL d   1       2.150   0.528   4.663  0.00  0.00    -0.080 A 
ATOM      4  C3  UNL d   1       2.579   1.304   3.590  0.00  0.00     0.150 A 
ATOM      5  C4  UNL d   1       2.673   0.764   2.312  0.00  0.00    -0.007 A 
ATOM      6  C5  UNL d   1       2.336  -0.573   2.101  0.00  0.00     0.039 A 
ENDROOT
BRANCH   4   7
ATOM      7  O   UNL d   1       2.925   2.613   3.751  0.00  0.00    -0.526 OA
ATOM      8  H5  UNL d   1       2.838   2.841   4.692  0.00  0.00     0.418 HD
ENDBRANCH   4   7
TORSDOF 1
ENDMDL
