MODEL 1
REMARK minimizedAffinity -2.39696312
REMARK minimizedRMSD -1
REMARK  1 active torsions:
REMARK  status: ('A' for Active; 'I' for Inactive)
REMARK    1  A    between atoms: C3_4  and  O_7 
ROOT
ATOM      1  C   UNL d   1       5.717  -1.045  -5.985  0.00  0.00    -0.033 A 
ATOM      2  C1  UNL d   1       5.963  -2.419  -5.988  0.00  0.00     0.039 A 
ATOM      3  C2  UNL d   1       4.897  -3.321  -5.995  0.00  0.00    -0.080 A 
ATOM      4  C3  UNL d   1       3.592  -2.836  -5.998  0.00  0.00     0.150 A 
ATOM      5  C4  UNL d   1       3.340  -1.468  -5.998  0.00  0.00    -0.007 A 
ATOM      6  C5  UNL d   1       4.406  -0.569  -5.991  0.00  0.00     0.039 A 
ENDROOT
BRANCH   4   7
ATOM      7  O   UNL d   1       2.519  -3.677  -6.000  0.00  0.00    -0.526 OA
ATOM      8  H5  UNL d   1       2.845  -4.592  -5.970  0.00  0.00     0.418 HD
ENDBRANCH   4   7
TORSDOF 1
ENDMDL
