MODEL 1
REMARK minimizedAffinity 6.53707027
REMARK minimizedRMSD -1
REMARK  0 active torsions:
REMARK  status: ('A' for Active; 'I' for Inactive)
ROOT
ATOM      1  O1  BZF d   1      -0.482   5.626  -0.185  0.00  0.00    -0.204 OA
ATOM      2  C2  BZF d   1      -0.909   5.999  -1.445  0.00  0.00     0.174 A 
ATOM      3  C3  BZF d   1      -1.025   4.923  -2.249  0.00  0.00    -0.012 A 
ATOM      4  C3A BZF d   1      -0.736   3.797  -1.415  0.00  0.00    -0.107 A 
ATOM      5  C4  BZF d   1      -0.704   2.449  -1.634  0.00  0.00     0.055 A 
ATOM      6  C5  BZF d   1      -0.314   1.625  -0.626  0.00  0.00    -0.016 A 
ATOM      7  C6  BZF d   1       0.056   2.114   0.610  0.00  0.00     0.022 A 
ATOM      8  C7  BZF d   1       0.035   3.443   0.876  0.00  0.00     0.029 A 
ATOM      9  C7A BZF d   1      -0.391   4.276  -0.130  0.00  0.00     0.058 A 
ENDROOT
TORSDOF 0
ENDMDL
