MODEL 1
REMARK minimizedAffinity 1.91376889
REMARK minimizedRMSD -1
REMARK  0 active torsions:
REMARK  status: ('A' for Active; 'I' for Inactive)
ROOT
ATOM      1  O1  BZF d   1       4.307  -2.030  -2.108  0.00  0.00    -0.204 OA
ATOM      2  C2  BZF d   1       3.730  -1.945  -3.360  0.00  0.00     0.174 A 
ATOM      3  C3  BZF d   1       3.687  -3.156  -3.951  0.00  0.00    -0.012 A 
ATOM      4  C3A BZF d   1       4.191  -4.070  -2.973  0.00  0.00    -0.107 A 
ATOM      5  C4  BZF d   1       4.381  -5.422  -2.961  0.00  0.00     0.055 A 
ATOM      6  C5  BZF d   1       4.961  -5.999  -1.875  0.00  0.00    -0.016 A 
ATOM      7  C6  BZF d   1       5.367  -5.253  -0.788  0.00  0.00     0.022 A 
ATOM      8  C7  BZF d   1       5.196  -3.909  -0.752  0.00  0.00     0.029 A 
ATOM      9  C7A BZF d   1       4.580  -3.328  -1.833  0.00  0.00     0.058 A 
ENDROOT
TORSDOF 0
ENDMDL
