MODEL 1
REMARK minimizedAffinity 1.84999657
REMARK minimizedRMSD -1
REMARK  0 active torsions:
REMARK  status: ('A' for Active; 'I' for Inactive)
ROOT
ATOM      1  O1  BZF d   1       1.882  -4.389  -0.344  0.00  0.00    -0.204 OA
ATOM      2  C2  BZF d   1       1.923  -5.711  -0.744  0.00  0.00     0.174 A 
ATOM      3  C3  BZF d   1       3.106  -5.998  -1.326  0.00  0.00    -0.012 A 
ATOM      4  C3A BZF d   1       3.885  -4.804  -1.205  0.00  0.00    -0.107 A 
ATOM      5  C4  BZF d   1       5.155  -4.469  -1.578  0.00  0.00     0.055 A 
ATOM      6  C5  BZF d   1       5.589  -3.197  -1.379  0.00  0.00    -0.016 A 
ATOM      7  C6  BZF d   1       4.778  -2.234  -0.814  0.00  0.00     0.022 A 
ATOM      8  C7  BZF d   1       3.513  -2.519  -0.423  0.00  0.00     0.029 A 
ATOM      9  C7A BZF d   1       3.083  -3.813  -0.593  0.00  0.00     0.058 A 
ENDROOT
TORSDOF 0
ENDMDL
