MODEL 1
REMARK minimizedAffinity -1.88913977
REMARK minimizedRMSD -1
REMARK  0 active torsions:
REMARK  status: ('A' for Active; 'I' for Inactive)
ROOT
ATOM      1  O1  BZF d   1       4.926  -5.525  -1.513  0.00  0.00    -0.204 OA
ATOM      2  C2  BZF d   1       5.328  -5.271  -0.216  0.00  0.00     0.174 A 
ATOM      3  C3  BZF d   1       5.200  -3.961   0.076  0.00  0.00    -0.012 A 
ATOM      4  C3A BZF d   1       4.600  -3.373  -1.081  0.00  0.00    -0.107 A 
ATOM      5  C4  BZF d   1       4.208  -2.103  -1.394  0.00  0.00     0.055 A 
ATOM      6  C5  BZF d   1       3.723  -1.848  -2.637  0.00  0.00    -0.016 A 
ATOM      7  C6  BZF d   1       3.620  -2.837  -3.593  0.00  0.00     0.022 A 
ATOM      8  C7  BZF d   1       3.991  -4.113  -3.328  0.00  0.00     0.029 A 
ATOM      9  C7A BZF d   1       4.451  -4.381  -2.062  0.00  0.00     0.058 A 
ENDROOT
TORSDOF 0
ENDMDL
