MODEL 1
REMARK minimizedAffinity -0.196818367
REMARK minimizedRMSD -1
REMARK  0 active torsions:
REMARK  status: ('A' for Active; 'I' for Inactive)
ROOT
ATOM      1  O1  BZF d   1      -5.778  -4.091   4.096  0.00  0.00    -0.204 OA
ATOM      2  C2  BZF d   1      -5.940  -4.148   5.467  0.00  0.00     0.174 A 
ATOM      3  C3  BZF d   1      -5.999  -2.908   5.993  0.00  0.00    -0.012 A 
ATOM      4  C3A BZF d   1      -5.958  -2.020   4.872  0.00  0.00    -0.107 A 
ATOM      5  C4  BZF d   1      -5.999  -0.661   4.748  0.00  0.00     0.055 A 
ATOM      6  C5  BZF d   1      -5.864  -0.106   3.515  0.00  0.00    -0.016 A 
ATOM      7  C6  BZF d   1      -5.683  -0.878   2.387  0.00  0.00     0.022 A 
ATOM      8  C7  BZF d   1      -5.641  -2.231   2.459  0.00  0.00     0.029 A 
ATOM      9  C7A BZF d   1      -5.810  -2.796   3.699  0.00  0.00     0.058 A 
ENDROOT
TORSDOF 0
ENDMDL
