MODEL 1
REMARK minimizedAffinity -0.0610141717
REMARK minimizedRMSD -1
REMARK  0 active torsions:
REMARK  status: ('A' for Active; 'I' for Inactive)
ROOT
ATOM      1  O1  BZF d   1       4.633  -5.588  -3.203  0.00  0.00    -0.204 OA
ATOM      2  C2  BZF d   1       3.783  -5.288  -4.250  0.00  0.00     0.174 A 
ATOM      3  C3  BZF d   1       3.216  -4.076  -4.074  0.00  0.00    -0.012 A 
ATOM      4  C3A BZF d   1       3.816  -3.550  -2.886  0.00  0.00    -0.107 A 
ATOM      5  C4  BZF d   1       3.675  -2.375  -2.205  0.00  0.00     0.055 A 
ATOM      6  C5  BZF d   1       4.352  -2.202  -1.040  0.00  0.00    -0.016 A 
ATOM      7  C6  BZF d   1       5.173  -3.183  -0.524  0.00  0.00     0.022 A 
ATOM      8  C7  BZF d   1       5.348  -4.364  -1.167  0.00  0.00     0.029 A 
ATOM      9  C7A BZF d   1       4.691  -4.529  -2.361  0.00  0.00     0.058 A 
ENDROOT
TORSDOF 0
ENDMDL
