MODEL 1
REMARK minimizedAffinity -1.58675361
REMARK minimizedRMSD -1
REMARK  0 active torsions:
REMARK  status: ('A' for Active; 'I' for Inactive)
ROOT
ATOM      1  O1  BZF d   1       1.606  -4.485  -0.290  0.00  0.00    -0.204 OA
ATOM      2  C2  BZF d   1       1.659  -5.616  -1.083  0.00  0.00     0.174 A 
ATOM      3  C3  BZF d   1       2.773  -5.616  -1.842  0.00  0.00    -0.012 A 
ATOM      4  C3A BZF d   1       3.505  -4.456  -1.436  0.00  0.00    -0.107 A 
ATOM      5  C4  BZF d   1       4.704  -3.922  -1.814  0.00  0.00     0.055 A 
ATOM      6  C5  BZF d   1       5.100  -2.739  -1.275  0.00  0.00    -0.016 A 
ATOM      7  C6  BZF d   1       4.321  -2.061  -0.360  0.00  0.00     0.022 A 
ATOM      8  C7  BZF d   1       3.126  -2.554   0.050  0.00  0.00     0.029 A 
ATOM      9  C7A BZF d   1       2.739  -3.765  -0.469  0.00  0.00     0.058 A 
ENDROOT
TORSDOF 0
ENDMDL
