MODEL 1
REMARK minimizedAffinity -5.14893818
REMARK minimizedRMSD -1
REMARK  1 active torsions:
REMARK  status: ('A' for Active; 'I' for Inactive)
REMARK    1  A    between atoms: C3_4  and  O_7 
ROOT
ATOM      1  C   UNL d   1      -2.015  -0.570   3.029  0.00  0.00    -0.033 A 
ATOM      2  C1  UNL d   1      -2.893  -0.033   2.085  0.00  0.00     0.039 A 
ATOM      3  C2  UNL d   1      -2.433   0.297   0.809  0.00  0.00    -0.080 A 
ATOM      4  C3  UNL d   1      -1.095   0.085   0.489  0.00  0.00     0.150 A 
ATOM      5  C4  UNL d   1      -0.215  -0.453   1.423  0.00  0.00    -0.007 A 
ATOM      6  C5  UNL d   1      -0.676  -0.781   2.697  0.00  0.00     0.039 A 
ENDROOT
BRANCH   4   7
ATOM      7  O   UNL d   1      -0.598   0.396  -0.742  0.00  0.00    -0.526 OA
ATOM      8  H5  UNL d   1      -1.313   0.785  -1.272  0.00  0.00     0.418 HD
ENDBRANCH   4   7
TORSDOF 1
ENDMDL
