MODEL 1
REMARK minimizedAffinity -3.01411462
REMARK minimizedRMSD -1
REMARK  1 active torsions:
REMARK  status: ('A' for Active; 'I' for Inactive)
REMARK    1  A    between atoms: C3_4  and  O_7 
ROOT
ATOM      1  C   UNL d   1       0.237  -0.228   2.120  0.00  0.00    -0.033 A 
ATOM      2  C1  UNL d   1       1.314   0.528   1.652  0.00  0.00     0.039 A 
ATOM      3  C2  UNL d   1       1.618   0.545   0.290  0.00  0.00    -0.080 A 
ATOM      4  C3  UNL d   1       0.839  -0.197  -0.594  0.00  0.00     0.150 A 
ATOM      5  C4  UNL d   1      -0.237  -0.950  -0.135  0.00  0.00    -0.007 A 
ATOM      6  C5  UNL d   1      -0.539  -0.966   1.226  0.00  0.00     0.039 A 
ENDROOT
BRANCH   4   7
ATOM      7  O   UNL d   1       1.101  -0.216  -1.931  0.00  0.00    -0.526 OA
ATOM      8  H5  UNL d   1       1.890   0.326  -2.099  0.00  0.00     0.418 HD
ENDBRANCH   4   7
TORSDOF 1
ENDMDL
