MODEL 1
REMARK minimizedAffinity -3.09010386
REMARK minimizedRMSD -1
REMARK  1 active torsions:
REMARK  status: ('A' for Active; 'I' for Inactive)
REMARK    1  A    between atoms: C3_4  and  O_7 
ROOT
ATOM      1  C   UNL d   1       0.841  -0.948   1.476  0.00  0.00    -0.033 A 
ATOM      2  C1  UNL d   1       0.056  -0.445   0.436  0.00  0.00     0.039 A 
ATOM      3  C2  UNL d   1      -1.249  -0.019   0.688  0.00  0.00    -0.080 A 
ATOM      4  C3  UNL d   1      -1.757  -0.100   1.981  0.00  0.00     0.150 A 
ATOM      5  C4  UNL d   1      -0.980  -0.596   3.022  0.00  0.00    -0.007 A 
ATOM      6  C5  UNL d   1       0.323  -1.022   2.769  0.00  0.00     0.039 A 
ENDROOT
BRANCH   4   7
ATOM      7  O   UNL d   1      -3.027   0.299   2.274  0.00  0.00    -0.526 OA
ATOM      8  H5  UNL d   1      -3.455   0.592   1.452  0.00  0.00     0.418 HD
ENDBRANCH   4   7
TORSDOF 1
ENDMDL
