MODEL 1
REMARK minimizedAffinity -3.12043762
REMARK minimizedRMSD -1
REMARK  1 active torsions:
REMARK  status: ('A' for Active; 'I' for Inactive)
REMARK    1  A    between atoms: C3_4  and  O_7 
ROOT
ATOM      1  C   UNL d   1       0.407  -0.634  -1.028  0.00  0.00    -0.033 A 
ATOM      2  C1  UNL d   1       1.483  -1.134  -0.293  0.00  0.00     0.039 A 
ATOM      3  C2  UNL d   1       1.495  -1.015   1.099  0.00  0.00    -0.080 A 
ATOM      4  C3  UNL d   1       0.426  -0.396   1.741  0.00  0.00     0.150 A 
ATOM      5  C4  UNL d   1      -0.651   0.100   1.014  0.00  0.00    -0.007 A 
ATOM      6  C5  UNL d   1      -0.661  -0.018  -0.375  0.00  0.00     0.039 A 
ENDROOT
BRANCH   4   7
ATOM      7  O   UNL d   1       0.395  -0.253   3.096  0.00  0.00    -0.526 OA
ATOM      8  H5  UNL d   1       1.218  -0.617   3.463  0.00  0.00     0.418 HD
ENDBRANCH   4   7
TORSDOF 1
ENDMDL
