MODEL 1
REMARK minimizedAffinity -1.0979315
REMARK minimizedRMSD -1
REMARK  1 active torsions:
REMARK  status: ('A' for Active; 'I' for Inactive)
REMARK    1  A    between atoms: C3_4  and  O_7 
ROOT
ATOM      1  C   UNL d   1      -0.069   0.018  -0.903  0.00  0.00    -0.033 A 
ATOM      2  C1  UNL d   1       1.184  -0.221  -0.337  0.00  0.00     0.039 A 
ATOM      3  C2  UNL d   1       1.332  -0.242   1.051  0.00  0.00    -0.080 A 
ATOM      4  C3  UNL d   1       0.221  -0.025   1.860  0.00  0.00     0.150 A 
ATOM      5  C4  UNL d   1      -1.032   0.210   1.303  0.00  0.00    -0.007 A 
ATOM      6  C5  UNL d   1      -1.178   0.232  -0.084  0.00  0.00     0.039 A 
ENDROOT
BRANCH   4   7
ATOM      7  O   UNL d   1       0.317  -0.031   3.220  0.00  0.00    -0.526 OA
ATOM      8  H5  UNL d   1       1.247  -0.177   3.462  0.00  0.00     0.418 HD
ENDBRANCH   4   7
TORSDOF 1
ENDMDL
