MODEL 1
REMARK minimizedAffinity -1.92746127
REMARK minimizedRMSD -1
REMARK  1 active torsions:
REMARK  status: ('A' for Active; 'I' for Inactive)
REMARK    1  A    between atoms: C3_4  and  O_7 
ROOT
ATOM      1  C   UNL d   1      -1.607   0.263   3.143  0.00  0.00    -0.033 A 
ATOM      2  C1  UNL d   1      -2.451   0.236   2.032  0.00  0.00     0.039 A 
ATOM      3  C2  UNL d   1      -1.917   0.088   0.750  0.00  0.00    -0.080 A 
ATOM      4  C3  UNL d   1      -0.539  -0.034   0.594  0.00  0.00     0.150 A 
ATOM      5  C4  UNL d   1       0.308  -0.012   1.698  0.00  0.00    -0.007 A 
ATOM      6  C5  UNL d   1      -0.228   0.137   2.976  0.00  0.00     0.039 A 
ENDROOT
BRANCH   4   7
ATOM      7  O   UNL d   1       0.029  -0.176  -0.637  0.00  0.00    -0.526 OA
ATOM      8  H5  UNL d   1      -0.675  -0.145  -1.306  0.00  0.00     0.418 HD
ENDBRANCH   4   7
TORSDOF 1
ENDMDL
