MODEL 1
REMARK minimizedAffinity -2.79524994
REMARK minimizedRMSD -1
REMARK  1 active torsions:
REMARK  status: ('A' for Active; 'I' for Inactive)
REMARK    1  A    between atoms: C3_4  and  O_7 
ROOT
ATOM      1  C   UNL d   1       1.330  -0.162   1.122  0.00  0.00    -0.033 A 
ATOM      2  C1  UNL d   1       0.343   0.017   2.093  0.00  0.00     0.039 A 
ATOM      3  C2  UNL d   1      -0.964   0.326   1.714  0.00  0.00    -0.080 A 
ATOM      4  C3  UNL d   1      -1.272   0.452   0.362  0.00  0.00     0.150 A 
ATOM      5  C4  UNL d   1      -0.294   0.272  -0.611  0.00  0.00    -0.007 A 
ATOM      6  C5  UNL d   1       1.011  -0.036  -0.230  0.00  0.00     0.039 A 
ENDROOT
BRANCH   4   7
ATOM      7  O   UNL d   1      -2.533   0.757  -0.057  0.00  0.00    -0.526 OA
ATOM      8  H5  UNL d   1      -3.095   0.882   0.726  0.00  0.00     0.418 HD
ENDBRANCH   4   7
TORSDOF 1
ENDMDL
