MODEL 1
REMARK minimizedAffinity -3.11220002
REMARK minimizedRMSD -1
REMARK  1 active torsions:
REMARK  status: ('A' for Active; 'I' for Inactive)
REMARK    1  A    between atoms: C3_4  and  O_7 
ROOT
ATOM      1  C   UNL d   1       0.557   0.347  -0.722  0.00  0.00    -0.033 A 
ATOM      2  C1  UNL d   1      -0.777  -0.026  -0.544  0.00  0.00     0.039 A 
ATOM      3  C2  UNL d   1      -1.207  -0.521   0.689  0.00  0.00    -0.080 A 
ATOM      4  C3  UNL d   1      -0.295  -0.636   1.735  0.00  0.00     0.150 A 
ATOM      5  C4  UNL d   1       1.034  -0.263   1.566  0.00  0.00    -0.007 A 
ATOM      6  C5  UNL d   1       1.462   0.230   0.334  0.00  0.00     0.039 A 
ENDROOT
BRANCH   4   7
ATOM      7  O   UNL d   1      -0.667  -1.118   2.954  0.00  0.00    -0.526 OA
ATOM      8  H5  UNL d   1      -1.606  -1.363   2.915  0.00  0.00     0.418 HD
ENDBRANCH   4   7
TORSDOF 1
ENDMDL
