MODEL 1
REMARK minimizedAffinity -2.8574934
REMARK minimizedRMSD -1
REMARK  1 active torsions:
REMARK  status: ('A' for Active; 'I' for Inactive)
REMARK    1  A    between atoms: C3_4  and  O_7 
ROOT
ATOM      1  C   UNL d   1       0.368   0.276  -1.060  0.00  0.00    -0.033 A 
ATOM      2  C1  UNL d   1       1.547   0.330  -0.313  0.00  0.00     0.039 A 
ATOM      3  C2  UNL d   1       1.502   0.193   1.075  0.00  0.00    -0.080 A 
ATOM      4  C3  UNL d   1       0.275   0.003   1.704  0.00  0.00     0.150 A 
ATOM      5  C4  UNL d   1      -0.903  -0.055   0.966  0.00  0.00    -0.007 A 
ATOM      6  C5  UNL d   1      -0.856   0.082  -0.421  0.00  0.00     0.039 A 
ENDROOT
BRANCH   4   7
ATOM      7  O   UNL d   1       0.181  -0.131   3.058  0.00  0.00    -0.526 OA
ATOM      8  H5  UNL d   1       1.070  -0.041   3.438  0.00  0.00     0.418 HD
ENDBRANCH   4   7
TORSDOF 1
ENDMDL
