MODEL 1
REMARK minimizedAffinity -2.08851552
REMARK minimizedRMSD -1
REMARK  1 active torsions:
REMARK  status: ('A' for Active; 'I' for Inactive)
REMARK    1  A    between atoms: C3_4  and  O_7 
ROOT
ATOM      1  C   UNL d   1       1.480  -1.885  -4.167  0.00  0.00    -0.033 A 
ATOM      2  C1  UNL d   1       1.896  -0.635  -3.703  0.00  0.00     0.039 A 
ATOM      3  C2  UNL d   1       1.138   0.046  -2.749  0.00  0.00    -0.080 A 
ATOM      4  C3  UNL d   1      -0.032  -0.534  -2.266  0.00  0.00     0.150 A 
ATOM      5  C4  UNL d   1      -0.451  -1.780  -2.720  0.00  0.00    -0.007 A 
ATOM      6  C5  UNL d   1       0.307  -2.457  -3.674  0.00  0.00     0.039 A 
ENDROOT
BRANCH   4   7
ATOM      7  O   UNL d   1      -0.808   0.095  -1.337  0.00  0.00    -0.526 OA
ATOM      8  H5  UNL d   1      -0.410   0.959  -1.138  0.00  0.00     0.418 HD
ENDBRANCH   4   7
TORSDOF 1
ENDMDL
