MODEL 1
REMARK minimizedAffinity -3.78054857
REMARK minimizedRMSD -1
REMARK  1 active torsions:
REMARK  status: ('A' for Active; 'I' for Inactive)
REMARK    1  A    between atoms: C3_4  and  O_7 
ROOT
ATOM      1  C   UNL d   1       0.097   0.182  -0.571  0.00  0.00    -0.033 A 
ATOM      2  C1  UNL d   1       1.187   0.538   0.226  0.00  0.00     0.039 A 
ATOM      3  C2  UNL d   1       1.103   0.429   1.615  0.00  0.00    -0.080 A 
ATOM      4  C3  UNL d   1      -0.074  -0.038   2.194  0.00  0.00     0.150 A 
ATOM      5  C4  UNL d   1      -1.162  -0.399   1.406  0.00  0.00    -0.007 A 
ATOM      6  C5  UNL d   1      -1.076  -0.288   0.019  0.00  0.00     0.039 A 
ENDROOT
BRANCH   4   7
ATOM      7  O   UNL d   1      -0.205  -0.158   3.546  0.00  0.00    -0.526 OA
ATOM      8  H5  UNL d   1       0.615   0.155   3.963  0.00  0.00     0.418 HD
ENDBRANCH   4   7
TORSDOF 1
ENDMDL
