MODEL 1
REMARK minimizedAffinity -3.51877737
REMARK minimizedRMSD -1
REMARK  1 active torsions:
REMARK  status: ('A' for Active; 'I' for Inactive)
REMARK    1  A    between atoms: C3_4  and  O_7 
ROOT
ATOM      1  C   UNL d   1       0.622  -1.180  -3.151  0.00  0.00    -0.033 A 
ATOM      2  C1  UNL d   1       1.165   0.091  -2.952  0.00  0.00     0.039 A 
ATOM      3  C2  UNL d   1       2.454   0.379  -3.404  0.00  0.00    -0.080 A 
ATOM      4  C3  UNL d   1       3.188  -0.610  -4.053  0.00  0.00     0.150 A 
ATOM      5  C4  UNL d   1       2.652  -1.877  -4.257  0.00  0.00    -0.007 A 
ATOM      6  C5  UNL d   1       1.365  -2.163  -3.805  0.00  0.00     0.039 A 
ENDROOT
BRANCH   4   7
ATOM      7  O   UNL d   1       4.452  -0.377  -4.507  0.00  0.00    -0.526 OA
ATOM      8  H5  UNL d   1       4.702   0.532  -4.270  0.00  0.00     0.418 HD
ENDBRANCH   4   7
TORSDOF 1
ENDMDL
