MODEL 1
REMARK minimizedAffinity -3.0789156
REMARK minimizedRMSD -1
REMARK  1 active torsions:
REMARK  status: ('A' for Active; 'I' for Inactive)
REMARK    1  A    between atoms: C3_4  and  O_7 
ROOT
ATOM      1  C   UNL d   1       0.407   0.065  -1.220  0.00  0.00    -0.033 A 
ATOM      2  C1  UNL d   1       0.961   1.090  -0.450  0.00  0.00     0.039 A 
ATOM      3  C2  UNL d   1       1.156   0.909   0.920  0.00  0.00    -0.080 A 
ATOM      4  C3  UNL d   1       0.794  -0.300   1.508  0.00  0.00     0.150 A 
ATOM      5  C4  UNL d   1       0.245  -1.327   0.746  0.00  0.00    -0.007 A 
ATOM      6  C5  UNL d   1       0.051  -1.144  -0.622  0.00  0.00     0.039 A 
ENDROOT
BRANCH   4   7
ATOM      7  O   UNL d   1       0.960  -0.522   2.843  0.00  0.00    -0.526 OA
ATOM      8  H5  UNL d   1       1.322   0.285   3.246  0.00  0.00     0.418 HD
ENDBRANCH   4   7
TORSDOF 1
ENDMDL
