MODEL 1
REMARK minimizedAffinity -5.39478302
REMARK minimizedRMSD -1
REMARK  1 active torsions:
REMARK  status: ('A' for Active; 'I' for Inactive)
REMARK    1  A    between atoms: C3_4  and  O_7 
ROOT
ATOM      1  C   UNL d   1       0.698  -0.399   0.448  0.00  0.00    -0.033 A 
ATOM      2  C1  UNL d   1      -0.184  -1.477   0.553  0.00  0.00     0.039 A 
ATOM      3  C2  UNL d   1      -0.864  -1.709   1.750  0.00  0.00    -0.080 A 
ATOM      4  C3  UNL d   1      -0.656  -0.857   2.831  0.00  0.00     0.150 A 
ATOM      5  C4  UNL d   1       0.218   0.220   2.732  0.00  0.00    -0.007 A 
ATOM      6  C5  UNL d   1       0.897   0.450   1.537  0.00  0.00     0.039 A 
ENDROOT
BRANCH   4   7
ATOM      7  O   UNL d   1      -1.294  -1.047   4.021  0.00  0.00    -0.526 OA
ATOM      8  H5  UNL d   1      -1.844  -1.846   3.952  0.00  0.00     0.418 HD
ENDBRANCH   4   7
TORSDOF 1
ENDMDL
