MODEL 1
REMARK minimizedAffinity -3.3502233
REMARK minimizedRMSD -1
REMARK  1 active torsions:
REMARK  status: ('A' for Active; 'I' for Inactive)
REMARK    1  A    between atoms: C3_4  and  O_7 
ROOT
ATOM      1  C   UNL d   1       0.550  -0.125  -3.968  0.00  0.00    -0.033 A 
ATOM      2  C1  UNL d   1       0.249   0.863  -3.028  0.00  0.00     0.039 A 
ATOM      3  C2  UNL d   1       0.273   0.563  -1.665  0.00  0.00    -0.080 A 
ATOM      4  C3  UNL d   1       0.599  -0.727  -1.255  0.00  0.00     0.150 A 
ATOM      5  C4  UNL d   1       0.903  -1.715  -2.185  0.00  0.00    -0.007 A 
ATOM      6  C5  UNL d   1       0.878  -1.413  -3.546  0.00  0.00     0.039 A 
ENDROOT
BRANCH   4   7
ATOM      7  O   UNL d   1       0.630  -1.068   0.064  0.00  0.00    -0.526 OA
ATOM      8  H5  UNL d   1       0.370  -0.293   0.589  0.00  0.00     0.418 HD
ENDBRANCH   4   7
TORSDOF 1
ENDMDL
