MODEL 1
REMARK minimizedAffinity -1.6482091
REMARK minimizedRMSD -1
REMARK  1 active torsions:
REMARK  status: ('A' for Active; 'I' for Inactive)
REMARK    1  A    between atoms: C3_4  and  O_7 
ROOT
ATOM      1  C   UNL d   1       1.235  -0.105   0.750  0.00  0.00    -0.033 A 
ATOM      2  C1  UNL d   1       0.750   0.084  -0.546  0.00  0.00     0.039 A 
ATOM      3  C2  UNL d   1      -0.600   0.374  -0.752  0.00  0.00    -0.080 A 
ATOM      4  C3  UNL d   1      -1.453   0.473   0.343  0.00  0.00     0.150 A 
ATOM      5  C4  UNL d   1      -0.976   0.290   1.637  0.00  0.00    -0.007 A 
ATOM      6  C5  UNL d   1       0.372  -0.000   1.841  0.00  0.00     0.039 A 
ENDROOT
BRANCH   4   7
ATOM      7  O   UNL d   1      -2.779   0.750   0.191  0.00  0.00    -0.526 OA
ATOM      8  H5  UNL d   1      -2.972   0.823  -0.759  0.00  0.00     0.418 HD
ENDBRANCH   4   7
TORSDOF 1
ENDMDL
