MODEL 1
REMARK minimizedAffinity -3.69835782
REMARK minimizedRMSD -1
REMARK  1 active torsions:
REMARK  status: ('A' for Active; 'I' for Inactive)
REMARK    1  A    between atoms: C3_4  and  O_7 
ROOT
ATOM      1  C   UNL d   1       0.101  -0.150   2.659  0.00  0.00    -0.033 A 
ATOM      2  C1  UNL d   1       1.318  -0.669   2.214  0.00  0.00     0.039 A 
ATOM      3  C2  UNL d   1       1.533  -0.879   0.851  0.00  0.00    -0.080 A 
ATOM      4  C3  UNL d   1       0.524  -0.566  -0.056  0.00  0.00     0.150 A 
ATOM      5  C4  UNL d   1      -0.690  -0.045   0.380  0.00  0.00    -0.007 A 
ATOM      6  C5  UNL d   1      -0.903   0.163   1.742  0.00  0.00     0.039 A 
ENDROOT
BRANCH   4   7
ATOM      7  O   UNL d   1       0.685  -0.758  -1.396  0.00  0.00    -0.526 OA
ATOM      8  H5  UNL d   1       1.561  -1.150  -1.547  0.00  0.00     0.418 HD
ENDBRANCH   4   7
TORSDOF 1
ENDMDL
