MODEL 1
REMARK minimizedAffinity 7.90317154
REMARK minimizedRMSD -1
REMARK  1 active torsions:
REMARK  status: ('A' for Active; 'I' for Inactive)
REMARK    1  A    between atoms: C1_2  and  C2_3 
ROOT
ATOM      1  C2  UNL d   1      -2.233  -0.133   2.487  0.00  0.00    -0.077 A 
ATOM      2  C3  UNL d   1      -2.438  -1.516   2.584  0.00  0.00     0.002 A 
ATOM      3  C4  UNL d   1      -1.478  -2.332   3.185  0.00  0.00     0.002 A 
ATOM      4  C5  UNL d   1      -0.308  -1.773   3.697  0.00  0.00    -0.004 A 
ATOM      5  C6  UNL d   1      -0.094  -0.399   3.603  0.00  0.00     0.002 A 
ATOM      6  C7  UNL d   1      -1.053   0.418   3.002  0.00  0.00     0.002 A 
ENDROOT
BRANCH   1   7
ATOM      7  C1  UNL d   1      -3.290   0.755   1.883  0.00  0.00     0.055 C 
ATOM      8  C   UNL d   1      -4.294   1.211   2.931  0.00  0.00     0.019 C 
ENDBRANCH   1   7
TORSDOF 1
ENDMDL
