MODEL 1
REMARK minimizedAffinity 8.92424107
REMARK minimizedRMSD -1
REMARK  1 active torsions:
REMARK  status: ('A' for Active; 'I' for Inactive)
REMARK    1  A    between atoms: C1_2  and  C2_3 
ROOT
ATOM      1  C2  UNL d   1       5.995   1.586   0.690  0.00  0.00    -0.077 A 
ATOM      2  C3  UNL d   1       5.989   1.507  -0.710  0.00  0.00     0.002 A 
ATOM      3  C4  UNL d   1       5.939   0.266  -1.348  0.00  0.00     0.002 A 
ATOM      4  C5  UNL d   1       5.892  -0.905  -0.594  0.00  0.00    -0.004 A 
ATOM      5  C6  UNL d   1       5.900  -0.838   0.798  0.00  0.00     0.002 A 
ATOM      6  C7  UNL d   1       5.951   0.402   1.438  0.00  0.00     0.002 A 
ENDROOT
BRANCH   1   7
ATOM      7  C1  UNL d   1       5.999   2.925   1.379  0.00  0.00     0.055 C 
ATOM      8  C   UNL d   1       5.997   2.768   2.893  0.00  0.00     0.019 C 
ENDBRANCH   1   7
TORSDOF 1
ENDMDL
