MODEL 1
REMARK minimizedAffinity 0.198918059
REMARK minimizedRMSD -1
REMARK  1 active torsions:
REMARK  status: ('A' for Active; 'I' for Inactive)
REMARK    1  A    between atoms: C1_2  and  C2_3 
ROOT
ATOM      1  C2  UNL d   1       3.559   2.250   1.728  0.00  0.00    -0.077 A 
ATOM      2  C3  UNL d   1       4.775   2.871   2.047  0.00  0.00     0.002 A 
ATOM      3  C4  UNL d   1       5.987   2.253   1.735  0.00  0.00     0.002 A 
ATOM      4  C5  UNL d   1       5.995   1.013   1.098  0.00  0.00    -0.004 A 
ATOM      5  C6  UNL d   1       4.792   0.387   0.779  0.00  0.00     0.002 A 
ATOM      6  C7  UNL d   1       3.579   1.003   1.092  0.00  0.00     0.002 A 
ENDROOT
BRANCH   1   7
ATOM      7  C1  UNL d   1       2.251   2.938   2.020  0.00  0.00     0.055 C 
ATOM      8  C   UNL d   1       1.872   2.806   3.488  0.00  0.00     0.019 C 
ENDBRANCH   1   7
TORSDOF 1
ENDMDL
