MODEL 1
REMARK minimizedAffinity 10.984849
REMARK minimizedRMSD -1
REMARK  1 active torsions:
REMARK  status: ('A' for Active; 'I' for Inactive)
REMARK    1  A    between atoms: C1_2  and  C2_3 
ROOT
ATOM      1  C2  UNL d   1       2.092  -3.625   1.576  0.00  0.00    -0.077 A 
ATOM      2  C3  UNL d   1       1.050  -3.143   2.381  0.00  0.00     0.002 A 
ATOM      3  C4  UNL d   1       0.493  -1.886   2.137  0.00  0.00     0.002 A 
ATOM      4  C5  UNL d   1       0.968  -1.103   1.087  0.00  0.00    -0.004 A 
ATOM      5  C6  UNL d   1       2.005  -1.573   0.282  0.00  0.00     0.002 A 
ATOM      6  C7  UNL d   1       2.564  -2.828   0.524  0.00  0.00     0.002 A 
ENDROOT
BRANCH   1   7
ATOM      7  C1  UNL d   1       2.660  -5.001   1.806  0.00  0.00     0.055 C 
ATOM      8  C   UNL d   1       3.371  -5.521   0.564  0.00  0.00     0.019 C 
ENDBRANCH   1   7
TORSDOF 1
ENDMDL
