MODEL 1
REMARK minimizedAffinity -0.481819153
REMARK minimizedRMSD -1
REMARK  1 active torsions:
REMARK  status: ('A' for Active; 'I' for Inactive)
REMARK    1  A    between atoms: C1_2  and  C2_3 
ROOT
ATOM      1  C2  UNL d   1       2.709   1.516   0.370  0.00  0.00    -0.077 A 
ATOM      2  C3  UNL d   1       2.452   0.145   0.235  0.00  0.00     0.002 A 
ATOM      3  C4  UNL d   1       1.371  -0.300  -0.528  0.00  0.00     0.002 A 
ATOM      4  C5  UNL d   1       0.541   0.620  -1.166  0.00  0.00    -0.004 A 
ATOM      5  C6  UNL d   1       0.787   1.986  -1.036  0.00  0.00     0.002 A 
ATOM      6  C7  UNL d   1       1.867   2.432  -0.273  0.00  0.00     0.002 A 
ENDROOT
BRANCH   1   7
ATOM      7  C1  UNL d   1       3.904   1.996   1.152  0.00  0.00     0.055 C 
ATOM      8  C   UNL d   1       5.184   1.326   0.675  0.00  0.00     0.019 C 
ENDBRANCH   1   7
TORSDOF 1
ENDMDL
