MODEL 1
REMARK minimizedAffinity 2.01820445
REMARK minimizedRMSD -1
REMARK  1 active torsions:
REMARK  status: ('A' for Active; 'I' for Inactive)
REMARK    1  A    between atoms: C1_2  and  C2_3 
ROOT
ATOM      1  C2  UNL d   1      -1.968   1.619  -2.202  0.00  0.00    -0.077 A 
ATOM      2  C3  UNL d   1      -3.246   2.029  -2.607  0.00  0.00     0.002 A 
ATOM      3  C4  UNL d   1      -3.438   3.293  -3.167  0.00  0.00     0.002 A 
ATOM      4  C5  UNL d   1      -2.357   4.156  -3.330  0.00  0.00    -0.004 A 
ATOM      5  C6  UNL d   1      -1.082   3.759  -2.928  0.00  0.00     0.002 A 
ATOM      6  C7  UNL d   1      -0.888   2.496  -2.367  0.00  0.00     0.002 A 
ENDROOT
BRANCH   1   7
ATOM      7  C1  UNL d   1      -1.750   0.237  -1.643  0.00  0.00     0.055 C 
ATOM      8  C   UNL d   1      -2.859  -0.714  -2.071  0.00  0.00     0.019 C 
ENDBRANCH   1   7
TORSDOF 1
ENDMDL
