MODEL 1
REMARK minimizedAffinity 2.48325253
REMARK minimizedRMSD -1
REMARK  0 active torsions:
REMARK  status: ('A' for Active; 'I' for Inactive)
ROOT
ATOM      1  C2' OXE d   1       4.831   2.177   2.808  0.00  0.00     0.078 C 
ATOM      2  C1' OXE d   1       3.898   4.755   3.408  0.00  0.00     0.078 C 
ATOM      3  C1  OXE d   1       4.245   4.449   1.973  0.00  0.00    -0.078 A 
ATOM      4  C2  OXE d   1       4.745   3.200   1.696  0.00  0.00    -0.078 A 
ATOM      5  C3  OXE d   1       5.030   2.847   0.380  0.00  0.00     0.003 A 
ATOM      6  C4  OXE d   1       4.957   3.802  -0.641  0.00  0.00    -0.002 A 
ATOM      7  C5  OXE d   1       4.488   5.093  -0.374  0.00  0.00    -0.002 A 
ATOM      8  C6  OXE d   1       4.088   5.419   0.917  0.00  0.00     0.003 A 
ENDROOT
TORSDOF 0
ENDMDL
