MODEL 1
REMARK minimizedAffinity -3.04327655
REMARK minimizedRMSD -1
REMARK  0 active torsions:
REMARK  status: ('A' for Active; 'I' for Inactive)
ROOT
ATOM      1  C2' OXE d   1       0.591  -1.849   0.402  0.00  0.00     0.078 C 
ATOM      2  C1' OXE d   1      -1.924  -1.191   1.460  0.00  0.00     0.078 C 
ATOM      3  C1  OXE d   1      -1.805  -2.473   0.675  0.00  0.00    -0.078 A 
ATOM      4  C2  OXE d   1      -0.581  -2.764   0.122  0.00  0.00    -0.078 A 
ATOM      5  C3  OXE d   1      -0.402  -3.961  -0.566  0.00  0.00     0.003 A 
ATOM      6  C4  OXE d   1      -1.494  -4.797  -0.830  0.00  0.00    -0.002 A 
ATOM      7  C5  OXE d   1      -2.758  -4.499  -0.309  0.00  0.00    -0.002 A 
ATOM      8  C6  OXE d   1      -2.920  -3.366   0.479  0.00  0.00     0.003 A 
ENDROOT
TORSDOF 0
ENDMDL
