MODEL 1
REMARK minimizedAffinity 0.129329786
REMARK minimizedRMSD -1
REMARK  0 active torsions:
REMARK  status: ('A' for Active; 'I' for Inactive)
ROOT
ATOM      1  C2' OXE d   1      -3.770  -0.676  -1.241  0.00  0.00     0.078 C 
ATOM      2  C1' OXE d   1      -2.401  -0.658   1.209  0.00  0.00     0.078 C 
ATOM      3  C1  OXE d   1      -2.014  -1.704   0.195  0.00  0.00    -0.078 A 
ATOM      4  C2  OXE d   1      -2.721  -1.735  -0.983  0.00  0.00    -0.078 A 
ATOM      5  C3  OXE d   1      -2.368  -2.646  -1.975  0.00  0.00     0.003 A 
ATOM      6  C4  OXE d   1      -1.403  -3.629  -1.724  0.00  0.00    -0.002 A 
ATOM      7  C5  OXE d   1      -0.699  -3.640  -0.516  0.00  0.00    -0.002 A 
ATOM      8  C6  OXE d   1      -0.962  -2.661   0.436  0.00  0.00     0.003 A 
ENDROOT
TORSDOF 0
ENDMDL
