MODEL 1
REMARK minimizedAffinity 7.59863567
REMARK minimizedRMSD -1
REMARK  0 active torsions:
REMARK  status: ('A' for Active; 'I' for Inactive)
ROOT
ATOM      1  C2' OXE d   1       4.448   4.628   2.795  0.00  0.00     0.078 C 
ATOM      2  C1' OXE d   1       5.653   2.112   2.490  0.00  0.00     0.078 C 
ATOM      3  C1  OXE d   1       4.173   2.220   2.222  0.00  0.00    -0.078 A 
ATOM      4  C2  OXE d   1       3.583   3.445   2.418  0.00  0.00    -0.078 A 
ATOM      5  C3  OXE d   1       2.231   3.612   2.132  0.00  0.00     0.003 A 
ATOM      6  C4  OXE d   1       1.436   2.510   1.794  0.00  0.00    -0.002 A 
ATOM      7  C5  OXE d   1       2.010   1.246   1.627  0.00  0.00    -0.002 A 
ATOM      8  C6  OXE d   1       3.382   1.092   1.795  0.00  0.00     0.003 A 
ENDROOT
TORSDOF 0
ENDMDL
