MODEL 1
REMARK minimizedAffinity 11.1394892
REMARK minimizedRMSD -1
REMARK  0 active torsions:
REMARK  status: ('A' for Active; 'I' for Inactive)
ROOT
ATOM      1  C2' OXE d   1       5.912  -5.999  -3.226  0.00  0.00     0.078 C 
ATOM      2  C1' OXE d   1       3.115  -5.999  -2.986  0.00  0.00     0.078 C 
ATOM      3  C1  OXE d   1       3.879  -4.883  -2.318  0.00  0.00    -0.078 A 
ATOM      4  C2  OXE d   1       5.250  -4.917  -2.401  0.00  0.00    -0.078 A 
ATOM      5  C3  OXE d   1       6.000  -3.882  -1.850  0.00  0.00     0.003 A 
ATOM      6  C4  OXE d   1       5.380  -2.890  -1.080  0.00  0.00    -0.002 A 
ATOM      7  C5  OXE d   1       3.988  -2.859  -0.949  0.00  0.00    -0.002 A 
ATOM      8  C6  OXE d   1       3.221  -3.822  -1.596  0.00  0.00     0.003 A 
ENDROOT
TORSDOF 0
ENDMDL
