MODEL 1
REMARK minimizedAffinity 5.69382858
REMARK minimizedRMSD -1
REMARK  0 active torsions:
REMARK  status: ('A' for Active; 'I' for Inactive)
ROOT
ATOM      1  C2' OXE d   1       3.853   5.000   2.920  0.00  0.00     0.078 C 
ATOM      2  C1' OXE d   1       1.096   4.516   3.130  0.00  0.00     0.078 C 
ATOM      3  C1  OXE d   1       1.943   3.472   2.448  0.00  0.00    -0.078 A 
ATOM      4  C2  OXE d   1       3.284   3.738   2.309  0.00  0.00    -0.078 A 
ATOM      5  C3  OXE d   1       4.121   2.784   1.737  0.00  0.00     0.003 A 
ATOM      6  C4  OXE d   1       3.586   1.623   1.165  0.00  0.00    -0.002 A 
ATOM      7  C5  OXE d   1       2.217   1.351   1.260  0.00  0.00    -0.002 A 
ATOM      8  C6  OXE d   1       1.390   2.243   1.935  0.00  0.00     0.003 A 
ENDROOT
TORSDOF 0
ENDMDL
