MODEL 1
REMARK minimizedAffinity -1.90108991
REMARK minimizedRMSD -1
REMARK  0 active torsions:
REMARK  status: ('A' for Active; 'I' for Inactive)
ROOT
ATOM      1  C2' OXE d   1      -0.765  -1.259   0.572  0.00  0.00     0.078 C 
ATOM      2  C1' OXE d   1       1.714   0.023   0.266  0.00  0.00     0.078 C 
ATOM      3  C1  OXE d   1       1.660  -1.468   0.042  0.00  0.00    -0.078 A 
ATOM      4  C2  OXE d   1       0.453  -2.094   0.239  0.00  0.00    -0.078 A 
ATOM      5  C3  OXE d   1       0.336  -3.458  -0.008  0.00  0.00     0.003 A 
ATOM      6  C4  OXE d   1       1.469  -4.225  -0.306  0.00  0.00    -0.002 A 
ATOM      7  C5  OXE d   1       2.716  -3.613  -0.473  0.00  0.00    -0.002 A 
ATOM      8  C6  OXE d   1       2.820  -2.232  -0.345  0.00  0.00     0.003 A 
ENDROOT
TORSDOF 0
ENDMDL
