MODEL 1
REMARK minimizedAffinity 7.5511775
REMARK minimizedRMSD -1
REMARK  0 active torsions:
REMARK  status: ('A' for Active; 'I' for Inactive)
ROOT
ATOM      1  C2' OXE d   1       1.609   0.796   1.052  0.00  0.00     0.078 C 
ATOM      2  C1' OXE d   1      -0.728  -0.735   1.324  0.00  0.00     0.078 C 
ATOM      3  C1  OXE d   1       0.514  -1.430   0.825  0.00  0.00    -0.078 A 
ATOM      4  C2  OXE d   1       1.641  -0.663   0.651  0.00  0.00    -0.078 A 
ATOM      5  C3  OXE d   1       2.828  -1.265   0.245  0.00  0.00     0.003 A 
ATOM      6  C4  OXE d   1       2.847  -2.612  -0.134  0.00  0.00    -0.002 A 
ATOM      7  C5  OXE d   1       1.700  -3.403  -0.002  0.00  0.00    -0.002 A 
ATOM      8  C6  OXE d   1       0.539  -2.838   0.515  0.00  0.00     0.003 A 
ENDROOT
TORSDOF 0
ENDMDL
