MODEL 1
REMARK minimizedAffinity 9.29418755
REMARK minimizedRMSD -1
REMARK  0 active torsions:
REMARK  status: ('A' for Active; 'I' for Inactive)
ROOT
ATOM      1  C2' OXE d   1       3.993   4.213   3.654  0.00  0.00     0.078 C 
ATOM      2  C1' OXE d   1       1.199   4.004   3.821  0.00  0.00     0.078 C 
ATOM      3  C1  OXE d   1       1.919   3.074   2.877  0.00  0.00    -0.078 A 
ATOM      4  C2  OXE d   1       3.281   3.215   2.767  0.00  0.00    -0.078 A 
ATOM      5  C3  OXE d   1       4.000   2.346   1.951  0.00  0.00     0.003 A 
ATOM      6  C4  OXE d   1       3.333   1.432   1.126  0.00  0.00    -0.002 A 
ATOM      7  C5  OXE d   1       1.942   1.299   1.194  0.00  0.00    -0.002 A 
ATOM      8  C6  OXE d   1       1.226   2.082   2.093  0.00  0.00     0.003 A 
ENDROOT
TORSDOF 0
ENDMDL
