MODEL 1
REMARK minimizedAffinity 3.9735539
REMARK minimizedRMSD -1
REMARK  0 active torsions:
REMARK  status: ('A' for Active; 'I' for Inactive)
ROOT
ATOM      1  C2' OXE d   1       3.407  -0.036  -0.216  0.00  0.00     0.078 C 
ATOM      2  C1' OXE d   1       0.833   0.825   0.499  0.00  0.00     0.078 C 
ATOM      3  C1  OXE d   1       2.002   1.401   1.257  0.00  0.00    -0.078 A 
ATOM      4  C2  OXE d   1       3.255   0.939   0.932  0.00  0.00    -0.078 A 
ATOM      5  C3  OXE d   1       4.373   1.477   1.562  0.00  0.00     0.003 A 
ATOM      6  C4  OXE d   1       4.223   2.372   2.629  0.00  0.00    -0.002 A 
ATOM      7  C5  OXE d   1       2.954   2.825   3.003  0.00  0.00    -0.002 A 
ATOM      8  C6  OXE d   1       1.838   2.383   2.300  0.00  0.00     0.003 A 
ENDROOT
TORSDOF 0
ENDMDL
