MODEL 1
REMARK minimizedAffinity 11.5371637
REMARK minimizedRMSD -1
REMARK  0 active torsions:
REMARK  status: ('A' for Active; 'I' for Inactive)
ROOT
ATOM      1  C2' OXE d   1       3.848   5.384   3.221  0.00  0.00     0.078 C 
ATOM      2  C1' OXE d   1       1.281   4.343   3.676  0.00  0.00     0.078 C 
ATOM      3  C1  OXE d   1       2.243   3.513   2.863  0.00  0.00    -0.078 A 
ATOM      4  C2  OXE d   1       3.481   4.051   2.606  0.00  0.00    -0.078 A 
ATOM      5  C3  OXE d   1       4.425   3.304   1.908  0.00  0.00     0.003 A 
ATOM      6  C4  OXE d   1       4.075   2.076   1.334  0.00  0.00    -0.002 A 
ATOM      7  C5  OXE d   1       2.806   1.528   1.550  0.00  0.00    -0.002 A 
ATOM      8  C6  OXE d   1       1.894   2.213   2.346  0.00  0.00     0.003 A 
ENDROOT
TORSDOF 0
ENDMDL
