MODEL 1
REMARK minimizedAffinity 14.8156948
REMARK minimizedRMSD -1
REMARK  0 active torsions:
REMARK  status: ('A' for Active; 'I' for Inactive)
ROOT
ATOM      1  C2' OXE d   1       5.030   4.122   4.056  0.00  0.00     0.078 C 
ATOM      2  C1' OXE d   1       4.720   5.574   1.673  0.00  0.00     0.078 C 
ATOM      3  C1  OXE d   1       3.786   4.415   1.918  0.00  0.00    -0.078 A 
ATOM      4  C2  OXE d   1       3.976   3.681   3.065  0.00  0.00    -0.078 A 
ATOM      5  C3  OXE d   1       3.107   2.636   3.365  0.00  0.00     0.003 A 
ATOM      6  C4  OXE d   1       2.141   2.228   2.438  0.00  0.00    -0.002 A 
ATOM      7  C5  OXE d   1       1.957   2.937   1.246  0.00  0.00    -0.002 A 
ATOM      8  C6  OXE d   1       2.742   4.056   0.991  0.00  0.00     0.003 A 
ENDROOT
TORSDOF 0
ENDMDL
