MODEL 1
REMARK minimizedAffinity 8.62465477
REMARK minimizedRMSD -1
REMARK  0 active torsions:
REMARK  status: ('A' for Active; 'I' for Inactive)
ROOT
ATOM      1  C2' OXE d   1       2.702   1.770   1.497  0.00  0.00     0.078 C 
ATOM      2  C1' OXE d   1       2.849   4.473   0.756  0.00  0.00     0.078 C 
ATOM      3  C1  OXE d   1       2.381   4.151   2.153  0.00  0.00    -0.078 A 
ATOM      4  C2  OXE d   1       2.268   2.824   2.492  0.00  0.00    -0.078 A 
ATOM      5  C3  OXE d   1       1.893   2.472   3.785  0.00  0.00     0.003 A 
ATOM      6  C4  OXE d   1       1.484   3.454   4.696  0.00  0.00    -0.002 A 
ATOM      7  C5  OXE d   1       1.553   4.809   4.359  0.00  0.00    -0.002 A 
ATOM      8  C6  OXE d   1       2.039   5.176   3.108  0.00  0.00     0.003 A 
ENDROOT
TORSDOF 0
ENDMDL
