MODEL 1
REMARK minimizedAffinity 1.9671768
REMARK minimizedRMSD -1
REMARK  0 active torsions:
REMARK  status: ('A' for Active; 'I' for Inactive)
ROOT
ATOM      1  C2' OXE d   1       3.800   2.248   2.028  0.00  0.00     0.078 C 
ATOM      2  C1' OXE d   1       1.153   2.406   2.949  0.00  0.00     0.078 C 
ATOM      3  C1  OXE d   1       1.998   3.652   3.023  0.00  0.00    -0.078 A 
ATOM      4  C2  OXE d   1       3.306   3.554   2.613  0.00  0.00    -0.078 A 
ATOM      5  C3  OXE d   1       4.115   4.687   2.609  0.00  0.00     0.003 A 
ATOM      6  C4  OXE d   1       3.654   5.889   3.161  0.00  0.00    -0.002 A 
ATOM      7  C5  OXE d   1       2.337   6.000   3.620  0.00  0.00    -0.002 A 
ATOM      8  C6  OXE d   1       1.485   4.905   3.519  0.00  0.00     0.003 A 
ENDROOT
TORSDOF 0
ENDMDL
