MODEL 1
REMARK minimizedAffinity 11.6390362
REMARK minimizedRMSD -1
REMARK  0 active torsions:
REMARK  status: ('A' for Active; 'I' for Inactive)
ROOT
ATOM      1  C2' OXE d   1      -4.380   1.267   0.090  0.00  0.00     0.078 C 
ATOM      2  C1' OXE d   1      -1.748   0.341  -0.221  0.00  0.00     0.078 C 
ATOM      3  C1  OXE d   1      -2.590  -0.283   0.864  0.00  0.00    -0.078 A 
ATOM      4  C2  OXE d   1      -3.861   0.209   1.039  0.00  0.00    -0.078 A 
ATOM      5  C3  OXE d   1      -4.699  -0.368   1.989  0.00  0.00     0.003 A 
ATOM      6  C4  OXE d   1      -4.208  -1.340   2.870  0.00  0.00    -0.002 A 
ATOM      7  C5  OXE d   1      -2.904  -1.827   2.735  0.00  0.00    -0.002 A 
ATOM      8  C6  OXE d   1      -2.097  -1.340   1.712  0.00  0.00     0.003 A 
ENDROOT
TORSDOF 0
ENDMDL
