MODEL 1
REMARK minimizedAffinity 10.6693058
REMARK minimizedRMSD -1
REMARK  0 active torsions:
REMARK  status: ('A' for Active; 'I' for Inactive)
ROOT
ATOM      1  C2' OXE d   1       5.323   2.411   2.356  0.00  0.00     0.078 C 
ATOM      2  C1' OXE d   1       3.765   4.443   3.507  0.00  0.00     0.078 C 
ATOM      3  C1  OXE d   1       3.046   3.312   2.815  0.00  0.00    -0.078 A 
ATOM      4  C2  OXE d   1       3.818   2.346   2.214  0.00  0.00    -0.078 A 
ATOM      5  C3  OXE d   1       3.205   1.252   1.609  0.00  0.00     0.003 A 
ATOM      6  C4  OXE d   1       1.813   1.205   1.473  0.00  0.00    -0.002 A 
ATOM      7  C5  OXE d   1       1.010   2.198   2.044  0.00  0.00    -0.002 A 
ATOM      8  C6  OXE d   1       1.607   3.234   2.753  0.00  0.00     0.003 A 
ENDROOT
TORSDOF 0
ENDMDL
