MODEL 1
REMARK minimizedAffinity 1.73724341
REMARK minimizedRMSD -1
REMARK  0 active torsions:
REMARK  status: ('A' for Active; 'I' for Inactive)
ROOT
ATOM      1  C2' OXE d   1      -2.232  -3.410  -1.151  0.00  0.00     0.078 C 
ATOM      2  C1' OXE d   1      -1.204  -5.876  -2.011  0.00  0.00     0.078 C 
ATOM      3  C1  OXE d   1      -0.347  -5.038  -1.096  0.00  0.00    -0.078 A 
ATOM      4  C2  OXE d   1      -0.839  -3.811  -0.718  0.00  0.00    -0.078 A 
ATOM      5  C3  OXE d   1      -0.113  -3.021   0.169  0.00  0.00     0.003 A 
ATOM      6  C4  OXE d   1       1.179  -3.396   0.557  0.00  0.00    -0.002 A 
ATOM      7  C5  OXE d   1       1.715  -4.623   0.152  0.00  0.00    -0.002 A 
ATOM      8  C6  OXE d   1       0.949  -5.472  -0.639  0.00  0.00     0.003 A 
ENDROOT
TORSDOF 0
ENDMDL
