MODEL 1
REMARK minimizedAffinity 10.3022785
REMARK minimizedRMSD -1
REMARK  0 active torsions:
REMARK  status: ('A' for Active; 'I' for Inactive)
ROOT
ATOM      1  C2' OXE d   1       5.999   3.778   1.518  0.00  0.00     0.078 C 
ATOM      2  C1' OXE d   1       4.160   5.767   2.255  0.00  0.00     0.078 C 
ATOM      3  C1  OXE d   1       3.708   4.330   2.326  0.00  0.00    -0.078 A 
ATOM      4  C2  OXE d   1       4.599   3.366   1.919  0.00  0.00    -0.078 A 
ATOM      5  C3  OXE d   1       4.252   2.022   2.016  0.00  0.00     0.003 A 
ATOM      6  C4  OXE d   1       2.952   1.650   2.379  0.00  0.00    -0.002 A 
ATOM      7  C5  OXE d   1       2.016   2.618   2.759  0.00  0.00    -0.002 A 
ATOM      8  C6  OXE d   1       2.391   3.957   2.779  0.00  0.00     0.003 A 
ENDROOT
TORSDOF 0
ENDMDL
