MODEL 1
REMARK minimizedAffinity 3.3755343
REMARK minimizedRMSD -1
REMARK  0 active torsions:
REMARK  status: ('A' for Active; 'I' for Inactive)
ROOT
ATOM      1  C2' OXE d   1       2.523   2.850  -0.114  0.00  0.00     0.078 C 
ATOM      2  C1' OXE d   1       1.972   2.024   2.511  0.00  0.00     0.078 C 
ATOM      3  C1  OXE d   1       2.739   3.309   2.325  0.00  0.00    -0.078 A 
ATOM      4  C2  OXE d   1       3.045   3.682   1.038  0.00  0.00    -0.078 A 
ATOM      5  C3  OXE d   1       3.703   4.886   0.807  0.00  0.00     0.003 A 
ATOM      6  C4  OXE d   1       4.191   5.644   1.878  0.00  0.00    -0.002 A 
ATOM      7  C5  OXE d   1       3.925   5.262   3.198  0.00  0.00    -0.002 A 
ATOM      8  C6  OXE d   1       3.165   4.122   3.437  0.00  0.00     0.003 A 
ENDROOT
TORSDOF 0
ENDMDL
