MODEL 1
REMARK minimizedAffinity 8.30032349
REMARK minimizedRMSD -1
REMARK  0 active torsions:
REMARK  status: ('A' for Active; 'I' for Inactive)
ROOT
ATOM      1  C2' OXE d   1       1.544  -1.250   5.859  0.00  0.00     0.078 C 
ATOM      2  C1' OXE d   1      -0.933  -0.003   5.426  0.00  0.00     0.078 C 
ATOM      3  C1  OXE d   1       0.306   0.703   4.934  0.00  0.00    -0.078 A 
ATOM      4  C2  OXE d   1       1.517   0.108   5.192  0.00  0.00    -0.078 A 
ATOM      5  C3  OXE d   1       2.687   0.690   4.713  0.00  0.00     0.003 A 
ATOM      6  C4  OXE d   1       2.654   1.951   4.105  0.00  0.00    -0.002 A 
ATOM      7  C5  OXE d   1       1.434   2.593   3.868  0.00  0.00    -0.002 A 
ATOM      8  C6  OXE d   1       0.250   1.965   4.237  0.00  0.00     0.003 A 
ENDROOT
TORSDOF 0
ENDMDL
