MODEL 1
REMARK minimizedAffinity -0.742855132
REMARK minimizedRMSD -1
REMARK  0 active torsions:
REMARK  status: ('A' for Active; 'I' for Inactive)
ROOT
ATOM      1  C2' OXE d   1       0.977   0.727   0.109  0.00  0.00     0.078 C 
ATOM      2  C1' OXE d   1      -1.214  -0.923  -0.488  0.00  0.00     0.078 C 
ATOM      3  C1  OXE d   1      -1.257  -0.134   0.796  0.00  0.00    -0.078 A 
ATOM      4  C2  OXE d   1      -0.161   0.635   1.103  0.00  0.00    -0.078 A 
ATOM      5  C3  OXE d   1      -0.172   1.426   2.249  0.00  0.00     0.003 A 
ATOM      6  C4  OXE d   1      -1.224   1.327   3.168  0.00  0.00    -0.002 A 
ATOM      7  C5  OXE d   1      -2.333   0.520   2.893  0.00  0.00    -0.002 A 
ATOM      8  C6  OXE d   1      -2.384  -0.182   1.694  0.00  0.00     0.003 A 
ENDROOT
TORSDOF 0
ENDMDL
