MODEL 1
REMARK minimizedAffinity 8.35279083
REMARK minimizedRMSD -1
REMARK  0 active torsions:
REMARK  status: ('A' for Active; 'I' for Inactive)
ROOT
ATOM      1  C2' OXE d   1      -6.000  -1.881  -0.021  0.00  0.00     0.078 C 
ATOM      2  C1' OXE d   1      -4.156  -0.317  -1.447  0.00  0.00     0.078 C 
ATOM      3  C1  OXE d   1      -3.879  -0.575   0.013  0.00  0.00    -0.078 A 
ATOM      4  C2  OXE d   1      -4.810  -1.302   0.714  0.00  0.00    -0.078 A 
ATOM      5  C3  OXE d   1      -4.577  -1.615   2.050  0.00  0.00     0.003 A 
ATOM      6  C4  OXE d   1      -3.480  -1.067   2.725  0.00  0.00    -0.002 A 
ATOM      7  C5  OXE d   1      -2.539  -0.291   2.039  0.00  0.00    -0.002 A 
ATOM      8  C6  OXE d   1      -2.702  -0.071   0.676  0.00  0.00     0.003 A 
ENDROOT
TORSDOF 0
ENDMDL
