MODEL 1
REMARK minimizedAffinity 6.36198616
REMARK minimizedRMSD -1
REMARK  0 active torsions:
REMARK  status: ('A' for Active; 'I' for Inactive)
ROOT
ATOM      1  C2' OXE d   1       0.018   1.386   3.921  0.00  0.00     0.078 C 
ATOM      2  C1' OXE d   1      -1.259  -0.664   5.352  0.00  0.00     0.078 C 
ATOM      3  C1  OXE d   1      -1.675  -0.441   3.919  0.00  0.00    -0.078 A 
ATOM      4  C2  OXE d   1      -1.078   0.595   3.241  0.00  0.00    -0.078 A 
ATOM      5  C3  OXE d   1      -1.386   0.809   1.901  0.00  0.00     0.003 A 
ATOM      6  C4  OXE d   1      -2.408   0.079   1.283  0.00  0.00    -0.002 A 
ATOM      7  C5  OXE d   1      -3.057  -0.954   1.967  0.00  0.00    -0.002 A 
ATOM      8  C6  OXE d   1      -2.673  -1.255   3.270  0.00  0.00     0.003 A 
ENDROOT
TORSDOF 0
ENDMDL
