MODEL 1
REMARK minimizedAffinity 10.1544771
REMARK minimizedRMSD -1
REMARK  0 active torsions:
REMARK  status: ('A' for Active; 'I' for Inactive)
ROOT
ATOM      1  C2' OXE d   1      -1.551  -4.490   0.963  0.00  0.00     0.078 C 
ATOM      2  C1' OXE d   1      -1.584  -2.561  -1.076  0.00  0.00     0.078 C 
ATOM      3  C1  OXE d   1      -1.905  -2.108   0.327  0.00  0.00    -0.078 A 
ATOM      4  C2  OXE d   1      -1.933  -3.067   1.310  0.00  0.00    -0.078 A 
ATOM      5  C3  OXE d   1      -2.170  -2.695   2.630  0.00  0.00     0.003 A 
ATOM      6  C4  OXE d   1      -2.532  -1.378   2.941  0.00  0.00    -0.002 A 
ATOM      7  C5  OXE d   1      -2.549  -0.393   1.948  0.00  0.00    -0.002 A 
ATOM      8  C6  OXE d   1      -2.198  -0.732   0.646  0.00  0.00     0.003 A 
ENDROOT
TORSDOF 0
ENDMDL
