MODEL 1
REMARK minimizedAffinity 2.99554276
REMARK minimizedRMSD -1
REMARK  0 active torsions:
REMARK  status: ('A' for Active; 'I' for Inactive)
ROOT
ATOM      1  C2' OXE d   1       0.306  -5.937   6.000  0.00  0.00     0.078 C 
ATOM      2  C1' OXE d   1      -2.501  -5.916   5.999  0.00  0.00     0.078 C 
ATOM      3  C1  OXE d   1      -1.797  -5.951   4.666  0.00  0.00    -0.078 A 
ATOM      4  C2  OXE d   1      -0.424  -5.914   4.674  0.00  0.00    -0.078 A 
ATOM      5  C3  OXE d   1       0.276  -6.000   3.474  0.00  0.00     0.003 A 
ATOM      6  C4  OXE d   1      -0.407  -5.968   2.252  0.00  0.00    -0.002 A 
ATOM      7  C5  OXE d   1      -1.806  -5.965   2.220  0.00  0.00    -0.002 A 
ATOM      8  C6  OXE d   1      -2.515  -5.999   3.416  0.00  0.00     0.003 A 
ENDROOT
TORSDOF 0
ENDMDL
