MODEL 1
REMARK minimizedAffinity -3.4575367
REMARK minimizedRMSD -1
REMARK  0 active torsions:
REMARK  status: ('A' for Active; 'I' for Inactive)
ROOT
ATOM      1  C2' OXE d   1      -6.000   5.866   4.443  0.00  0.00     0.078 C 
ATOM      2  C1' OXE d   1      -3.349   5.847   5.366  0.00  0.00     0.078 C 
ATOM      3  C1  OXE d   1      -3.575   5.917   3.877  0.00  0.00    -0.078 A 
ATOM      4  C2  OXE d   1      -4.874   5.879   3.432  0.00  0.00    -0.078 A 
ATOM      5  C3  OXE d   1      -5.140   5.996   2.071  0.00  0.00     0.003 A 
ATOM      6  C4  OXE d   1      -4.093   5.997   1.141  0.00  0.00    -0.002 A 
ATOM      7  C5  OXE d   1      -2.762   5.997   1.571  0.00  0.00    -0.002 A 
ATOM      8  C6  OXE d   1      -2.486   6.000   2.934  0.00  0.00     0.003 A 
ENDROOT
TORSDOF 0
ENDMDL
