MODEL 1
REMARK minimizedAffinity -4.44147015
REMARK minimizedRMSD -1
REMARK  3 active torsions:
REMARK  status: ('A' for Active; 'I' for Inactive)
REMARK    1  A    between atoms: C3'_2  and  C2'_3 
REMARK    2  A    between atoms: C2'_3  and  C1'_4 
REMARK    3  A    between atoms: C1'_4  and  C1_5 
ROOT
ATOM      1  C1  N4B d   1       0.174   0.122   0.079  0.00  0.00    -0.075 A 
ATOM      2  C2  N4B d   1      -0.324   0.012   1.396  0.00  0.00     0.002 A 
ATOM      3  C3  N4B d   1      -1.127   1.000   1.911  0.00  0.00     0.002 A 
ATOM      4  C4  N4B d   1      -1.428   2.111   1.138  0.00  0.00    -0.004 A 
ATOM      5  C5  N4B d   1      -0.964   2.197  -0.142  0.00  0.00     0.002 A 
ATOM      6  C6  N4B d   1      -0.160   1.210  -0.674  0.00  0.00     0.002 A 
ENDROOT
BRANCH   1   7
ATOM      7  C1' N4B d   1       1.125  -0.891  -0.498  0.00  0.00     0.057 C 
BRANCH   7   8
ATOM      8  C2' N4B d   1       0.397  -1.717  -1.555  0.00  0.00     0.009 C 
BRANCH   8   9
ATOM      9  C3' N4B d   1       0.996  -3.105  -1.703  0.00  0.00     0.004 C 
ATOM     10  C4' N4B d   1      -0.016  -4.133  -2.113  0.00  0.00     0.003 C 
ENDBRANCH   8   9
ENDBRANCH   7   8
ENDBRANCH   1   7
TORSDOF 3
ENDMDL
