MODEL 1
REMARK minimizedAffinity -4.8882103
REMARK minimizedRMSD -1
REMARK  3 active torsions:
REMARK  status: ('A' for Active; 'I' for Inactive)
REMARK    1  A    between atoms: C3'_2  and  C2'_3 
REMARK    2  A    between atoms: C2'_3  and  C1'_4 
REMARK    3  A    between atoms: C1'_4  and  C1_5 
ROOT
ATOM      1  C1  N4B d   1      -0.007  -0.199  -0.107  0.00  0.00    -0.075 A 
ATOM      2  C2  N4B d   1      -0.598  -0.190   1.176  0.00  0.00     0.002 A 
ATOM      3  C3  N4B d   1      -1.298   0.913   1.601  0.00  0.00     0.002 A 
ATOM      4  C4  N4B d   1      -1.403   2.020   0.772  0.00  0.00    -0.004 A 
ATOM      5  C5  N4B d   1      -0.851   1.993  -0.475  0.00  0.00     0.002 A 
ATOM      6  C6  N4B d   1      -0.148   0.890  -0.917  0.00  0.00     0.002 A 
ENDROOT
BRANCH   1   7
ATOM      7  C1' N4B d   1       0.840  -1.348  -0.582  0.00  0.00     0.057 C 
BRANCH   7   8
ATOM      8  C2' N4B d   1       1.175  -1.147  -2.057  0.00  0.00     0.009 C 
BRANCH   8   9
ATOM      9  C3' N4B d   1       0.520  -2.197  -2.937  0.00  0.00     0.004 C 
ATOM     10  C4' N4B d   1       0.291  -3.494  -2.220  0.00  0.00     0.003 C 
ENDBRANCH   8   9
ENDBRANCH   7   8
ENDBRANCH   1   7
TORSDOF 3
ENDMDL
