MODEL 1
REMARK minimizedAffinity -3.97359776
REMARK minimizedRMSD -1
REMARK  3 active torsions:
REMARK  status: ('A' for Active; 'I' for Inactive)
REMARK    1  A    between atoms: C3'_2  and  C2'_3 
REMARK    2  A    between atoms: C2'_3  and  C1'_4 
REMARK    3  A    between atoms: C1'_4  and  C1_5 
ROOT
ATOM      1  C1  N4B d   1      -0.351   0.192   0.379  0.00  0.00    -0.075 A 
ATOM      2  C2  N4B d   1      -1.226   0.562   1.425  0.00  0.00     0.002 A 
ATOM      3  C3  N4B d   1      -1.867   1.776   1.386  0.00  0.00     0.002 A 
ATOM      4  C4  N4B d   1      -1.635   2.640   0.327  0.00  0.00    -0.004 A 
ATOM      5  C5  N4B d   1      -0.808   2.265  -0.691  0.00  0.00     0.002 A 
ATOM      6  C6  N4B d   1      -0.161   1.046  -0.668  0.00  0.00     0.002 A 
ENDROOT
BRANCH   1   7
ATOM      7  C1' N4B d   1       0.438  -1.088   0.420  0.00  0.00     0.057 C 
BRANCH   7   8
ATOM      8  C2' N4B d   1       1.119  -1.299  -0.929  0.00  0.00     0.009 C 
BRANCH   8   9
ATOM      9  C3' N4B d   1       1.046  -2.747  -1.382  0.00  0.00     0.004 C 
ATOM     10  C4' N4B d   1       0.273  -2.918  -2.656  0.00  0.00     0.003 C 
ENDBRANCH   8   9
ENDBRANCH   7   8
ENDBRANCH   1   7
TORSDOF 3
ENDMDL
