MODEL 1
REMARK minimizedAffinity -1.22637296
REMARK minimizedRMSD -1
REMARK  3 active torsions:
REMARK  status: ('A' for Active; 'I' for Inactive)
REMARK    1  A    between atoms: C3'_2  and  C2'_3 
REMARK    2  A    between atoms: C2'_3  and  C1'_4 
REMARK    3  A    between atoms: C1'_4  and  C1_5 
ROOT
ATOM      1  C1  N4B d   1      -0.527   0.226   0.755  0.00  0.00    -0.075 A 
ATOM      2  C2  N4B d   1      -1.700   0.309  -0.026  0.00  0.00     0.002 A 
ATOM      3  C3  N4B d   1      -2.693   1.194   0.318  0.00  0.00     0.002 A 
ATOM      4  C4  N4B d   1      -2.543   1.988   1.445  0.00  0.00    -0.004 A 
ATOM      5  C5  N4B d   1      -1.396   1.919   2.180  0.00  0.00     0.002 A 
ATOM      6  C6  N4B d   1      -0.388   1.038   1.844  0.00  0.00     0.002 A 
ENDROOT
BRANCH   1   7
ATOM      7  C1' N4B d   1       0.548  -0.786   0.468  0.00  0.00     0.057 C 
BRANCH   7   8
ATOM      8  C2' N4B d   1       0.365  -1.324  -0.948  0.00  0.00     0.009 C 
BRANCH   8   9
ATOM      9  C3' N4B d   1       0.927  -2.727  -1.101  0.00  0.00     0.004 C 
ATOM     10  C4' N4B d   1       0.291  -3.488  -2.226  0.00  0.00     0.003 C 
ENDBRANCH   8   9
ENDBRANCH   7   8
ENDBRANCH   1   7
TORSDOF 3
ENDMDL
