MODEL 1
REMARK minimizedAffinity -0.483592272
REMARK minimizedRMSD -1
REMARK  3 active torsions:
REMARK  status: ('A' for Active; 'I' for Inactive)
REMARK    1  A    between atoms: C3'_2  and  C2'_3 
REMARK    2  A    between atoms: C2'_3  and  C1'_4 
REMARK    3  A    between atoms: C1'_4  and  C1_5 
ROOT
ATOM      1  C1  N4B d   1      -0.096   0.603  -0.612  0.00  0.00    -0.075 A 
ATOM      2  C2  N4B d   1      -1.499   0.690  -0.474  0.00  0.00     0.002 A 
ATOM      3  C3  N4B d   1      -2.142   1.875  -0.731  0.00  0.00     0.002 A 
ATOM      4  C4  N4B d   1      -1.405   2.988  -1.107  0.00  0.00    -0.004 A 
ATOM      5  C5  N4B d   1      -0.053   2.890  -1.263  0.00  0.00     0.002 A 
ATOM      6  C6  N4B d   1       0.606   1.703  -1.012  0.00  0.00     0.002 A 
ENDROOT
BRANCH   1   7
ATOM      7  C1' N4B d   1       0.661  -0.648  -0.259  0.00  0.00     0.057 C 
BRANCH   7   8
ATOM      8  C2' N4B d   1      -0.118  -1.862  -0.756  0.00  0.00     0.009 C 
BRANCH   8   9
ATOM      9  C3' N4B d   1       0.027  -2.054  -2.256  0.00  0.00     0.004 C 
ATOM     10  C4' N4B d   1      -0.254  -3.462  -2.691  0.00  0.00     0.003 C 
ENDBRANCH   8   9
ENDBRANCH   7   8
ENDBRANCH   1   7
TORSDOF 3
ENDMDL
