MODEL 1
REMARK minimizedAffinity -3.41126513
REMARK minimizedRMSD -1
REMARK  3 active torsions:
REMARK  status: ('A' for Active; 'I' for Inactive)
REMARK    1  A    between atoms: C3'_2  and  C2'_3 
REMARK    2  A    between atoms: C2'_3  and  C1'_4 
REMARK    3  A    between atoms: C1'_4  and  C1_5 
ROOT
ATOM      1  C1  N4B d   1      -0.662   0.904   0.101  0.00  0.00    -0.075 A 
ATOM      2  C2  N4B d   1      -0.207  -0.395   0.416  0.00  0.00     0.002 A 
ATOM      3  C3  N4B d   1       0.885  -0.917  -0.234  0.00  0.00     0.002 A 
ATOM      4  C4  N4B d   1       1.523  -0.169  -1.212  0.00  0.00    -0.004 A 
ATOM      5  C5  N4B d   1       1.093   1.095  -1.493  0.00  0.00     0.002 A 
ATOM      6  C6  N4B d   1      -0.001   1.634  -0.845  0.00  0.00     0.002 A 
ENDROOT
BRANCH   1   7
ATOM      7  C1' N4B d   1      -1.902   1.484   0.723  0.00  0.00     0.057 C 
BRANCH   7   8
ATOM      8  C2' N4B d   1      -1.501   2.439   1.844  0.00  0.00     0.009 C 
BRANCH   8   9
ATOM      9  C3' N4B d   1      -0.771   1.721   2.967  0.00  0.00     0.004 C 
ATOM     10  C4' N4B d   1      -0.015   2.659   3.859  0.00  0.00     0.003 C 
ENDBRANCH   8   9
ENDBRANCH   7   8
ENDBRANCH   1   7
TORSDOF 3
ENDMDL
