MODEL 1
REMARK minimizedAffinity -0.215294972
REMARK minimizedRMSD -1
REMARK  1 active torsions:
REMARK  status: ('A' for Active; 'I' for Inactive)
REMARK    1  A    between atoms: C1_2  and  C2_3 
ROOT
ATOM      1  C2  UNL d   1      -1.132  -2.455  -1.035  0.00  0.00    -0.076 A 
ATOM      2  C3  UNL d   1      -1.310  -1.775  -2.252  0.00  0.00     0.004 A 
ATOM      3  C4  UNL d   1      -0.257  -1.630  -3.153  0.00  0.00    -0.003 A 
ATOM      4  C5  UNL d   1       0.991  -2.164  -2.853  0.00  0.00     0.000 A 
ATOM      5  C6  UNL d   1       1.181  -2.858  -1.658  0.00  0.00     0.000 A 
ATOM      6  C7  UNL d   1       0.125  -3.027  -0.745  0.00  0.00    -0.073 A 
ATOM      7  C8  UNL d   1       0.387  -3.778   0.531  0.00  0.00     0.078 C 
ENDROOT
BRANCH   1   8
ATOM      8  C1  UNL d   1      -2.304  -2.557  -0.084  0.00  0.00     0.053 C 
ATOM      9  C   UNL d   1      -3.630  -2.238  -0.757  0.00  0.00     0.018 C 
ENDBRANCH   1   8
TORSDOF 1
ENDMDL
