MODEL 1
REMARK minimizedAffinity -0.862487733
REMARK minimizedRMSD -1
REMARK  1 active torsions:
REMARK  status: ('A' for Active; 'I' for Inactive)
REMARK    1  A    between atoms: C1_2  and  C2_3 
ROOT
ATOM      1  C2  UNL d   1      -0.229  -3.945  -2.812  0.00  0.00    -0.076 A 
ATOM      2  C3  UNL d   1      -1.501  -3.833  -2.224  0.00  0.00     0.004 A 
ATOM      3  C4  UNL d   1      -1.918  -2.638  -1.639  0.00  0.00    -0.003 A 
ATOM      4  C5  UNL d   1      -1.070  -1.536  -1.633  0.00  0.00     0.000 A 
ATOM      5  C6  UNL d   1       0.189  -1.625  -2.228  0.00  0.00     0.000 A 
ATOM      6  C7  UNL d   1       0.618  -2.817  -2.836  0.00  0.00    -0.073 A 
ATOM      7  C8  UNL d   1       1.988  -2.858  -3.457  0.00  0.00     0.078 C 
ENDROOT
BRANCH   1   8
ATOM      8  C1  UNL d   1       0.178  -5.274  -3.407  0.00  0.00     0.053 C 
ATOM      9  C   UNL d   1      -0.942  -5.924  -4.205  0.00  0.00     0.018 C 
ENDBRANCH   1   8
TORSDOF 1
ENDMDL
