MODEL 1
REMARK minimizedAffinity 2.55943584
REMARK minimizedRMSD -1
REMARK  1 active torsions:
REMARK  status: ('A' for Active; 'I' for Inactive)
REMARK    1  A    between atoms: C1_2  and  C2_3 
ROOT
ATOM      1  C2  UNL d   1       0.802  -2.585  -2.199  0.00  0.00    -0.076 A 
ATOM      2  C3  UNL d   1       0.897  -2.647  -0.798  0.00  0.00     0.004 A 
ATOM      3  C4  UNL d   1      -0.220  -2.430   0.007  0.00  0.00    -0.003 A 
ATOM      4  C5  UNL d   1      -1.451  -2.149  -0.577  0.00  0.00     0.000 A 
ATOM      5  C6  UNL d   1      -1.567  -2.102  -1.966  0.00  0.00     0.000 A 
ATOM      6  C7  UNL d   1      -0.453  -2.334  -2.792  0.00  0.00    -0.073 A 
ATOM      7  C8  UNL d   1      -0.634  -2.265  -4.283  0.00  0.00     0.078 C 
ENDROOT
BRANCH   1   8
ATOM      8  C1  UNL d   1       2.054  -2.802  -3.019  0.00  0.00     0.053 C 
ATOM      9  C   UNL d   1       2.940  -1.567  -3.068  0.00  0.00     0.018 C 
ENDBRANCH   1   8
TORSDOF 1
ENDMDL
