MODEL 1
REMARK minimizedAffinity 0.263790339
REMARK minimizedRMSD -1
REMARK  1 active torsions:
REMARK  status: ('A' for Active; 'I' for Inactive)
REMARK    1  A    between atoms: C1_2  and  C2_3 
ROOT
ATOM      1  C2  UNL d   1       3.971  -3.618   5.070  0.00  0.00    -0.076 A 
ATOM      2  C3  UNL d   1       3.369  -2.358   4.901  0.00  0.00     0.004 A 
ATOM      3  C4  UNL d   1       4.028  -1.191   5.283  0.00  0.00    -0.003 A 
ATOM      4  C5  UNL d   1       5.299  -1.264   5.841  0.00  0.00     0.000 A 
ATOM      5  C6  UNL d   1       5.919  -2.503   6.000  0.00  0.00     0.000 A 
ATOM      6  C7  UNL d   1       5.275  -3.689   5.604  0.00  0.00    -0.073 A 
ATOM      7  C8  UNL d   1       5.987  -4.998   5.804  0.00  0.00     0.078 C 
ENDROOT
BRANCH   1   8
ATOM      8  C1  UNL d   1       3.197  -4.851   4.662  0.00  0.00     0.053 C 
ATOM      9  C   UNL d   1       3.137  -5.893   5.767  0.00  0.00     0.018 C 
ENDBRANCH   1   8
TORSDOF 1
ENDMDL
