MODEL 1
REMARK minimizedAffinity 4.87870073
REMARK minimizedRMSD -1
REMARK  1 active torsions:
REMARK  status: ('A' for Active; 'I' for Inactive)
REMARK    1  A    between atoms: C1_2  and  C2_3 
ROOT
ATOM      1  C2  UNL d   1       3.787   4.977  -2.797  0.00  0.00    -0.076 A 
ATOM      2  C3  UNL d   1       3.321   4.034  -3.730  0.00  0.00     0.004 A 
ATOM      3  C4  UNL d   1       4.181   3.088  -4.285  0.00  0.00    -0.003 A 
ATOM      4  C5  UNL d   1       5.522   3.069  -3.915  0.00  0.00     0.000 A 
ATOM      5  C6  UNL d   1       5.997   3.986  -2.978  0.00  0.00     0.000 A 
ATOM      6  C7  UNL d   1       5.140   4.936  -2.397  0.00  0.00    -0.073 A 
ATOM      7  C8  UNL d   1       5.707   5.904  -1.395  0.00  0.00     0.078 C 
ENDROOT
BRANCH   1   8
ATOM      8  C1  UNL d   1       2.813   5.996  -2.249  0.00  0.00     0.053 C 
ATOM      9  C   UNL d   1       1.394   5.772  -2.747  0.00  0.00     0.018 C 
ENDBRANCH   1   8
TORSDOF 1
ENDMDL
