MODEL 1
REMARK minimizedAffinity 5.10129213
REMARK minimizedRMSD -1
REMARK  1 active torsions:
REMARK  status: ('A' for Active; 'I' for Inactive)
REMARK    1  A    between atoms: C1_2  and  C2_3 
ROOT
ATOM      1  C2  UNL d   1       3.638   5.631  -3.486  0.00  0.00    -0.076 A 
ATOM      2  C3  UNL d   1       3.667   5.788  -2.089  0.00  0.00     0.004 A 
ATOM      3  C4  UNL d   1       4.838   5.566  -1.367  0.00  0.00    -0.003 A 
ATOM      4  C5  UNL d   1       6.000   5.185  -2.029  0.00  0.00     0.000 A 
ATOM      5  C6  UNL d   1       5.994   5.042  -3.416  0.00  0.00     0.000 A 
ATOM      6  C7  UNL d   1       4.825   5.277  -4.162  0.00  0.00    -0.073 A 
ATOM      7  C8  UNL d   1       4.874   5.102  -5.655  0.00  0.00     0.078 C 
ENDROOT
BRANCH   1   8
ATOM      8  C1  UNL d   1       2.332   5.858  -4.213  0.00  0.00     0.053 C 
ATOM      9  C   UNL d   1       1.151   5.990  -3.264  0.00  0.00     0.018 C 
ENDBRANCH   1   8
TORSDOF 1
ENDMDL
