MODEL 1
REMARK minimizedAffinity 14.0262547
REMARK minimizedRMSD -1
REMARK  1 active torsions:
REMARK  status: ('A' for Active; 'I' for Inactive)
REMARK    1  A    between atoms: C1_2  and  C2_3 
ROOT
ATOM      1  C2  UNL d   1       2.043  -1.402  -0.751  0.00  0.00    -0.076 A 
ATOM      2  C3  UNL d   1       0.848  -1.668  -0.060  0.00  0.00     0.004 A 
ATOM      3  C4  UNL d   1      -0.379  -1.665  -0.721  0.00  0.00    -0.003 A 
ATOM      4  C5  UNL d   1      -0.431  -1.396  -2.084  0.00  0.00     0.000 A 
ATOM      5  C6  UNL d   1       0.746  -1.147  -2.789  0.00  0.00     0.000 A 
ATOM      6  C7  UNL d   1       1.993  -1.162  -2.141  0.00  0.00    -0.073 A 
ATOM      7  C8  UNL d   1       3.230  -0.881  -2.949  0.00  0.00     0.078 C 
ENDROOT
BRANCH   1   8
ATOM      8  C1  UNL d   1       3.341  -1.392   0.024  0.00  0.00     0.053 C 
ATOM      9  C   UNL d   1       3.130  -1.152   1.511  0.00  0.00     0.018 C 
ENDBRANCH   1   8
TORSDOF 1
ENDMDL
