MODEL 1
REMARK minimizedAffinity 7.27447081
REMARK minimizedRMSD -1
REMARK  1 active torsions:
REMARK  status: ('A' for Active; 'I' for Inactive)
REMARK    1  A    between atoms: C1_2  and  C2_3 
ROOT
ATOM      1  C2  UNL d   1       2.241  -4.448  -3.312  0.00  0.00    -0.076 A 
ATOM      2  C3  UNL d   1       1.130  -4.919  -4.034  0.00  0.00     0.004 A 
ATOM      3  C4  UNL d   1       0.407  -4.072  -4.872  0.00  0.00    -0.003 A 
ATOM      4  C5  UNL d   1       0.783  -2.739  -5.001  0.00  0.00     0.000 A 
ATOM      5  C6  UNL d   1       1.892  -2.259  -4.306  0.00  0.00     0.000 A 
ATOM      6  C7  UNL d   1       2.642  -3.104  -3.471  0.00  0.00    -0.073 A 
ATOM      7  C8  UNL d   1       3.826  -2.532  -2.740  0.00  0.00     0.078 C 
ENDROOT
BRANCH   1   8
ATOM      8  C1  UNL d   1       2.970  -5.406  -2.398  0.00  0.00     0.053 C 
ATOM      9  C   UNL d   1       4.212  -5.998  -3.047  0.00  0.00     0.018 C 
ENDBRANCH   1   8
TORSDOF 1
ENDMDL
