MODEL 1
REMARK minimizedAffinity 4.92063808
REMARK minimizedRMSD -1
REMARK  1 active torsions:
REMARK  status: ('A' for Active; 'I' for Inactive)
REMARK    1  A    between atoms: C1_2  and  C2_3 
ROOT
ATOM      1  C2  UNL d   1      -0.265  -2.623  -1.982  0.00  0.00    -0.076 A 
ATOM      2  C3  UNL d   1      -0.442  -1.645  -0.988  0.00  0.00     0.004 A 
ATOM      3  C4  UNL d   1      -0.877  -1.990   0.290  0.00  0.00    -0.003 A 
ATOM      4  C5  UNL d   1      -1.142  -3.321   0.596  0.00  0.00     0.000 A 
ATOM      5  C6  UNL d   1      -0.955  -4.307  -0.372  0.00  0.00     0.000 A 
ATOM      6  C7  UNL d   1      -0.502  -3.977  -1.661  0.00  0.00    -0.073 A 
ATOM      7  C8  UNL d   1      -0.324  -5.081  -2.668  0.00  0.00     0.078 C 
ENDROOT
BRANCH   1   8
ATOM      8  C1  UNL d   1       0.182  -2.186  -3.358  0.00  0.00     0.053 C 
ATOM      9  C   UNL d   1       1.697  -2.165  -3.499  0.00  0.00     0.018 C 
ENDBRANCH   1   8
TORSDOF 1
ENDMDL
