MODEL 1
REMARK minimizedAffinity 2.97659922
REMARK minimizedRMSD -1
REMARK  1 active torsions:
REMARK  status: ('A' for Active; 'I' for Inactive)
REMARK    1  A    between atoms: C1_2  and  C2_3 
ROOT
ATOM      1  C2  UNL d   1       1.323  -2.386  -2.584  0.00  0.00    -0.076 A 
ATOM      2  C3  UNL d   1       1.185  -2.294  -1.188  0.00  0.00     0.004 A 
ATOM      3  C4  UNL d   1      -0.046  -2.517  -0.573  0.00  0.00    -0.003 A 
ATOM      4  C5  UNL d   1      -1.158  -2.835  -1.344  0.00  0.00     0.000 A 
ATOM      5  C6  UNL d   1      -1.035  -2.948  -2.728  0.00  0.00     0.000 A 
ATOM      6  C7  UNL d   1       0.202  -2.742  -3.363  0.00  0.00    -0.073 A 
ATOM      7  C8  UNL d   1       0.276  -2.871  -4.859  0.00  0.00     0.078 C 
ENDROOT
BRANCH   1   8
ATOM      8  C1  UNL d   1       2.677  -2.107  -3.197  0.00  0.00     0.053 C 
ATOM      9  C   UNL d   1       3.793  -2.089  -2.164  0.00  0.00     0.018 C 
ENDBRANCH   1   8
TORSDOF 1
ENDMDL
