MODEL 1
REMARK minimizedAffinity 6.06100368
REMARK minimizedRMSD -1
REMARK  1 active torsions:
REMARK  status: ('A' for Active; 'I' for Inactive)
REMARK    1  A    between atoms: C1_2  and  C2_3 
ROOT
ATOM      1  C2  UNL d   1      -1.132  -2.530  -0.294  0.00  0.00    -0.076 A 
ATOM      2  C3  UNL d   1      -2.328  -2.162  -0.934  0.00  0.00     0.004 A 
ATOM      3  C4  UNL d   1      -3.562  -2.357  -0.314  0.00  0.00    -0.003 A 
ATOM      4  C5  UNL d   1      -3.619  -2.922   0.955  0.00  0.00     0.000 A 
ATOM      5  C6  UNL d   1      -2.441  -3.278   1.611  0.00  0.00     0.000 A 
ATOM      6  C7  UNL d   1      -1.188  -3.073   1.007  0.00  0.00    -0.073 A 
ATOM      7  C8  UNL d   1       0.050  -3.480   1.758  0.00  0.00     0.078 C 
ENDROOT
BRANCH   1   8
ATOM      8  C1  UNL d   1       0.175  -2.320  -1.026  0.00  0.00     0.053 C 
ATOM      9  C   UNL d   1      -0.001  -1.542  -2.321  0.00  0.00     0.018 C 
ENDBRANCH   1   8
TORSDOF 1
ENDMDL
