MODEL 1
REMARK minimizedAffinity 9.29439354
REMARK minimizedRMSD -1
REMARK  1 active torsions:
REMARK  status: ('A' for Active; 'I' for Inactive)
REMARK    1  A    between atoms: C1_2  and  C2_3 
ROOT
ATOM      1  C2  UNL d   1      -0.929  -2.640  -0.744  0.00  0.00    -0.076 A 
ATOM      2  C3  UNL d   1       0.025  -1.613  -0.642  0.00  0.00     0.004 A 
ATOM      3  C4  UNL d   1       0.855  -1.296  -1.716  0.00  0.00    -0.003 A 
ATOM      4  C5  UNL d   1       0.745  -2.002  -2.909  0.00  0.00     0.000 A 
ATOM      5  C6  UNL d   1      -0.208  -3.013  -3.033  0.00  0.00     0.000 A 
ATOM      6  C7  UNL d   1      -1.064  -3.333  -1.966  0.00  0.00    -0.073 A 
ATOM      7  C8  UNL d   1      -2.069  -4.437  -2.152  0.00  0.00     0.078 C 
ENDROOT
BRANCH   1   8
ATOM      8  C1  UNL d   1      -1.783  -2.957   0.463  0.00  0.00     0.053 C 
ATOM      9  C   UNL d   1      -1.097  -2.601   1.773  0.00  0.00     0.018 C 
ENDBRANCH   1   8
TORSDOF 1
ENDMDL
