MODEL 1
REMARK minimizedAffinity -4.80531836
REMARK minimizedRMSD -1
REMARK  2 active torsions:
REMARK  status: ('A' for Active; 'I' for Inactive)
REMARK    1  A    between atoms: C2'_3  and  C1'_4 
REMARK    2  A    between atoms: C1'_4  and  C1_5 
ROOT
ATOM      1  C1  I4B d   1       0.213   0.152  -0.153  0.00  0.00    -0.075 A 
ATOM      2  C2  I4B d   1      -0.771   0.647   0.667  0.00  0.00     0.003 A 
ATOM      3  C3  I4B d   1      -0.908   2.044   0.852  0.00  0.00     0.002 A 
ATOM      4  C4  I4B d   1      -0.015   2.901   0.243  0.00  0.00    -0.004 A 
ATOM      5  C5  I4B d   1       0.968   2.399  -0.605  0.00  0.00     0.002 A 
ATOM      6  C6  I4B d   1       1.075   1.017  -0.814  0.00  0.00     0.003 A 
ENDROOT
BRANCH   1   7
ATOM      7  C1' I4B d   1       0.350  -1.330  -0.300  0.00  0.00     0.060 C 
BRANCH   7   8
ATOM      8  C2' I4B d   1      -0.493  -1.762  -1.482  0.00  0.00    -0.013 C 
ATOM      9  C4' I4B d   1       0.352  -1.961  -2.712  0.00  0.00     0.013 C 
ATOM     10  C3' I4B d   1      -1.206  -3.026  -1.104  0.00  0.00     0.013 C 
ENDBRANCH   7   8
ENDBRANCH   1   7
TORSDOF 2
ENDMDL
