MODEL 1
REMARK minimizedAffinity 0.146870688
REMARK minimizedRMSD -1
REMARK  2 active torsions:
REMARK  status: ('A' for Active; 'I' for Inactive)
REMARK    1  A    between atoms: C2'_3  and  C1'_4 
REMARK    2  A    between atoms: C1'_4  and  C1_5 
ROOT
ATOM      1  C1  I4B d   1       0.115  -1.134  -0.449  0.00  0.00    -0.075 A 
ATOM      2  C2  I4B d   1      -0.484  -2.238   0.105  0.00  0.00     0.003 A 
ATOM      3  C3  I4B d   1      -0.655  -3.416  -0.662  0.00  0.00     0.002 A 
ATOM      4  C4  I4B d   1      -0.261  -3.429  -1.984  0.00  0.00    -0.004 A 
ATOM      5  C5  I4B d   1       0.367  -2.316  -2.537  0.00  0.00     0.002 A 
ATOM      6  C6  I4B d   1       0.568  -1.165  -1.761  0.00  0.00     0.003 A 
ENDROOT
BRANCH   1   7
ATOM      7  C1' I4B d   1       0.250   0.105   0.380  0.00  0.00     0.060 C 
BRANCH   7   8
ATOM      8  C2' I4B d   1       1.156   1.066  -0.362  0.00  0.00    -0.013 C 
ATOM      9  C4' I4B d   1       0.682   2.488  -0.212  0.00  0.00     0.013 C 
ATOM     10  C3' I4B d   1       2.547   0.899   0.175  0.00  0.00     0.013 C 
ENDBRANCH   7   8
ENDBRANCH   1   7
TORSDOF 2
ENDMDL
