MODEL 1
REMARK minimizedAffinity 0.883448064
REMARK minimizedRMSD -1
REMARK  2 active torsions:
REMARK  status: ('A' for Active; 'I' for Inactive)
REMARK    1  A    between atoms: C2'_3  and  C1'_4 
REMARK    2  A    between atoms: C1'_4  and  C1_5 
ROOT
ATOM      1  C1  I4B d   1       0.008  -2.671  -0.967  0.00  0.00    -0.075 A 
ATOM      2  C2  I4B d   1      -1.253  -3.212  -0.957  0.00  0.00     0.003 A 
ATOM      3  C3  I4B d   1      -1.700  -3.998  -2.047  0.00  0.00     0.002 A 
ATOM      4  C4  I4B d   1      -0.877  -4.174  -3.141  0.00  0.00    -0.004 A 
ATOM      5  C5  I4B d   1       0.410  -3.644  -3.139  0.00  0.00     0.002 A 
ATOM      6  C6  I4B d   1       0.860  -2.898  -2.040  0.00  0.00     0.003 A 
ENDROOT
BRANCH   1   7
ATOM      7  C1' I4B d   1       0.435  -1.819   0.185  0.00  0.00     0.060 C 
BRANCH   7   8
ATOM      8  C2' I4B d   1       0.772  -0.442  -0.351  0.00  0.00    -0.013 C 
ATOM      9  C4' I4B d   1      -0.273   0.567   0.045  0.00  0.00     0.013 C 
ATOM     10  C3' I4B d   1       2.123  -0.058   0.174  0.00  0.00     0.013 C 
ENDBRANCH   7   8
ENDBRANCH   1   7
TORSDOF 2
ENDMDL
