MODEL 1
REMARK minimizedAffinity -5.77455664
REMARK minimizedRMSD -1
REMARK  2 active torsions:
REMARK  status: ('A' for Active; 'I' for Inactive)
REMARK    1  A    between atoms: C2'_3  and  C1'_4 
REMARK    2  A    between atoms: C1'_4  and  C1_5 
ROOT
ATOM      1  C1  I4B d   1      -0.005   0.059  -0.855  0.00  0.00    -0.075 A 
ATOM      2  C2  I4B d   1       1.023   0.869  -0.440  0.00  0.00     0.003 A 
ATOM      3  C3  I4B d   1       0.795   1.864   0.541  0.00  0.00     0.002 A 
ATOM      4  C4  I4B d   1      -0.478   2.047   1.041  0.00  0.00    -0.004 A 
ATOM      5  C5  I4B d   1      -1.514   1.210   0.636  0.00  0.00     0.002 A 
ATOM      6  C6  I4B d   1      -1.274   0.202  -0.308  0.00  0.00     0.003 A 
ENDROOT
BRANCH   1   7
ATOM      7  C1' I4B d   1       0.264  -0.959  -1.916  0.00  0.00     0.060 C 
BRANCH   7   8
ATOM      8  C2' I4B d   1      -0.755  -2.071  -1.765  0.00  0.00    -0.013 C 
ATOM      9  C4' I4B d   1      -1.246  -2.547  -3.107  0.00  0.00     0.013 C 
ATOM     10  C3' I4B d   1      -0.113  -3.186  -0.997  0.00  0.00     0.013 C 
ENDBRANCH   7   8
ENDBRANCH   1   7
TORSDOF 2
ENDMDL
