MODEL 1
REMARK minimizedAffinity -0.119076401
REMARK minimizedRMSD -1
REMARK  2 active torsions:
REMARK  status: ('A' for Active; 'I' for Inactive)
REMARK    1  A    between atoms: C2'_3  and  C1'_4 
REMARK    2  A    between atoms: C1'_4  and  C1_5 
ROOT
ATOM      1  C1  I4B d   1       0.282   1.184   0.912  0.00  0.00    -0.075 A 
ATOM      2  C2  I4B d   1      -0.196   2.433   1.220  0.00  0.00     0.003 A 
ATOM      3  C3  I4B d   1       0.701   3.489   1.511  0.00  0.00     0.002 A 
ATOM      4  C4  I4B d   1       2.058   3.241   1.531  0.00  0.00    -0.004 A 
ATOM      5  C5  I4B d   1       2.543   1.980   1.197  0.00  0.00     0.002 A 
ATOM      6  C6  I4B d   1       1.650   0.947   0.873  0.00  0.00     0.003 A 
ENDROOT
BRANCH   1   7
ATOM      7  C1' I4B d   1      -0.694   0.084   0.643  0.00  0.00     0.060 C 
BRANCH   7   8
ATOM      8  C2' I4B d   1      -0.162  -0.742  -0.510  0.00  0.00    -0.013 C 
ATOM      9  C4' I4B d   1      -0.518  -2.196  -0.350  0.00  0.00     0.013 C 
ATOM     10  C3' I4B d   1      -0.728  -0.182  -1.781  0.00  0.00     0.013 C 
ENDBRANCH   7   8
ENDBRANCH   1   7
TORSDOF 2
ENDMDL
