MODEL 1
REMARK minimizedAffinity -5.88771963
REMARK minimizedRMSD -1
REMARK  2 active torsions:
REMARK  status: ('A' for Active; 'I' for Inactive)
REMARK    1  A    between atoms: C2'_3  and  C1'_4 
REMARK    2  A    between atoms: C1'_4  and  C1_5 
ROOT
ATOM      1  C1  I4B d   1       0.092  -0.103  -0.012  0.00  0.00    -0.075 A 
ATOM      2  C2  I4B d   1      -1.153   0.364   0.326  0.00  0.00     0.003 A 
ATOM      3  C3  I4B d   1      -1.403   1.757   0.374  0.00  0.00     0.002 A 
ATOM      4  C4  I4B d   1      -0.373   2.642   0.129  0.00  0.00    -0.004 A 
ATOM      5  C5  I4B d   1       0.883   2.166  -0.236  0.00  0.00     0.002 A 
ATOM      6  C6  I4B d   1       1.115   0.786  -0.319  0.00  0.00     0.003 A 
ENDROOT
BRANCH   1   7
ATOM      7  C1' I4B d   1       0.330  -1.580  -0.022  0.00  0.00     0.060 C 
BRANCH   7   8
ATOM      8  C2' I4B d   1      -0.652  -2.204  -0.991  0.00  0.00    -0.013 C 
ATOM      9  C4' I4B d   1      -0.015  -2.442  -2.335  0.00  0.00     0.013 C 
ATOM     10  C3' I4B d   1      -1.143  -3.488  -0.390  0.00  0.00     0.013 C 
ENDBRANCH   7   8
ENDBRANCH   1   7
TORSDOF 2
ENDMDL
