MODEL 1
REMARK minimizedAffinity -1.40932047
REMARK minimizedRMSD -1
REMARK  2 active torsions:
REMARK  status: ('A' for Active; 'I' for Inactive)
REMARK    1  A    between atoms: C2'_3  and  C1'_4 
REMARK    2  A    between atoms: C1'_4  and  C1_5 
ROOT
ATOM      1  C1  I4B d   1       0.189  -0.754  -0.190  0.00  0.00    -0.075 A 
ATOM      2  C2  I4B d   1      -1.095  -0.300  -0.365  0.00  0.00     0.003 A 
ATOM      3  C3  I4B d   1      -1.427   1.039  -0.047  0.00  0.00     0.002 A 
ATOM      4  C4  I4B d   1      -0.463   1.869   0.489  0.00  0.00    -0.004 A 
ATOM      5  C5  I4B d   1       0.843   1.414   0.644  0.00  0.00     0.002 A 
ATOM      6  C6  I4B d   1       1.175   0.098   0.291  0.00  0.00     0.003 A 
ENDROOT
BRANCH   1   7
ATOM      7  C1' I4B d   1       0.497  -2.183  -0.506  0.00  0.00     0.060 C 
BRANCH   7   8
ATOM      8  C2' I4B d   1      -0.761  -2.821  -1.060  0.00  0.00    -0.013 C 
ATOM      9  C4' I4B d   1      -0.551  -3.305  -2.470  0.00  0.00     0.013 C 
ATOM     10  C3' I4B d   1      -1.147  -3.949  -0.151  0.00  0.00     0.013 C 
ENDBRANCH   7   8
ENDBRANCH   1   7
TORSDOF 2
ENDMDL
