MODEL 1
REMARK minimizedAffinity -6.01006746
REMARK minimizedRMSD -1
REMARK  2 active torsions:
REMARK  status: ('A' for Active; 'I' for Inactive)
REMARK    1  A    between atoms: C2'_3  and  C1'_4 
REMARK    2  A    between atoms: C1'_4  and  C1_5 
ROOT
ATOM      1  C1  I4B d   1       0.067   0.163   0.038  0.00  0.00    -0.075 A 
ATOM      2  C2  I4B d   1      -1.011   0.719   0.680  0.00  0.00     0.003 A 
ATOM      3  C3  I4B d   1      -1.210   2.121   0.658  0.00  0.00     0.002 A 
ATOM      4  C4  I4B d   1      -0.284   2.928   0.030  0.00  0.00    -0.004 A 
ATOM      5  C5  I4B d   1       0.797   2.361  -0.640  0.00  0.00     0.002 A 
ATOM      6  C6  I4B d   1       0.967   0.969  -0.646  0.00  0.00     0.003 A 
ENDROOT
BRANCH   1   7
ATOM      7  C1' I4B d   1       0.264  -1.318   0.110  0.00  0.00     0.060 C 
BRANCH   7   8
ATOM      8  C2' I4B d   1      -0.720  -1.966  -0.843  0.00  0.00    -0.013 C 
ATOM      9  C4' I4B d   1      -0.023  -2.496  -2.069  0.00  0.00     0.013 C 
ATOM     10  C3' I4B d   1      -1.425  -3.064  -0.104  0.00  0.00     0.013 C 
ENDBRANCH   7   8
ENDBRANCH   1   7
TORSDOF 2
ENDMDL
