MODEL 1
REMARK minimizedAffinity -5.57924652
REMARK minimizedRMSD -1
REMARK  2 active torsions:
REMARK  status: ('A' for Active; 'I' for Inactive)
REMARK    1  A    between atoms: C2'_3  and  C1'_4 
REMARK    2  A    between atoms: C1'_4  and  C1_5 
ROOT
ATOM      1  C1  I4B d   1      -0.725   0.659   0.158  0.00  0.00    -0.075 A 
ATOM      2  C2  I4B d   1       0.353   1.075  -0.583  0.00  0.00     0.003 A 
ATOM      3  C3  I4B d   1       0.778   2.425  -0.527  0.00  0.00     0.002 A 
ATOM      4  C4  I4B d   1       0.071   3.329   0.239  0.00  0.00    -0.004 A 
ATOM      5  C5  I4B d   1      -1.008   2.900   1.007  0.00  0.00     0.002 A 
ATOM      6  C6  I4B d   1      -1.401   1.554   0.976  0.00  0.00     0.003 A 
ENDROOT
BRANCH   1   7
ATOM      7  C1' I4B d   1      -1.167  -0.766   0.049  0.00  0.00     0.060 C 
BRANCH   7   8
ATOM      8  C2' I4B d   1       0.027  -1.594  -0.381  0.00  0.00    -0.013 C 
ATOM      9  C4' I4B d   1       0.830  -2.051   0.809  0.00  0.00     0.013 C 
ATOM     10  C3' I4B d   1      -0.480  -2.761  -1.173  0.00  0.00     0.013 C 
ENDBRANCH   7   8
ENDBRANCH   1   7
TORSDOF 2
ENDMDL
