MODEL 1
REMARK minimizedAffinity -1.39837837
REMARK minimizedRMSD -1
REMARK  2 active torsions:
REMARK  status: ('A' for Active; 'I' for Inactive)
REMARK    1  A    between atoms: C2'_3  and  C1'_4 
REMARK    2  A    between atoms: C1'_4  and  C1_5 
ROOT
ATOM      1  C1  I4B d   1      -0.414  -0.376   0.100  0.00  0.00    -0.075 A 
ATOM      2  C2  I4B d   1      -1.717  -0.065   0.402  0.00  0.00     0.003 A 
ATOM      3  C3  I4B d   1      -2.103   1.283   0.594  0.00  0.00     0.002 A 
ATOM      4  C4  I4B d   1      -1.149   2.279   0.526  0.00  0.00    -0.004 A 
ATOM      5  C5  I4B d   1       0.166   1.965   0.198  0.00  0.00     0.002 A 
ATOM      6  C6  I4B d   1       0.534   0.631  -0.029  0.00  0.00     0.003 A 
ENDROOT
BRANCH   1   7
ATOM      7  C1' I4B d   1      -0.035  -1.813  -0.064  0.00  0.00     0.060 C 
BRANCH   7   8
ATOM      8  C2' I4B d   1      -0.992  -2.437  -1.059  0.00  0.00    -0.013 C 
ATOM      9  C4' I4B d   1      -0.275  -2.858  -2.315  0.00  0.00     0.013 C 
ATOM     10  C3' I4B d   1      -1.652  -3.609  -0.395  0.00  0.00     0.013 C 
ENDBRANCH   7   8
ENDBRANCH   1   7
TORSDOF 2
ENDMDL
