MODEL 1
REMARK minimizedAffinity -3.75836205
REMARK minimizedRMSD -1
REMARK  2 active torsions:
REMARK  status: ('A' for Active; 'I' for Inactive)
REMARK    1  A    between atoms: C2'_3  and  C1'_4 
REMARK    2  A    between atoms: C1'_4  and  C1_5 
ROOT
ATOM      1  C1  I4B d   1      -0.353  -1.997  -0.587  0.00  0.00    -0.075 A 
ATOM      2  C2  I4B d   1      -1.618  -2.403  -0.240  0.00  0.00     0.003 A 
ATOM      3  C3  I4B d   1      -2.132  -3.628  -0.729  0.00  0.00     0.002 A 
ATOM      4  C4  I4B d   1      -1.371  -4.387  -1.596  0.00  0.00    -0.004 A 
ATOM      5  C5  I4B d   1      -0.081  -3.985  -1.928  0.00  0.00     0.002 A 
ATOM      6  C6  I4B d   1       0.437  -2.789  -1.410  0.00  0.00     0.003 A 
ENDROOT
BRANCH   1   7
ATOM      7  C1' I4B d   1       0.146  -0.681  -0.079  0.00  0.00     0.060 C 
BRANCH   7   8
ATOM      8  C2' I4B d   1      -1.053   0.138   0.353  0.00  0.00    -0.013 C 
ATOM      9  C4' I4B d   1      -0.916   0.594   1.782  0.00  0.00     0.013 C 
ATOM     10  C3' I4B d   1      -1.176   1.306  -0.579  0.00  0.00     0.013 C 
ENDBRANCH   7   8
ENDBRANCH   1   7
TORSDOF 2
ENDMDL
