MODEL 1
REMARK minimizedAffinity -4.63908958
REMARK minimizedRMSD -1
REMARK  2 active torsions:
REMARK  status: ('A' for Active; 'I' for Inactive)
REMARK    1  A    between atoms: C2'_3  and  C1'_4 
REMARK    2  A    between atoms: C1'_4  and  C1_5 
ROOT
ATOM      1  C1  I4B d   1       0.259   1.861   0.776  0.00  0.00    -0.075 A 
ATOM      2  C2  I4B d   1       0.641   0.641   0.274  0.00  0.00     0.003 A 
ATOM      3  C3  I4B d   1      -0.335  -0.330  -0.056  0.00  0.00     0.002 A 
ATOM      4  C4  I4B d   1      -1.668  -0.060   0.176  0.00  0.00    -0.004 A 
ATOM      5  C5  I4B d   1      -2.055   1.185   0.663  0.00  0.00     0.002 A 
ATOM      6  C6  I4B d   1      -1.086   2.157   0.953  0.00  0.00     0.003 A 
ENDROOT
BRANCH   1   7
ATOM      7  C1' I4B d   1       1.318   2.851   1.145  0.00  0.00     0.060 C 
BRANCH   7   8
ATOM      8  C2' I4B d   1       2.424   2.106   1.864  0.00  0.00    -0.013 C 
ATOM      9  C4' I4B d   1       3.683   2.068   1.037  0.00  0.00     0.013 C 
ATOM     10  C3' I4B d   1       2.661   2.785   3.180  0.00  0.00     0.013 C 
ENDBRANCH   7   8
ENDBRANCH   1   7
TORSDOF 2
ENDMDL
