MODEL 1
REMARK minimizedAffinity -3.92211819
REMARK minimizedRMSD -1
REMARK  0 active torsions:
REMARK  status: ('A' for Active; 'I' for Inactive)
ROOT
ATOM      1  C   UNL d   1      -0.502   0.609   2.848  0.00  0.00     0.124 A 
ATOM      2  C1  UNL d   1       0.732   0.076   2.503  0.00  0.00     0.062 A 
ATOM      3  C2  UNL d   1       0.953  -0.402   1.215  0.00  0.00     0.162 A 
ATOM      4  C3  UNL d   1      -0.063  -0.347   0.260  0.00  0.00    -0.034 A 
ATOM      5  C4  UNL d   1      -1.301   0.190   0.615  0.00  0.00     0.162 A 
ATOM      6  C5  UNL d   1      -1.517   0.666   1.904  0.00  0.00     0.062 A 
ATOM      7  F   UNL d   1      -2.710   1.181   2.236  0.00  0.00    -0.097 F 
ATOM      8  F1  UNL d   1      -2.300   0.258  -0.278  0.00  0.00    -0.096 F 
ATOM      9  I   UNL d   1       0.264  -1.059  -1.668  0.00  0.00    -0.060 I 
ATOM     10  F2  UNL d   1       2.156  -0.912   0.909  0.00  0.00    -0.096 F 
ATOM     11  F3  UNL d   1       1.715   0.019   3.414  0.00  0.00    -0.097 F 
ATOM     12  F4  UNL d   1      -0.712   1.067   4.089  0.00  0.00    -0.092 F 
ENDROOT
TORSDOF 0
ENDMDL
