MODEL 1
REMARK minimizedAffinity 3.06404066
REMARK minimizedRMSD -1
REMARK  0 active torsions:
REMARK  status: ('A' for Active; 'I' for Inactive)
ROOT
ATOM      1  C   UNL d   1       0.657   0.202  -3.633  0.00  0.00     0.124 A 
ATOM      2  C1  UNL d   1      -0.227  -0.705  -3.065  0.00  0.00     0.062 A 
ATOM      3  C2  UNL d   1      -0.414  -0.731  -1.686  0.00  0.00     0.162 A 
ATOM      4  C3  UNL d   1       0.284   0.153  -0.864  0.00  0.00    -0.034 A 
ATOM      5  C4  UNL d   1       1.172   1.062  -1.442  0.00  0.00     0.162 A 
ATOM      6  C5  UNL d   1       1.356   1.084  -2.821  0.00  0.00     0.062 A 
ATOM      7  F   UNL d   1       2.210   1.961  -3.368  0.00  0.00    -0.097 F 
ATOM      8  F1  UNL d   1       1.860   1.927  -0.682  0.00  0.00    -0.096 F 
ATOM      9  I   UNL d   1       0.007   0.118   1.198  0.00  0.00    -0.060 I 
ATOM     10  F2  UNL d   1      -1.275  -1.619  -1.165  0.00  0.00    -0.096 F 
ATOM     11  F3  UNL d   1      -0.902  -1.560  -3.847  0.00  0.00    -0.097 F 
ATOM     12  F4  UNL d   1       0.836   0.224  -4.960  0.00  0.00    -0.092 F 
ENDROOT
TORSDOF 0
ENDMDL
