MODEL 1
REMARK minimizedAffinity -4.93584108
REMARK minimizedRMSD -1
REMARK  0 active torsions:
REMARK  status: ('A' for Active; 'I' for Inactive)
ROOT
ATOM      1  C   UNL d   1       0.466   0.586   2.705  0.00  0.00     0.124 A 
ATOM      2  C1  UNL d   1       1.191  -0.502   2.240  0.00  0.00     0.062 A 
ATOM      3  C2  UNL d   1       1.214  -0.799   0.881  0.00  0.00     0.162 A 
ATOM      4  C3  UNL d   1       0.510  -0.005  -0.025  0.00  0.00    -0.034 A 
ATOM      5  C4  UNL d   1      -0.218   1.087   0.450  0.00  0.00     0.162 A 
ATOM      6  C5  UNL d   1      -0.238   1.380   1.809  0.00  0.00     0.062 A 
ATOM      7  F   UNL d   1      -0.939   2.431   2.256  0.00  0.00    -0.097 F 
ATOM      8  F1  UNL d   1      -0.906   1.871  -0.394  0.00  0.00    -0.096 F 
ATOM      9  I   UNL d   1       0.543  -0.446  -2.059  0.00  0.00    -0.060 I 
ATOM     10  F2  UNL d   1       1.924  -1.857   0.460  0.00  0.00    -0.096 F 
ATOM     11  F3  UNL d   1       1.871  -1.271   3.103  0.00  0.00    -0.097 F 
ATOM     12  F4  UNL d   1       0.444   0.869   4.014  0.00  0.00    -0.092 F 
ENDROOT
TORSDOF 0
ENDMDL
