MODEL 1
REMARK minimizedAffinity -4.63085508
REMARK minimizedRMSD -1
REMARK  0 active torsions:
REMARK  status: ('A' for Active; 'I' for Inactive)
ROOT
ATOM      1  C   UNL d   1      -0.372   0.628   2.774  0.00  0.00     0.124 A 
ATOM      2  C1  UNL d   1      -1.356   0.660   1.796  0.00  0.00     0.062 A 
ATOM      3  C2  UNL d   1      -1.086   0.188   0.515  0.00  0.00     0.162 A 
ATOM      4  C3  UNL d   1       0.174  -0.323   0.204  0.00  0.00    -0.034 A 
ATOM      5  C4  UNL d   1       1.160  -0.351   1.193  0.00  0.00     0.162 A 
ATOM      6  C5  UNL d   1       0.885   0.122   2.472  0.00  0.00     0.062 A 
ATOM      7  F   UNL d   1       1.837   0.090   3.415  0.00  0.00    -0.097 F 
ATOM      8  F1  UNL d   1       2.382  -0.835   0.928  0.00  0.00    -0.096 F 
ATOM      9  I   UNL d   1       0.582  -1.030  -1.710  0.00  0.00    -0.060 I 
ATOM     10  F2  UNL d   1      -2.056   0.231  -0.410  0.00  0.00    -0.096 F 
ATOM     11  F3  UNL d   1      -2.571   1.149   2.085  0.00  0.00    -0.097 F 
ATOM     12  F4  UNL d   1      -0.634   1.084   4.006  0.00  0.00    -0.092 F 
ENDROOT
TORSDOF 0
ENDMDL
