MODEL 1
REMARK minimizedAffinity -4.04472065
REMARK minimizedRMSD -1
REMARK  0 active torsions:
REMARK  status: ('A' for Active; 'I' for Inactive)
ROOT
ATOM      1  C   UNL d   1       0.105   0.671   3.060  0.00  0.00     0.124 A 
ATOM      2  C1  UNL d   1       1.186  -0.081   2.621  0.00  0.00     0.062 A 
ATOM      3  C2  UNL d   1       1.291  -0.439   1.280  0.00  0.00     0.162 A 
ATOM      4  C3  UNL d   1       0.313  -0.044   0.367  0.00  0.00    -0.034 A 
ATOM      5  C4  UNL d   1      -0.772   0.711   0.816  0.00  0.00     0.162 A 
ATOM      6  C5  UNL d   1      -0.873   1.066   2.158  0.00  0.00     0.062 A 
ATOM      7  F   UNL d   1      -1.918   1.793   2.580  0.00  0.00    -0.097 F 
ATOM      8  F1  UNL d   1      -1.730   1.107  -0.034  0.00  0.00    -0.096 F 
ATOM      9  I   UNL d   1       0.467  -0.577  -1.638  0.00  0.00    -0.060 I 
ATOM     10  F2  UNL d   1       2.346  -1.166   0.884  0.00  0.00    -0.096 F 
ATOM     11  F3  UNL d   1       2.131  -0.465   3.491  0.00  0.00    -0.097 F 
ATOM     12  F4  UNL d   1       0.005   1.013   4.351  0.00  0.00    -0.092 F 
ENDROOT
TORSDOF 0
ENDMDL
