MODEL 1
REMARK minimizedAffinity -4.50305605
REMARK minimizedRMSD -1
REMARK  0 active torsions:
REMARK  status: ('A' for Active; 'I' for Inactive)
ROOT
ATOM      1  C   UNL d   1      -1.408   0.117   0.189  0.00  0.00     0.124 A 
ATOM      2  C1  UNL d   1      -1.450   0.573   1.500  0.00  0.00     0.062 A 
ATOM      3  C2  UNL d   1      -0.289   0.608   2.266  0.00  0.00     0.162 A 
ATOM      4  C3  UNL d   1       0.925   0.187   1.724  0.00  0.00    -0.034 A 
ATOM      5  C4  UNL d   1       0.960  -0.271   0.406  0.00  0.00     0.162 A 
ATOM      6  C5  UNL d   1      -0.203  -0.305  -0.356  0.00  0.00     0.062 A 
ATOM      7  F   UNL d   1      -0.160  -0.746  -1.622  0.00  0.00    -0.097 F 
ATOM      8  F1  UNL d   1       2.111  -0.683  -0.146  0.00  0.00    -0.096 F 
ATOM      9  I   UNL d   1       2.664   0.239   2.867  0.00  0.00    -0.060 I 
ATOM     10  F2  UNL d   1      -0.359   1.054   3.530  0.00  0.00    -0.096 F 
ATOM     11  F3  UNL d   1      -2.613   0.979   2.029  0.00  0.00    -0.097 F 
ATOM     12  F4  UNL d   1      -2.527   0.082  -0.546  0.00  0.00    -0.092 F 
ENDROOT
TORSDOF 0
ENDMDL
