MODEL 1
REMARK minimizedAffinity 0.31589815
REMARK minimizedRMSD -1
REMARK  0 active torsions:
REMARK  status: ('A' for Active; 'I' for Inactive)
ROOT
ATOM      1  C   UNL d   1      -0.320  -0.104   2.468  0.00  0.00     0.124 A 
ATOM      2  C1  UNL d   1       0.886  -0.565   1.960  0.00  0.00     0.062 A 
ATOM      3  C2  UNL d   1       1.083  -0.640   0.584  0.00  0.00     0.162 A 
ATOM      4  C3  UNL d   1       0.072  -0.252  -0.294  0.00  0.00    -0.034 A 
ATOM      5  C4  UNL d   1      -1.139   0.210   0.225  0.00  0.00     0.162 A 
ATOM      6  C5  UNL d   1      -1.332   0.283   1.600  0.00  0.00     0.062 A 
ATOM      7  F   UNL d   1      -2.498   0.729   2.089  0.00  0.00    -0.097 F 
ATOM      8  F1  UNL d   1      -2.133   0.592  -0.591  0.00  0.00    -0.096 F 
ATOM      9  I   UNL d   1       0.363  -0.363  -2.352  0.00  0.00    -0.060 I 
ATOM     10  F2  UNL d   1       2.259  -1.090   0.122  0.00  0.00    -0.096 F 
ATOM     11  F3  UNL d   1       1.864  -0.941   2.797  0.00  0.00    -0.097 F 
ATOM     12  F4  UNL d   1      -0.508  -0.034   3.792  0.00  0.00    -0.092 F 
ENDROOT
TORSDOF 0
ENDMDL
