MODEL 1
REMARK minimizedAffinity -3.75670648
REMARK minimizedRMSD -1
REMARK  0 active torsions:
REMARK  status: ('A' for Active; 'I' for Inactive)
ROOT
ATOM      1  C   UNL d   1       0.021   0.358   2.879  0.00  0.00     0.124 A 
ATOM      2  C1  UNL d   1       1.166  -0.226   2.355  0.00  0.00     0.062 A 
ATOM      3  C2  UNL d   1       1.277  -0.439   0.984  0.00  0.00     0.162 A 
ATOM      4  C3  UNL d   1       0.242  -0.067   0.127  0.00  0.00    -0.034 A 
ATOM      5  C4  UNL d   1      -0.907   0.519   0.662  0.00  0.00     0.162 A 
ATOM      6  C5  UNL d   1      -1.014   0.730   2.033  0.00  0.00     0.062 A 
ATOM      7  F   UNL d   1      -2.121   1.294   2.538  0.00  0.00    -0.097 F 
ATOM      8  F1  UNL d   1      -1.922   0.888  -0.133  0.00  0.00    -0.096 F 
ATOM      9  I   UNL d   1       0.405  -0.384  -1.923  0.00  0.00    -0.060 I 
ATOM     10  F2  UNL d   1       2.395  -1.005   0.505  0.00  0.00    -0.096 F 
ATOM     11  F3  UNL d   1       2.167  -0.586   3.171  0.00  0.00    -0.097 F 
ATOM     12  F4  UNL d   1      -0.084   0.562   4.199  0.00  0.00    -0.092 F 
ENDROOT
TORSDOF 0
ENDMDL
