MODEL 1
REMARK minimizedAffinity -3.01548409
REMARK minimizedRMSD -1
REMARK  0 active torsions:
REMARK  status: ('A' for Active; 'I' for Inactive)
ROOT
ATOM      1  C   UNL d   1      -1.562   0.670   0.501  0.00  0.00     0.124 A 
ATOM      2  C1  UNL d   1      -0.651  -0.202  -0.078  0.00  0.00     0.062 A 
ATOM      3  C2  UNL d   1       0.519  -0.542   0.596  0.00  0.00     0.162 A 
ATOM      4  C3  UNL d   1       0.784  -0.010   1.858  0.00  0.00    -0.034 A 
ATOM      5  C4  UNL d   1      -0.137   0.867   2.433  0.00  0.00     0.162 A 
ATOM      6  C5  UNL d   1      -1.304   1.203   1.756  0.00  0.00     0.062 A 
ATOM      7  F   UNL d   1      -2.183   2.046   2.317  0.00  0.00    -0.097 F 
ATOM      8  F1  UNL d   1       0.087   1.397   3.645  0.00  0.00    -0.096 F 
ATOM      9  I   UNL d   1       2.532  -0.515   2.868  0.00  0.00    -0.060 I 
ATOM     10  F2  UNL d   1       1.382  -1.387   0.012  0.00  0.00    -0.096 F 
ATOM     11  F3  UNL d   1      -0.897  -0.719  -1.291  0.00  0.00    -0.097 F 
ATOM     12  F4  UNL d   1      -2.686   0.995  -0.150  0.00  0.00    -0.092 F 
ENDROOT
TORSDOF 0
ENDMDL
