MODEL 1
REMARK minimizedAffinity -0.898811042
REMARK minimizedRMSD -1
REMARK  1 active torsions:
REMARK  status: ('A' for Active; 'I' for Inactive)
REMARK    1  A    between atoms: N_2  and  C1_3 
ROOT
ATOM      1  C1  UNL d   1      -0.697  -1.118  -2.209  0.00  0.00     0.143 A 
ATOM      2  C2  UNL d   1      -1.181  -0.700  -3.454  0.00  0.00    -0.057 A 
ATOM      3  C3  UNL d   1      -2.477  -1.022  -3.874  0.00  0.00     0.033 A 
ATOM      4  C4  UNL d   1      -3.305  -1.795  -3.066  0.00  0.00    -0.042 A 
ATOM      5  C5  UNL d   1      -2.836  -2.242  -1.836  0.00  0.00     0.033 A 
ATOM      6  C6  UNL d   1      -1.543  -1.911  -1.419  0.00  0.00    -0.057 A 
ENDROOT
BRANCH   1   7
ATOM      7  N   UNL d   1       0.616  -0.913  -1.777  0.00  0.00    -0.732 N 
ATOM      8  C   UNL d   1       0.963  -1.060  -0.380  0.00  0.00     0.284 C 
ATOM      9  H3  UNL d   1       1.301  -1.304  -2.419  0.00  0.00     0.395 HD
ENDBRANCH   1   7
TORSDOF 1
ENDMDL
