MODEL 1
REMARK minimizedAffinity -0.461031377
REMARK minimizedRMSD -1
REMARK  1 active torsions:
REMARK  status: ('A' for Active; 'I' for Inactive)
REMARK    1  A    between atoms: N_2  and  C1_3 
ROOT
ATOM      1  C1  UNL d   1      -0.687  -1.297  -0.452  0.00  0.00     0.143 A 
ATOM      2  C2  UNL d   1      -1.333  -0.536   0.528  0.00  0.00    -0.057 A 
ATOM      3  C3  UNL d   1      -0.645   0.438   1.262  0.00  0.00     0.033 A 
ATOM      4  C4  UNL d   1       0.713   0.648   1.048  0.00  0.00    -0.042 A 
ATOM      5  C5  UNL d   1       1.381  -0.114   0.096  0.00  0.00     0.033 A 
ATOM      6  C6  UNL d   1       0.687  -1.080  -0.638  0.00  0.00    -0.057 A 
ENDROOT
BRANCH   1   7
ATOM      7  N   UNL d   1      -1.293  -2.347  -1.147  0.00  0.00    -0.732 N 
ATOM      8  C   UNL d   1      -2.690  -2.278  -1.515  0.00  0.00     0.284 C 
ATOM      9  H3  UNL d   1      -0.690  -2.732  -1.870  0.00  0.00     0.395 HD
ENDBRANCH   1   7
TORSDOF 1
ENDMDL
