MODEL 1
REMARK minimizedAffinity -2.14642787
REMARK minimizedRMSD -1
REMARK  1 active torsions:
REMARK  status: ('A' for Active; 'I' for Inactive)
REMARK    1  A    between atoms: N_2  and  C1_3 
ROOT
ATOM      1  C1  UNL d   1       1.177   1.215   1.226  0.00  0.00     0.143 A 
ATOM      2  C2  UNL d   1       1.020   1.904   2.434  0.00  0.00    -0.057 A 
ATOM      3  C3  UNL d   1       2.128   2.309   3.187  0.00  0.00     0.033 A 
ATOM      4  C4  UNL d   1       3.417   2.007   2.759  0.00  0.00    -0.042 A 
ATOM      5  C5  UNL d   1       3.596   1.302   1.574  0.00  0.00     0.033 A 
ATOM      6  C6  UNL d   1       2.485   0.906   0.823  0.00  0.00    -0.057 A 
ENDROOT
BRANCH   1   7
ATOM      7  N   UNL d   1       0.114   0.699   0.481  0.00  0.00    -0.732 N 
ATOM      8  C   UNL d   1       0.144  -0.666   0.002  0.00  0.00     0.284 C 
ATOM      9  H3  UNL d   1      -0.791   0.994   0.840  0.00  0.00     0.395 HD
ENDBRANCH   1   7
TORSDOF 1
ENDMDL
