MODEL 1
REMARK minimizedAffinity 2.43489981
REMARK minimizedRMSD -1
REMARK  1 active torsions:
REMARK  status: ('A' for Active; 'I' for Inactive)
REMARK    1  A    between atoms: N_2  and  C1_3 
ROOT
ATOM      1  C1  UNL d   1       1.245   0.346   0.145  0.00  0.00     0.143 A 
ATOM      2  C2  UNL d   1       0.076  -0.361   0.447  0.00  0.00    -0.057 A 
ATOM      3  C3  UNL d   1      -0.798   0.076   1.450  0.00  0.00     0.033 A 
ATOM      4  C4  UNL d   1      -0.503   1.216   2.190  0.00  0.00    -0.042 A 
ATOM      5  C5  UNL d   1       0.666   1.920   1.924  0.00  0.00     0.033 A 
ATOM      6  C6  UNL d   1       1.532   1.482   0.917  0.00  0.00    -0.057 A 
ENDROOT
BRANCH   1   7
ATOM      7  N   UNL d   1       2.203  -0.092  -0.772  0.00  0.00    -0.732 N 
ATOM      8  C   UNL d   1       1.823  -0.917  -1.899  0.00  0.00     0.284 C 
ATOM      9  H3  UNL d   1       2.884   0.630  -0.997  0.00  0.00     0.395 HD
ENDBRANCH   1   7
TORSDOF 1
ENDMDL
