MODEL 1
REMARK minimizedAffinity 1.26041007
REMARK minimizedRMSD -1
REMARK  1 active torsions:
REMARK  status: ('A' for Active; 'I' for Inactive)
REMARK    1  A    between atoms: N_2  and  C1_3 
ROOT
ATOM      1  C1  UNL d   1      -2.645  -4.936   0.480  0.00  0.00     0.143 A 
ATOM      2  C2  UNL d   1      -1.754  -5.660   1.280  0.00  0.00    -0.057 A 
ATOM      3  C3  UNL d   1      -0.773  -5.014   2.041  0.00  0.00     0.033 A 
ATOM      4  C4  UNL d   1      -0.646  -3.630   1.993  0.00  0.00    -0.042 A 
ATOM      5  C5  UNL d   1      -1.504  -2.892   1.185  0.00  0.00     0.033 A 
ATOM      6  C6  UNL d   1      -2.487  -3.543   0.433  0.00  0.00    -0.057 A 
ENDROOT
BRANCH   1   7
ATOM      7  N   UNL d   1      -3.578  -5.527  -0.376  0.00  0.00    -0.732 N 
ATOM      8  C   UNL d   1      -3.201  -5.929  -1.714  0.00  0.00     0.284 C 
ATOM      9  H3  UNL d   1      -4.178  -6.194   0.105  0.00  0.00     0.395 HD
ENDBRANCH   1   7
TORSDOF 1
ENDMDL
