MODEL 1
REMARK minimizedAffinity 1.1230768
REMARK minimizedRMSD -1
REMARK  1 active torsions:
REMARK  status: ('A' for Active; 'I' for Inactive)
REMARK    1  A    between atoms: N_2  and  C1_3 
ROOT
ATOM      1  C1  UNL d   1      -0.254   2.896   1.114  0.00  0.00     0.143 A 
ATOM      2  C2  UNL d   1       1.057   2.445   1.299  0.00  0.00    -0.057 A 
ATOM      3  C3  UNL d   1       1.349   1.408   2.194  0.00  0.00     0.033 A 
ATOM      4  C4  UNL d   1       0.335   0.823   2.945  0.00  0.00    -0.042 A 
ATOM      5  C5  UNL d   1      -0.972   1.272   2.796  0.00  0.00     0.033 A 
ATOM      6  C6  UNL d   1      -1.259   2.303   1.896  0.00  0.00    -0.057 A 
ENDROOT
BRANCH   1   7
ATOM      7  N   UNL d   1      -0.596   3.988   0.313  0.00  0.00    -0.732 N 
ATOM      8  C   UNL d   1      -1.341   3.798  -0.913  0.00  0.00     0.284 C 
ATOM      9  H3  UNL d   1      -0.893   4.793   0.859  0.00  0.00     0.395 HD
ENDBRANCH   1   7
TORSDOF 1
ENDMDL
