MODEL 1
REMARK minimizedAffinity 11.3017035
REMARK minimizedRMSD -1
REMARK  1 active torsions:
REMARK  status: ('A' for Active; 'I' for Inactive)
REMARK    1  A    between atoms: N_2  and  C1_3 
ROOT
ATOM      1  C1  UNL d   1      -1.717   2.678   1.114  0.00  0.00     0.143 A 
ATOM      2  C2  UNL d   1      -1.937   1.434   1.715  0.00  0.00    -0.057 A 
ATOM      3  C3  UNL d   1      -0.997   0.873   2.588  0.00  0.00     0.033 A 
ATOM      4  C4  UNL d   1       0.196   1.537   2.854  0.00  0.00    -0.042 A 
ATOM      5  C5  UNL d   1       0.447   2.763   2.249  0.00  0.00     0.033 A 
ATOM      6  C6  UNL d   1      -0.499   3.321   1.383  0.00  0.00    -0.057 A 
ENDROOT
BRANCH   1   7
ATOM      7  N   UNL d   1      -2.568   3.242   0.160  0.00  0.00    -0.732 N 
ATOM      8  C   UNL d   1      -2.030   3.908  -1.006  0.00  0.00     0.284 C 
ATOM      9  H3  UNL d   1      -3.379   2.657  -0.031  0.00  0.00     0.395 HD
ENDBRANCH   1   7
TORSDOF 1
ENDMDL
