MODEL 1
REMARK minimizedAffinity 0.880698264
REMARK minimizedRMSD -1
REMARK  1 active torsions:
REMARK  status: ('A' for Active; 'I' for Inactive)
REMARK    1  A    between atoms: N_2  and  C1_3 
ROOT
ATOM      1  C1  UNL d   1      -3.670  -3.764  -1.382  0.00  0.00     0.143 A 
ATOM      2  C2  UNL d   1      -3.124  -2.963  -0.375  0.00  0.00    -0.057 A 
ATOM      3  C3  UNL d   1      -2.043  -3.404   0.398  0.00  0.00     0.033 A 
ATOM      4  C4  UNL d   1      -1.506  -4.671   0.195  0.00  0.00    -0.042 A 
ATOM      5  C5  UNL d   1      -2.049  -5.495  -0.785  0.00  0.00     0.033 A 
ATOM      6  C6  UNL d   1      -3.125  -5.046  -1.558  0.00  0.00    -0.057 A 
ENDROOT
BRANCH   1   7
ATOM      7  N   UNL d   1      -4.808  -3.422  -2.118  0.00  0.00    -0.732 N 
ATOM      8  C   UNL d   1      -5.886  -4.371  -2.293  0.00  0.00     0.284 C 
ATOM      9  H3  UNL d   1      -5.117  -2.470  -1.934  0.00  0.00     0.395 HD
ENDBRANCH   1   7
TORSDOF 1
ENDMDL
