MODEL 1
REMARK minimizedAffinity -3.28396177
REMARK minimizedRMSD -1
REMARK  1 active torsions:
REMARK  status: ('A' for Active; 'I' for Inactive)
REMARK    1  A    between atoms: N_2  and  C1_3 
ROOT
ATOM      1  C1  UNL d   1       1.251   1.536   0.963  0.00  0.00     0.143 A 
ATOM      2  C2  UNL d   1       0.898   2.882   1.109  0.00  0.00    -0.057 A 
ATOM      3  C3  UNL d   1      -0.353   3.253   1.617  0.00  0.00     0.033 A 
ATOM      4  C4  UNL d   1      -1.287   2.282   1.962  0.00  0.00    -0.042 A 
ATOM      5  C5  UNL d   1      -0.966   0.938   1.802  0.00  0.00     0.033 A 
ATOM      6  C6  UNL d   1       0.287   0.574   1.300  0.00  0.00    -0.057 A 
ENDROOT
BRANCH   1   7
ATOM      7  N   UNL d   1       2.441   1.104   0.372  0.00  0.00    -0.732 N 
ATOM      8  C   UNL d   1       2.419   0.160  -0.725  0.00  0.00     0.284 C 
ATOM      9  H3  UNL d   1       3.114   1.859   0.257  0.00  0.00     0.395 HD
ENDBRANCH   1   7
TORSDOF 1
ENDMDL
