MODEL 1
REMARK minimizedAffinity 8.11117172
REMARK minimizedRMSD -1
REMARK  1 active torsions:
REMARK  status: ('A' for Active; 'I' for Inactive)
REMARK    1  A    between atoms: N_2  and  C1_3 
ROOT
ATOM      1  C1  UNL d   1       1.517   0.888   1.229  0.00  0.00     0.143 A 
ATOM      2  C2  UNL d   1       1.083  -0.257   0.553  0.00  0.00    -0.057 A 
ATOM      3  C3  UNL d   1       1.856  -0.840  -0.458  0.00  0.00     0.033 A 
ATOM      4  C4  UNL d   1       3.069  -0.270  -0.831  0.00  0.00    -0.042 A 
ATOM      5  C5  UNL d   1       3.508   0.883  -0.190  0.00  0.00     0.033 A 
ATOM      6  C6  UNL d   1       2.735   1.457   0.823  0.00  0.00    -0.057 A 
ENDROOT
BRANCH   1   7
ATOM      7  N   UNL d   1       0.749   1.572   2.175  0.00  0.00    -0.732 N 
ATOM      8  C   UNL d   1      -0.364   2.400   1.761  0.00  0.00     0.284 C 
ATOM      9  H3  UNL d   1       0.564   1.011   3.004  0.00  0.00     0.395 HD
ENDBRANCH   1   7
TORSDOF 1
ENDMDL
