MODEL 1
REMARK minimizedAffinity 4.29099846
REMARK minimizedRMSD -1
REMARK  1 active torsions:
REMARK  status: ('A' for Active; 'I' for Inactive)
REMARK    1  A    between atoms: N_2  and  C1_3 
ROOT
ATOM      1  C1  UNL d   1       1.056   1.182   1.330  0.00  0.00     0.143 A 
ATOM      2  C2  UNL d   1       0.617   2.446   1.740  0.00  0.00    -0.057 A 
ATOM      3  C3  UNL d   1      -0.588   2.607   2.433  0.00  0.00     0.033 A 
ATOM      4  C4  UNL d   1      -1.394   1.505   2.705  0.00  0.00    -0.042 A 
ATOM      5  C5  UNL d   1      -0.990   0.243   2.285  0.00  0.00     0.033 A 
ATOM      6  C6  UNL d   1       0.218   0.088   1.599  0.00  0.00    -0.057 A 
ENDROOT
BRANCH   1   7
ATOM      7  N   UNL d   1       2.196   0.969   0.551  0.00  0.00    -0.732 N 
ATOM      8  C   UNL d   1       2.158   0.068  -0.580  0.00  0.00     0.284 C 
ATOM      9  H3  UNL d   1       2.717   1.827   0.383  0.00  0.00     0.395 HD
ENDBRANCH   1   7
TORSDOF 1
ENDMDL
