MODEL 1
REMARK minimizedAffinity 0.354377508
REMARK minimizedRMSD -1
REMARK  1 active torsions:
REMARK  status: ('A' for Active; 'I' for Inactive)
REMARK    1  A    between atoms: N_2  and  C1_3 
ROOT
ATOM      1  C1  UNL d   1       0.434   1.399   0.778  0.00  0.00     0.143 A 
ATOM      2  C2  UNL d   1      -0.469   0.332   0.849  0.00  0.00    -0.057 A 
ATOM      3  C3  UNL d   1      -0.204  -0.886   0.213  0.00  0.00     0.033 A 
ATOM      4  C4  UNL d   1       0.958  -1.050  -0.533  0.00  0.00    -0.042 A 
ATOM      5  C5  UNL d   1       1.858   0.004  -0.638  0.00  0.00     0.033 A 
ATOM      6  C6  UNL d   1       1.591   1.217   0.005  0.00  0.00    -0.057 A 
ENDROOT
BRANCH   1   7
ATOM      7  N   UNL d   1       0.182   2.667   1.307  0.00  0.00    -0.732 N 
ATOM      8  C   UNL d   1       1.271   3.578   1.588  0.00  0.00     0.284 C 
ATOM      9  H3  UNL d   1      -0.631   3.110   0.885  0.00  0.00     0.395 HD
ENDBRANCH   1   7
TORSDOF 1
ENDMDL
