MODEL 1
REMARK minimizedAffinity 7.48970318
REMARK minimizedRMSD -1
REMARK  1 active torsions:
REMARK  status: ('A' for Active; 'I' for Inactive)
REMARK    1  A    between atoms: N_2  and  C1_3 
ROOT
ATOM      1  C1  UNL d   1       1.247   1.310   1.043  0.00  0.00     0.143 A 
ATOM      2  C2  UNL d   1       0.454   0.319   0.457  0.00  0.00    -0.057 A 
ATOM      3  C3  UNL d   1       1.002  -0.626  -0.419  0.00  0.00     0.033 A 
ATOM      4  C4  UNL d   1       2.352  -0.578  -0.747  0.00  0.00    -0.042 A 
ATOM      5  C5  UNL d   1       3.155   0.414  -0.195  0.00  0.00     0.033 A 
ATOM      6  C6  UNL d   1       2.604   1.351   0.684  0.00  0.00    -0.057 A 
ENDROOT
BRANCH   1   7
ATOM      7  N   UNL d   1       0.743   2.338   1.844  0.00  0.00    -0.732 N 
ATOM      8  C   UNL d   1      -0.659   2.694   1.791  0.00  0.00     0.284 C 
ATOM      9  H3  UNL d   1       1.133   2.325   2.784  0.00  0.00     0.395 HD
ENDBRANCH   1   7
TORSDOF 1
ENDMDL
