MODEL 1
REMARK minimizedAffinity -2.24078703
REMARK minimizedRMSD -1
REMARK  1 active torsions:
REMARK  status: ('A' for Active; 'I' for Inactive)
REMARK    1  A    between atoms: N_2  and  C1_3 
ROOT
ATOM      1  C1  UNL d   1       1.009   0.358   0.756  0.00  0.00     0.143 A 
ATOM      2  C2  UNL d   1       1.263   1.447   1.597  0.00  0.00    -0.057 A 
ATOM      3  C3  UNL d   1       0.254   1.997   2.398  0.00  0.00     0.033 A 
ATOM      4  C4  UNL d   1      -1.038   1.485   2.349  0.00  0.00    -0.042 A 
ATOM      5  C5  UNL d   1      -1.319   0.418   1.502  0.00  0.00     0.033 A 
ATOM      6  C6  UNL d   1      -0.306  -0.131   0.710  0.00  0.00    -0.057 A 
ENDROOT
BRANCH   1   7
ATOM      7  N   UNL d   1       1.944  -0.170  -0.136  0.00  0.00    -0.732 N 
ATOM      8  C   UNL d   1       1.641  -1.359  -0.904  0.00  0.00     0.284 C 
ATOM      9  H3  UNL d   1       2.429   0.552  -0.664  0.00  0.00     0.395 HD
ENDBRANCH   1   7
TORSDOF 1
ENDMDL
