MODEL 1
REMARK minimizedAffinity 2.72033501
REMARK minimizedRMSD -1
REMARK  0 active torsions:
REMARK  status: ('A' for Active; 'I' for Inactive)
ROOT
ATOM      1  N1  IND d   1       0.855   3.397  -0.786  0.00  0.00    -0.196 N 
ATOM      2  C2  IND d   1      -0.077   4.357  -1.067  0.00  0.00     0.054 A 
ATOM      3  C3  IND d   1      -1.288   3.791  -1.272  0.00  0.00    -0.031 A 
ATOM      4  C4  IND d   1      -1.989   1.320  -1.099  0.00  0.00     0.051 A 
ATOM      5  C5  IND d   1      -1.479   0.067  -0.904  0.00  0.00    -0.031 A 
ATOM      6  C6  IND d   1      -0.139  -0.145  -0.653  0.00  0.00     0.015 A 
ATOM      7  C7  IND d   1       0.744   0.895  -0.575  0.00  0.00    -0.016 A 
ATOM      8  C8  IND d   1       0.231   2.169  -0.779  0.00  0.00    -0.047 A 
ATOM      9  C9  IND d   1      -1.120   2.386  -1.076  0.00  0.00    -0.096 A 
ATOM     10  HN1 IND d   1       1.691   3.537  -0.640  0.00  0.00     0.298 HD
ENDROOT
TORSDOF 0
ENDMDL
