MODEL 1
REMARK minimizedAffinity 8.53419209
REMARK minimizedRMSD -1
REMARK  0 active torsions:
REMARK  status: ('A' for Active; 'I' for Inactive)
ROOT
ATOM      1  N1  IND d   1       1.069   5.028   0.127  0.00  0.00    -0.196 N 
ATOM      2  C2  IND d   1      -0.081   5.429  -0.495  0.00  0.00     0.054 A 
ATOM      3  C3  IND d   1      -1.134   4.711  -0.045  0.00  0.00    -0.031 A 
ATOM      4  C4  IND d   1      -1.217   2.899   1.782  0.00  0.00     0.051 A 
ATOM      5  C5  IND d   1      -0.413   2.167   2.610  0.00  0.00    -0.031 A 
ATOM      6  C6  IND d   1       0.953   2.357   2.656  0.00  0.00     0.015 A 
ATOM      7  C7  IND d   1       1.567   3.298   1.880  0.00  0.00    -0.016 A 
ATOM      8  C8  IND d   1       0.755   4.039   1.032  0.00  0.00    -0.047 A 
ATOM      9  C9  IND d   1      -0.626   3.821   0.950  0.00  0.00    -0.096 A 
ATOM     10  HN1 IND d   1       1.855   5.342  -0.023  0.00  0.00     0.298 HD
ENDROOT
TORSDOF 0
ENDMDL
