MODEL 1
REMARK minimizedAffinity 10.9567051
REMARK minimizedRMSD -1
REMARK  0 active torsions:
REMARK  status: ('A' for Active; 'I' for Inactive)
ROOT
ATOM      1  N1  IND d   1       4.144  -1.094  -1.767  0.00  0.00    -0.196 N 
ATOM      2  C2  IND d   1       3.151  -0.712  -0.908  0.00  0.00     0.054 A 
ATOM      3  C3  IND d   1       2.690  -1.779  -0.218  0.00  0.00    -0.031 A 
ATOM      4  C4  IND d   1       3.490  -4.226  -0.263  0.00  0.00     0.051 A 
ATOM      5  C5  IND d   1       4.348  -5.067  -0.915  0.00  0.00    -0.031 A 
ATOM      6  C6  IND d   1       5.200  -4.617  -1.903  0.00  0.00     0.015 A 
ATOM      7  C7  IND d   1       5.235  -3.301  -2.268  0.00  0.00    -0.016 A 
ATOM      8  C8  IND d   1       4.361  -2.445  -1.613  0.00  0.00    -0.047 A 
ATOM      9  C9  IND d   1       3.463  -2.904  -0.640  0.00  0.00    -0.096 A 
ATOM     10  HN1 IND d   1       4.562  -0.576  -2.311  0.00  0.00     0.298 HD
ENDROOT
TORSDOF 0
ENDMDL
