MODEL 1
REMARK minimizedAffinity 11.6098289
REMARK minimizedRMSD -1
REMARK  0 active torsions:
REMARK  status: ('A' for Active; 'I' for Inactive)
ROOT
ATOM      1  N1  IND d   1       5.489  -1.800  -1.830  0.00  0.00    -0.196 N 
ATOM      2  C2  IND d   1       5.413  -1.956  -0.474  0.00  0.00     0.054 A 
ATOM      3  C3  IND d   1       4.820  -3.132  -0.169  0.00  0.00    -0.031 A 
ATOM      4  C4  IND d   1       3.990  -5.000  -1.733  0.00  0.00     0.051 A 
ATOM      5  C5  IND d   1       3.812  -5.299  -3.055  0.00  0.00    -0.031 A 
ATOM      6  C6  IND d   1       4.195  -4.430  -4.057  0.00  0.00     0.015 A 
ATOM      7  C7  IND d   1       4.782  -3.230  -3.772  0.00  0.00    -0.016 A 
ATOM      8  C8  IND d   1       4.958  -2.920  -2.431  0.00  0.00    -0.047 A 
ATOM      9  C9  IND d   1       4.533  -3.779  -1.410  0.00  0.00    -0.096 A 
ATOM     10  HN1 IND d   1       5.814  -1.117  -2.239  0.00  0.00     0.298 HD
ENDROOT
TORSDOF 0
ENDMDL
