MODEL 1
REMARK minimizedAffinity 10.400342
REMARK minimizedRMSD -1
REMARK  0 active torsions:
REMARK  status: ('A' for Active; 'I' for Inactive)
ROOT
ATOM      1  N1  IND d   1       5.554  -2.253  -1.029  0.00  0.00    -0.196 N 
ATOM      2  C2  IND d   1       5.776  -3.584  -1.252  0.00  0.00     0.054 A 
ATOM      3  C3  IND d   1       5.090  -4.332  -0.359  0.00  0.00    -0.031 A 
ATOM      4  C4  IND d   1       3.462  -3.587   1.490  0.00  0.00     0.051 A 
ATOM      5  C5  IND d   1       2.965  -2.471   2.102  0.00  0.00    -0.031 A 
ATOM      6  C6  IND d   1       3.311  -1.199   1.692  0.00  0.00     0.015 A 
ATOM      7  C7  IND d   1       4.161  -0.996   0.643  0.00  0.00    -0.016 A 
ATOM      8  C8  IND d   1       4.673  -2.127   0.023  0.00  0.00    -0.047 A 
ATOM      9  C9  IND d   1       4.359  -3.420   0.462  0.00  0.00    -0.096 A 
ATOM     10  HN1 IND d   1       5.905  -1.605  -1.471  0.00  0.00     0.298 HD
ENDROOT
TORSDOF 0
ENDMDL
