MODEL 1
REMARK minimizedAffinity 7.30995417
REMARK minimizedRMSD -1
REMARK  0 active torsions:
REMARK  status: ('A' for Active; 'I' for Inactive)
ROOT
ATOM      1  N1  IND d   1      -1.226   2.695  -0.005  0.00  0.00    -0.196 N 
ATOM      2  C2  IND d   1      -0.496   2.240   1.058  0.00  0.00     0.054 A 
ATOM      3  C3  IND d   1       0.574   3.039   1.269  0.00  0.00    -0.031 A 
ATOM      4  C4  IND d   1       1.267   5.201   0.057  0.00  0.00     0.051 A 
ATOM      5  C5  IND d   1       0.933   5.995  -1.005  0.00  0.00    -0.031 A 
ATOM      6  C6  IND d   1      -0.161   5.725  -1.802  0.00  0.00     0.015 A 
ATOM      7  C7  IND d   1      -0.972   4.653  -1.559  0.00  0.00    -0.016 A 
ATOM      8  C8  IND d   1      -0.632   3.841  -0.486  0.00  0.00    -0.047 A 
ATOM      9  C9  IND d   1       0.501   4.086   0.300  0.00  0.00    -0.096 A 
ATOM     10  HN1 IND d   1      -1.936   2.326  -0.320  0.00  0.00     0.298 HD
ENDROOT
TORSDOF 0
ENDMDL
