MODEL 1
REMARK minimizedAffinity 10.2889948
REMARK minimizedRMSD -1
REMARK  0 active torsions:
REMARK  status: ('A' for Active; 'I' for Inactive)
ROOT
ATOM      1  N1  IND d   1       1.722  -0.391   3.971  0.00  0.00    -0.196 N 
ATOM      2  C2  IND d   1       0.980  -1.060   4.903  0.00  0.00     0.054 A 
ATOM      3  C3  IND d   1      -0.196  -0.426   5.112  0.00  0.00    -0.031 A 
ATOM      4  C4  IND d   1      -1.153   1.667   3.959  0.00  0.00     0.051 A 
ATOM      5  C5  IND d   1      -0.827   2.648   3.065  0.00  0.00    -0.031 A 
ATOM      6  C6  IND d   1       0.388   2.665   2.412  0.00  0.00     0.015 A 
ATOM      7  C7  IND d   1       1.323   1.691   2.621  0.00  0.00    -0.016 A 
ATOM      8  C8  IND d   1       0.999   0.697   3.533  0.00  0.00    -0.047 A 
ATOM      9  C9  IND d   1      -0.216   0.698   4.231  0.00  0.00    -0.096 A 
ATOM     10  HN1 IND d   1       2.508  -0.612   3.702  0.00  0.00     0.298 HD
ENDROOT
TORSDOF 0
ENDMDL
