MODEL 1
REMARK minimizedAffinity 9.85910606
REMARK minimizedRMSD -1
REMARK  0 active torsions:
REMARK  status: ('A' for Active; 'I' for Inactive)
ROOT
ATOM      1  N1  IND d   1      -0.446   5.999  -4.279  0.00  0.00    -0.196 N 
ATOM      2  C2  IND d   1       0.849   6.000  -4.717  0.00  0.00     0.054 A 
ATOM      3  C3  IND d   1       1.688   5.694  -3.702  0.00  0.00    -0.031 A 
ATOM      4  C4  IND d   1       1.147   5.058  -1.267  0.00  0.00     0.051 A 
ATOM      5  C5  IND d   1       0.107   4.955  -0.386  0.00  0.00    -0.031 A 
ATOM      6  C6  IND d   1      -1.197   5.198  -0.766  0.00  0.00     0.015 A 
ATOM      7  C7  IND d   1      -1.512   5.543  -2.050  0.00  0.00    -0.016 A 
ATOM      8  C8  IND d   1      -0.458   5.654  -2.946  0.00  0.00    -0.047 A 
ATOM      9  C9  IND d   1       0.872   5.451  -2.555  0.00  0.00    -0.096 A 
ATOM     10  HN1 IND d   1      -1.137   6.184  -4.757  0.00  0.00     0.298 HD
ENDROOT
TORSDOF 0
ENDMDL
