MODEL 1
REMARK minimizedAffinity 18.3361111
REMARK minimizedRMSD -1
REMARK  0 active torsions:
REMARK  status: ('A' for Active; 'I' for Inactive)
ROOT
ATOM      1  N1  IND d   1       0.893   2.105  -0.265  0.00  0.00    -0.196 N 
ATOM      2  C2  IND d   1       0.043   3.043   0.250  0.00  0.00     0.054 A 
ATOM      3  C3  IND d   1      -1.240   2.641   0.114  0.00  0.00    -0.031 A 
ATOM      4  C4  IND d   1      -2.171   0.435  -0.831  0.00  0.00     0.051 A 
ATOM      5  C5  IND d   1      -1.784  -0.718  -1.455  0.00  0.00    -0.031 A 
ATOM      6  C6  IND d   1      -0.458  -0.996  -1.716  0.00  0.00     0.015 A 
ATOM      7  C7  IND d   1       0.536  -0.132  -1.352  0.00  0.00    -0.016 A 
ATOM      8  C8  IND d   1       0.147   1.043  -0.725  0.00  0.00    -0.047 A 
ATOM      9  C9  IND d   1      -1.201   1.349  -0.495  0.00  0.00    -0.096 A 
ATOM     10  HN1 IND d   1       1.750   2.167  -0.296  0.00  0.00     0.298 HD
ENDROOT
TORSDOF 0
ENDMDL
