MODEL 1
REMARK minimizedAffinity 7.51118088
REMARK minimizedRMSD -1
REMARK  0 active torsions:
REMARK  status: ('A' for Active; 'I' for Inactive)
ROOT
ATOM      1  C4' PXY d   1       0.164   1.013   0.920  0.00  0.00     0.077 C 
ATOM      2  C1' PXY d   1       3.025   5.033   3.933  0.00  0.00     0.077 C 
ATOM      3  C1  PXY d   1       2.286   3.975   3.138  0.00  0.00    -0.082 A 
ATOM      4  C2  PXY d   1       0.997   4.130   2.882  0.00  0.00     0.003 A 
ATOM      5  C3  PXY d   1       0.306   3.168   2.192  0.00  0.00     0.003 A 
ATOM      6  C4  PXY d   1       0.953   2.060   1.712  0.00  0.00    -0.082 A 
ATOM      7  C5  PXY d   1       2.270   1.900   1.959  0.00  0.00     0.003 A 
ATOM      8  C6  PXY d   1       2.944   2.869   2.697  0.00  0.00     0.003 A 
ENDROOT
TORSDOF 0
ENDMDL
