MODEL 1
REMARK minimizedAffinity 5.43918705
REMARK minimizedRMSD -1
REMARK  0 active torsions:
REMARK  status: ('A' for Active; 'I' for Inactive)
ROOT
ATOM      1  C4' PXY d   1      -0.207  -0.628   1.485  0.00  0.00     0.077 C 
ATOM      2  C1' PXY d   1      -5.386  -1.106   4.007  0.00  0.00     0.077 C 
ATOM      3  C1  PXY d   1      -4.023  -0.989   3.355  0.00  0.00    -0.082 A 
ATOM      4  C2  PXY d   1      -3.728   0.088   2.645  0.00  0.00     0.003 A 
ATOM      5  C3  PXY d   1      -2.511   0.196   2.021  0.00  0.00     0.003 A 
ATOM      6  C4  PXY d   1      -1.567  -0.785   2.169  0.00  0.00    -0.082 A 
ATOM      7  C5  PXY d   1      -1.857  -1.882   2.901  0.00  0.00     0.003 A 
ATOM      8  C6  PXY d   1      -3.112  -1.991   3.492  0.00  0.00     0.003 A 
ENDROOT
TORSDOF 0
ENDMDL
