MODEL 1
REMARK minimizedAffinity -2.90611124
REMARK minimizedRMSD -1
REMARK  0 active torsions:
REMARK  status: ('A' for Active; 'I' for Inactive)
ROOT
ATOM      1  C4' PXY d   1       2.181   2.582   1.132  0.00  0.00     0.077 C 
ATOM      2  C1' PXY d   1      -2.293   3.547   4.663  0.00  0.00     0.077 C 
ATOM      3  C1  PXY d   1      -1.121   3.281   3.739  0.00  0.00    -0.082 A 
ATOM      4  C2  PXY d   1      -0.208   4.221   3.553  0.00  0.00     0.003 A 
ATOM      5  C3  PXY d   1       0.841   4.009   2.696  0.00  0.00     0.003 A 
ATOM      6  C4  PXY d   1       0.986   2.803   2.063  0.00  0.00    -0.082 A 
ATOM      7  C5  PXY d   1       0.065   1.835   2.256  0.00  0.00     0.003 A 
ATOM      8  C6  PXY d   1      -1.015   2.085   3.098  0.00  0.00     0.003 A 
ENDROOT
TORSDOF 0
ENDMDL
