MODEL 1
REMARK minimizedAffinity -0.251160204
REMARK minimizedRMSD -1
REMARK  0 active torsions:
REMARK  status: ('A' for Active; 'I' for Inactive)
ROOT
ATOM      1  C4' PXY d   1      -5.751  -1.694   3.363  0.00  0.00     0.077 C 
ATOM      2  C1' PXY d   1      -0.595  -0.275   1.169  0.00  0.00     0.077 C 
ATOM      3  C1  PXY d   1      -1.944  -0.660   1.744  0.00  0.00    -0.082 A 
ATOM      4  C2  PXY d   1      -2.972   0.160   1.603  0.00  0.00     0.003 A 
ATOM      5  C3  PXY d   1      -4.192  -0.158   2.144  0.00  0.00     0.003 A 
ATOM      6  C4  PXY d   1      -4.373  -1.351   2.791  0.00  0.00    -0.082 A 
ATOM      7  C5  PXY d   1      -3.331  -2.198   2.929  0.00  0.00     0.003 A 
ATOM      8  C6  PXY d   1      -2.091  -1.838   2.408  0.00  0.00     0.003 A 
ENDROOT
TORSDOF 0
ENDMDL
