MODEL 1
REMARK minimizedAffinity 4.50148535
REMARK minimizedRMSD -1
REMARK  0 active torsions:
REMARK  status: ('A' for Active; 'I' for Inactive)
ROOT
ATOM      1  C4' PXY d   1       2.060   1.769   0.280  0.00  0.00     0.077 C 
ATOM      2  C1' PXY d   1      -0.721   3.048   5.184  0.00  0.00     0.077 C 
ATOM      3  C1  PXY d   1      -0.000   2.703   3.896  0.00  0.00    -0.082 A 
ATOM      4  C2  PXY d   1       1.279   3.012   3.759  0.00  0.00     0.003 A 
ATOM      5  C3  PXY d   1       1.938   2.736   2.588  0.00  0.00     0.003 A 
ATOM      6  C4  PXY d   1       1.294   2.090   1.567  0.00  0.00    -0.082 A 
ATOM      7  C5  PXY d   1      -0.008   1.762   1.703  0.00  0.00     0.003 A 
ATOM      8  C6  PXY d   1      -0.670   2.088   2.884  0.00  0.00     0.003 A 
ENDROOT
TORSDOF 0
ENDMDL
