MODEL 1
REMARK minimizedAffinity 10.4540024
REMARK minimizedRMSD -1
REMARK  0 active torsions:
REMARK  status: ('A' for Active; 'I' for Inactive)
ROOT
ATOM      1  C4' PXY d   1      -0.255   3.786   5.540  0.00  0.00     0.077 C 
ATOM      2  C1' PXY d   1       1.484   1.480   0.532  0.00  0.00     0.077 C 
ATOM      3  C1  PXY d   1       1.040   2.086   1.849  0.00  0.00    -0.082 A 
ATOM      4  C2  PXY d   1      -0.165   1.814   2.321  0.00  0.00     0.003 A 
ATOM      5  C3  PXY d   1      -0.594   2.379   3.495  0.00  0.00     0.003 A 
ATOM      6  C4  PXY d   1       0.239   3.189   4.219  0.00  0.00    -0.082 A 
ATOM      7  C5  PXY d   1       1.474   3.463   3.749  0.00  0.00     0.003 A 
ATOM      8  C6  PXY d   1       1.876   2.912   2.535  0.00  0.00     0.003 A 
ENDROOT
TORSDOF 0
ENDMDL
