MODEL 1
REMARK minimizedAffinity 0.529208004
REMARK minimizedRMSD -1
REMARK  0 active torsions:
REMARK  status: ('A' for Active; 'I' for Inactive)
ROOT
ATOM      1  C4' PXY d   1      -1.745   3.381   4.339  0.00  0.00     0.077 C 
ATOM      2  C1' PXY d   1       0.886   1.732  -0.537  0.00  0.00     0.077 C 
ATOM      3  C1  PXY d   1       0.208   2.170   0.746  0.00  0.00    -0.082 A 
ATOM      4  C2  PXY d   1      -0.885   1.545   1.154  0.00  0.00     0.003 A 
ATOM      5  C3  PXY d   1      -1.529   1.948   2.295  0.00  0.00     0.003 A 
ATOM      6  C4  PXY d   1      -1.021   2.967   3.055  0.00  0.00    -0.082 A 
ATOM      7  C5  PXY d   1       0.100   3.603   2.651  0.00  0.00     0.003 A 
ATOM      8  C6  PXY d   1       0.716   3.205   1.468  0.00  0.00     0.003 A 
ENDROOT
TORSDOF 0
ENDMDL
