MODEL 1
REMARK minimizedAffinity 3.35048413
REMARK minimizedRMSD -1
REMARK  0 active torsions:
REMARK  status: ('A' for Active; 'I' for Inactive)
ROOT
ATOM      1  C4' PXY d   1      -0.285   1.918   1.374  0.00  0.00     0.077 C 
ATOM      2  C1' PXY d   1      -0.661   5.379   5.988  0.00  0.00     0.077 C 
ATOM      3  C1  PXY d   1      -0.557   4.481   4.771  0.00  0.00    -0.082 A 
ATOM      4  C2  PXY d   1      -1.367   3.442   4.654  0.00  0.00     0.003 A 
ATOM      5  C3  PXY d   1      -1.265   2.601   3.576  0.00  0.00     0.003 A 
ATOM      6  C4  PXY d   1      -0.360   2.857   2.581  0.00  0.00    -0.082 A 
ATOM      7  C5  PXY d   1       0.462   3.922   2.688  0.00  0.00     0.003 A 
ATOM      8  C6  PXY d   1       0.371   4.740   3.810  0.00  0.00     0.003 A 
ENDROOT
TORSDOF 0
ENDMDL
