MODEL 1
REMARK minimizedAffinity -3.70704293
REMARK minimizedRMSD -1
REMARK  0 active torsions:
REMARK  status: ('A' for Active; 'I' for Inactive)
ROOT
ATOM      1  C4' PXY d   1       1.367   5.306   3.162  0.00  0.00     0.077 C 
ATOM      2  C1' PXY d   1      -0.712   0.494   0.724  0.00  0.00     0.077 C 
ATOM      3  C1  PXY d   1      -0.179   1.759   1.367  0.00  0.00    -0.082 A 
ATOM      4  C2  PXY d   1       0.966   2.273   0.949  0.00  0.00     0.003 A 
ATOM      5  C3  PXY d   1       1.479   3.399   1.541  0.00  0.00     0.003 A 
ATOM      6  C4  PXY d   1       0.786   4.035   2.536  0.00  0.00    -0.082 A 
ATOM      7  C5  PXY d   1      -0.388   3.523   2.961  0.00  0.00     0.003 A 
ATOM      8  C6  PXY d   1      -0.871   2.356   2.375  0.00  0.00     0.003 A 
ENDROOT
TORSDOF 0
ENDMDL
