MODEL 1
REMARK minimizedAffinity -1.27636552
REMARK minimizedRMSD -1
REMARK  0 active torsions:
REMARK  status: ('A' for Active; 'I' for Inactive)
ROOT
ATOM      1  C4' PXY d   1      -2.396   4.573   4.803  0.00  0.00     0.077 C 
ATOM      2  C1' PXY d   1       1.350   1.855   1.339  0.00  0.00     0.077 C 
ATOM      3  C1  PXY d   1       0.376   2.568   2.258  0.00  0.00    -0.082 A 
ATOM      4  C2  PXY d   1      -0.922   2.504   2.010  0.00  0.00     0.003 A 
ATOM      5  C3  PXY d   1      -1.814   3.168   2.812  0.00  0.00     0.003 A 
ATOM      6  C4  PXY d   1      -1.377   3.862   3.909  0.00  0.00    -0.082 A 
ATOM      7  C5  PXY d   1      -0.055   3.923   4.174  0.00  0.00     0.003 A 
ATOM      8  C6  PXY d   1       0.837   3.276   3.324  0.00  0.00     0.003 A 
ENDROOT
TORSDOF 0
ENDMDL
