MODEL 1
REMARK minimizedAffinity 0.00752299419
REMARK minimizedRMSD -1
REMARK  0 active torsions:
REMARK  status: ('A' for Active; 'I' for Inactive)
ROOT
ATOM      1  C4' PXY d   1       2.126   2.617   0.308  0.00  0.00     0.077 C 
ATOM      2  C1' PXY d   1      -1.649   3.800   4.523  0.00  0.00     0.077 C 
ATOM      3  C1  PXY d   1      -0.662   3.477   3.419  0.00  0.00    -0.082 A 
ATOM      4  C2  PXY d   1       0.353   4.294   3.189  0.00  0.00     0.003 A 
ATOM      5  C3  PXY d   1       1.237   4.034   2.173  0.00  0.00     0.003 A 
ATOM      6  C4  PXY d   1       1.111   2.898   1.419  0.00  0.00    -0.082 A 
ATOM      7  C5  PXY d   1       0.084   2.054   1.654  0.00  0.00     0.003 A 
ATOM      8  C6  PXY d   1      -0.826   2.357   2.663  0.00  0.00     0.003 A 
ENDROOT
TORSDOF 0
ENDMDL
