MODEL 1
REMARK minimizedAffinity 9.35325623
REMARK minimizedRMSD -1
REMARK  0 active torsions:
REMARK  status: ('A' for Active; 'I' for Inactive)
ROOT
ATOM      1  C4' PXY d   1       3.603  -5.926  -0.582  0.00  0.00     0.077 C 
ATOM      2  C1' PXY d   1       5.675  -5.288  -5.940  0.00  0.00     0.077 C 
ATOM      3  C1  PXY d   1       5.143  -5.460  -4.531  0.00  0.00    -0.082 A 
ATOM      4  C2  PXY d   1       3.843  -5.607  -4.336  0.00  0.00     0.003 A 
ATOM      5  C3  PXY d   1       3.342  -5.731  -3.066  0.00  0.00     0.003 A 
ATOM      6  C4  PXY d   1       4.186  -5.759  -1.988  0.00  0.00    -0.082 A 
ATOM      7  C5  PXY d   1       5.515  -5.621  -2.180  0.00  0.00     0.003 A 
ATOM      8  C6  PXY d   1       6.000  -5.454  -3.474  0.00  0.00     0.003 A 
ENDROOT
TORSDOF 0
ENDMDL
