MODEL 1
REMARK minimizedAffinity -2.53029704
REMARK minimizedRMSD -1
REMARK  0 active torsions:
REMARK  status: ('A' for Active; 'I' for Inactive)
ROOT
ATOM      1  C4' PXY d   1       2.103   4.010   3.166  0.00  0.00     0.077 C 
ATOM      2  C1' PXY d   1      -1.309   0.477   0.118  0.00  0.00     0.077 C 
ATOM      3  C1  PXY d   1      -0.424   1.406   0.926  0.00  0.00    -0.082 A 
ATOM      4  C2  PXY d   1       0.630   1.966   0.355  0.00  0.00     0.003 A 
ATOM      5  C3  PXY d   1       1.459   2.783   1.079  0.00  0.00     0.003 A 
ATOM      6  C4  PXY d   1       1.176   3.073   2.387  0.00  0.00    -0.082 A 
ATOM      7  C5  PXY d   1       0.096   2.515   2.974  0.00  0.00     0.003 A 
ATOM      8  C6  PXY d   1      -0.709   1.655   2.233  0.00  0.00     0.003 A 
ENDROOT
TORSDOF 0
ENDMDL
