MODEL 1
REMARK minimizedAffinity 6.11292648
REMARK minimizedRMSD -1
REMARK  0 active torsions:
REMARK  status: ('A' for Active; 'I' for Inactive)
ROOT
ATOM      1  C4' PXY d   1      -0.855   1.625   2.298  0.00  0.00     0.077 C 
ATOM      2  C1' PXY d   1       2.860   5.255   4.836  0.00  0.00     0.077 C 
ATOM      3  C1  PXY d   1       1.883   4.298   4.182  0.00  0.00    -0.082 A 
ATOM      4  C2  PXY d   1       2.031   3.983   2.905  0.00  0.00     0.003 A 
ATOM      5  C3  PXY d   1       1.138   3.144   2.290  0.00  0.00     0.003 A 
ATOM      6  C4  PXY d   1       0.113   2.580   3.002  0.00  0.00    -0.082 A 
ATOM      7  C5  PXY d   1      -0.038   2.888   4.307  0.00  0.00     0.003 A 
ATOM      8  C6  PXY d   1       0.855   3.774   4.903  0.00  0.00     0.003 A 
ENDROOT
TORSDOF 0
ENDMDL
