MODEL 1
REMARK minimizedAffinity 7.73797417
REMARK minimizedRMSD -1
REMARK  0 active torsions:
REMARK  status: ('A' for Active; 'I' for Inactive)
ROOT
ATOM      1  C4' PXY d   1       4.089  -0.448  -0.817  0.00  0.00     0.077 C 
ATOM      2  C1' PXY d   1      -0.225  -4.294  -0.937  0.00  0.00     0.077 C 
ATOM      3  C1  PXY d   1       0.901  -3.280  -0.895  0.00  0.00    -0.082 A 
ATOM      4  C2  PXY d   1       1.561  -2.988  -2.005  0.00  0.00     0.003 A 
ATOM      5  C3  PXY d   1       2.603  -2.098  -1.978  0.00  0.00     0.003 A 
ATOM      6  C4  PXY d   1       2.939  -1.459  -0.815  0.00  0.00    -0.082 A 
ATOM      7  C5  PXY d   1       2.264  -1.743   0.319  0.00  0.00     0.003 A 
ATOM      8  C6  PXY d   1       1.236  -2.681   0.280  0.00  0.00     0.003 A 
ENDROOT
TORSDOF 0
ENDMDL
