MODEL 1
REMARK minimizedAffinity 11.7468653
REMARK minimizedRMSD -1
REMARK  0 active torsions:
REMARK  status: ('A' for Active; 'I' for Inactive)
ROOT
ATOM      1  C4' PXY d   1      -1.808   3.370   5.637  0.00  0.00     0.077 C 
ATOM      2  C1' PXY d   1       0.196   1.774   0.455  0.00  0.00     0.077 C 
ATOM      3  C1  PXY d   1      -0.318   2.194   1.818  0.00  0.00    -0.082 A 
ATOM      4  C2  PXY d   1      -1.501   1.771   2.231  0.00  0.00     0.003 A 
ATOM      5  C3  PXY d   1      -1.995   2.167   3.447  0.00  0.00     0.003 A 
ATOM      6  C4  PXY d   1      -1.246   2.963   4.272  0.00  0.00    -0.082 A 
ATOM      7  C5  PXY d   1      -0.033   3.390   3.863  0.00  0.00     0.003 A 
ATOM      8  C6  PXY d   1       0.432   3.010   2.608  0.00  0.00     0.003 A 
ENDROOT
TORSDOF 0
ENDMDL
