MODEL 1
REMARK minimizedAffinity 6.24284029
REMARK minimizedRMSD -1
REMARK  0 active torsions:
REMARK  status: ('A' for Active; 'I' for Inactive)
ROOT
ATOM      1  C4' PXY d   1       0.442   4.099   3.046  0.00  0.00     0.077 C 
ATOM      2  C1' PXY d   1       6.000   4.616   4.547  0.00  0.00     0.077 C 
ATOM      3  C1  PXY d   1       4.543   4.492   4.147  0.00  0.00    -0.082 A 
ATOM      4  C2  PXY d   1       3.737   3.710   4.847  0.00  0.00     0.003 A 
ATOM      5  C3  PXY d   1       2.424   3.561   4.481  0.00  0.00     0.003 A 
ATOM      6  C4  PXY d   1       1.918   4.262   3.418  0.00  0.00    -0.082 A 
ATOM      7  C5  PXY d   1       2.731   5.070   2.706  0.00  0.00     0.003 A 
ATOM      8  C6  PXY d   1       4.071   5.175   3.069  0.00  0.00     0.003 A 
ENDROOT
TORSDOF 0
ENDMDL
