MODEL 1
REMARK minimizedAffinity 7.95075464
REMARK minimizedRMSD -1
REMARK  0 active torsions:
REMARK  status: ('A' for Active; 'I' for Inactive)
ROOT
ATOM      1  C4' PXY d   1      -3.139   0.273   2.365  0.00  0.00     0.077 C 
ATOM      2  C1' PXY d   1       1.274   3.800   3.591  0.00  0.00     0.077 C 
ATOM      3  C1  PXY d   1       0.122   2.873   3.257  0.00  0.00    -0.082 A 
ATOM      4  C2  PXY d   1      -1.007   2.961   3.942  0.00  0.00     0.003 A 
ATOM      5  C3  PXY d   1      -2.048   2.110   3.675  0.00  0.00     0.003 A 
ATOM      6  C4  PXY d   1      -1.952   1.195   2.661  0.00  0.00    -0.082 A 
ATOM      7  C5  PXY d   1      -0.807   1.106   1.951  0.00  0.00     0.003 A 
ATOM      8  C6  PXY d   1       0.253   1.952   2.265  0.00  0.00     0.003 A 
ENDROOT
TORSDOF 0
ENDMDL
