MODEL 1
REMARK minimizedAffinity 7.97635746
REMARK minimizedRMSD -1
REMARK  1 active torsions:
REMARK  status: ('A' for Active; 'I' for Inactive)
REMARK    1  A    between atoms: N_2  and  C1_3 
ROOT
ATOM      1  C1  UNL d   1       2.955   0.243  -0.476  0.00  0.00     0.143 A 
ATOM      2  C2  UNL d   1       2.107  -0.661  -1.124  0.00  0.00    -0.057 A 
ATOM      3  C3  UNL d   1       1.731  -1.866  -0.519  0.00  0.00     0.033 A 
ATOM      4  C4  UNL d   1       2.222  -2.202   0.738  0.00  0.00    -0.042 A 
ATOM      5  C5  UNL d   1       3.086  -1.331   1.391  0.00  0.00     0.033 A 
ATOM      6  C6  UNL d   1       3.452  -0.126   0.784  0.00  0.00    -0.057 A 
ENDROOT
BRANCH   1   7
ATOM      7  N   UNL d   1       3.444   1.412  -1.065  0.00  0.00    -0.732 N 
ATOM      8  C   UNL d   1       4.863   1.694  -1.076  0.00  0.00     0.284 C 
ATOM      9  H3  UNL d   1       2.969   1.635  -1.937  0.00  0.00     0.395 HD
ENDBRANCH   1   7
TORSDOF 1
ENDMDL
