MODEL 1
REMARK minimizedAffinity 9.49228477
REMARK minimizedRMSD -1
REMARK  1 active torsions:
REMARK  status: ('A' for Active; 'I' for Inactive)
REMARK    1  A    between atoms: N_2  and  C1_3 
ROOT
ATOM      1  C1  UNL d   1       3.196   1.407   0.885  0.00  0.00     0.143 A 
ATOM      2  C2  UNL d   1       2.213   1.697  -0.067  0.00  0.00    -0.057 A 
ATOM      3  C3  UNL d   1       1.746   0.717  -0.951  0.00  0.00     0.033 A 
ATOM      4  C4  UNL d   1       2.278  -0.568  -0.917  0.00  0.00    -0.042 A 
ATOM      5  C5  UNL d   1       3.274  -0.872   0.004  0.00  0.00     0.033 A 
ATOM      6  C6  UNL d   1       3.731   0.110   0.889  0.00  0.00    -0.057 A 
ENDROOT
BRANCH   1   7
ATOM      7  N   UNL d   1       3.771   2.364   1.725  0.00  0.00    -0.732 N 
ATOM      8  C   UNL d   1       3.062   2.841   2.893  0.00  0.00     0.284 C 
ATOM      9  H3  UNL d   1       4.763   2.199   1.880  0.00  0.00     0.395 HD
ENDBRANCH   1   7
TORSDOF 1
ENDMDL
