MODEL 1
REMARK minimizedAffinity 2.15524364
REMARK minimizedRMSD -1
REMARK  1 active torsions:
REMARK  status: ('A' for Active; 'I' for Inactive)
REMARK    1  A    between atoms: N_2  and  C1_3 
ROOT
ATOM      1  C1  UNL d   1      -5.362   1.547  -2.434  0.00  0.00     0.143 A 
ATOM      2  C2  UNL d   1      -5.460   2.590  -1.507  0.00  0.00    -0.057 A 
ATOM      3  C3  UNL d   1      -4.881   2.488  -0.236  0.00  0.00     0.033 A 
ATOM      4  C4  UNL d   1      -4.217   1.326   0.142  0.00  0.00    -0.042 A 
ATOM      5  C5  UNL d   1      -4.129   0.267  -0.755  0.00  0.00     0.033 A 
ATOM      6  C6  UNL d   1      -4.703   0.377  -2.025  0.00  0.00    -0.057 A 
ENDROOT
BRANCH   1   7
ATOM      7  N   UNL d   1      -6.000   1.548  -3.677  0.00  0.00    -0.732 N 
ATOM      8  C   UNL d   1      -6.000   0.363  -4.507  0.00  0.00     0.284 C 
ATOM      9  H3  UNL d   1      -6.889   2.041  -3.656  0.00  0.00     0.395 HD
ENDBRANCH   1   7
TORSDOF 1
ENDMDL
