MODEL 1
REMARK minimizedAffinity 7.15659904
REMARK minimizedRMSD -1
REMARK  1 active torsions:
REMARK  status: ('A' for Active; 'I' for Inactive)
REMARK    1  A    between atoms: N_2  and  C1_3 
ROOT
ATOM      1  C1  UNL d   1      -4.360   3.763   1.857  0.00  0.00     0.143 A 
ATOM      2  C2  UNL d   1      -3.396   4.529   2.520  0.00  0.00    -0.057 A 
ATOM      3  C3  UNL d   1      -3.714   5.259   3.673  0.00  0.00     0.033 A 
ATOM      4  C4  UNL d   1      -5.014   5.258   4.166  0.00  0.00    -0.042 A 
ATOM      5  C5  UNL d   1      -5.995   4.523   3.509  0.00  0.00     0.033 A 
ATOM      6  C6  UNL d   1      -5.669   3.792   2.363  0.00  0.00    -0.057 A 
ENDROOT
BRANCH   1   7
ATOM      7  N   UNL d   1      -4.129   3.096   0.652  0.00  0.00    -0.732 N 
ATOM      8  C   UNL d   1      -4.139   1.650   0.596  0.00  0.00     0.284 C 
ATOM      9  H3  UNL d   1      -4.591   3.545  -0.136  0.00  0.00     0.395 HD
ENDBRANCH   1   7
TORSDOF 1
ENDMDL
