MODEL 1
REMARK minimizedAffinity 11.7275276
REMARK minimizedRMSD -1
REMARK  1 active torsions:
REMARK  status: ('A' for Active; 'I' for Inactive)
REMARK    1  A    between atoms: N_2  and  C1_3 
ROOT
ATOM      1  C1  UNL d   1      -3.932   1.138   0.121  0.00  0.00     0.143 A 
ATOM      2  C2  UNL d   1      -3.215   0.532  -0.917  0.00  0.00    -0.057 A 
ATOM      3  C3  UNL d   1      -3.867   0.002  -2.037  0.00  0.00     0.033 A 
ATOM      4  C4  UNL d   1      -5.255   0.042  -2.125  0.00  0.00    -0.042 A 
ATOM      5  C5  UNL d   1      -5.989   0.617  -1.094  0.00  0.00     0.033 A 
ATOM      6  C6  UNL d   1      -5.332   1.151   0.019  0.00  0.00    -0.057 A 
ENDROOT
BRANCH   1   7
ATOM      7  N   UNL d   1      -3.349   1.595   1.305  0.00  0.00    -0.732 N 
ATOM      8  C   UNL d   1      -3.707   2.886   1.852  0.00  0.00     0.284 C 
ATOM      9  H3  UNL d   1      -3.256   0.860   2.002  0.00  0.00     0.395 HD
ENDBRANCH   1   7
TORSDOF 1
ENDMDL
