MODEL 1
REMARK minimizedAffinity 7.70870781
REMARK minimizedRMSD -1
REMARK  0 active torsions:
REMARK  status: ('A' for Active; 'I' for Inactive)
ROOT
ATOM      1  C   UNL d   1       2.868   1.068   1.026  0.00  0.00    -0.002 A 
ATOM      2  C1  UNL d   1       3.790   0.945  -0.004  0.00  0.00     0.010 A 
ATOM      3  C2  UNL d   1       3.882  -0.239  -0.738  0.00  0.00     0.041 A 
ATOM      4  C3  UNL d   1       3.021  -1.308  -0.418  0.00  0.00    -0.075 A 
ATOM      5  S   UNL d   1       2.953  -2.852  -1.181  0.00  0.00     0.015 SA
ATOM      6  C4  UNL d   1       1.698  -3.385  -0.158  0.00  0.00     0.022 A 
ATOM      7  C5  UNL d   1       1.328  -2.421   0.749  0.00  0.00     0.026 A 
ATOM      8  C6  UNL d   1       2.084  -1.208   0.615  0.00  0.00    -0.082 A 
ATOM      9  C7  UNL d   1       2.016   0.006   1.341  0.00  0.00     0.045 A 
ENDROOT
TORSDOF 0
ENDMDL
