MODEL 1
REMARK minimizedAffinity 19.7146187
REMARK minimizedRMSD -1
REMARK  0 active torsions:
REMARK  status: ('A' for Active; 'I' for Inactive)
ROOT
ATOM      1  C   UNL d   1       3.149   2.020  -0.663  0.00  0.00    -0.002 A 
ATOM      2  C1  UNL d   1       3.794   1.912  -1.887  0.00  0.00     0.010 A 
ATOM      3  C2  UNL d   1       3.677   0.749  -2.651  0.00  0.00     0.041 A 
ATOM      4  C3  UNL d   1       2.893  -0.314  -2.160  0.00  0.00    -0.075 A 
ATOM      5  S   UNL d   1       2.606  -1.833  -2.922  0.00  0.00     0.015 SA
ATOM      6  C4  UNL d   1       1.620  -2.374  -1.642  0.00  0.00     0.022 A 
ATOM      7  C5  UNL d   1       1.503  -1.432  -0.648  0.00  0.00     0.026 A 
ATOM      8  C6  UNL d   1       2.234  -0.228  -0.930  0.00  0.00    -0.082 A 
ATOM      9  C7  UNL d   1       2.372   0.964  -0.179  0.00  0.00     0.045 A 
ENDROOT
TORSDOF 0
ENDMDL
