MODEL 1
REMARK minimizedAffinity 3.58752894
REMARK minimizedRMSD -1
REMARK  0 active torsions:
REMARK  status: ('A' for Active; 'I' for Inactive)
ROOT
ATOM      1  C   UNL d   1      -5.900   3.868  -5.738  0.00  0.00    -0.002 A 
ATOM      2  C1  UNL d   1      -5.854   4.677  -4.611  0.00  0.00     0.010 A 
ATOM      3  C2  UNL d   1      -4.779   4.598  -3.724  0.00  0.00     0.041 A 
ATOM      4  C3  UNL d   1      -3.740   3.685  -3.991  0.00  0.00    -0.075 A 
ATOM      5  S   UNL d   1      -2.324   3.416  -3.046  0.00  0.00     0.015 SA
ATOM      6  C4  UNL d   1      -1.746   2.222  -4.115  0.00  0.00     0.022 A 
ATOM      7  C5  UNL d   1      -2.600   2.020  -5.173  0.00  0.00     0.026 A 
ATOM      8  C6  UNL d   1      -3.763   2.861  -5.120  0.00  0.00    -0.082 A 
ATOM      9  C7  UNL d   1      -4.867   2.964  -6.000  0.00  0.00     0.045 A 
ENDROOT
TORSDOF 0
ENDMDL
