MODEL 1
REMARK minimizedAffinity 3.42561769
REMARK minimizedRMSD -1
REMARK  0 active torsions:
REMARK  status: ('A' for Active; 'I' for Inactive)
ROOT
ATOM      1  C   UNL d   1      -3.161  -0.917  -2.334  0.00  0.00    -0.002 A 
ATOM      2  C1  UNL d   1      -2.406  -0.333  -3.342  0.00  0.00     0.010 A 
ATOM      3  C2  UNL d   1      -2.803   0.877  -3.915  0.00  0.00     0.041 A 
ATOM      4  C3  UNL d   1      -3.980   1.497  -3.453  0.00  0.00    -0.075 A 
ATOM      5  S   UNL d   1      -4.659   2.982  -4.006  0.00  0.00     0.015 SA
ATOM      6  C4  UNL d   1      -5.966   2.876  -2.917  0.00  0.00     0.022 A 
ATOM      7  C5  UNL d   1      -5.902   1.742  -2.143  0.00  0.00     0.026 A 
ATOM      8  C6  UNL d   1      -4.756   0.929  -2.438  0.00  0.00    -0.082 A 
ATOM      9  C7  UNL d   1      -4.328  -0.299  -1.878  0.00  0.00     0.045 A 
ENDROOT
TORSDOF 0
ENDMDL
