MODEL 1
REMARK minimizedAffinity 4.86006927
REMARK minimizedRMSD -1
REMARK  0 active torsions:
REMARK  status: ('A' for Active; 'I' for Inactive)
ROOT
ATOM      1  C   UNL d   1       1.797  -0.045  -0.208  0.00  0.00    -0.002 A 
ATOM      2  C1  UNL d   1       1.362   0.877   0.733  0.00  0.00     0.010 A 
ATOM      3  C2  UNL d   1       2.245   1.816   1.269  0.00  0.00     0.041 A 
ATOM      4  C3  UNL d   1       3.586   1.815   0.836  0.00  0.00    -0.075 A 
ATOM      5  S   UNL d   1       4.846   2.873   1.352  0.00  0.00     0.015 SA
ATOM      6  C4  UNL d   1       5.991   2.127   0.333  0.00  0.00     0.022 A 
ATOM      7  C5  UNL d   1       5.443   1.094  -0.390  0.00  0.00     0.026 A 
ATOM      8  C6  UNL d   1       4.047   0.898  -0.112  0.00  0.00    -0.082 A 
ATOM      9  C7  UNL d   1       3.127  -0.043  -0.635  0.00  0.00     0.045 A 
ENDROOT
TORSDOF 0
ENDMDL
