MODEL 1
REMARK minimizedAffinity 8.66900826
REMARK minimizedRMSD -1
REMARK  0 active torsions:
REMARK  status: ('A' for Active; 'I' for Inactive)
ROOT
ATOM      1  C   UNL d   1       5.263   2.760  -0.268  0.00  0.00    -0.002 A 
ATOM      2  C1  UNL d   1       5.999   1.588  -0.160  0.00  0.00     0.010 A 
ATOM      3  C2  UNL d   1       5.359   0.348  -0.132  0.00  0.00     0.041 A 
ATOM      4  C3  UNL d   1       3.954   0.304  -0.217  0.00  0.00    -0.075 A 
ATOM      5  S   UNL d   1       2.955  -1.102  -0.203  0.00  0.00     0.015 SA
ATOM      6  C4  UNL d   1       1.528  -0.180  -0.341  0.00  0.00     0.022 A 
ATOM      7  C5  UNL d   1       1.789   1.168  -0.397  0.00  0.00     0.026 A 
ATOM      8  C6  UNL d   1       3.191   1.470  -0.327  0.00  0.00    -0.082 A 
ATOM      9  C7  UNL d   1       3.869   2.712  -0.352  0.00  0.00     0.045 A 
ENDROOT
TORSDOF 0
ENDMDL
