MODEL 1
REMARK minimizedAffinity 4.96797705
REMARK minimizedRMSD -1
REMARK  0 active torsions:
REMARK  status: ('A' for Active; 'I' for Inactive)
ROOT
ATOM      1  C   UNL d   1      -5.214  -0.138  -4.032  0.00  0.00    -0.002 A 
ATOM      2  C1  UNL d   1      -3.846  -0.006  -4.222  0.00  0.00     0.010 A 
ATOM      3  C2  UNL d   1      -3.236   1.248  -4.145  0.00  0.00     0.041 A 
ATOM      4  C3  UNL d   1      -4.031   2.377  -3.869  0.00  0.00    -0.075 A 
ATOM      5  S   UNL d   1      -3.502   4.012  -3.727  0.00  0.00     0.015 SA
ATOM      6  C4  UNL d   1      -5.079   4.573  -3.410  0.00  0.00     0.022 A 
ATOM      7  C5  UNL d   1      -6.000   3.552  -3.409  0.00  0.00     0.026 A 
ATOM      8  C6  UNL d   1      -5.411   2.270  -3.673  0.00  0.00    -0.082 A 
ATOM      9  C7  UNL d   1      -6.000   0.985  -3.759  0.00  0.00     0.045 A 
ENDROOT
TORSDOF 0
ENDMDL
