MODEL 1
REMARK minimizedAffinity 8.88505077
REMARK minimizedRMSD -1
REMARK  0 active torsions:
REMARK  status: ('A' for Active; 'I' for Inactive)
ROOT
ATOM      1  C   UNL d   1      -5.208   3.869  -2.431  0.00  0.00    -0.002 A 
ATOM      2  C1  UNL d   1      -3.833   3.870  -2.617  0.00  0.00     0.010 A 
ATOM      3  C2  UNL d   1      -3.220   2.880  -3.387  0.00  0.00     0.041 A 
ATOM      4  C3  UNL d   1      -4.020   1.880  -3.975  0.00  0.00    -0.075 A 
ATOM      5  S   UNL d   1      -3.488   0.568  -4.959  0.00  0.00     0.015 SA
ATOM      6  C4  UNL d   1      -5.074  -0.023  -5.157  0.00  0.00     0.022 A 
ATOM      7  C5  UNL d   1      -5.999   0.749  -4.495  0.00  0.00     0.026 A 
ATOM      8  C6  UNL d   1      -5.407   1.859  -3.803  0.00  0.00    -0.082 A 
ATOM      9  C7  UNL d   1      -5.999   2.876  -3.016  0.00  0.00     0.045 A 
ENDROOT
TORSDOF 0
ENDMDL
