MODEL 1
REMARK minimizedAffinity 0.94180882
REMARK minimizedRMSD -1
REMARK  0 active torsions:
REMARK  status: ('A' for Active; 'I' for Inactive)
ROOT
ATOM      1  C   UNL d   1      -3.676   0.368  -4.539  0.00  0.00    -0.002 A 
ATOM      2  C1  UNL d   1      -3.977   1.717  -4.667  0.00  0.00     0.010 A 
ATOM      3  C2  UNL d   1      -4.697   2.381  -3.671  0.00  0.00     0.041 A 
ATOM      4  C3  UNL d   1      -5.109   1.660  -2.533  0.00  0.00    -0.075 A 
ATOM      5  S   UNL d   1      -6.000   2.265  -1.186  0.00  0.00     0.015 SA
ATOM      6  C4  UNL d   1      -6.000   0.748  -0.410  0.00  0.00     0.022 A 
ATOM      7  C5  UNL d   1      -5.341  -0.208  -1.146  0.00  0.00     0.026 A 
ATOM      8  C6  UNL d   1      -4.817   0.302  -2.381  0.00  0.00    -0.082 A 
ATOM      9  C7  UNL d   1      -4.087  -0.343  -3.409  0.00  0.00     0.045 A 
ENDROOT
TORSDOF 0
ENDMDL
