MODEL 1
REMARK minimizedAffinity 7.34923697
REMARK minimizedRMSD -1
REMARK  0 active torsions:
REMARK  status: ('A' for Active; 'I' for Inactive)
ROOT
ATOM      1  C   UNL d   1      -3.454   0.792  -4.317  0.00  0.00    -0.002 A 
ATOM      2  C1  UNL d   1      -3.784   2.140  -4.321  0.00  0.00     0.010 A 
ATOM      3  C2  UNL d   1      -4.570   2.682  -3.302  0.00  0.00     0.041 A 
ATOM      4  C3  UNL d   1      -5.023   1.838  -2.269  0.00  0.00    -0.075 A 
ATOM      5  S   UNL d   1      -5.998   2.281  -0.917  0.00  0.00     0.015 SA
ATOM      6  C4  UNL d   1      -5.999   0.691  -0.303  0.00  0.00     0.022 A 
ATOM      7  C5  UNL d   1      -5.278  -0.169  -1.097  0.00  0.00     0.026 A 
ATOM      8  C6  UNL d   1      -4.704   0.478  -2.243  0.00  0.00    -0.082 A 
ATOM      9  C7  UNL d   1      -3.905  -0.041  -3.290  0.00  0.00     0.045 A 
ENDROOT
TORSDOF 0
ENDMDL
