MODEL 1
REMARK minimizedAffinity 10.7735529
REMARK minimizedRMSD -1
REMARK  0 active torsions:
REMARK  status: ('A' for Active; 'I' for Inactive)
ROOT
ATOM      1  C4' PXY d   1      -0.509   2.946  -4.048  0.00  0.00     0.077 C 
ATOM      2  C1' PXY d   1      -6.000   3.428  -5.791  0.00  0.00     0.077 C 
ATOM      3  C1  PXY d   1      -4.563   3.291  -5.326  0.00  0.00    -0.082 A 
ATOM      4  C2  PXY d   1      -3.759   4.341  -5.371  0.00  0.00     0.003 A 
ATOM      5  C3  PXY d   1      -2.448   4.227  -4.985  0.00  0.00     0.003 A 
ATOM      6  C4  PXY d   1      -1.970   3.040  -4.498  0.00  0.00    -0.082 A 
ATOM      7  C5  PXY d   1      -2.787   1.967  -4.439  0.00  0.00     0.003 A 
ATOM      8  C6  PXY d   1      -4.103   2.093  -4.875  0.00  0.00     0.003 A 
ENDROOT
TORSDOF 0
ENDMDL
