MODEL 1
REMARK minimizedAffinity 1.26663256
REMARK minimizedRMSD -1
REMARK  0 active torsions:
REMARK  status: ('A' for Active; 'I' for Inactive)
ROOT
ATOM      1  C4' PXY d   1       5.999  -6.000  -3.271  0.00  0.00     0.077 C 
ATOM      2  C1' PXY d   1       2.988  -3.609   1.046  0.00  0.00     0.077 C 
ATOM      3  C1  PXY d   1       3.786  -4.241  -0.078  0.00  0.00    -0.082 A 
ATOM      4  C2  PXY d   1       3.759  -3.700  -1.285  0.00  0.00     0.003 A 
ATOM      5  C3  PXY d   1       4.449  -4.277  -2.319  0.00  0.00     0.003 A 
ATOM      6  C4  PXY d   1       5.217  -5.390  -2.105  0.00  0.00    -0.082 A 
ATOM      7  C5  PXY d   1       5.258  -5.942  -0.874  0.00  0.00     0.003 A 
ATOM      8  C6  PXY d   1       4.518  -5.365   0.154  0.00  0.00     0.003 A 
ENDROOT
TORSDOF 0
ENDMDL
