MODEL 1
REMARK minimizedAffinity 13.0946531
REMARK minimizedRMSD -1
REMARK  0 active torsions:
REMARK  status: ('A' for Active; 'I' for Inactive)
ROOT
ATOM      1  C4' PXY d   1       4.493  -6.000   6.000  0.00  0.00     0.077 C 
ATOM      2  C1' PXY d   1       6.000  -1.884   2.231  0.00  0.00     0.077 C 
ATOM      3  C1  PXY d   1       5.596  -2.968   3.211  0.00  0.00    -0.082 A 
ATOM      4  C2  PXY d   1       5.819  -2.797   4.504  0.00  0.00     0.003 A 
ATOM      5  C3  PXY d   1       5.489  -3.780   5.401  0.00  0.00     0.003 A 
ATOM      6  C4  PXY d   1       4.876  -4.928   4.975  0.00  0.00    -0.082 A 
ATOM      7  C5  PXY d   1       4.635  -5.105   3.659  0.00  0.00     0.003 A 
ATOM      8  C6  PXY d   1       5.015  -4.113   2.760  0.00  0.00     0.003 A 
ENDROOT
TORSDOF 0
ENDMDL
