MODEL 1
REMARK minimizedAffinity 6.78506422
REMARK minimizedRMSD -1
REMARK  0 active torsions:
REMARK  status: ('A' for Active; 'I' for Inactive)
ROOT
ATOM      1  C4' PXY d   1       5.428  -3.643   4.721  0.00  0.00     0.077 C 
ATOM      2  C1' PXY d   1       2.856  -3.556  -0.455  0.00  0.00     0.077 C 
ATOM      3  C1  PXY d   1       3.529  -3.592   0.903  0.00  0.00    -0.082 A 
ATOM      4  C2  PXY d   1       3.505  -2.516   1.673  0.00  0.00     0.003 A 
ATOM      5  C3  PXY d   1       4.137  -2.521   2.891  0.00  0.00     0.003 A 
ATOM      6  C4  PXY d   1       4.753  -3.655   3.347  0.00  0.00    -0.082 A 
ATOM      7  C5  PXY d   1       4.773  -4.760   2.571  0.00  0.00     0.003 A 
ATOM      8  C6  PXY d   1       4.161  -4.722   1.321  0.00  0.00     0.003 A 
ENDROOT
TORSDOF 0
ENDMDL
