MODEL 1
REMARK minimizedAffinity -3.30376577
REMARK minimizedRMSD -1
REMARK  0 active torsions:
REMARK  status: ('A' for Active; 'I' for Inactive)
ROOT
ATOM      1  C4' PXY d   1       2.863   5.995  -6.000  0.00  0.00     0.077 C 
ATOM      2  C1' PXY d   1       5.963   1.116  -5.957  0.00  0.00     0.077 C 
ATOM      3  C1  PXY d   1       5.140   2.389  -5.973  0.00  0.00    -0.082 A 
ATOM      4  C2  PXY d   1       5.750   3.562  -5.978  0.00  0.00     0.003 A 
ATOM      5  C3  PXY d   1       5.021   4.724  -5.961  0.00  0.00     0.003 A 
ATOM      6  C4  PXY d   1       3.653   4.683  -5.993  0.00  0.00    -0.082 A 
ATOM      7  C5  PXY d   1       3.023   3.490  -5.999  0.00  0.00     0.003 A 
ATOM      8  C6  PXY d   1       3.781   2.322  -5.975  0.00  0.00     0.003 A 
ENDROOT
TORSDOF 0
ENDMDL
