MODEL 1
REMARK minimizedAffinity 15.3526506
REMARK minimizedRMSD -1
REMARK  0 active torsions:
REMARK  status: ('A' for Active; 'I' for Inactive)
ROOT
ATOM      1  C4' PXY d   1       5.498   4.912  -5.962  0.00  0.00     0.077 C 
ATOM      2  C1' PXY d   1       0.584   1.867  -5.952  0.00  0.00     0.077 C 
ATOM      3  C1  PXY d   1       1.879   2.656  -5.949  0.00  0.00    -0.082 A 
ATOM      4  C2  PXY d   1       1.840   3.978  -5.959  0.00  0.00     0.003 A 
ATOM      5  C3  PXY d   1       3.001   4.706  -5.989  0.00  0.00     0.003 A 
ATOM      6  C4  PXY d   1       4.215   4.075  -5.955  0.00  0.00    -0.082 A 
ATOM      7  C5  PXY d   1       4.264   2.726  -5.934  0.00  0.00     0.003 A 
ATOM      8  C6  PXY d   1       3.074   2.005  -5.946  0.00  0.00     0.003 A 
ENDROOT
TORSDOF 0
ENDMDL
