MODEL 1
REMARK minimizedAffinity 2.66173172
REMARK minimizedRMSD -1
REMARK  0 active torsions:
REMARK  status: ('A' for Active; 'I' for Inactive)
ROOT
ATOM      1  C4' PXY d   1       0.597   1.847  -5.892  0.00  0.00     0.077 C 
ATOM      2  C1' PXY d   1       5.846   4.266  -5.992  0.00  0.00     0.077 C 
ATOM      3  C1  PXY d   1       4.474   3.621  -5.971  0.00  0.00    -0.082 A 
ATOM      4  C2  PXY d   1       3.394   4.383  -5.917  0.00  0.00     0.003 A 
ATOM      5  C3  PXY d   1       2.147   3.815  -5.866  0.00  0.00     0.003 A 
ATOM      6  C4  PXY d   1       2.002   2.455  -5.924  0.00  0.00    -0.082 A 
ATOM      7  C5  PXY d   1       3.099   1.671  -5.990  0.00  0.00     0.003 A 
ATOM      8  C6  PXY d   1       4.357   2.265  -6.000  0.00  0.00     0.003 A 
ENDROOT
TORSDOF 0
ENDMDL
