MODEL 1
REMARK minimizedAffinity 6.5189147
REMARK minimizedRMSD -1
REMARK  0 active torsions:
REMARK  status: ('A' for Active; 'I' for Inactive)
ROOT
ATOM      1  C4' PXY d   1       5.514   5.040  -5.998  0.00  0.00     0.077 C 
ATOM      2  C1' PXY d   1       0.755   1.758  -5.967  0.00  0.00     0.077 C 
ATOM      3  C1  PXY d   1       1.997   2.629  -5.981  0.00  0.00    -0.082 A 
ATOM      4  C2  PXY d   1       3.193   2.062  -5.986  0.00  0.00     0.003 A 
ATOM      5  C3  PXY d   1       4.326   2.834  -5.966  0.00  0.00     0.003 A 
ATOM      6  C4  PXY d   1       4.234   4.200  -5.994  0.00  0.00    -0.082 A 
ATOM      7  C5  PXY d   1       3.017   4.785  -6.000  0.00  0.00     0.003 A 
ATOM      8  C6  PXY d   1       1.879   3.984  -5.979  0.00  0.00     0.003 A 
ENDROOT
TORSDOF 0
ENDMDL
