MODEL 1
REMARK minimizedAffinity 2.3893187
REMARK minimizedRMSD -1
REMARK  0 active torsions:
REMARK  status: ('A' for Active; 'I' for Inactive)
ROOT
ATOM      1  C4' PXY d   1       2.941   0.582  -5.989  0.00  0.00     0.077 C 
ATOM      2  C1' PXY d   1       5.029   5.968  -5.773  0.00  0.00     0.077 C 
ATOM      3  C1  PXY d   1       4.493   4.551  -5.834  0.00  0.00    -0.082 A 
ATOM      4  C2  PXY d   1       3.192   4.349  -5.966  0.00  0.00     0.003 A 
ATOM      5  C3  PXY d   1       2.687   3.075  -5.991  0.00  0.00     0.003 A 
ATOM      6  C4  PXY d   1       3.527   1.995  -5.933  0.00  0.00    -0.082 A 
ATOM      7  C5  PXY d   1       4.857   2.193  -5.808  0.00  0.00     0.003 A 
ATOM      8  C6  PXY d   1       5.346   3.495  -5.744  0.00  0.00     0.003 A 
ENDROOT
TORSDOF 0
ENDMDL
