MODEL 1
REMARK minimizedAffinity 5.59677458
REMARK minimizedRMSD -1
REMARK  0 active torsions:
REMARK  status: ('A' for Active; 'I' for Inactive)
ROOT
ATOM      1  C4' PXY d   1       4.470  -6.000   6.000  0.00  0.00     0.077 C 
ATOM      2  C1' PXY d   1       5.684  -1.900   2.110  0.00  0.00     0.077 C 
ATOM      3  C1  PXY d   1       5.375  -2.970   3.138  0.00  0.00    -0.082 A 
ATOM      4  C2  PXY d   1       4.850  -4.120   2.748  0.00  0.00     0.003 A 
ATOM      5  C3  PXY d   1       4.535  -5.087   3.668  0.00  0.00     0.003 A 
ATOM      6  C4  PXY d   1       4.807  -4.894   4.996  0.00  0.00    -0.082 A 
ATOM      7  C5  PXY d   1       5.352  -3.728   5.401  0.00  0.00     0.003 A 
ATOM      8  C6  PXY d   1       5.627  -2.743   4.456  0.00  0.00     0.003 A 
ENDROOT
TORSDOF 0
ENDMDL
