MODEL 1
REMARK minimizedAffinity 5.17990351
REMARK minimizedRMSD -1
REMARK  0 active torsions:
REMARK  status: ('A' for Active; 'I' for Inactive)
ROOT
ATOM      1  C4' PXY d   1       3.037  -2.980  -1.101  0.00  0.00     0.077 C 
ATOM      2  C1' PXY d   1       4.458  -4.027   4.403  0.00  0.00     0.077 C 
ATOM      3  C1  PXY d   1       4.072  -3.753   2.963  0.00  0.00    -0.082 A 
ATOM      4  C2  PXY d   1       4.908  -4.075   1.989  0.00  0.00     0.003 A 
ATOM      5  C3  PXY d   1       4.590  -3.805   0.684  0.00  0.00     0.003 A 
ATOM      6  C4  PXY d   1       3.380  -3.247   0.367  0.00  0.00    -0.082 A 
ATOM      7  C5  PXY d   1       2.517  -2.925   1.354  0.00  0.00     0.003 A 
ATOM      8  C6  PXY d   1       2.877  -3.170   2.676  0.00  0.00     0.003 A 
ENDROOT
TORSDOF 0
ENDMDL
