MODEL 1
REMARK minimizedAffinity 1.26520526
REMARK minimizedRMSD -1
REMARK  0 active torsions:
REMARK  status: ('A' for Active; 'I' for Inactive)
ROOT
ATOM      1  C4' PXY d   1       2.055   0.867  -5.969  0.00  0.00     0.077 C 
ATOM      2  C1' PXY d   1       4.715   6.000  -5.987  0.00  0.00     0.077 C 
ATOM      3  C1  PXY d   1       4.028   4.648  -5.988  0.00  0.00    -0.082 A 
ATOM      4  C2  PXY d   1       2.706   4.586  -5.978  0.00  0.00     0.003 A 
ATOM      5  C3  PXY d   1       2.069   3.373  -5.946  0.00  0.00     0.003 A 
ATOM      6  C4  PXY d   1       2.791   2.210  -5.978  0.00  0.00    -0.082 A 
ATOM      7  C5  PXY d   1       4.140   2.265  -5.999  0.00  0.00     0.003 A 
ATOM      8  C6  PXY d   1       4.768   3.507  -5.990  0.00  0.00     0.003 A 
ENDROOT
TORSDOF 0
ENDMDL
