MODEL 1
REMARK minimizedAffinity 11.8761396
REMARK minimizedRMSD -1
REMARK  0 active torsions:
REMARK  status: ('A' for Active; 'I' for Inactive)
ROOT
ATOM      1  C4' PXY d   1      -5.101   1.136   0.497  0.00  0.00     0.077 C 
ATOM      2  C1' PXY d   1      -4.160   2.637   5.999  0.00  0.00     0.077 C 
ATOM      3  C1  PXY d   1      -4.419   2.240   4.559  0.00  0.00    -0.082 A 
ATOM      4  C2  PXY d   1      -3.406   1.879   3.788  0.00  0.00     0.003 A 
ATOM      5  C3  PXY d   1      -3.619   1.548   2.475  0.00  0.00     0.003 A 
ATOM      6  C4  PXY d   1      -4.887   1.535   1.960  0.00  0.00    -0.082 A 
ATOM      7  C5  PXY d   1      -5.927   1.892   2.743  0.00  0.00     0.003 A 
ATOM      8  C6  PXY d   1      -5.685   2.265   4.062  0.00  0.00     0.003 A 
ENDROOT
TORSDOF 0
ENDMDL
