MODEL 1
REMARK minimizedAffinity -0.545911849
REMARK minimizedRMSD -1
REMARK  0 active torsions:
REMARK  status: ('A' for Active; 'I' for Inactive)
ROOT
ATOM      1  C4' PXY d   1      -1.471  -0.828   0.504  0.00  0.00     0.077 C 
ATOM      2  C1' PXY d   1       2.392   0.242  -3.661  0.00  0.00     0.077 C 
ATOM      3  C1  PXY d   1       1.388  -0.046  -2.562  0.00  0.00    -0.082 A 
ATOM      4  C2  PXY d   1       0.094  -0.023  -2.836  0.00  0.00     0.003 A 
ATOM      5  C3  PXY d   1      -0.829  -0.249  -1.847  0.00  0.00     0.003 A 
ATOM      6  C4  PXY d   1      -0.421  -0.554  -0.576  0.00  0.00    -0.082 A 
ATOM      7  C5  PXY d   1       0.897  -0.590  -0.291  0.00  0.00     0.003 A 
ATOM      8  C6  PXY d   1       1.817  -0.317  -1.299  0.00  0.00     0.003 A 
ENDROOT
TORSDOF 0
ENDMDL
