MODEL 1
REMARK minimizedAffinity -4.07583618
REMARK minimizedRMSD -1
REMARK  0 active torsions:
REMARK  status: ('A' for Active; 'I' for Inactive)
ROOT
ATOM      1  C4' PXY d   1       0.373  -0.679  -2.310  0.00  0.00     0.077 C 
ATOM      2  C1' PXY d   1      -0.872   1.521   2.889  0.00  0.00     0.077 C 
ATOM      3  C1  PXY d   1      -0.557   0.938   1.525  0.00  0.00    -0.082 A 
ATOM      4  C2  PXY d   1       0.703   0.754   1.168  0.00  0.00     0.003 A 
ATOM      5  C3  PXY d   1       1.007   0.258  -0.074  0.00  0.00     0.003 A 
ATOM      6  C4  PXY d   1       0.008  -0.102  -0.939  0.00  0.00    -0.082 A 
ATOM      7  C5  PXY d   1      -1.281   0.073  -0.578  0.00  0.00     0.003 A 
ATOM      8  C6  PXY d   1      -1.567   0.616   0.672  0.00  0.00     0.003 A 
ENDROOT
TORSDOF 0
ENDMDL
