MODEL 1
REMARK minimizedAffinity -3.60601354
REMARK minimizedRMSD -1
REMARK  0 active torsions:
REMARK  status: ('A' for Active; 'I' for Inactive)
ROOT
ATOM      1  C4' PXY d   1      -0.465   1.465   3.035  0.00  0.00     0.077 C 
ATOM      2  C1' PXY d   1       0.430  -1.017  -2.108  0.00  0.00     0.077 C 
ATOM      3  C1  PXY d   1       0.207  -0.371  -0.755  0.00  0.00    -0.082 A 
ATOM      4  C2  PXY d   1      -1.025  -0.104  -0.353  0.00  0.00     0.003 A 
ATOM      5  C3  PXY d   1      -1.243   0.509   0.854  0.00  0.00     0.003 A 
ATOM      6  C4  PXY d   1      -0.193   0.804   1.681  0.00  0.00    -0.082 A 
ATOM      7  C5  PXY d   1       1.066   0.526   1.282  0.00  0.00     0.003 A 
ATOM      8  C6  PXY d   1       1.269  -0.060   0.036  0.00  0.00     0.003 A 
ENDROOT
TORSDOF 0
ENDMDL
