MODEL 1
REMARK minimizedAffinity -2.03355432
REMARK minimizedRMSD -1
REMARK  0 active torsions:
REMARK  status: ('A' for Active; 'I' for Inactive)
ROOT
ATOM      1  C4' PXY d   1      -0.395   1.273   3.119  0.00  0.00     0.077 C 
ATOM      2  C1' PXY d   1       0.952  -0.723  -2.136  0.00  0.00     0.077 C 
ATOM      3  C1  PXY d   1       0.609  -0.207  -0.753  0.00  0.00    -0.082 A 
ATOM      4  C2  PXY d   1      -0.608   0.254  -0.510  0.00  0.00     0.003 A 
ATOM      5  C3  PXY d   1      -0.926   0.754   0.726  0.00  0.00     0.003 A 
ATOM      6  C4  PXY d   1      -0.006   0.733   1.740  0.00  0.00    -0.082 A 
ATOM      7  C5  PXY d   1       1.234   0.254   1.504  0.00  0.00     0.003 A 
ATOM      8  C6  PXY d   1       1.549  -0.211   0.230  0.00  0.00     0.003 A 
ENDROOT
TORSDOF 0
ENDMDL
