MODEL 1
REMARK minimizedAffinity -3.43859124
REMARK minimizedRMSD -1
REMARK  0 active torsions:
REMARK  status: ('A' for Active; 'I' for Inactive)
ROOT
ATOM      1  C4' PXY d   1       0.889  -1.047  -1.809  0.00  0.00     0.077 C 
ATOM      2  C1' PXY d   1      -0.478   1.744   3.066  0.00  0.00     0.077 C 
ATOM      3  C1  PXY d   1      -0.107   1.016   1.789  0.00  0.00    -0.082 A 
ATOM      4  C2  PXY d   1      -1.036   0.782   0.876  0.00  0.00     0.003 A 
ATOM      5  C3  PXY d   1      -0.725   0.096  -0.270  0.00  0.00     0.003 A 
ATOM      6  C4  PXY d   1       0.562  -0.306  -0.509  0.00  0.00    -0.082 A 
ATOM      7  C5  PXY d   1       1.517  -0.061   0.413  0.00  0.00     0.003 A 
ATOM      8  C6  PXY d   1       1.173   0.599   1.588  0.00  0.00     0.003 A 
ENDROOT
TORSDOF 0
ENDMDL
