MODEL 1
REMARK minimizedAffinity -1.05748379
REMARK minimizedRMSD -1
REMARK  0 active torsions:
REMARK  status: ('A' for Active; 'I' for Inactive)
ROOT
ATOM      1  C4' PXY d   1      -1.808  -0.245   2.991  0.00  0.00     0.077 C 
ATOM      2  C1' PXY d   1       0.856   0.180  -2.122  0.00  0.00     0.077 C 
ATOM      3  C1  PXY d   1       0.169   0.068  -0.775  0.00  0.00    -0.082 A 
ATOM      4  C2  PXY d   1      -1.070  -0.392  -0.709  0.00  0.00     0.003 A 
ATOM      5  C3  PXY d   1      -1.718  -0.470   0.497  0.00  0.00     0.003 A 
ATOM      6  C4  PXY d   1      -1.072  -0.124   1.654  0.00  0.00    -0.082 A 
ATOM      7  C5  PXY d   1       0.196   0.336   1.596  0.00  0.00     0.003 A 
ATOM      8  C6  PXY d   1       0.821   0.446   0.357  0.00  0.00     0.003 A 
ENDROOT
TORSDOF 0
ENDMDL
