MODEL 1
REMARK minimizedAffinity -3.02260447
REMARK minimizedRMSD -1
REMARK  0 active torsions:
REMARK  status: ('A' for Active; 'I' for Inactive)
ROOT
ATOM      1  C4' PXY d   1      -0.856   1.479   2.713  0.00  0.00     0.077 C 
ATOM      2  C1' PXY d   1       0.830  -0.908  -2.275  0.00  0.00     0.077 C 
ATOM      3  C1  PXY d   1       0.377  -0.277  -0.973  0.00  0.00    -0.082 A 
ATOM      4  C2  PXY d   1       1.270   0.004  -0.037  0.00  0.00     0.003 A 
ATOM      5  C3  PXY d   1       0.874   0.545   1.159  0.00  0.00     0.003 A 
ATOM      6  C4  PXY d   1      -0.443   0.851   1.379  0.00  0.00    -0.082 A 
ATOM      7  C5  PXY d   1      -1.358   0.577   0.425  0.00  0.00     0.003 A 
ATOM      8  C6  PXY d   1      -0.941  -0.010  -0.766  0.00  0.00     0.003 A 
ENDROOT
TORSDOF 0
ENDMDL
