MODEL 1
REMARK minimizedAffinity -3.7969327
REMARK minimizedRMSD -1
REMARK  0 active torsions:
REMARK  status: ('A' for Active; 'I' for Inactive)
ROOT
ATOM      1  C4' PXY d   1      -0.068   1.329   2.819  0.00  0.00     0.077 C 
ATOM      2  C1' PXY d   1       0.700  -0.989  -2.420  0.00  0.00     0.077 C 
ATOM      3  C1  PXY d   1       0.507  -0.390  -1.041  0.00  0.00    -0.082 A 
ATOM      4  C2  PXY d   1      -0.615   0.252  -0.757  0.00  0.00     0.003 A 
ATOM      5  C3  PXY d   1      -0.793   0.828   0.474  0.00  0.00     0.003 A 
ATOM      6  C4  PXY d   1       0.166   0.700   1.443  0.00  0.00    -0.082 A 
ATOM      7  C5  PXY d   1       1.309   0.038   1.166  0.00  0.00     0.003 A 
ATOM      8  C6  PXY d   1       1.487  -0.504  -0.104  0.00  0.00     0.003 A 
ENDROOT
TORSDOF 0
ENDMDL
