MODEL 1
REMARK minimizedAffinity -5.37543535
REMARK minimizedRMSD -1
REMARK  0 active torsions:
REMARK  status: ('A' for Active; 'I' for Inactive)
ROOT
ATOM      1  C4' PXY d   1      -1.313   0.758   2.976  0.00  0.00     0.077 C 
ATOM      2  C1' PXY d   1       0.500  -0.838  -2.276  0.00  0.00     0.077 C 
ATOM      3  C1  PXY d   1       0.014  -0.414  -0.904  0.00  0.00    -0.082 A 
ATOM      4  C2  PXY d   1       0.882  -0.286   0.086  0.00  0.00     0.003 A 
ATOM      5  C3  PXY d   1       0.455   0.065   1.341  0.00  0.00     0.003 A 
ATOM      6  C4  PXY d   1      -0.866   0.341   1.572  0.00  0.00    -0.082 A 
ATOM      7  C5  PXY d   1      -1.756   0.223   0.564  0.00  0.00     0.003 A 
ATOM      8  C6  PXY d   1      -1.309  -0.175  -0.693  0.00  0.00     0.003 A 
ENDROOT
TORSDOF 0
ENDMDL
