MODEL 1
REMARK minimizedAffinity -3.50753307
REMARK minimizedRMSD -1
REMARK  0 active torsions:
REMARK  status: ('A' for Active; 'I' for Inactive)
ROOT
ATOM      1  C4' PXY d   1       1.955  -0.666   1.185  0.00  0.00     0.077 C 
ATOM      2  C1' PXY d   1      -3.508   0.947   0.204  0.00  0.00     0.077 C 
ATOM      3  C1  PXY d   1      -2.076   0.516   0.451  0.00  0.00    -0.082 A 
ATOM      4  C2  PXY d   1      -1.556   0.637   1.662  0.00  0.00     0.003 A 
ATOM      5  C3  PXY d   1      -0.253   0.282   1.895  0.00  0.00     0.003 A 
ATOM      6  C4  PXY d   1       0.510  -0.252   0.892  0.00  0.00    -0.082 A 
ATOM      7  C5  PXY d   1      -0.016  -0.389  -0.344  0.00  0.00     0.003 A 
ATOM      8  C6  PXY d   1      -1.328   0.016  -0.570  0.00  0.00     0.003 A 
ENDROOT
TORSDOF 0
ENDMDL
