MODEL 1
REMARK minimizedAffinity -2.38981199
REMARK minimizedRMSD -1
REMARK  0 active torsions:
REMARK  status: ('A' for Active; 'I' for Inactive)
ROOT
ATOM      1  C4' PXY d   1      -1.857  -0.890  -5.652  0.00  0.00     0.077 C 
ATOM      2  C1' PXY d   1       3.176   0.553  -3.204  0.00  0.00     0.077 C 
ATOM      3  C1  PXY d   1       1.856   0.164  -3.839  0.00  0.00    -0.082 A 
ATOM      4  C2  PXY d   1       1.518   0.676  -5.011  0.00  0.00     0.003 A 
ATOM      5  C3  PXY d   1       0.313   0.359  -5.585  0.00  0.00     0.003 A 
ATOM      6  C4  PXY d   1      -0.530  -0.533  -4.978  0.00  0.00    -0.082 A 
ATOM      7  C5  PXY d   1      -0.187  -1.068  -3.787  0.00  0.00     0.003 A 
ATOM      8  C6  PXY d   1       1.022  -0.702  -3.202  0.00  0.00     0.003 A 
ENDROOT
TORSDOF 0
ENDMDL
