MODEL 1
REMARK minimizedAffinity -3.48238611
REMARK minimizedRMSD -1
REMARK  0 active torsions:
REMARK  status: ('A' for Active; 'I' for Inactive)
ROOT
ATOM      1  C4' PXY d   1      -3.657  -0.645   3.165  0.00  0.00     0.077 C 
ATOM      2  C1' PXY d   1       0.693   0.677  -0.405  0.00  0.00     0.077 C 
ATOM      3  C1  PXY d   1      -0.440   0.334   0.541  0.00  0.00    -0.082 A 
ATOM      4  C2  PXY d   1      -1.386  -0.505   0.152  0.00  0.00     0.003 A 
ATOM      5  C3  PXY d   1      -2.435  -0.802   0.983  0.00  0.00     0.003 A 
ATOM      6  C4  PXY d   1      -2.489  -0.276   2.246  0.00  0.00    -0.082 A 
ATOM      7  C5  PXY d   1      -1.522   0.572   2.655  0.00  0.00     0.003 A 
ATOM      8  C6  PXY d   1      -0.487   0.893   1.781  0.00  0.00     0.003 A 
ENDROOT
TORSDOF 0
ENDMDL
