MODEL 1
REMARK minimizedAffinity -3.72340679
REMARK minimizedRMSD -1
REMARK  0 active torsions:
REMARK  status: ('A' for Active; 'I' for Inactive)
ROOT
ATOM      1  C4' PXY d   1      -0.147  -0.983  -1.835  0.00  0.00     0.077 C 
ATOM      2  C1' PXY d   1      -0.659   1.756   3.230  0.00  0.00     0.077 C 
ATOM      3  C1  PXY d   1      -0.536   1.031   1.904  0.00  0.00    -0.082 A 
ATOM      4  C2  PXY d   1       0.643   0.956   1.307  0.00  0.00     0.003 A 
ATOM      5  C3  PXY d   1       0.766   0.332   0.092  0.00  0.00     0.003 A 
ATOM      6  C4  PXY d   1      -0.317  -0.269  -0.491  0.00  0.00    -0.082 A 
ATOM      7  C5  PXY d   1      -1.521  -0.206   0.117  0.00  0.00     0.003 A 
ATOM      8  C6  PXY d   1      -1.633   0.468   1.330  0.00  0.00     0.003 A 
ENDROOT
TORSDOF 0
ENDMDL
