MODEL 1
REMARK minimizedAffinity -1.53052187
REMARK minimizedRMSD -1
REMARK  0 active torsions:
REMARK  status: ('A' for Active; 'I' for Inactive)
ROOT
ATOM      1  C4' PXY d   1      -3.008  -1.159   3.156  0.00  0.00     0.077 C 
ATOM      2  C1' PXY d   1       1.451   1.822   0.997  0.00  0.00     0.077 C 
ATOM      3  C1  PXY d   1       0.276   1.039   1.551  0.00  0.00    -0.082 A 
ATOM      4  C2  PXY d   1      -0.065   1.183   2.822  0.00  0.00     0.003 A 
ATOM      5  C3  PXY d   1      -1.104   0.459   3.347  0.00  0.00     0.003 A 
ATOM      6  C4  PXY d   1      -1.835  -0.382   2.551  0.00  0.00    -0.082 A 
ATOM      7  C5  PXY d   1      -1.499  -0.526   1.252  0.00  0.00     0.003 A 
ATOM      8  C6  PXY d   1      -0.416   0.187   0.748  0.00  0.00     0.003 A 
ENDROOT
TORSDOF 0
ENDMDL
