MODEL 1
REMARK minimizedAffinity -4.82793951
REMARK minimizedRMSD -1
REMARK  1 active torsions:
REMARK  status: ('A' for Active; 'I' for Inactive)
REMARK    1  A    between atoms: C1_2  and  C2_3 
ROOT
ATOM      1  C2  UNL d   1      -0.026   0.438  -0.315  0.00  0.00    -0.073 A 
ATOM      2  C3  UNL d   1       0.858  -0.561  -0.738  0.00  0.00    -0.002 A 
ATOM      3  C4  UNL d   1       0.736  -1.863  -0.250  0.00  0.00     0.004 A 
ATOM      4  C5  UNL d   1      -0.273  -2.180   0.660  0.00  0.00    -0.004 A 
ATOM      5  C6  UNL d   1      -1.173  -1.197   1.086  0.00  0.00    -0.075 A 
ATOM      6  C7  UNL d   1      -2.263  -1.522   2.065  0.00  0.00     0.076 C 
ATOM      7  C8  UNL d   1      -1.043   0.108   0.593  0.00  0.00     0.001 A 
ENDROOT
BRANCH   1   8
ATOM      8  C1  UNL d   1       0.098   1.844  -0.844  0.00  0.00     0.053 C 
ATOM      9  C   UNL d   1       1.312   2.009  -1.744  0.00  0.00     0.018 C 
ENDBRANCH   1   8
TORSDOF 1
ENDMDL
