MODEL 1
REMARK minimizedAffinity -3.72440171
REMARK minimizedRMSD -1
REMARK  1 active torsions:
REMARK  status: ('A' for Active; 'I' for Inactive)
REMARK    1  A    between atoms: C1_2  and  C2_3 
ROOT
ATOM      1  C2  UNL d   1       1.025   1.870  -1.228  0.00  0.00    -0.073 A 
ATOM      2  C3  UNL d   1       0.138   2.506  -2.105  0.00  0.00    -0.002 A 
ATOM      3  C4  UNL d   1       0.574   2.938  -3.358  0.00  0.00     0.004 A 
ATOM      4  C5  UNL d   1       1.896   2.733  -3.751  0.00  0.00    -0.004 A 
ATOM      5  C6  UNL d   1       2.795   2.089  -2.894  0.00  0.00    -0.075 A 
ATOM      6  C7  UNL d   1       4.221   1.862  -3.300  0.00  0.00     0.076 C 
ATOM      7  C8  UNL d   1       2.350   1.660  -1.636  0.00  0.00     0.001 A 
ENDROOT
BRANCH   1   8
ATOM      8  C1  UNL d   1       0.558   1.396   0.124  0.00  0.00     0.053 C 
ATOM      9  C   UNL d   1       0.197  -0.081   0.117  0.00  0.00     0.018 C 
ENDBRANCH   1   8
TORSDOF 1
ENDMDL
