MODEL 1
REMARK minimizedAffinity -4.90007401
REMARK minimizedRMSD -1
REMARK  1 active torsions:
REMARK  status: ('A' for Active; 'I' for Inactive)
REMARK    1  A    between atoms: C1_2  and  C2_3 
ROOT
ATOM      1  C2  UNL d   1       0.260   0.506   0.018  0.00  0.00    -0.073 A 
ATOM      2  C3  UNL d   1      -0.832   0.981   0.754  0.00  0.00    -0.002 A 
ATOM      3  C4  UNL d   1      -1.527   0.129   1.613  0.00  0.00     0.004 A 
ATOM      4  C5  UNL d   1      -1.135  -1.202   1.750  0.00  0.00    -0.004 A 
ATOM      5  C6  UNL d   1      -0.039  -1.693   1.032  0.00  0.00    -0.075 A 
ATOM      6  C7  UNL d   1       0.394  -3.123   1.166  0.00  0.00     0.076 C 
ATOM      7  C8  UNL d   1       0.652  -0.832   0.169  0.00  0.00     0.001 A 
ENDROOT
BRANCH   1   8
ATOM      8  C1  UNL d   1       1.017   1.424  -0.907  0.00  0.00     0.053 C 
ATOM      9  C   UNL d   1       0.278   1.653  -2.215  0.00  0.00     0.018 C 
ENDBRANCH   1   8
TORSDOF 1
ENDMDL
