MODEL 1
REMARK minimizedAffinity -3.42912269
REMARK minimizedRMSD -1
REMARK  1 active torsions:
REMARK  status: ('A' for Active; 'I' for Inactive)
REMARK    1  A    between atoms: C1_2  and  C2_3 
ROOT
ATOM      1  C2  UNL d   1      -0.350  -0.387   0.033  0.00  0.00    -0.073 A 
ATOM      2  C3  UNL d   1       0.032  -1.730   0.125  0.00  0.00    -0.002 A 
ATOM      3  C4  UNL d   1      -0.575  -2.573   1.057  0.00  0.00     0.004 A 
ATOM      4  C5  UNL d   1      -1.573  -2.085   1.900  0.00  0.00    -0.004 A 
ATOM      5  C6  UNL d   1      -1.976  -0.748   1.816  0.00  0.00    -0.075 A 
ATOM      6  C7  UNL d   1      -3.046  -0.207   2.717  0.00  0.00     0.076 C 
ATOM      7  C8  UNL d   1      -1.360   0.093   0.879  0.00  0.00     0.001 A 
ENDROOT
BRANCH   1   8
ATOM      8  C1  UNL d   1       0.298   0.526  -0.976  0.00  0.00     0.053 C 
ATOM      9  C   UNL d   1       0.649   1.879  -0.379  0.00  0.00     0.018 C 
ENDBRANCH   1   8
TORSDOF 1
ENDMDL
