MODEL 1
REMARK minimizedAffinity -2.85260034
REMARK minimizedRMSD -1
REMARK  1 active torsions:
REMARK  status: ('A' for Active; 'I' for Inactive)
REMARK    1  A    between atoms: C1_2  and  C2_3 
ROOT
ATOM      1  C2  UNL d   1       0.057   0.140  -0.460  0.00  0.00    -0.073 A 
ATOM      2  C3  UNL d   1      -0.521  -0.633  -1.474  0.00  0.00    -0.002 A 
ATOM      3  C4  UNL d   1      -1.171  -1.829  -1.165  0.00  0.00     0.004 A 
ATOM      4  C5  UNL d   1      -1.255  -2.260   0.158  0.00  0.00    -0.004 A 
ATOM      5  C6  UNL d   1      -0.694  -1.496   1.187  0.00  0.00    -0.075 A 
ATOM      6  C7  UNL d   1      -0.774  -1.948   2.615  0.00  0.00     0.076 C 
ATOM      7  C8  UNL d   1      -0.041  -0.298   0.868  0.00  0.00     0.001 A 
ENDROOT
BRANCH   1   8
ATOM      8  C1  UNL d   1       0.754   1.435  -0.788  0.00  0.00     0.053 C 
ATOM      9  C   UNL d   1       0.342   1.976  -2.148  0.00  0.00     0.018 C 
ENDBRANCH   1   8
TORSDOF 1
ENDMDL
