MODEL 1
REMARK minimizedAffinity -3.11430502
REMARK minimizedRMSD -1
REMARK  1 active torsions:
REMARK  status: ('A' for Active; 'I' for Inactive)
REMARK    1  A    between atoms: C1_2  and  C2_3 
ROOT
ATOM      1  C2  UNL d   1      -0.057  -0.318   0.127  0.00  0.00    -0.073 A 
ATOM      2  C3  UNL d   1       0.484  -1.606   0.207  0.00  0.00    -0.002 A 
ATOM      3  C4  UNL d   1      -0.036  -2.534   1.110  0.00  0.00     0.004 A 
ATOM      4  C5  UNL d   1      -1.106  -2.188   1.935  0.00  0.00    -0.004 A 
ATOM      5  C6  UNL d   1      -1.668  -0.909   1.861  0.00  0.00    -0.075 A 
ATOM      6  C7  UNL d   1      -2.818  -0.520   2.744  0.00  0.00     0.076 C 
ATOM      7  C8  UNL d   1      -1.138   0.019   0.955  0.00  0.00     0.001 A 
ENDROOT
BRANCH   1   8
ATOM      8  C1  UNL d   1       0.497   0.686  -0.850  0.00  0.00     0.053 C 
ATOM      9  C   UNL d   1      -0.158   0.573  -2.217  0.00  0.00     0.018 C 
ENDBRANCH   1   8
TORSDOF 1
ENDMDL
