MODEL 1
REMARK minimizedAffinity -5.50679445
REMARK minimizedRMSD -1
REMARK  1 active torsions:
REMARK  status: ('A' for Active; 'I' for Inactive)
REMARK    1  A    between atoms: C1_2  and  C2_3 
ROOT
ATOM      1  C2  UNL d   1       0.580   1.009  -1.604  0.00  0.00    -0.073 A 
ATOM      2  C3  UNL d   1       0.125   1.859  -0.590  0.00  0.00    -0.002 A 
ATOM      3  C4  UNL d   1      -0.285   1.336   0.637  0.00  0.00     0.004 A 
ATOM      4  C5  UNL d   1      -0.237  -0.039   0.865  0.00  0.00    -0.004 A 
ATOM      5  C6  UNL d   1       0.226  -0.904  -0.132  0.00  0.00    -0.075 A 
ATOM      6  C7  UNL d   1       0.282  -2.386   0.097  0.00  0.00     0.076 C 
ATOM      7  C8  UNL d   1       0.634  -0.371  -1.362  0.00  0.00     0.001 A 
ENDROOT
BRANCH   1   8
ATOM      8  C1  UNL d   1       1.030   1.570  -2.929  0.00  0.00     0.053 C 
ATOM      9  C   UNL d   1       0.036   2.575  -3.489  0.00  0.00     0.018 C 
ENDBRANCH   1   8
TORSDOF 1
ENDMDL
