MODEL 1
REMARK minimizedAffinity -4.70248413
REMARK minimizedRMSD -1
REMARK  1 active torsions:
REMARK  status: ('A' for Active; 'I' for Inactive)
REMARK    1  A    between atoms: C1_2  and  C2_3 
ROOT
ATOM      1  C2  UNL d   1      -0.240  -0.435  -0.542  0.00  0.00    -0.073 A 
ATOM      2  C3  UNL d   1       0.064   0.382   0.552  0.00  0.00    -0.002 A 
ATOM      3  C4  UNL d   1       0.566   1.669   0.354  0.00  0.00     0.004 A 
ATOM      4  C5  UNL d   1       0.764   2.153  -0.939  0.00  0.00    -0.004 A 
ATOM      5  C6  UNL d   1       0.456   1.356  -2.046  0.00  0.00    -0.075 A 
ATOM      6  C7  UNL d   1       0.665   1.861  -3.444  0.00  0.00     0.076 C 
ATOM      7  C8  UNL d   1      -0.046   0.064  -1.838  0.00  0.00     0.001 A 
ENDROOT
BRANCH   1   8
ATOM      8  C1  UNL d   1      -0.789  -1.822  -0.333  0.00  0.00     0.053 C 
ATOM      9  C   UNL d   1      -0.714  -2.251   1.124  0.00  0.00     0.018 C 
ENDBRANCH   1   8
TORSDOF 1
ENDMDL
