MODEL 1
REMARK minimizedAffinity -5.31074476
REMARK minimizedRMSD -1
REMARK  1 active torsions:
REMARK  status: ('A' for Active; 'I' for Inactive)
REMARK    1  A    between atoms: C1_2  and  C2_3 
ROOT
ATOM      1  C2  UNL d   1       0.460  -0.057  -0.605  0.00  0.00    -0.073 A 
ATOM      2  C3  UNL d   1      -0.503  -0.491  -1.522  0.00  0.00    -0.002 A 
ATOM      3  C4  UNL d   1      -1.301  -1.599  -1.236  0.00  0.00     0.004 A 
ATOM      4  C5  UNL d   1      -1.148  -2.281  -0.028  0.00  0.00    -0.004 A 
ATOM      5  C6  UNL d   1      -0.198  -1.855   0.906  0.00  0.00    -0.075 A 
ATOM      6  C7  UNL d   1      -0.020  -2.579   2.209  0.00  0.00     0.076 C 
ATOM      7  C8  UNL d   1       0.601  -0.743   0.610  0.00  0.00     0.001 A 
ENDROOT
BRANCH   1   8
ATOM      8  C1  UNL d   1       1.319   1.144  -0.907  0.00  0.00     0.053 C 
ATOM      9  C   UNL d   1       1.289   1.509  -2.383  0.00  0.00     0.018 C 
ENDBRANCH   1   8
TORSDOF 1
ENDMDL
