MODEL 1
REMARK minimizedAffinity 6.19427252
REMARK minimizedRMSD -1
REMARK  2 active torsions:
REMARK  status: ('A' for Active; 'I' for Inactive)
REMARK    1  A    between atoms: C2'_3  and  C1'_4 
REMARK    2  A    between atoms: C1'_4  and  C1_5 
ROOT
ATOM      1  C1  I4B d   1       3.100  -0.602  -0.732  0.00  0.00    -0.075 A 
ATOM      2  C2  I4B d   1       2.528  -1.293  -1.771  0.00  0.00     0.003 A 
ATOM      3  C3  I4B d   1       1.909  -2.545  -1.540  0.00  0.00     0.002 A 
ATOM      4  C4  I4B d   1       1.928  -3.088  -0.271  0.00  0.00    -0.004 A 
ATOM      5  C5  I4B d   1       2.487  -2.376   0.785  0.00  0.00     0.002 A 
ATOM      6  C6  I4B d   1       3.066  -1.119   0.557  0.00  0.00     0.003 A 
ENDROOT
BRANCH   1   7
ATOM      7  C1' I4B d   1       3.774   0.702  -1.018  0.00  0.00     0.060 C 
BRANCH   7   8
ATOM      8  C2' I4B d   1       4.676   1.028   0.155  0.00  0.00    -0.013 C 
ATOM      9  C4' I4B d   1       6.000   0.320   0.039  0.00  0.00     0.013 C 
ATOM     10  C3' I4B d   1       4.860   2.516   0.198  0.00  0.00     0.013 C 
ENDBRANCH   7   8
ENDBRANCH   1   7
TORSDOF 2
ENDMDL
