MODEL 1
REMARK minimizedAffinity 8.76832199
REMARK minimizedRMSD -1
REMARK  2 active torsions:
REMARK  status: ('A' for Active; 'I' for Inactive)
REMARK    1  A    between atoms: C2'_3  and  C1'_4 
REMARK    2  A    between atoms: C1'_4  and  C1_5 
ROOT
ATOM      1  C1  I4B d   1      -1.497   0.614  -1.858  0.00  0.00    -0.075 A 
ATOM      2  C2  I4B d   1      -1.465   0.943  -3.191  0.00  0.00     0.003 A 
ATOM      3  C3  I4B d   1      -2.580   0.668  -4.019  0.00  0.00     0.002 A 
ATOM      4  C4  I4B d   1      -3.678   0.023  -3.489  0.00  0.00    -0.004 A 
ATOM      5  C5  I4B d   1      -3.718  -0.289  -2.133  0.00  0.00     0.002 A 
ATOM      6  C6  I4B d   1      -2.626   0.020  -1.310  0.00  0.00     0.003 A 
ENDROOT
BRANCH   1   7
ATOM      7  C1' I4B d   1      -0.290   0.889  -1.019  0.00  0.00     0.060 C 
BRANCH   7   8
ATOM      8  C2' I4B d   1      -0.762   1.260   0.371  0.00  0.00    -0.013 C 
ATOM      9  C4' I4B d   1      -0.157   0.357   1.413  0.00  0.00     0.013 C 
ATOM     10  C3' I4B d   1      -0.394   2.693   0.618  0.00  0.00     0.013 C 
ENDBRANCH   7   8
ENDBRANCH   1   7
TORSDOF 2
ENDMDL
