MODEL 1
REMARK minimizedAffinity 9.47459412
REMARK minimizedRMSD -1
REMARK  2 active torsions:
REMARK  status: ('A' for Active; 'I' for Inactive)
REMARK    1  A    between atoms: C2'_3  and  C1'_4 
REMARK    2  A    between atoms: C1'_4  and  C1_5 
ROOT
ATOM      1  C1  I4B d   1       3.378  -0.934  -1.274  0.00  0.00    -0.075 A 
ATOM      2  C2  I4B d   1       2.658  -2.005  -0.808  0.00  0.00     0.003 A 
ATOM      3  C3  I4B d   1       2.565  -3.190  -1.578  0.00  0.00     0.002 A 
ATOM      4  C4  I4B d   1       3.161  -3.241  -2.821  0.00  0.00    -0.004 A 
ATOM      5  C5  I4B d   1       3.911  -2.163  -3.281  0.00  0.00     0.002 A 
ATOM      6  C6  I4B d   1       4.031  -1.006  -2.498  0.00  0.00     0.003 A 
ENDROOT
BRANCH   1   7
ATOM      7  C1' I4B d   1       3.429   0.314  -0.450  0.00  0.00     0.060 C 
BRANCH   7   8
ATOM      8  C2' I4B d   1       4.837   0.868  -0.528  0.00  0.00    -0.013 C 
ATOM      9  C4' I4B d   1       5.021   2.024   0.421  0.00  0.00     0.013 C 
ATOM     10  C3' I4B d   1       5.791  -0.246  -0.216  0.00  0.00     0.013 C 
ENDBRANCH   7   8
ENDBRANCH   1   7
TORSDOF 2
ENDMDL
