MODEL 1
REMARK minimizedAffinity 2.07548785
REMARK minimizedRMSD -1
REMARK  2 active torsions:
REMARK  status: ('A' for Active; 'I' for Inactive)
REMARK    1  A    between atoms: C2'_3  and  C1'_4 
REMARK    2  A    between atoms: C1'_4  and  C1_5 
ROOT
ATOM      1  C1  I4B d   1       1.972  -2.115  -0.463  0.00  0.00    -0.075 A 
ATOM      2  C2  I4B d   1       1.144  -1.684  -1.469  0.00  0.00     0.003 A 
ATOM      3  C3  I4B d   1       0.010  -2.449  -1.835  0.00  0.00     0.002 A 
ATOM      4  C4  I4B d   1      -0.228  -3.655  -1.208  0.00  0.00    -0.004 A 
ATOM      5  C5  I4B d   1       0.600  -4.079  -0.172  0.00  0.00     0.002 A 
ATOM      6  C6  I4B d   1       1.700  -3.298   0.211  0.00  0.00     0.003 A 
ENDROOT
BRANCH   1   7
ATOM      7  C1' I4B d   1       3.179  -1.299  -0.124  0.00  0.00     0.060 C 
BRANCH   7   8
ATOM      8  C2' I4B d   1       2.953   0.107  -0.643  0.00  0.00    -0.013 C 
ATOM      9  C4' I4B d   1       2.052   0.889   0.277  0.00  0.00     0.013 C 
ATOM     10  C3' I4B d   1       4.290   0.770  -0.783  0.00  0.00     0.013 C 
ENDBRANCH   7   8
ENDBRANCH   1   7
TORSDOF 2
ENDMDL
