MODEL 1
REMARK minimizedAffinity 13.2050238
REMARK minimizedRMSD -1
REMARK  0 active torsions:
REMARK  status: ('A' for Active; 'I' for Inactive)
ROOT
ATOM      1  O1  BZF d   1      -5.204   2.368   3.338  0.00  0.00    -0.204 OA
ATOM      2  C2  BZF d   1      -5.583   2.706   2.053  0.00  0.00     0.174 A 
ATOM      3  C3  BZF d   1      -5.999   3.988   1.999  0.00  0.00    -0.012 A 
ATOM      4  C3A BZF d   1      -5.785   4.509   3.314  0.00  0.00    -0.107 A 
ATOM      5  C4  BZF d   1      -5.989   5.734   3.883  0.00  0.00     0.055 A 
ATOM      6  C5  BZF d   1      -5.745   5.894   5.210  0.00  0.00    -0.016 A 
ATOM      7  C6  BZF d   1      -5.303   4.852   5.998  0.00  0.00     0.022 A 
ATOM      8  C7  BZF d   1      -5.082   3.620   5.478  0.00  0.00     0.029 A 
ATOM      9  C7A BZF d   1      -5.296   3.463   4.130  0.00  0.00     0.058 A 
ENDROOT
TORSDOF 0
ENDMDL
