MODEL 1
REMARK minimizedAffinity 16.8805466
REMARK minimizedRMSD -1
REMARK  0 active torsions:
REMARK  status: ('A' for Active; 'I' for Inactive)
ROOT
ATOM      1  O1  BZF d   1       3.155   3.465  -5.659  0.00  0.00    -0.204 OA
ATOM      2  C2  BZF d   1       4.461   3.774  -5.987  0.00  0.00     0.174 A 
ATOM      3  C3  BZF d   1       5.227   2.664  -6.000  0.00  0.00    -0.012 A 
ATOM      4  C3A BZF d   1       4.325   1.582  -5.750  0.00  0.00    -0.107 A 
ATOM      5  C4  BZF d   1       4.484   0.228  -5.658  0.00  0.00     0.055 A 
ATOM      6  C5  BZF d   1       3.414  -0.542  -5.331  0.00  0.00    -0.016 A 
ATOM      7  C6  BZF d   1       2.172   0.007  -5.084  0.00  0.00     0.022 A 
ATOM      8  C7  BZF d   1       1.964   1.343  -5.168  0.00  0.00     0.029 A 
ATOM      9  C7A BZF d   1       3.036   2.121  -5.531  0.00  0.00     0.058 A 
ENDROOT
TORSDOF 0
ENDMDL
