MODEL 1
REMARK minimizedAffinity 2.87549186
REMARK minimizedRMSD -1
REMARK  0 active torsions:
REMARK  status: ('A' for Active; 'I' for Inactive)
ROOT
ATOM      1  O1  BZF d   1       4.328  -5.989   5.931  0.00  0.00    -0.204 OA
ATOM      2  C2  BZF d   1       5.695  -5.973   5.732  0.00  0.00     0.174 A 
ATOM      3  C3  BZF d   1       5.987  -6.000   4.416  0.00  0.00    -0.012 A 
ATOM      4  C3A BZF d   1       4.723  -5.941   3.748  0.00  0.00    -0.107 A 
ATOM      5  C4  BZF d   1       4.356  -5.919   2.433  0.00  0.00     0.055 A 
ATOM      6  C5  BZF d   1       3.035  -5.935   2.116  0.00  0.00    -0.016 A 
ATOM      7  C6  BZF d   1       2.055  -5.977   3.086  0.00  0.00     0.022 A 
ATOM      8  C7  BZF d   1       2.371  -5.995   4.404  0.00  0.00     0.029 A 
ATOM      9  C7A BZF d   1       3.704  -5.946   4.729  0.00  0.00     0.058 A 
ENDROOT
TORSDOF 0
ENDMDL
