MODEL 1
REMARK minimizedAffinity 12.3783865
REMARK minimizedRMSD -1
REMARK  0 active torsions:
REMARK  status: ('A' for Active; 'I' for Inactive)
ROOT
ATOM      1  O1  BZF d   1      -5.876   4.147   2.933  0.00  0.00    -0.204 OA
ATOM      2  C2  BZF d   1      -4.833   3.657   2.172  0.00  0.00     0.174 A 
ATOM      3  C3  BZF d   1      -3.645   4.005   2.708  0.00  0.00    -0.012 A 
ATOM      4  C3A BZF d   1      -3.966   4.681   3.927  0.00  0.00    -0.107 A 
ATOM      5  C4  BZF d   1      -3.210   5.249   4.913  0.00  0.00     0.055 A 
ATOM      6  C5  BZF d   1      -3.833   5.893   5.935  0.00  0.00    -0.016 A 
ATOM      7  C6  BZF d   1      -5.208   5.992   6.000  0.00  0.00     0.022 A 
ATOM      8  C7  BZF d   1      -5.999   5.440   5.048  0.00  0.00     0.029 A 
ATOM      9  C7A BZF d   1      -5.374   4.761   4.032  0.00  0.00     0.058 A 
ENDROOT
TORSDOF 0
ENDMDL
