MODEL 1
REMARK minimizedAffinity 20.3483601
REMARK minimizedRMSD -1
REMARK  0 active torsions:
REMARK  status: ('A' for Active; 'I' for Inactive)
ROOT
ATOM      1  O1  BZF d   1      -4.152   3.355   1.382  0.00  0.00    -0.204 OA
ATOM      2  C2  BZF d   1      -3.420   4.168   2.227  0.00  0.00     0.174 A 
ATOM      3  C3  BZF d   1      -2.237   3.598   2.533  0.00  0.00    -0.012 A 
ATOM      4  C3A BZF d   1      -2.189   2.394   1.762  0.00  0.00    -0.107 A 
ATOM      5  C4  BZF d   1      -1.258   1.404   1.623  0.00  0.00     0.055 A 
ATOM      6  C5  BZF d   1      -1.549   0.328   0.846  0.00  0.00    -0.016 A 
ATOM      7  C6  BZF d   1      -2.761   0.206   0.199  0.00  0.00     0.022 A 
ATOM      8  C7  BZF d   1      -3.714   1.164   0.303  0.00  0.00     0.029 A 
ATOM      9  C7A BZF d   1      -3.410   2.269   1.060  0.00  0.00     0.058 A 
ENDROOT
TORSDOF 0
ENDMDL
