MODEL 1
REMARK minimizedAffinity 8.85764313
REMARK minimizedRMSD -1
REMARK  0 active torsions:
REMARK  status: ('A' for Active; 'I' for Inactive)
ROOT
ATOM      1  O1  BZF d   1      -1.158  -3.016  -5.976  0.00  0.00    -0.204 OA
ATOM      2  C2  BZF d   1      -2.401  -3.620  -6.000  0.00  0.00     0.174 A 
ATOM      3  C3  BZF d   1      -3.382  -2.696  -5.958  0.00  0.00    -0.012 A 
ATOM      4  C3A BZF d   1      -2.712  -1.432  -5.998  0.00  0.00    -0.107 A 
ATOM      5  C4  BZF d   1      -3.147  -0.138  -6.000  0.00  0.00     0.055 A 
ATOM      6  C5  BZF d   1      -2.232   0.866  -5.970  0.00  0.00    -0.016 A 
ATOM      7  C6  BZF d   1      -0.877   0.613  -5.934  0.00  0.00     0.022 A 
ATOM      8  C7  BZF d   1      -0.397  -0.654  -5.936  0.00  0.00     0.029 A 
ATOM      9  C7A BZF d   1      -1.318  -1.671  -5.999  0.00  0.00     0.058 A 
ENDROOT
TORSDOF 0
ENDMDL
