MODEL 1
REMARK minimizedAffinity 6.03642511
REMARK minimizedRMSD -1
REMARK  0 active torsions:
REMARK  status: ('A' for Active; 'I' for Inactive)
ROOT
ATOM      1  O1  BZF d   1      -1.023   2.845   2.156  0.00  0.00    -0.204 OA
ATOM      2  C2  BZF d   1      -2.394   2.775   2.007  0.00  0.00     0.174 A 
ATOM      3  C3  BZF d   1      -2.840   1.528   2.262  0.00  0.00    -0.012 A 
ATOM      4  C3A BZF d   1      -1.686   0.795   2.682  0.00  0.00    -0.107 A 
ATOM      5  C4  BZF d   1      -1.489  -0.495   3.087  0.00  0.00     0.055 A 
ATOM      6  C5  BZF d   1      -0.226  -0.916   3.359  0.00  0.00    -0.016 A 
ATOM      7  C6  BZF d   1       0.862  -0.078   3.231  0.00  0.00     0.022 A 
ATOM      8  C7  BZF d   1       0.716   1.211   2.837  0.00  0.00     0.029 A 
ATOM      9  C7A BZF d   1      -0.563   1.649   2.594  0.00  0.00     0.058 A 
ENDROOT
TORSDOF 0
ENDMDL
