MODEL 1
REMARK minimizedAffinity 6.38761473
REMARK minimizedRMSD -1
REMARK  0 active torsions:
REMARK  status: ('A' for Active; 'I' for Inactive)
ROOT
ATOM      1  O1  BZF d   1      -3.622  -3.935  -6.000  0.00  0.00    -0.204 OA
ATOM      2  C2  BZF d   1      -4.779  -3.385  -5.483  0.00  0.00     0.174 A 
ATOM      3  C3  BZF d   1      -4.511  -2.244  -4.816  0.00  0.00    -0.012 A 
ATOM      4  C3A BZF d   1      -3.110  -2.021  -5.001  0.00  0.00    -0.107 A 
ATOM      5  C4  BZF d   1      -2.253  -1.039  -4.592  0.00  0.00     0.055 A 
ATOM      6  C5  BZF d   1      -0.930  -1.155  -4.879  0.00  0.00    -0.016 A 
ATOM      7  C6  BZF d   1      -0.429  -2.239  -5.569  0.00  0.00     0.022 A 
ATOM      8  C7  BZF d   1      -1.240  -3.236  -6.000  0.00  0.00     0.029 A 
ATOM      9  C7A BZF d   1      -2.583  -3.106  -5.740  0.00  0.00     0.058 A 
ENDROOT
TORSDOF 0
ENDMDL
