MODEL 1
REMARK minimizedAffinity 4.64689779
REMARK minimizedRMSD -1
REMARK  0 active torsions:
REMARK  status: ('A' for Active; 'I' for Inactive)
ROOT
ATOM      1  O1  BZF d   1       1.558   0.143   3.150  0.00  0.00    -0.204 OA
ATOM      2  C2  BZF d   1       0.385   0.804   2.842  0.00  0.00     0.174 A 
ATOM      3  C3  BZF d   1       0.523   1.519   1.706  0.00  0.00    -0.012 A 
ATOM      4  C3A BZF d   1       1.837   1.216   1.229  0.00  0.00    -0.107 A 
ATOM      5  C4  BZF d   1       2.551   1.608   0.133  0.00  0.00     0.055 A 
ATOM      6  C5  BZF d   1       3.837   1.189  -0.003  0.00  0.00    -0.016 A 
ATOM      7  C6  BZF d   1       4.441   0.383   0.940  0.00  0.00     0.022 A 
ATOM      8  C7  BZF d   1       3.771  -0.036   2.041  0.00  0.00     0.029 A 
ATOM      9  C7A BZF d   1       2.461   0.359   2.164  0.00  0.00     0.058 A 
ENDROOT
TORSDOF 0
ENDMDL
