MODEL 1
REMARK minimizedAffinity 14.1554127
REMARK minimizedRMSD -1
REMARK  0 active torsions:
REMARK  status: ('A' for Active; 'I' for Inactive)
ROOT
ATOM      1  O1  BZF d   1      -3.547   3.100   2.931  0.00  0.00    -0.204 OA
ATOM      2  C2  BZF d   1      -4.903   3.118   2.664  0.00  0.00     0.174 A 
ATOM      3  C3  BZF d   1      -5.269   2.019   1.973  0.00  0.00    -0.012 A 
ATOM      4  C3A BZF d   1      -4.084   1.223   1.878  0.00  0.00    -0.107 A 
ATOM      5  C4  BZF d   1      -3.813   0.006   1.319  0.00  0.00     0.055 A 
ATOM      6  C5  BZF d   1      -2.536  -0.458   1.335  0.00  0.00    -0.016 A 
ATOM      7  C6  BZF d   1      -1.506   0.270   1.894  0.00  0.00     0.022 A 
ATOM      8  C7  BZF d   1      -1.726   1.479   2.464  0.00  0.00     0.029 A 
ATOM      9  C7A BZF d   1      -3.022   1.936   2.480  0.00  0.00     0.058 A 
ENDROOT
TORSDOF 0
ENDMDL
