MODEL 1
REMARK minimizedAffinity 13.0671196
REMARK minimizedRMSD -1
REMARK  0 active torsions:
REMARK  status: ('A' for Active; 'I' for Inactive)
ROOT
ATOM      1  O1  BZF d   1      -2.839  -0.115   2.433  0.00  0.00    -0.204 OA
ATOM      2  C2  BZF d   1      -3.370   0.984   1.785  0.00  0.00     0.174 A 
ATOM      3  C3  BZF d   1      -2.412   1.900   1.534  0.00  0.00    -0.012 A 
ATOM      4  C3A BZF d   1      -1.191   1.299   1.976  0.00  0.00    -0.107 A 
ATOM      5  C4  BZF d   1       0.111   1.710   1.978  0.00  0.00     0.055 A 
ATOM      6  C5  BZF d   1       1.054   0.916   2.548  0.00  0.00    -0.016 A 
ATOM      7  C6  BZF d   1       0.730  -0.293   3.130  0.00  0.00     0.022 A 
ATOM      8  C7  BZF d   1      -0.547  -0.746   3.148  0.00  0.00     0.029 A 
ATOM      9  C7A BZF d   1      -1.498   0.040   2.543  0.00  0.00     0.058 A 
ENDROOT
TORSDOF 0
ENDMDL
