MODEL 1
REMARK minimizedAffinity 14.3548374
REMARK minimizedRMSD -1
REMARK  0 active torsions:
REMARK  status: ('A' for Active; 'I' for Inactive)
ROOT
ATOM      1  O1  BZF d   1       5.622  -2.279   2.443  0.00  0.00    -0.204 OA
ATOM      2  C2  BZF d   1       5.663  -0.959   2.847  0.00  0.00     0.174 A 
ATOM      3  C3  BZF d   1       5.752  -0.872   4.190  0.00  0.00    -0.012 A 
ATOM      4  C3A BZF d   1       5.861  -2.223   4.648  0.00  0.00    -0.107 A 
ATOM      5  C4  BZF d   1       5.995  -2.788   5.884  0.00  0.00     0.055 A 
ATOM      6  C5  BZF d   1       5.999  -4.142   5.995  0.00  0.00    -0.016 A 
ATOM      7  C6  BZF d   1       5.867  -4.961   4.893  0.00  0.00     0.022 A 
ATOM      8  C7  BZF d   1       5.737  -4.448   3.645  0.00  0.00     0.029 A 
ATOM      9  C7A BZF d   1       5.765  -3.080   3.527  0.00  0.00     0.058 A 
ENDROOT
TORSDOF 0
ENDMDL
