MODEL 1
REMARK minimizedAffinity 16.8597126
REMARK minimizedRMSD -1
REMARK  0 active torsions:
REMARK  status: ('A' for Active; 'I' for Inactive)
ROOT
ATOM      1  O1  BZF d   1      -4.093  -2.323   5.799  0.00  0.00    -0.204 OA
ATOM      2  C2  BZF d   1      -3.536  -1.075   6.000  0.00  0.00     0.174 A 
ATOM      3  C3  BZF d   1      -3.759  -0.275   4.937  0.00  0.00    -0.012 A 
ATOM      4  C3A BZF d   1      -4.580  -1.044   4.053  0.00  0.00    -0.107 A 
ATOM      5  C4  BZF d   1      -5.146  -0.789   2.837  0.00  0.00     0.055 A 
ATOM      6  C5  BZF d   1      -5.831  -1.779   2.206  0.00  0.00    -0.016 A 
ATOM      7  C6  BZF d   1      -5.965  -3.035   2.760  0.00  0.00     0.022 A 
ATOM      8  C7  BZF d   1      -5.426  -3.335   3.967  0.00  0.00     0.029 A 
ATOM      9  C7A BZF d   1      -4.761  -2.327   4.621  0.00  0.00     0.058 A 
ENDROOT
TORSDOF 0
ENDMDL
