MODEL 1
REMARK minimizedAffinity 7.5783639
REMARK minimizedRMSD -1
REMARK  0 active torsions:
REMARK  status: ('A' for Active; 'I' for Inactive)
ROOT
ATOM      1  O1  BZF d   1      -1.220   1.528   1.799  0.00  0.00    -0.204 OA
ATOM      2  C2  BZF d   1      -0.768   0.247   2.052  0.00  0.00     0.174 A 
ATOM      3  C3  BZF d   1      -1.803  -0.608   2.185  0.00  0.00    -0.012 A 
ATOM      4  C3A BZF d   1      -2.972   0.171   1.913  0.00  0.00    -0.107 A 
ATOM      5  C4  BZF d   1      -4.305  -0.120   1.873  0.00  0.00     0.055 A 
ATOM      6  C5  BZF d   1      -5.194   0.884   1.649  0.00  0.00    -0.016 A 
ATOM      7  C6  BZF d   1      -4.784   2.188   1.465  0.00  0.00     0.022 A 
ATOM      8  C7  BZF d   1      -3.472   2.525   1.491  0.00  0.00     0.029 A 
ATOM      9  C7A BZF d   1      -2.569   1.507   1.685  0.00  0.00     0.058 A 
ENDROOT
TORSDOF 0
ENDMDL
