MODEL 1
REMARK minimizedAffinity 21.6591625
REMARK minimizedRMSD -1
REMARK  0 active torsions:
REMARK  status: ('A' for Active; 'I' for Inactive)
ROOT
ATOM      1  O1  BZF d   1      -2.280   1.883   2.261  0.00  0.00    -0.204 OA
ATOM      2  C2  BZF d   1      -2.757   0.626   1.939  0.00  0.00     0.174 A 
ATOM      3  C3  BZF d   1      -1.818  -0.314   2.166  0.00  0.00    -0.012 A 
ATOM      4  C3A BZF d   1      -0.715   0.387   2.747  0.00  0.00    -0.107 A 
ATOM      5  C4  BZF d   1       0.511  -0.004   3.205  0.00  0.00     0.055 A 
ATOM      6  C5  BZF d   1       1.383   0.940   3.645  0.00  0.00    -0.016 A 
ATOM      7  C6  BZF d   1       1.066   2.282   3.637  0.00  0.00     0.022 A 
ATOM      8  C7  BZF d   1      -0.139   2.718   3.197  0.00  0.00     0.029 A 
ATOM      9  C7A BZF d   1      -1.036   1.764   2.782  0.00  0.00     0.058 A 
ENDROOT
TORSDOF 0
ENDMDL
