MODEL 1
REMARK minimizedAffinity 21.4312286
REMARK minimizedRMSD -1
REMARK  0 active torsions:
REMARK  status: ('A' for Active; 'I' for Inactive)
ROOT
ATOM      1  O1  BZF d   1      -4.654  -0.550   2.350  0.00  0.00    -0.204 OA
ATOM      2  C2  BZF d   1      -3.736   0.483   2.368  0.00  0.00     0.174 A 
ATOM      3  C3  BZF d   1      -3.105   0.540   3.559  0.00  0.00    -0.012 A 
ATOM      4  C3A BZF d   1      -3.597  -0.581   4.300  0.00  0.00    -0.107 A 
ATOM      5  C4  BZF d   1      -3.334  -1.070   5.548  0.00  0.00     0.055 A 
ATOM      6  C5  BZF d   1      -4.039  -2.141   5.999  0.00  0.00    -0.016 A 
ATOM      7  C6  BZF d   1      -5.015  -2.743   5.233  0.00  0.00     0.022 A 
ATOM      8  C7  BZF d   1      -5.307  -2.297   3.987  0.00  0.00     0.029 A 
ATOM      9  C7A BZF d   1      -4.574  -1.236   3.515  0.00  0.00     0.058 A 
ENDROOT
TORSDOF 0
ENDMDL
