MODEL 1
REMARK minimizedAffinity -1.22827077
REMARK minimizedRMSD -1
REMARK  0 active torsions:
REMARK  status: ('A' for Active; 'I' for Inactive)
ROOT
ATOM      1  O1  BZF d   1       5.743  -3.980   5.810  0.00  0.00    -0.204 OA
ATOM      2  C2  BZF d   1       6.000  -5.325   5.995  0.00  0.00     0.174 A 
ATOM      3  C3  BZF d   1       5.894  -5.996   4.830  0.00  0.00    -0.012 A 
ATOM      4  C3A BZF d   1       5.640  -4.995   3.840  0.00  0.00    -0.107 A 
ATOM      5  C4  BZF d   1       5.456  -5.037   2.488  0.00  0.00     0.055 A 
ATOM      6  C5  BZF d   1       5.156  -3.888   1.826  0.00  0.00    -0.016 A 
ATOM      7  C6  BZF d   1       5.028  -2.683   2.485  0.00  0.00     0.022 A 
ATOM      8  C7  BZF d   1       5.206  -2.591   3.825  0.00  0.00     0.029 A 
ATOM      9  C7A BZF d   1       5.542  -3.743   4.492  0.00  0.00     0.058 A 
ENDROOT
TORSDOF 0
ENDMDL
