MODEL 1
REMARK minimizedAffinity 16.9585724
REMARK minimizedRMSD -1
REMARK  0 active torsions:
REMARK  status: ('A' for Active; 'I' for Inactive)
ROOT
ATOM      1  O1  BZF d   1      -2.360  -3.302   0.218  0.00  0.00    -0.204 OA
ATOM      2  C2  BZF d   1      -3.711  -3.546   0.060  0.00  0.00     0.174 A 
ATOM      3  C3  BZF d   1      -4.444  -2.577   0.646  0.00  0.00    -0.012 A 
ATOM      4  C3A BZF d   1      -3.491  -1.623   1.125  0.00  0.00    -0.107 A 
ATOM      5  C4  BZF d   1      -3.605  -0.431   1.782  0.00  0.00     0.055 A 
ATOM      6  C5  BZF d   1      -2.477   0.219   2.172  0.00  0.00    -0.016 A 
ATOM      7  C6  BZF d   1      -1.221  -0.296   1.926  0.00  0.00     0.022 A 
ATOM      8  C7  BZF d   1      -1.057  -1.472   1.273  0.00  0.00     0.029 A 
ATOM      9  C7A BZF d   1      -2.194  -2.115   0.849  0.00  0.00     0.058 A 
ENDROOT
TORSDOF 0
ENDMDL
