MODEL 1
REMARK minimizedAffinity -6.97082376
REMARK minimizedRMSD -1
REMARK  1 active torsions:
REMARK  status: ('A' for Active; 'I' for Inactive)
REMARK    1  A    between atoms: C1_2  and  C2_3 
ROOT
ATOM      1  C2  UNL d   1      -1.694  -1.421   0.143  0.00  0.00    -0.073 A 
ATOM      2  C3  UNL d   1      -2.330  -0.817  -0.947  0.00  0.00    -0.002 A 
ATOM      3  C4  UNL d   1      -1.658   0.133  -1.717  0.00  0.00     0.004 A 
ATOM      4  C5  UNL d   1      -0.343   0.483  -1.410  0.00  0.00    -0.004 A 
ATOM      5  C6  UNL d   1       0.313  -0.119  -0.332  0.00  0.00    -0.075 A 
ATOM      6  C7  UNL d   1       1.727   0.248   0.012  0.00  0.00     0.076 C 
ATOM      7  C8  UNL d   1      -0.369  -1.070   0.438  0.00  0.00     0.001 A 
ENDROOT
BRANCH   1   8
ATOM      8  C1  UNL d   1      -2.413  -2.452   0.974  0.00  0.00     0.053 C 
ATOM      9  C   UNL d   1      -1.452  -3.447   1.606  0.00  0.00     0.018 C 
ENDBRANCH   1   8
TORSDOF 1
ENDMDL
