MODEL 1
REMARK minimizedAffinity -4.45040703
REMARK minimizedRMSD -1
REMARK  1 active torsions:
REMARK  status: ('A' for Active; 'I' for Inactive)
REMARK    1  A    between atoms: C1_2  and  C2_3 
ROOT
ATOM      1  C2  UNL d   1       1.423   0.360  -0.004  0.00  0.00    -0.073 A 
ATOM      2  C3  UNL d   1       0.551   0.571  -1.079  0.00  0.00    -0.002 A 
ATOM      3  C4  UNL d   1      -0.697  -0.054  -1.107  0.00  0.00     0.004 A 
ATOM      4  C5  UNL d   1      -1.088  -0.888  -0.061  0.00  0.00    -0.004 A 
ATOM      5  C6  UNL d   1      -0.236  -1.101   1.028  0.00  0.00    -0.075 A 
ATOM      6  C7  UNL d   1      -0.641  -1.998   2.161  0.00  0.00     0.076 C 
ATOM      7  C8  UNL d   1       1.016  -0.473   1.048  0.00  0.00     0.001 A 
ENDROOT
BRANCH   1   8
ATOM      8  C1  UNL d   1       2.768   1.038   0.034  0.00  0.00     0.053 C 
ATOM      9  C   UNL d   1       2.765   2.262   0.935  0.00  0.00     0.018 C 
ENDBRANCH   1   8
TORSDOF 1
ENDMDL
