MODEL 1
REMARK minimizedAffinity -5.29231977
REMARK minimizedRMSD -1
REMARK  1 active torsions:
REMARK  status: ('A' for Active; 'I' for Inactive)
REMARK    1  A    between atoms: C1_2  and  C2_3 
ROOT
ATOM      1  C2  UNL d   1       1.131   0.062   0.325  0.00  0.00    -0.073 A 
ATOM      2  C3  UNL d   1       1.417  -1.108   1.037  0.00  0.00    -0.002 A 
ATOM      3  C4  UNL d   1       0.385  -1.949   1.456  0.00  0.00     0.004 A 
ATOM      4  C5  UNL d   1      -0.941  -1.632   1.161  0.00  0.00    -0.004 A 
ATOM      5  C6  UNL d   1      -1.246  -0.473   0.440  0.00  0.00    -0.075 A 
ATOM      6  C7  UNL d   1      -2.668  -0.117   0.117  0.00  0.00     0.076 C 
ATOM      7  C8  UNL d   1      -0.204   0.367   0.026  0.00  0.00     0.001 A 
ENDROOT
BRANCH   1   8
ATOM      8  C1  UNL d   1       2.243   0.969  -0.134  0.00  0.00     0.053 C 
ATOM      9  C   UNL d   1       2.198   2.322   0.559  0.00  0.00     0.018 C 
ENDBRANCH   1   8
TORSDOF 1
ENDMDL
