MODEL 1
REMARK minimizedAffinity -3.8361218
REMARK minimizedRMSD -1
REMARK  1 active torsions:
REMARK  status: ('A' for Active; 'I' for Inactive)
REMARK    1  A    between atoms: C1_2  and  C2_3 
ROOT
ATOM      1  C2  UNL d   1       0.499   0.817   0.795  0.00  0.00    -0.073 A 
ATOM      2  C3  UNL d   1       1.111   0.321  -0.361  0.00  0.00    -0.002 A 
ATOM      3  C4  UNL d   1       0.355  -0.340  -1.330  0.00  0.00     0.004 A 
ATOM      4  C5  UNL d   1      -1.019  -0.505  -1.157  0.00  0.00    -0.004 A 
ATOM      5  C6  UNL d   1      -1.651  -0.007  -0.013  0.00  0.00    -0.075 A 
ATOM      6  C7  UNL d   1      -3.128  -0.179   0.190  0.00  0.00     0.076 C 
ATOM      7  C8  UNL d   1      -0.885   0.654   0.957  0.00  0.00     0.001 A 
ENDROOT
BRANCH   1   8
ATOM      8  C1  UNL d   1       1.310   1.538   1.842  0.00  0.00     0.053 C 
ATOM      9  C   UNL d   1       2.026   2.752   1.272  0.00  0.00     0.018 C 
ENDBRANCH   1   8
TORSDOF 1
ENDMDL
