MODEL 1
REMARK minimizedAffinity -5.31691694
REMARK minimizedRMSD -1
REMARK  1 active torsions:
REMARK  status: ('A' for Active; 'I' for Inactive)
REMARK    1  A    between atoms: C1_2  and  C2_3 
ROOT
ATOM      1  C2  UNL d   1       0.206   0.182  -0.290  0.00  0.00    -0.073 A 
ATOM      2  C3  UNL d   1       0.086   0.746  -1.566  0.00  0.00    -0.002 A 
ATOM      3  C4  UNL d   1      -1.139   0.725  -2.233  0.00  0.00     0.004 A 
ATOM      4  C5  UNL d   1      -2.257   0.149  -1.630  0.00  0.00    -0.004 A 
ATOM      5  C6  UNL d   1      -2.160  -0.409  -0.351  0.00  0.00    -0.075 A 
ATOM      6  C7  UNL d   1      -3.353  -1.035   0.310  0.00  0.00     0.076 C 
ATOM      7  C8  UNL d   1      -0.925  -0.387   0.311  0.00  0.00     0.001 A 
ENDROOT
BRANCH   1   8
ATOM      8  C1  UNL d   1       1.526   0.207   0.437  0.00  0.00     0.053 C 
ATOM      9  C   UNL d   1       1.887   1.604   0.915  0.00  0.00     0.018 C 
ENDBRANCH   1   8
TORSDOF 1
ENDMDL
