MODEL 1
REMARK minimizedAffinity -4.43398476
REMARK minimizedRMSD -1
REMARK  1 active torsions:
REMARK  status: ('A' for Active; 'I' for Inactive)
REMARK    1  A    between atoms: C1_2  and  C2_3 
ROOT
ATOM      1  C2  UNL d   1       3.834   3.379  -2.153  0.00  0.00    -0.073 A 
ATOM      2  C3  UNL d   1       3.953   4.472  -1.287  0.00  0.00    -0.002 A 
ATOM      3  C4  UNL d   1       3.358   4.441  -0.026  0.00  0.00     0.004 A 
ATOM      4  C5  UNL d   1       2.643   3.315   0.386  0.00  0.00    -0.004 A 
ATOM      5  C6  UNL d   1       2.522   2.208  -0.461  0.00  0.00    -0.075 A 
ATOM      6  C7  UNL d   1       1.755   0.991  -0.034  0.00  0.00     0.076 C 
ATOM      7  C8  UNL d   1       3.121   2.249  -1.727  0.00  0.00     0.001 A 
ENDROOT
BRANCH   1   8
ATOM      8  C1  UNL d   1       4.480   3.405  -3.514  0.00  0.00     0.053 C 
ATOM      9  C   UNL d   1       5.998   3.419  -3.423  0.00  0.00     0.018 C 
ENDBRANCH   1   8
TORSDOF 1
ENDMDL
