MODEL 1
REMARK minimizedAffinity -3.73493743
REMARK minimizedRMSD -1
REMARK  1 active torsions:
REMARK  status: ('A' for Active; 'I' for Inactive)
REMARK    1  A    between atoms: C1_2  and  C2_3 
ROOT
ATOM      1  C2  UNL d   1       2.221   1.439  -0.034  0.00  0.00    -0.073 A 
ATOM      2  C3  UNL d   1       2.222   1.763   1.327  0.00  0.00    -0.002 A 
ATOM      3  C4  UNL d   1       2.570   3.048   1.745  0.00  0.00     0.004 A 
ATOM      4  C5  UNL d   1       2.915   4.022   0.808  0.00  0.00    -0.004 A 
ATOM      5  C6  UNL d   1       2.908   3.721  -0.558  0.00  0.00    -0.075 A 
ATOM      6  C7  UNL d   1       3.278   4.756  -1.578  0.00  0.00     0.076 C 
ATOM      7  C8  UNL d   1       2.560   2.427  -0.970  0.00  0.00     0.001 A 
ENDROOT
BRANCH   1   8
ATOM      8  C1  UNL d   1       1.840   0.054  -0.491  0.00  0.00     0.053 C 
ATOM      9  C   UNL d   1       0.332  -0.135  -0.536  0.00  0.00     0.018 C 
ENDBRANCH   1   8
TORSDOF 1
ENDMDL
