MODEL 1
REMARK minimizedAffinity -4.18960714
REMARK minimizedRMSD -1
REMARK  1 active torsions:
REMARK  status: ('A' for Active; 'I' for Inactive)
REMARK    1  A    between atoms: C1_2  and  C2_3 
ROOT
ATOM      1  C2  UNL d   1       3.014   3.519  -0.765  0.00  0.00    -0.073 A 
ATOM      2  C3  UNL d   1       3.051   3.942   0.569  0.00  0.00    -0.002 A 
ATOM      3  C4  UNL d   1       2.384   3.218   1.557  0.00  0.00     0.004 A 
ATOM      4  C5  UNL d   1       1.679   2.061   1.225  0.00  0.00    -0.004 A 
ATOM      5  C6  UNL d   1       1.640   1.615  -0.100  0.00  0.00    -0.075 A 
ATOM      6  C7  UNL d   1       0.885   0.374  -0.474  0.00  0.00     0.076 C 
ATOM      7  C8  UNL d   1       2.311   2.349  -1.088  0.00  0.00     0.001 A 
ENDROOT
BRANCH   1   8
ATOM      8  C1  UNL d   1       3.738   4.294  -1.835  0.00  0.00     0.053 C 
ATOM      9  C   UNL d   1       4.347   3.381  -2.887  0.00  0.00     0.018 C 
ENDBRANCH   1   8
TORSDOF 1
ENDMDL
