MODEL 1
REMARK minimizedAffinity -2.95961523
REMARK minimizedRMSD -1
REMARK  1 active torsions:
REMARK  status: ('A' for Active; 'I' for Inactive)
REMARK    1  A    between atoms: C1_2  and  C2_3 
ROOT
ATOM      1  C2  UNL d   1       4.132   3.608  -1.139  0.00  0.00    -0.073 A 
ATOM      2  C3  UNL d   1       4.084   2.227  -1.359  0.00  0.00    -0.002 A 
ATOM      3  C4  UNL d   1       3.300   1.410  -0.542  0.00  0.00     0.004 A 
ATOM      4  C5  UNL d   1       2.552   1.966   0.496  0.00  0.00    -0.004 A 
ATOM      5  C6  UNL d   1       2.579   3.346   0.724  0.00  0.00    -0.075 A 
ATOM      6  C7  UNL d   1       1.782   3.959   1.838  0.00  0.00     0.076 C 
ATOM      7  C8  UNL d   1       3.370   4.159  -0.098  0.00  0.00     0.001 A 
ENDROOT
BRANCH   1   8
ATOM      8  C1  UNL d   1       4.972   4.494  -2.022  0.00  0.00     0.053 C 
ATOM      9  C   UNL d   1       5.913   3.691  -2.906  0.00  0.00     0.018 C 
ENDBRANCH   1   8
TORSDOF 1
ENDMDL
