MODEL 1
REMARK minimizedAffinity -4.97059584
REMARK minimizedRMSD -1
REMARK  1 active torsions:
REMARK  status: ('A' for Active; 'I' for Inactive)
REMARK    1  A    between atoms: C1_2  and  C2_3 
ROOT
ATOM      1  C2  UNL d   1       1.424   0.773  -0.151  0.00  0.00    -0.073 A 
ATOM      2  C3  UNL d   1       0.328   0.809  -1.021  0.00  0.00    -0.002 A 
ATOM      3  C4  UNL d   1      -0.643  -0.192  -0.975  0.00  0.00     0.004 A 
ATOM      4  C5  UNL d   1      -0.532  -1.235  -0.055  0.00  0.00    -0.004 A 
ATOM      5  C6  UNL d   1       0.549  -1.283   0.830  0.00  0.00    -0.075 A 
ATOM      6  C7  UNL d   1       0.684  -2.399   1.824  0.00  0.00     0.076 C 
ATOM      7  C8  UNL d   1       1.521  -0.275   0.776  0.00  0.00     0.001 A 
ENDROOT
BRANCH   1   8
ATOM      8  C1  UNL d   1       2.471   1.855  -0.193  0.00  0.00     0.053 C 
ATOM      9  C   UNL d   1       2.698   2.483   1.173  0.00  0.00     0.018 C 
ENDBRANCH   1   8
TORSDOF 1
ENDMDL
