MODEL 1
REMARK minimizedAffinity -5.18022871
REMARK minimizedRMSD -1
REMARK  1 active torsions:
REMARK  status: ('A' for Active; 'I' for Inactive)
REMARK    1  A    between atoms: C1_2  and  C2_3 
ROOT
ATOM      1  C2  UNL d   1       2.958   3.618  -0.869  0.00  0.00    -0.073 A 
ATOM      2  C3  UNL d   1       3.102   4.175   0.407  0.00  0.00    -0.002 A 
ATOM      3  C4  UNL d   1       2.574   3.525   1.524  0.00  0.00     0.004 A 
ATOM      4  C5  UNL d   1       1.904   2.310   1.377  0.00  0.00    -0.004 A 
ATOM      5  C6  UNL d   1       1.761   1.731   0.112  0.00  0.00    -0.075 A 
ATOM      6  C7  UNL d   1       1.041   0.426  -0.063  0.00  0.00     0.076 C 
ATOM      7  C8  UNL d   1       2.291   2.392  -1.005  0.00  0.00     0.001 A 
ENDROOT
BRANCH   1   8
ATOM      8  C1  UNL d   1       3.532   4.313  -2.076  0.00  0.00     0.053 C 
ATOM      9  C   UNL d   1       4.745   3.584  -2.630  0.00  0.00     0.018 C 
ENDBRANCH   1   8
TORSDOF 1
ENDMDL
