MODEL 1
REMARK minimizedAffinity -4.09426117
REMARK minimizedRMSD -1
REMARK  0 active torsions:
REMARK  status: ('A' for Active; 'I' for Inactive)
ROOT
ATOM      1  O1  BZF d   1       0.996  -1.524   2.048  0.00  0.00    -0.204 OA
ATOM      2  C2  BZF d   1      -0.021  -0.879   2.725  0.00  0.00     0.174 A 
ATOM      3  C3  BZF d   1      -0.705  -0.062   1.897  0.00  0.00    -0.012 A 
ATOM      4  C3A BZF d   1      -0.133  -0.275   0.603  0.00  0.00    -0.107 A 
ATOM      5  C4  BZF d   1      -0.397   0.237  -0.636  0.00  0.00     0.055 A 
ATOM      6  C5  BZF d   1       0.392  -0.124  -1.681  0.00  0.00    -0.016 A 
ATOM      7  C6  BZF d   1       1.455  -0.990  -1.524  0.00  0.00     0.022 A 
ATOM      8  C7  BZF d   1       1.753  -1.527  -0.316  0.00  0.00     0.029 A 
ATOM      9  C7A BZF d   1       0.937  -1.190   0.736  0.00  0.00     0.058 A 
ENDROOT
TORSDOF 0
ENDMDL
