MODEL 1
REMARK minimizedAffinity -3.6984961
REMARK minimizedRMSD -1
REMARK  0 active torsions:
REMARK  status: ('A' for Active; 'I' for Inactive)
ROOT
ATOM      1  O1  BZF d   1       0.428  -0.276  -1.337  0.00  0.00    -0.204 OA
ATOM      2  C2  BZF d   1      -0.683   0.541  -1.417  0.00  0.00     0.174 A 
ATOM      3  C3  BZF d   1      -1.286   0.648  -0.215  0.00  0.00    -0.012 A 
ATOM      4  C3A BZF d   1      -0.450  -0.078   0.691  0.00  0.00    -0.107 A 
ATOM      5  C4  BZF d   1      -0.512  -0.324   2.033  0.00  0.00     0.055 A 
ATOM      6  C5  BZF d   1       0.423  -1.131   2.600  0.00  0.00    -0.016 A 
ATOM      7  C6  BZF d   1       1.428  -1.713   1.855  0.00  0.00     0.022 A 
ATOM      8  C7  BZF d   1       1.533  -1.494   0.522  0.00  0.00     0.029 A 
ATOM      9  C7A BZF d   1       0.609  -0.652  -0.048  0.00  0.00     0.058 A 
ENDROOT
TORSDOF 0
ENDMDL
