MODEL 1
REMARK minimizedAffinity -0.704882383
REMARK minimizedRMSD -1
REMARK  0 active torsions:
REMARK  status: ('A' for Active; 'I' for Inactive)
ROOT
ATOM      1  O1  BZF d   1      -1.065   2.158  -2.639  0.00  0.00    -0.204 OA
ATOM      2  C2  BZF d   1      -0.205   3.226  -2.472  0.00  0.00     0.174 A 
ATOM      3  C3  BZF d   1       0.433   3.146  -1.286  0.00  0.00    -0.012 A 
ATOM      4  C3A BZF d   1       0.010   1.904  -0.715  0.00  0.00    -0.107 A 
ATOM      5  C4  BZF d   1       0.310   1.256   0.449  0.00  0.00     0.055 A 
ATOM      6  C5  BZF d   1      -0.331   0.093   0.742  0.00  0.00    -0.016 A 
ATOM      7  C6  BZF d   1      -1.279  -0.445  -0.103  0.00  0.00     0.022 A 
ATOM      8  C7  BZF d   1      -1.606   0.159  -1.271  0.00  0.00     0.029 A 
ATOM      9  C7A BZF d   1      -0.937   1.316  -1.585  0.00  0.00     0.058 A 
ENDROOT
TORSDOF 0
ENDMDL
