MODEL 1
REMARK minimizedAffinity -2.71709752
REMARK minimizedRMSD -1
REMARK  0 active torsions:
REMARK  status: ('A' for Active; 'I' for Inactive)
ROOT
ATOM      1  O1  BZF d   1      -0.792   3.585  -0.605  0.00  0.00    -0.204 OA
ATOM      2  C2  BZF d   1      -0.642   3.645  -1.977  0.00  0.00     0.174 A 
ATOM      3  C3  BZF d   1      -0.499   2.409  -2.497  0.00  0.00    -0.012 A 
ATOM      4  C3A BZF d   1      -0.657   1.515  -1.391  0.00  0.00    -0.107 A 
ATOM      5  C4  BZF d   1      -0.637   0.154  -1.273  0.00  0.00     0.055 A 
ATOM      6  C5  BZF d   1      -0.750  -0.404  -0.039  0.00  0.00    -0.016 A 
ATOM      7  C6  BZF d   1      -0.880   0.368   1.098  0.00  0.00     0.022 A 
ATOM      8  C7  BZF d   1      -0.910   1.721   1.030  0.00  0.00     0.029 A 
ATOM      9  C7A BZF d   1      -0.829   2.287  -0.219  0.00  0.00     0.058 A 
ENDROOT
TORSDOF 0
ENDMDL
