MODEL 1
REMARK minimizedAffinity -3.96699595
REMARK minimizedRMSD -1
REMARK  0 active torsions:
REMARK  status: ('A' for Active; 'I' for Inactive)
ROOT
ATOM      1  O1  BZF d   1      -0.138   0.060  -0.913  0.00  0.00    -0.204 OA
ATOM      2  C2  BZF d   1      -1.161   0.593  -0.153  0.00  0.00     0.174 A 
ATOM      3  C3  BZF d   1      -1.182   0.040   1.077  0.00  0.00    -0.012 A 
ATOM      4  C3A BZF d   1      -0.047  -0.831   1.116  0.00  0.00    -0.107 A 
ATOM      5  C4  BZF d   1       0.475  -1.649   2.077  0.00  0.00     0.055 A 
ATOM      6  C5  BZF d   1       1.550  -2.423   1.773  0.00  0.00    -0.016 A 
ATOM      7  C6  BZF d   1       2.124  -2.407   0.518  0.00  0.00     0.022 A 
ATOM      8  C7  BZF d   1       1.644  -1.609  -0.466  0.00  0.00     0.029 A 
ATOM      9  C7A BZF d   1       0.578  -0.801  -0.152  0.00  0.00     0.058 A 
ENDROOT
TORSDOF 0
ENDMDL
