MODEL 1
REMARK minimizedAffinity -3.64951921
REMARK minimizedRMSD -1
REMARK  0 active torsions:
REMARK  status: ('A' for Active; 'I' for Inactive)
ROOT
ATOM      1  O1  BZF d   1       0.522  -0.115  -2.608  0.00  0.00    -0.204 OA
ATOM      2  C2  BZF d   1      -0.069  -0.865  -1.610  0.00  0.00     0.174 A 
ATOM      3  C3  BZF d   1      -0.779  -0.077  -0.777  0.00  0.00    -0.012 A 
ATOM      4  C3A BZF d   1      -0.698   1.236  -1.340  0.00  0.00    -0.107 A 
ATOM      5  C4  BZF d   1      -1.214   2.447  -0.977  0.00  0.00     0.055 A 
ATOM      6  C5  BZF d   1      -0.885   3.549  -1.702  0.00  0.00    -0.016 A 
ATOM      7  C6  BZF d   1      -0.042   3.477  -2.791  0.00  0.00     0.022 A 
ATOM      8  C7  BZF d   1       0.490   2.297  -3.192  0.00  0.00     0.029 A 
ATOM      9  C7A BZF d   1       0.134   1.177  -2.482  0.00  0.00     0.058 A 
ENDROOT
TORSDOF 0
ENDMDL
