MODEL 1
REMARK minimizedAffinity -2.3100636
REMARK minimizedRMSD -1
REMARK  0 active torsions:
REMARK  status: ('A' for Active; 'I' for Inactive)
ROOT
ATOM      1  O1  BZF d   1       1.994  -1.865  -0.539  0.00  0.00    -0.204 OA
ATOM      2  C2  BZF d   1       2.708  -2.713   0.285  0.00  0.00     0.174 A 
ATOM      3  C3  BZF d   1       2.217  -2.684   1.541  0.00  0.00    -0.012 A 
ATOM      4  C3A BZF d   1       1.070  -1.832   1.477  0.00  0.00    -0.107 A 
ATOM      5  C4  BZF d   1       0.151  -1.424   2.401  0.00  0.00     0.055 A 
ATOM      6  C5  BZF d   1      -0.804  -0.530   2.033  0.00  0.00    -0.016 A 
ATOM      7  C6  BZF d   1      -0.867  -0.021   0.752  0.00  0.00     0.022 A 
ATOM      8  C7  BZF d   1       0.020  -0.400  -0.200  0.00  0.00     0.029 A 
ATOM      9  C7A BZF d   1       0.966  -1.328   0.160  0.00  0.00     0.058 A 
ENDROOT
TORSDOF 0
ENDMDL
