MODEL 1
REMARK minimizedAffinity -1.02618051
REMARK minimizedRMSD -1
REMARK  0 active torsions:
REMARK  status: ('A' for Active; 'I' for Inactive)
ROOT
ATOM      1  O1  BZF d   1       0.602  -0.478  -0.903  0.00  0.00    -0.204 OA
ATOM      2  C2  BZF d   1      -0.511   0.282  -0.599  0.00  0.00     0.174 A 
ATOM      3  C3  BZF d   1      -0.946   0.015   0.649  0.00  0.00    -0.012 A 
ATOM      4  C3A BZF d   1       0.006  -0.906   1.191  0.00  0.00    -0.107 A 
ATOM      5  C4  BZF d   1       0.128  -1.528   2.401  0.00  0.00     0.055 A 
ATOM      6  C5  BZF d   1       1.132  -2.425   2.584  0.00  0.00    -0.016 A 
ATOM      7  C6  BZF d   1       2.028  -2.728   1.580  0.00  0.00     0.022 A 
ATOM      8  C7  BZF d   1       1.951  -2.132   0.365  0.00  0.00     0.029 A 
ATOM      9  C7A BZF d   1       0.957  -1.201   0.187  0.00  0.00     0.058 A 
ENDROOT
TORSDOF 0
ENDMDL
