MODEL 1
REMARK minimizedAffinity -2.0361762
REMARK minimizedRMSD -1
REMARK  1 active torsions:
REMARK  status: ('A' for Active; 'I' for Inactive)
REMARK    1  A    between atoms: C1_2  and  C2_3 
ROOT
ATOM      1  C2  UNL d   1       3.018   3.578   1.720  0.00  0.00    -0.077 A 
ATOM      2  C3  UNL d   1       3.467   4.752   1.099  0.00  0.00     0.002 A 
ATOM      3  C4  UNL d   1       3.499   5.957   1.804  0.00  0.00     0.002 A 
ATOM      4  C5  UNL d   1       3.086   5.999   3.134  0.00  0.00    -0.004 A 
ATOM      5  C6  UNL d   1       2.636   4.837   3.760  0.00  0.00     0.002 A 
ATOM      6  C7  UNL d   1       2.603   3.632   3.057  0.00  0.00     0.002 A 
ENDROOT
BRANCH   1   7
ATOM      7  C1  UNL d   1       3.030   2.268   0.976  0.00  0.00     0.055 C 
ATOM      8  C   UNL d   1       2.179   1.223   1.683  0.00  0.00     0.019 C 
ENDBRANCH   1   7
TORSDOF 1
ENDMDL
