MODEL 1
REMARK minimizedAffinity 11.5253019
REMARK minimizedRMSD -1
REMARK  1 active torsions:
REMARK  status: ('A' for Active; 'I' for Inactive)
REMARK    1  A    between atoms: C1_2  and  C2_3 
ROOT
ATOM      1  C2  UNL d   1       4.875   5.017   3.227  0.00  0.00    -0.077 A 
ATOM      2  C3  UNL d   1       5.905   4.406   3.956  0.00  0.00     0.002 A 
ATOM      3  C4  UNL d   1       6.000   4.592   5.336  0.00  0.00     0.002 A 
ATOM      4  C5  UNL d   1       5.066   5.386   6.000  0.00  0.00    -0.004 A 
ATOM      5  C6  UNL d   1       4.039   5.999   5.283  0.00  0.00     0.002 A 
ATOM      6  C7  UNL d   1       3.943   5.815   3.903  0.00  0.00     0.002 A 
ENDROOT
BRANCH   1   7
ATOM      7  C1  UNL d   1       4.741   4.777   1.746  0.00  0.00     0.055 C 
ATOM      8  C   UNL d   1       5.169   5.999   0.946  0.00  0.00     0.019 C 
ENDBRANCH   1   7
TORSDOF 1
ENDMDL
