MODEL 1
REMARK minimizedAffinity 4.57590103
REMARK minimizedRMSD -1
REMARK  1 active torsions:
REMARK  status: ('A' for Active; 'I' for Inactive)
REMARK    1  A    between atoms: C1_2  and  C2_3 
ROOT
ATOM      1  C2  UNL d   1       3.110   3.014   1.349  0.00  0.00    -0.077 A 
ATOM      2  C3  UNL d   1       4.456   2.692   1.569  0.00  0.00     0.002 A 
ATOM      3  C4  UNL d   1       5.428   3.694   1.587  0.00  0.00     0.002 A 
ATOM      4  C5  UNL d   1       5.064   5.024   1.389  0.00  0.00    -0.004 A 
ATOM      5  C6  UNL d   1       3.728   5.355   1.168  0.00  0.00     0.002 A 
ATOM      6  C7  UNL d   1       2.755   4.354   1.148  0.00  0.00     0.002 A 
ENDROOT
BRANCH   1   7
ATOM      7  C1  UNL d   1       2.053   1.941   1.378  0.00  0.00     0.055 C 
ATOM      8  C   UNL d   1       2.113   1.071   0.131  0.00  0.00     0.019 C 
ENDBRANCH   1   7
TORSDOF 1
ENDMDL
