MODEL 1
REMARK minimizedAffinity 6.11178589
REMARK minimizedRMSD -1
REMARK  1 active torsions:
REMARK  status: ('A' for Active; 'I' for Inactive)
REMARK    1  A    between atoms: C1_2  and  C2_3 
ROOT
ATOM      1  C2  UNL d   1       4.893   4.178   3.509  0.00  0.00    -0.077 A 
ATOM      2  C3  UNL d   1       4.565   5.492   3.871  0.00  0.00     0.002 A 
ATOM      3  C4  UNL d   1       4.952   6.000   5.112  0.00  0.00     0.002 A 
ATOM      4  C5  UNL d   1       5.671   5.202   6.000  0.00  0.00    -0.004 A 
ATOM      5  C6  UNL d   1       6.000   3.893   5.650  0.00  0.00     0.002 A 
ATOM      6  C7  UNL d   1       5.613   3.383   4.410  0.00  0.00     0.002 A 
ENDROOT
BRANCH   1   7
ATOM      7  C1  UNL d   1       4.519   3.644   2.151  0.00  0.00     0.055 C 
ATOM      8  C   UNL d   1       3.418   4.478   1.512  0.00  0.00     0.019 C 
ENDBRANCH   1   7
TORSDOF 1
ENDMDL
