MODEL 1
REMARK minimizedAffinity 3.20277715
REMARK minimizedRMSD -1
REMARK  1 active torsions:
REMARK  status: ('A' for Active; 'I' for Inactive)
REMARK    1  A    between atoms: C1_2  and  C2_3 
ROOT
ATOM      1  C2  UNL d   1      -2.679   2.862  -5.966  0.00  0.00    -0.077 A 
ATOM      2  C3  UNL d   1      -3.983   2.346  -5.965  0.00  0.00     0.002 A 
ATOM      3  C4  UNL d   1      -5.083   3.205  -5.979  0.00  0.00     0.002 A 
ATOM      4  C5  UNL d   1      -4.891   4.585  -6.000  0.00  0.00    -0.004 A 
ATOM      5  C6  UNL d   1      -3.599   5.108  -5.999  0.00  0.00     0.002 A 
ATOM      6  C7  UNL d   1      -2.498   4.251  -5.983  0.00  0.00     0.002 A 
ENDROOT
BRANCH   1   7
ATOM      7  C1  UNL d   1      -1.491   1.937  -6.000  0.00  0.00     0.055 C 
ATOM      8  C   UNL d   1      -0.183   2.713  -5.954  0.00  0.00     0.019 C 
ENDBRANCH   1   7
TORSDOF 1
ENDMDL
