MODEL 1
REMARK minimizedAffinity -0.821711123
REMARK minimizedRMSD -1
REMARK  1 active torsions:
REMARK  status: ('A' for Active; 'I' for Inactive)
REMARK    1  A    between atoms: C1_2  and  C2_3 
ROOT
ATOM      1  C2  UNL d   1       3.750   4.741   2.742  0.00  0.00    -0.077 A 
ATOM      2  C3  UNL d   1       3.384   3.627   1.972  0.00  0.00     0.002 A 
ATOM      3  C4  UNL d   1       3.381   3.702   0.578  0.00  0.00     0.002 A 
ATOM      4  C5  UNL d   1       3.747   4.886  -0.058  0.00  0.00    -0.004 A 
ATOM      5  C6  UNL d   1       4.110   6.000   0.698  0.00  0.00     0.002 A 
ATOM      6  C7  UNL d   1       4.113   5.927   2.092  0.00  0.00     0.002 A 
ENDROOT
BRANCH   1   7
ATOM      7  C1  UNL d   1       3.801   4.647   4.244  0.00  0.00     0.055 C 
ATOM      8  C   UNL d   1       3.547   6.000   4.892  0.00  0.00     0.019 C 
ENDBRANCH   1   7
TORSDOF 1
ENDMDL
