MODEL 1
REMARK minimizedAffinity 0.0443390124
REMARK minimizedRMSD -1
REMARK  1 active torsions:
REMARK  status: ('A' for Active; 'I' for Inactive)
REMARK    1  A    between atoms: C1_2  and  C2_3 
ROOT
ATOM      1  C2  UNL d   1       0.303   2.368  -5.733  0.00  0.00    -0.077 A 
ATOM      2  C3  UNL d   1       0.452   3.756  -5.860  0.00  0.00     0.002 A 
ATOM      3  C4  UNL d   1      -0.669   4.577  -5.996  0.00  0.00     0.002 A 
ATOM      4  C5  UNL d   1      -1.946   4.021  -6.000  0.00  0.00    -0.004 A 
ATOM      5  C6  UNL d   1      -2.105   2.641  -5.876  0.00  0.00     0.002 A 
ATOM      6  C7  UNL d   1      -0.985   1.818  -5.742  0.00  0.00     0.002 A 
ENDROOT
BRANCH   1   7
ATOM      7  C1  UNL d   1       1.508   1.486  -5.538  0.00  0.00     0.055 C 
ATOM      8  C   UNL d   1       1.438   0.738  -4.214  0.00  0.00     0.019 C 
ENDBRANCH   1   7
TORSDOF 1
ENDMDL
