MODEL 1
REMARK minimizedAffinity -2.48039556
REMARK minimizedRMSD -1
REMARK  1 active torsions:
REMARK  status: ('A' for Active; 'I' for Inactive)
REMARK    1  A    between atoms: C1_2  and  C2_3 
ROOT
ATOM      1  C2  UNL d   1      -1.358   3.532  -5.958  0.00  0.00    -0.077 A 
ATOM      2  C3  UNL d   1      -1.895   2.237  -5.935  0.00  0.00     0.002 A 
ATOM      3  C4  UNL d   1      -3.278   2.046  -5.942  0.00  0.00     0.002 A 
ATOM      4  C5  UNL d   1      -4.135   3.145  -5.978  0.00  0.00    -0.004 A 
ATOM      5  C6  UNL d   1      -3.610   4.436  -5.999  0.00  0.00     0.002 A 
ATOM      6  C7  UNL d   1      -2.228   4.629  -5.990  0.00  0.00     0.002 A 
ENDROOT
BRANCH   1   7
ATOM      7  C1  UNL d   1       0.134   3.739  -6.000  0.00  0.00     0.055 C 
ATOM      8  C   UNL d   1       0.868   2.622  -5.272  0.00  0.00     0.019 C 
ENDBRANCH   1   7
TORSDOF 1
ENDMDL
