MODEL 1
REMARK minimizedAffinity -4.29644966
REMARK minimizedRMSD -1
REMARK  0 active torsions:
REMARK  status: ('A' for Active; 'I' for Inactive)
ROOT
ATOM      1  C   UNL d   1       2.243   0.447   0.494  0.00  0.00     0.078 C 
ATOM      2  C1  UNL d   1       0.945  -0.291   0.630  0.00  0.00    -0.077 A 
ATOM      3  C2  UNL d   1       0.855  -1.655   0.327  0.00  0.00    -0.001 A 
ATOM      4  C3  UNL d   1      -0.362  -2.327   0.449  0.00  0.00     0.003 A 
ATOM      5  C4  UNL d   1      -1.499  -1.643   0.873  0.00  0.00    -0.005 A 
ATOM      6  C5  UNL d   1      -1.421  -0.285   1.174  0.00  0.00     0.003 A 
ATOM      7  C6  UNL d   1      -0.205   0.389   1.053  0.00  0.00    -0.001 A 
ENDROOT
TORSDOF 0
ENDMDL
