MODEL 1
REMARK minimizedAffinity 7.38416338
REMARK minimizedRMSD -1
REMARK  0 active torsions:
REMARK  status: ('A' for Active; 'I' for Inactive)
ROOT
ATOM      1  C   UNL d   1       3.363   1.699  -2.927  0.00  0.00     0.078 C 
ATOM      2  C1  UNL d   1       3.899   2.928  -2.256  0.00  0.00    -0.077 A 
ATOM      3  C2  UNL d   1       5.131   3.477  -2.632  0.00  0.00    -0.001 A 
ATOM      4  C3  UNL d   1       5.622   4.616  -1.992  0.00  0.00     0.003 A 
ATOM      5  C4  UNL d   1       4.888   5.215  -0.971  0.00  0.00    -0.005 A 
ATOM      6  C5  UNL d   1       3.662   4.676  -0.588  0.00  0.00     0.003 A 
ATOM      7  C6  UNL d   1       3.169   3.537  -1.227  0.00  0.00    -0.001 A 
ENDROOT
TORSDOF 0
ENDMDL
