MODEL 1
REMARK minimizedAffinity -0.178091303
REMARK minimizedRMSD -1
REMARK  0 active torsions:
REMARK  status: ('A' for Active; 'I' for Inactive)
ROOT
ATOM      1  C   UNL d   1       1.556  -3.707  -0.853  0.00  0.00     0.078 C 
ATOM      2  C1  UNL d   1       1.078  -2.473  -0.148  0.00  0.00    -0.077 A 
ATOM      3  C2  UNL d   1       1.938  -1.389   0.070  0.00  0.00    -0.001 A 
ATOM      4  C3  UNL d   1       1.482  -0.250   0.737  0.00  0.00     0.003 A 
ATOM      5  C4  UNL d   1       0.167  -0.185   1.193  0.00  0.00    -0.005 A 
ATOM      6  C5  UNL d   1      -0.694  -1.260   0.983  0.00  0.00     0.003 A 
ATOM      7  C6  UNL d   1      -0.241  -2.399   0.316  0.00  0.00    -0.001 A 
ENDROOT
TORSDOF 0
ENDMDL
