MODEL 1
REMARK minimizedAffinity -2.32348943
REMARK minimizedRMSD -1
REMARK  0 active torsions:
REMARK  status: ('A' for Active; 'I' for Inactive)
ROOT
ATOM      1  C   UNL d   1       2.896  -4.105  -0.571  0.00  0.00     0.078 C 
ATOM      2  C1  UNL d   1       1.974  -2.984  -0.194  0.00  0.00    -0.077 A 
ATOM      3  C2  UNL d   1       0.601  -3.203  -0.031  0.00  0.00    -0.001 A 
ATOM      4  C3  UNL d   1      -0.246  -2.147   0.311  0.00  0.00     0.003 A 
ATOM      5  C4  UNL d   1       0.270  -0.866   0.491  0.00  0.00    -0.005 A 
ATOM      6  C5  UNL d   1       1.635  -0.638   0.328  0.00  0.00     0.003 A 
ATOM      7  C6  UNL d   1       2.483  -1.692  -0.014  0.00  0.00    -0.001 A 
ENDROOT
TORSDOF 0
ENDMDL
