MODEL 1
REMARK minimizedAffinity -1.37731624
REMARK minimizedRMSD -1
REMARK  0 active torsions:
REMARK  status: ('A' for Active; 'I' for Inactive)
ROOT
ATOM      1  C   UNL d   1      -1.957  -0.226   1.783  0.00  0.00     0.078 C 
ATOM      2  C1  UNL d   1      -0.632  -0.519   1.145  0.00  0.00    -0.077 A 
ATOM      3  C2  UNL d   1      -0.532  -1.402   0.063  0.00  0.00    -0.001 A 
ATOM      4  C3  UNL d   1       0.710  -1.673  -0.514  0.00  0.00     0.003 A 
ATOM      5  C4  UNL d   1       1.861  -1.066  -0.016  0.00  0.00    -0.005 A 
ATOM      6  C5  UNL d   1       1.771  -0.188   1.062  0.00  0.00     0.003 A 
ATOM      7  C6  UNL d   1       0.530   0.084   1.641  0.00  0.00    -0.001 A 
ENDROOT
TORSDOF 0
ENDMDL
