MODEL 1
REMARK minimizedAffinity -2.27628636
REMARK minimizedRMSD -1
REMARK  0 active torsions:
REMARK  status: ('A' for Active; 'I' for Inactive)
ROOT
ATOM      1  C   UNL d   1       5.610   3.566  -2.387  0.00  0.00     0.078 C 
ATOM      2  C1  UNL d   1       4.533   2.700  -2.969  0.00  0.00    -0.077 A 
ATOM      3  C2  UNL d   1       4.486   1.327  -2.697  0.00  0.00    -0.001 A 
ATOM      4  C3  UNL d   1       3.483   0.531  -3.253  0.00  0.00     0.003 A 
ATOM      5  C4  UNL d   1       2.521   1.099  -4.086  0.00  0.00    -0.005 A 
ATOM      6  C5  UNL d   1       2.561   2.463  -4.364  0.00  0.00     0.003 A 
ATOM      7  C6  UNL d   1       3.563   3.261  -3.809  0.00  0.00    -0.001 A 
ENDROOT
TORSDOF 0
ENDMDL
