MODEL 1
REMARK minimizedAffinity 2.71398425
REMARK minimizedRMSD -1
REMARK  0 active torsions:
REMARK  status: ('A' for Active; 'I' for Inactive)
ROOT
ATOM      1  C   UNL d   1      -2.800  -3.051   0.524  0.00  0.00     0.078 C 
ATOM      2  C1  UNL d   1      -1.377  -2.579   0.482  0.00  0.00    -0.077 A 
ATOM      3  C2  UNL d   1      -0.979  -1.424   1.166  0.00  0.00    -0.001 A 
ATOM      4  C3  UNL d   1       0.347  -0.991   1.109  0.00  0.00     0.003 A 
ATOM      5  C4  UNL d   1       1.285  -1.707   0.369  0.00  0.00    -0.005 A 
ATOM      6  C5  UNL d   1       0.898  -2.857  -0.317  0.00  0.00     0.003 A 
ATOM      7  C6  UNL d   1      -0.427  -3.291  -0.262  0.00  0.00    -0.001 A 
ENDROOT
TORSDOF 0
ENDMDL
