MODEL 1
REMARK minimizedAffinity 0.614148259
REMARK minimizedRMSD -1
REMARK  0 active torsions:
REMARK  status: ('A' for Active; 'I' for Inactive)
ROOT
ATOM      1  C   UNL d   1       0.573  -3.523  -0.568  0.00  0.00     0.078 C 
ATOM      2  C1  UNL d   1       0.716  -2.224   0.168  0.00  0.00    -0.077 A 
ATOM      3  C2  UNL d   1       1.964  -1.794   0.635  0.00  0.00    -0.001 A 
ATOM      4  C3  UNL d   1       2.081  -0.588   1.327  0.00  0.00     0.003 A 
ATOM      5  C4  UNL d   1       0.954   0.197   1.561  0.00  0.00    -0.005 A 
ATOM      6  C5  UNL d   1      -0.292  -0.224   1.103  0.00  0.00     0.003 A 
ATOM      7  C6  UNL d   1      -0.411  -1.430   0.410  0.00  0.00    -0.001 A 
ENDROOT
TORSDOF 0
ENDMDL
