MODEL 1
REMARK minimizedAffinity -0.173762292
REMARK minimizedRMSD -1
REMARK  0 active torsions:
REMARK  status: ('A' for Active; 'I' for Inactive)
ROOT
ATOM      1  C   UNL d   1      -4.630   1.193  -0.003  0.00  0.00     0.078 C 
ATOM      2  C1  UNL d   1      -3.368   0.689   0.631  0.00  0.00    -0.077 A 
ATOM      3  C2  UNL d   1      -2.614   1.503   1.485  0.00  0.00    -0.001 A 
ATOM      4  C3  UNL d   1      -1.436   1.024   2.060  0.00  0.00     0.003 A 
ATOM      5  C4  UNL d   1      -1.000  -0.271   1.786  0.00  0.00    -0.005 A 
ATOM      6  C5  UNL d   1      -1.742  -1.088   0.935  0.00  0.00     0.003 A 
ATOM      7  C6  UNL d   1      -2.920  -0.610   0.359  0.00  0.00    -0.001 A 
ENDROOT
TORSDOF 0
ENDMDL
