MODEL 1
REMARK minimizedAffinity -3.54267263
REMARK minimizedRMSD -1
REMARK  0 active torsions:
REMARK  status: ('A' for Active; 'I' for Inactive)
ROOT
ATOM      1  C   UNL d   1      -1.536  -0.345   1.317  0.00  0.00     0.078 C 
ATOM      2  C1  UNL d   1      -0.337  -1.062   0.770  0.00  0.00    -0.077 A 
ATOM      3  C2  UNL d   1       0.902  -0.419   0.665  0.00  0.00    -0.001 A 
ATOM      4  C3  UNL d   1       2.006  -1.095   0.145  0.00  0.00     0.003 A 
ATOM      5  C4  UNL d   1       1.882  -2.418  -0.276  0.00  0.00    -0.005 A 
ATOM      6  C5  UNL d   1       0.652  -3.065  -0.178  0.00  0.00     0.003 A 
ATOM      7  C6  UNL d   1      -0.453  -2.390   0.342  0.00  0.00    -0.001 A 
ENDROOT
TORSDOF 0
ENDMDL
