MODEL 1
REMARK minimizedAffinity 1.93675947
REMARK minimizedRMSD -1
REMARK  0 active torsions:
REMARK  status: ('A' for Active; 'I' for Inactive)
ROOT
ATOM      1  C   UNL d   1       2.638   3.154  -4.431  0.00  0.00     0.078 C 
ATOM      2  C1  UNL d   1       1.525   4.146  -4.273  0.00  0.00    -0.077 A 
ATOM      3  C2  UNL d   1       0.722   4.152  -3.126  0.00  0.00    -0.001 A 
ATOM      4  C3  UNL d   1      -0.316   5.076  -2.996  0.00  0.00     0.003 A 
ATOM      5  C4  UNL d   1      -0.563   5.999  -4.010  0.00  0.00    -0.005 A 
ATOM      6  C5  UNL d   1       0.229   5.999  -5.156  0.00  0.00     0.003 A 
ATOM      7  C6  UNL d   1       1.269   5.076  -5.288  0.00  0.00    -0.001 A 
ENDROOT
TORSDOF 0
ENDMDL
