MODEL 1
REMARK minimizedAffinity -4.61953402
REMARK minimizedRMSD -1
REMARK  0 active torsions:
REMARK  status: ('A' for Active; 'I' for Inactive)
ROOT
ATOM      1  C   UNL d   1       0.936  -3.529  -1.127  0.00  0.00     0.078 C 
ATOM      2  C1  UNL d   1       0.824  -2.355  -0.201  0.00  0.00    -0.077 A 
ATOM      3  C2  UNL d   1      -0.344  -2.127   0.537  0.00  0.00    -0.001 A 
ATOM      4  C3  UNL d   1      -0.437  -1.025   1.388  0.00  0.00     0.003 A 
ATOM      5  C4  UNL d   1       0.634  -0.142   1.509  0.00  0.00    -0.005 A 
ATOM      6  C5  UNL d   1       1.799  -0.359   0.777  0.00  0.00     0.003 A 
ATOM      7  C6  UNL d   1       1.894  -1.461  -0.075  0.00  0.00    -0.001 A 
ENDROOT
TORSDOF 0
ENDMDL
