MODEL 1
REMARK minimizedAffinity -1.38530684
REMARK minimizedRMSD -1
REMARK  0 active torsions:
REMARK  status: ('A' for Active; 'I' for Inactive)
ROOT
ATOM      1  C   UNL d   1      -1.366  -0.343   2.026  0.00  0.00     0.078 C 
ATOM      2  C1  UNL d   1      -0.200  -0.916   1.277  0.00  0.00    -0.077 A 
ATOM      3  C2  UNL d   1       1.028  -0.243   1.231  0.00  0.00    -0.001 A 
ATOM      4  C3  UNL d   1       2.102  -0.783   0.522  0.00  0.00     0.003 A 
ATOM      5  C4  UNL d   1       1.960  -1.998  -0.146  0.00  0.00    -0.005 A 
ATOM      6  C5  UNL d   1       0.742  -2.674  -0.107  0.00  0.00     0.003 A 
ATOM      7  C6  UNL d   1      -0.334  -2.135   0.601  0.00  0.00    -0.001 A 
ENDROOT
TORSDOF 0
ENDMDL
