MODEL 1
REMARK minimizedAffinity 0.191384092
REMARK minimizedRMSD -1
REMARK  0 active torsions:
REMARK  status: ('A' for Active; 'I' for Inactive)
ROOT
ATOM      1  C   UNL d   1       0.706  -3.547  -0.811  0.00  0.00     0.078 C 
ATOM      2  C1  UNL d   1       0.699  -2.281  -0.007  0.00  0.00    -0.077 A 
ATOM      3  C2  UNL d   1      -0.466  -1.837   0.630  0.00  0.00    -0.001 A 
ATOM      4  C3  UNL d   1      -0.460  -0.652   1.367  0.00  0.00     0.003 A 
ATOM      5  C4  UNL d   1       0.708   0.101   1.472  0.00  0.00    -0.005 A 
ATOM      6  C5  UNL d   1       1.872  -0.331   0.839  0.00  0.00     0.003 A 
ATOM      7  C6  UNL d   1       1.868  -1.516   0.102  0.00  0.00    -0.001 A 
ENDROOT
TORSDOF 0
ENDMDL
