MODEL 1
REMARK minimizedAffinity -0.986260951
REMARK minimizedRMSD -1
REMARK  0 active torsions:
REMARK  status: ('A' for Active; 'I' for Inactive)
ROOT
ATOM      1  C   UNL d   1      -5.704  -3.499   1.471  0.00  0.00     0.078 C 
ATOM      2  C1  UNL d   1      -5.736  -4.073   2.856  0.00  0.00    -0.077 A 
ATOM      3  C2  UNL d   1      -5.910  -3.249   3.975  0.00  0.00    -0.001 A 
ATOM      4  C3  UNL d   1      -5.928  -3.795   5.259  0.00  0.00     0.003 A 
ATOM      5  C4  UNL d   1      -5.769  -5.168   5.437  0.00  0.00    -0.005 A 
ATOM      6  C5  UNL d   1      -5.593  -5.996   4.330  0.00  0.00     0.003 A 
ATOM      7  C6  UNL d   1      -5.575  -5.451   3.045  0.00  0.00    -0.001 A 
ENDROOT
TORSDOF 0
ENDMDL
