MODEL 1
REMARK minimizedAffinity 0.307216585
REMARK minimizedRMSD -1
REMARK  0 active torsions:
REMARK  status: ('A' for Active; 'I' for Inactive)
ROOT
ATOM      1  C   UNL d   1       3.772  -0.826   0.740  0.00  0.00     0.078 C 
ATOM      2  C1  UNL d   1       2.900  -1.988   0.370  0.00  0.00    -0.077 A 
ATOM      3  C2  UNL d   1       1.514  -1.941   0.564  0.00  0.00    -0.001 A 
ATOM      4  C3  UNL d   1       0.715  -3.034   0.224  0.00  0.00     0.003 A 
ATOM      5  C4  UNL d   1       1.294  -4.183  -0.312  0.00  0.00    -0.005 A 
ATOM      6  C5  UNL d   1       2.672  -4.241  -0.506  0.00  0.00     0.003 A 
ATOM      7  C6  UNL d   1       3.472  -3.149  -0.166  0.00  0.00    -0.001 A 
ENDROOT
TORSDOF 0
ENDMDL
