MODEL 1
REMARK minimizedAffinity -5.68891859
REMARK minimizedRMSD -1
REMARK  0 active torsions:
REMARK  status: ('A' for Active; 'I' for Inactive)
ROOT
ATOM      1  C1  DEN d   1      -4.918  -0.005  -5.644  0.00  0.00     0.130 A 
ATOM      2  C2  DEN d   1      -3.754   0.875  -5.605  0.00  0.00    -0.031 A 
ATOM      3  C3  DEN d   1      -2.543   0.029  -5.575  0.00  0.00     0.027 A 
ATOM      4  C4  DEN d   1      -2.361  -2.543  -5.589  0.00  0.00     0.027 A 
ATOM      5  C5  DEN d   1      -3.078  -3.719  -5.605  0.00  0.00    -0.003 A 
ATOM      6  C6  DEN d   1      -4.448  -3.740  -5.602  0.00  0.00     0.001 A 
ATOM      7  C7  DEN d   1      -5.144  -2.560  -5.627  0.00  0.00     0.017 A 
ATOM      8  C8  DEN d   1      -4.429  -1.371  -5.602  0.00  0.00    -0.094 A 
ATOM      9  C9  DEN d   1      -3.044  -1.371  -5.619  0.00  0.00    -0.072 A 
ENDROOT
TORSDOF 0
ENDMDL
