MODEL 1
REMARK minimizedAffinity -5.26946783
REMARK minimizedRMSD -1
REMARK  0 active torsions:
REMARK  status: ('A' for Active; 'I' for Inactive)
ROOT
ATOM      1  C1  DEN d   1      -1.522  -3.213  -4.218  0.00  0.00     0.130 A 
ATOM      2  C2  DEN d   1      -0.825  -4.463  -4.504  0.00  0.00    -0.031 A 
ATOM      3  C3  DEN d   1      -1.749  -5.339  -5.254  0.00  0.00     0.027 A 
ATOM      4  C4  DEN d   1      -4.175  -4.880  -5.998  0.00  0.00     0.027 A 
ATOM      5  C5  DEN d   1      -5.202  -3.962  -5.976  0.00  0.00    -0.003 A 
ATOM      6  C6  DEN d   1      -5.086  -2.753  -5.341  0.00  0.00     0.001 A 
ATOM      7  C7  DEN d   1      -3.903  -2.412  -4.742  0.00  0.00     0.017 A 
ATOM      8  C8  DEN d   1      -2.866  -3.335  -4.754  0.00  0.00    -0.094 A 
ATOM      9  C9  DEN d   1      -2.998  -4.547  -5.411  0.00  0.00    -0.072 A 
ENDROOT
TORSDOF 0
ENDMDL
