MODEL 1
REMARK minimizedAffinity 1.57571447
REMARK minimizedRMSD -1
REMARK  0 active torsions:
REMARK  status: ('A' for Active; 'I' for Inactive)
ROOT
ATOM      1  C1  DEN d   1       3.718  -0.053  -2.210  0.00  0.00     0.130 A 
ATOM      2  C2  DEN d   1       3.825  -1.507  -2.136  0.00  0.00    -0.031 A 
ATOM      3  C3  DEN d   1       2.683  -2.010  -1.346  0.00  0.00     0.027 A 
ATOM      4  C4  DEN d   1       0.768  -0.685  -0.239  0.00  0.00     0.027 A 
ATOM      5  C5  DEN d   1       0.256   0.575  -0.017  0.00  0.00    -0.003 A 
ATOM      6  C6  DEN d   1       0.875   1.706  -0.478  0.00  0.00     0.001 A 
ATOM      7  C7  DEN d   1       2.019   1.598  -1.223  0.00  0.00     0.017 A 
ATOM      8  C8  DEN d   1       2.545   0.332  -1.445  0.00  0.00    -0.094 A 
ATOM      9  C9  DEN d   1       1.898  -0.800  -0.981  0.00  0.00    -0.072 A 
ENDROOT
TORSDOF 0
ENDMDL
