MODEL 1
REMARK minimizedAffinity 1.13822222
REMARK minimizedRMSD -1
REMARK  0 active torsions:
REMARK  status: ('A' for Active; 'I' for Inactive)
ROOT
ATOM      1  C1  DEN d   1      -2.253   4.619  -5.977  0.00  0.00     0.130 A 
ATOM      2  C2  DEN d   1      -1.393   3.439  -5.957  0.00  0.00    -0.031 A 
ATOM      3  C3  DEN d   1      -2.259   2.243  -5.956  0.00  0.00     0.027 A 
ATOM      4  C4  DEN d   1      -4.834   2.104  -5.991  0.00  0.00     0.027 A 
ATOM      5  C5  DEN d   1      -5.998   2.841  -6.000  0.00  0.00    -0.003 A 
ATOM      6  C6  DEN d   1      -5.996   4.210  -5.968  0.00  0.00     0.001 A 
ATOM      7  C7  DEN d   1      -4.805   4.887  -5.971  0.00  0.00     0.017 A 
ATOM      8  C8  DEN d   1      -3.627   4.151  -5.954  0.00  0.00    -0.094 A 
ATOM      9  C9  DEN d   1      -3.651   2.767  -5.999  0.00  0.00    -0.072 A 
ENDROOT
TORSDOF 0
ENDMDL
