MODEL 1
REMARK minimizedAffinity -1.87151349
REMARK minimizedRMSD -1
REMARK  0 active torsions:
REMARK  status: ('A' for Active; 'I' for Inactive)
ROOT
ATOM      1  C1  DEN d   1      -3.631   2.151  -5.997  0.00  0.00     0.130 A 
ATOM      2  C2  DEN d   1      -4.866   1.372  -5.995  0.00  0.00    -0.031 A 
ATOM      3  C3  DEN d   1      -5.999   2.313  -5.888  0.00  0.00     0.027 A 
ATOM      4  C4  DEN d   1      -5.961   4.888  -5.731  0.00  0.00     0.027 A 
ATOM      5  C5  DEN d   1      -5.146   5.997  -5.684  0.00  0.00    -0.003 A 
ATOM      6  C6  DEN d   1      -3.780   5.902  -5.704  0.00  0.00     0.001 A 
ATOM      7  C7  DEN d   1      -3.187   4.672  -5.817  0.00  0.00     0.017 A 
ATOM      8  C8  DEN d   1      -4.002   3.548  -5.858  0.00  0.00    -0.094 A 
ATOM      9  C9  DEN d   1      -5.381   3.666  -5.850  0.00  0.00    -0.072 A 
ENDROOT
TORSDOF 0
ENDMDL
