MODEL 1
REMARK minimizedAffinity 5.24077034
REMARK minimizedRMSD -1
REMARK  0 active torsions:
REMARK  status: ('A' for Active; 'I' for Inactive)
ROOT
ATOM      1  C1  DEN d   1      -4.349  -2.431  -5.222  0.00  0.00     0.130 A 
ATOM      2  C2  DEN d   1      -5.005  -3.662  -5.653  0.00  0.00    -0.031 A 
ATOM      3  C3  DEN d   1      -4.087  -4.787  -5.384  0.00  0.00     0.027 A 
ATOM      4  C4  DEN d   1      -1.727  -4.742  -4.344  0.00  0.00     0.027 A 
ATOM      5  C5  DEN d   1      -0.742  -3.928  -3.830  0.00  0.00    -0.003 A 
ATOM      6  C6  DEN d   1      -0.876  -2.566  -3.776  0.00  0.00     0.001 A 
ATOM      7  C7  DEN d   1      -2.038  -1.980  -4.202  0.00  0.00     0.017 A 
ATOM      8  C8  DEN d   1      -3.033  -2.794  -4.728  0.00  0.00    -0.094 A 
ATOM      9  C9  DEN d   1      -2.884  -4.170  -4.763  0.00  0.00    -0.072 A 
ENDROOT
TORSDOF 0
ENDMDL
