MODEL 1
REMARK minimizedAffinity 6.51909304
REMARK minimizedRMSD -1
REMARK  0 active torsions:
REMARK  status: ('A' for Active; 'I' for Inactive)
ROOT
ATOM      1  C1  DEN d   1      -4.367   2.005  -5.982  0.00  0.00     0.130 A 
ATOM      2  C2  DEN d   1      -5.804   2.269  -5.989  0.00  0.00    -0.031 A 
ATOM      3  C3  DEN d   1      -5.999   3.732  -5.986  0.00  0.00     0.027 A 
ATOM      4  C4  DEN d   1      -4.227   5.606  -5.979  0.00  0.00     0.027 A 
ATOM      5  C5  DEN d   1      -2.876   5.874  -5.961  0.00  0.00    -0.003 A 
ATOM      6  C6  DEN d   1      -1.936   4.879  -5.915  0.00  0.00     0.001 A 
ATOM      7  C7  DEN d   1      -2.333   3.568  -5.931  0.00  0.00     0.017 A 
ATOM      8  C8  DEN d   1      -3.693   3.291  -5.941  0.00  0.00    -0.094 A 
ATOM      9  C9  DEN d   1      -4.628   4.310  -6.000  0.00  0.00    -0.072 A 
ENDROOT
TORSDOF 0
ENDMDL
