MODEL 1
REMARK minimizedAffinity -1.14373446
REMARK minimizedRMSD -1
REMARK  0 active torsions:
REMARK  status: ('A' for Active; 'I' for Inactive)
ROOT
ATOM      1  C1  DEN d   1      -2.057   3.191  -5.442  0.00  0.00     0.130 A 
ATOM      2  C2  DEN d   1      -1.381   4.482  -5.540  0.00  0.00    -0.031 A 
ATOM      3  C3  DEN d   1      -2.406   5.517  -5.778  0.00  0.00     0.027 A 
ATOM      4  C4  DEN d   1      -4.962   5.249  -6.000  0.00  0.00     0.027 A 
ATOM      5  C5  DEN d   1      -6.000   4.343  -6.000  0.00  0.00    -0.003 A 
ATOM      6  C6  DEN d   1      -5.794   2.997  -5.849  0.00  0.00     0.001 A 
ATOM      7  C7  DEN d   1      -4.525   2.523  -5.647  0.00  0.00     0.017 A 
ATOM      8  C8  DEN d   1      -3.473   3.429  -5.653  0.00  0.00    -0.094 A 
ATOM      9  C9  DEN d   1      -3.702   4.787  -5.794  0.00  0.00    -0.072 A 
ENDROOT
TORSDOF 0
ENDMDL
