MODEL 1
REMARK minimizedAffinity 7.12553549
REMARK minimizedRMSD -1
REMARK  0 active torsions:
REMARK  status: ('A' for Active; 'I' for Inactive)
ROOT
ATOM      1  C1  DEN d   1      -0.002   0.647  -2.386  0.00  0.00     0.130 A 
ATOM      2  C2  DEN d   1      -0.557  -0.652  -2.012  0.00  0.00    -0.031 A 
ATOM      3  C3  DEN d   1      -0.180  -0.922  -0.610  0.00  0.00     0.027 A 
ATOM      4  C4  DEN d   1       1.196   0.538   1.011  0.00  0.00     0.027 A 
ATOM      5  C5  DEN d   1       1.889   1.721   1.143  0.00  0.00    -0.003 A 
ATOM      6  C6  DEN d   1       2.029   2.605   0.107  0.00  0.00     0.001 A 
ATOM      7  C7  DEN d   1       1.428   2.342  -1.096  0.00  0.00     0.017 A 
ATOM      8  C8  DEN d   1       0.733   1.148  -1.239  0.00  0.00    -0.094 A 
ATOM      9  C9  DEN d   1       0.593   0.272  -0.176  0.00  0.00    -0.072 A 
ENDROOT
TORSDOF 0
ENDMDL
