MODEL 1
REMARK minimizedAffinity 7.12056589
REMARK minimizedRMSD -1
REMARK  0 active torsions:
REMARK  status: ('A' for Active; 'I' for Inactive)
ROOT
ATOM      1  C1  DEN d   1      -2.027   2.294  -5.032  0.00  0.00     0.130 A 
ATOM      2  C2  DEN d   1      -3.208   1.441  -5.144  0.00  0.00    -0.031 A 
ATOM      3  C3  DEN d   1      -4.353   2.294  -5.522  0.00  0.00     0.027 A 
ATOM      4  C4  DEN d   1      -4.410   4.838  -5.947  0.00  0.00     0.027 A 
ATOM      5  C5  DEN d   1      -3.656   5.991  -5.962  0.00  0.00    -0.003 A 
ATOM      6  C6  DEN d   1      -2.326   5.997  -5.638  0.00  0.00     0.001 A 
ATOM      7  C7  DEN d   1      -1.697   4.821  -5.328  0.00  0.00     0.017 A 
ATOM      8  C8  DEN d   1      -2.451   3.655  -5.304  0.00  0.00    -0.094 A 
ATOM      9  C9  DEN d   1      -3.793   3.667  -5.647  0.00  0.00    -0.072 A 
ENDROOT
TORSDOF 0
ENDMDL
