MODEL 1
REMARK minimizedAffinity 0.123408377
REMARK minimizedRMSD -1
REMARK  0 active torsions:
REMARK  status: ('A' for Active; 'I' for Inactive)
ROOT
ATOM      1  C1  DEN d   1      -2.459   5.707  -5.765  0.00  0.00     0.130 A 
ATOM      2  C2  DEN d   1      -1.356   4.761  -5.628  0.00  0.00    -0.031 A 
ATOM      3  C3  DEN d   1      -1.921   3.397  -5.632  0.00  0.00     0.027 A 
ATOM      4  C4  DEN d   1      -4.385   2.662  -5.840  0.00  0.00     0.027 A 
ATOM      5  C5  DEN d   1      -5.682   3.108  -5.966  0.00  0.00    -0.003 A 
ATOM      6  C6  DEN d   1      -5.997   4.441  -6.000  0.00  0.00     0.001 A 
ATOM      7  C7  DEN d   1      -4.996   5.375  -5.952  0.00  0.00     0.017 A 
ATOM      8  C8  DEN d   1      -3.687   4.934  -5.817  0.00  0.00    -0.094 A 
ATOM      9  C9  DEN d   1      -3.388   3.582  -5.797  0.00  0.00    -0.072 A 
ENDROOT
TORSDOF 0
ENDMDL
