MODEL 1
REMARK minimizedAffinity 5.93534899
REMARK minimizedRMSD -1
REMARK  0 active torsions:
REMARK  status: ('A' for Active; 'I' for Inactive)
ROOT
ATOM      1  C1  DEN d   1      -0.528  -0.361  -3.477  0.00  0.00     0.130 A 
ATOM      2  C2  DEN d   1      -1.302  -1.590  -3.630  0.00  0.00    -0.031 A 
ATOM      3  C3  DEN d   1      -1.372  -2.252  -2.312  0.00  0.00     0.027 A 
ATOM      4  C4  DEN d   1      -0.366  -1.495  -0.060  0.00  0.00     0.027 A 
ATOM      5  C5  DEN d   1       0.384  -0.523   0.564  0.00  0.00    -0.003 A 
ATOM      6  C6  DEN d   1       0.907   0.545  -0.117  0.00  0.00     0.001 A 
ATOM      7  C7  DEN d   1       0.649   0.690  -1.454  0.00  0.00     0.017 A 
ATOM      8  C8  DEN d   1      -0.100  -0.290  -2.092  0.00  0.00    -0.094 A 
ATOM      9  C9  DEN d   1      -0.631  -1.356  -1.384  0.00  0.00    -0.072 A 
ENDROOT
TORSDOF 0
ENDMDL
