MODEL 1
REMARK minimizedAffinity -3.56014323
REMARK minimizedRMSD -1
REMARK  0 active torsions:
REMARK  status: ('A' for Active; 'I' for Inactive)
ROOT
ATOM      1  C1  DEN d   1      -4.829  -2.019  -5.274  0.00  0.00     0.130 A 
ATOM      2  C2  DEN d   1      -5.747  -2.910  -5.979  0.00  0.00    -0.031 A 
ATOM      3  C3  DEN d   1      -5.148  -4.260  -5.998  0.00  0.00     0.027 A 
ATOM      4  C4  DEN d   1      -2.903  -5.054  -5.006  0.00  0.00     0.027 A 
ATOM      5  C5  DEN d   1      -1.774  -4.657  -4.325  0.00  0.00    -0.003 A 
ATOM      6  C6  DEN d   1      -1.569  -3.356  -3.946  0.00  0.00     0.001 A 
ATOM      7  C7  DEN d   1      -2.530  -2.415  -4.206  0.00  0.00     0.017 A 
ATOM      8  C8  DEN d   1      -3.668  -2.806  -4.898  0.00  0.00    -0.094 A 
ATOM      9  C9  DEN d   1      -3.862  -4.128  -5.262  0.00  0.00    -0.072 A 
ENDROOT
TORSDOF 0
ENDMDL
