MODEL 1
REMARK minimizedAffinity 8.06883049
REMARK minimizedRMSD -1
REMARK  0 active torsions:
REMARK  status: ('A' for Active; 'I' for Inactive)
ROOT
ATOM      1  C1  DEN d   1       4.941  -1.758  -1.552  0.00  0.00     0.130 A 
ATOM      2  C2  DEN d   1       4.528  -0.358  -1.516  0.00  0.00    -0.031 A 
ATOM      3  C3  DEN d   1       4.296   0.086  -2.905  0.00  0.00     0.027 A 
ATOM      4  C4  DEN d   1       4.529  -1.255  -5.096  0.00  0.00     0.027 A 
ATOM      5  C5  DEN d   1       4.864  -2.478  -5.634  0.00  0.00    -0.003 A 
ATOM      6  C6  DEN d   1       5.277  -3.528  -4.858  0.00  0.00     0.001 A 
ATOM      7  C7  DEN d   1       5.323  -3.389  -3.496  0.00  0.00     0.017 A 
ATOM      8  C8  DEN d   1       4.994  -2.156  -2.947  0.00  0.00    -0.094 A 
ATOM      9  C9  DEN d   1       4.567  -1.110  -3.748  0.00  0.00    -0.072 A 
ENDROOT
TORSDOF 0
ENDMDL
