MODEL 1
REMARK minimizedAffinity 0.683463812
REMARK minimizedRMSD -1
REMARK  0 active torsions:
REMARK  status: ('A' for Active; 'I' for Inactive)
ROOT
ATOM      1  C1  DEN d   1       0.903   2.592   0.954  0.00  0.00     0.130 A 
ATOM      2  C2  DEN d   1       1.094   1.144   0.942  0.00  0.00    -0.031 A 
ATOM      3  C3  DEN d   1       2.181   0.819   1.887  0.00  0.00     0.027 A 
ATOM      4  C4  DEN d   1       3.578   2.407   3.362  0.00  0.00     0.027 A 
ATOM      5  C5  DEN d   1       3.790   3.724   3.706  0.00  0.00    -0.003 A 
ATOM      6  C6  DEN d   1       3.083   4.750   3.137  0.00  0.00     0.001 A 
ATOM      7  C7  DEN d   1       2.099   4.473   2.225  0.00  0.00     0.017 A 
ATOM      8  C8  DEN d   1       1.885   3.148   1.867  0.00  0.00    -0.094 A 
ATOM      9  C9  DEN d   1       2.602   2.124   2.463  0.00  0.00    -0.072 A 
ENDROOT
TORSDOF 0
ENDMDL
