MODEL 1
REMARK minimizedAffinity -3.04474616
REMARK minimizedRMSD -1
REMARK  0 active torsions:
REMARK  status: ('A' for Active; 'I' for Inactive)
ROOT
ATOM      1  C1  DEN d   1      -1.639  -3.002  -4.869  0.00  0.00     0.130 A 
ATOM      2  C2  DEN d   1      -1.432  -4.426  -4.617  0.00  0.00    -0.031 A 
ATOM      3  C3  DEN d   1      -2.704  -5.127  -4.884  0.00  0.00     0.027 A 
ATOM      4  C4  DEN d   1      -4.961  -4.153  -5.664  0.00  0.00     0.027 A 
ATOM      5  C5  DEN d   1      -5.628  -2.996  -6.000  0.00  0.00    -0.003 A 
ATOM      6  C6  DEN d   1      -5.027  -1.766  -5.950  0.00  0.00     0.001 A 
ATOM      7  C7  DEN d   1      -3.707  -1.669  -5.599  0.00  0.00     0.017 A 
ATOM      8  C8  DEN d   1      -3.029  -2.831  -5.252  0.00  0.00    -0.094 A 
ATOM      9  C9  DEN d   1      -3.651  -4.066  -5.320  0.00  0.00    -0.072 A 
ENDROOT
TORSDOF 0
ENDMDL
