MODEL 1
REMARK minimizedAffinity 6.25472879
REMARK minimizedRMSD -1
REMARK  0 active torsions:
REMARK  status: ('A' for Active; 'I' for Inactive)
ROOT
ATOM      1  C1  DEN d   1      -2.008  -2.025  -3.816  0.00  0.00     0.130 A 
ATOM      2  C2  DEN d   1      -1.149  -3.204  -3.748  0.00  0.00    -0.031 A 
ATOM      3  C3  DEN d   1      -1.874  -4.334  -4.363  0.00  0.00     0.027 A 
ATOM      4  C4  DEN d   1      -4.229  -4.371  -5.414  0.00  0.00     0.027 A 
ATOM      5  C5  DEN d   1      -5.346  -3.614  -5.694  0.00  0.00    -0.003 A 
ATOM      6  C6  DEN d   1      -5.441  -2.294  -5.340  0.00  0.00     0.001 A 
ATOM      7  C7  DEN d   1      -4.382  -1.678  -4.726  0.00  0.00     0.017 A 
ATOM      8  C8  DEN d   1      -3.256  -2.437  -4.434  0.00  0.00    -0.094 A 
ATOM      9  C9  DEN d   1      -3.175  -3.766  -4.810  0.00  0.00    -0.072 A 
ENDROOT
TORSDOF 0
ENDMDL
