MODEL 1
REMARK minimizedAffinity 3.60479283
REMARK minimizedRMSD -1
REMARK  0 active torsions:
REMARK  status: ('A' for Active; 'I' for Inactive)
ROOT
ATOM      1  C1  DEN d   1      -0.316  -1.546   0.705  0.00  0.00     0.130 A 
ATOM      2  C2  DEN d   1      -0.730  -2.291  -0.481  0.00  0.00    -0.031 A 
ATOM      3  C3  DEN d   1      -0.511  -1.431  -1.661  0.00  0.00     0.027 A 
ATOM      4  C4  DEN d   1       0.429   0.969  -1.767  0.00  0.00     0.027 A 
ATOM      5  C5  DEN d   1       0.908   2.021  -1.018  0.00  0.00    -0.003 A 
ATOM      6  C6  DEN d   1       0.980   1.971   0.349  0.00  0.00     0.001 A 
ATOM      7  C7  DEN d   1       0.608   0.828   1.007  0.00  0.00     0.017 A 
ATOM      8  C8  DEN d   1       0.118  -0.234   0.259  0.00  0.00    -0.094 A 
ATOM      9  C9  DEN d   1       0.064  -0.169  -1.123  0.00  0.00    -0.072 A 
ENDROOT
TORSDOF 0
ENDMDL
