MODEL 1
REMARK minimizedAffinity -3.06534743
REMARK minimizedRMSD -1
REMARK  0 active torsions:
REMARK  status: ('A' for Active; 'I' for Inactive)
ROOT
ATOM      1  C1  DEN d   1      -5.257  -4.410  -5.999  0.00  0.00     0.130 A 
ATOM      2  C2  DEN d   1      -5.810  -3.059  -5.985  0.00  0.00    -0.031 A 
ATOM      3  C3  DEN d   1      -4.813  -2.164  -5.364  0.00  0.00     0.027 A 
ATOM      4  C4  DEN d   1      -2.478  -2.735  -4.430  0.00  0.00     0.027 A 
ATOM      5  C5  DEN d   1      -1.575  -3.752  -4.210  0.00  0.00    -0.003 A 
ATOM      6  C6  DEN d   1      -1.848  -5.054  -4.536  0.00  0.00     0.001 A 
ATOM      7  C7  DEN d   1      -3.035  -5.367  -5.143  0.00  0.00     0.017 A 
ATOM      8  C8  DEN d   1      -3.953  -4.349  -5.362  0.00  0.00    -0.094 A 
ATOM      9  C9  DEN d   1      -3.654  -3.037  -5.036  0.00  0.00    -0.072 A 
ENDROOT
TORSDOF 0
ENDMDL
