MODEL 1
REMARK minimizedAffinity 7.76518726
REMARK minimizedRMSD -1
REMARK  2 active torsions:
REMARK  status: ('A' for Active; 'I' for Inactive)
REMARK    1  A    between atoms: C2'_3  and  C1'_4 
REMARK    2  A    between atoms: C1'_4  and  C1_5 
ROOT
ATOM      1  C1  I4B d   1      -3.608  -4.042  -5.960  0.00  0.00    -0.075 A 
ATOM      2  C2  I4B d   1      -3.082  -2.774  -5.970  0.00  0.00     0.003 A 
ATOM      3  C3  I4B d   1      -3.940  -1.647  -5.964  0.00  0.00     0.002 A 
ATOM      4  C4  I4B d   1      -5.307  -1.833  -5.999  0.00  0.00    -0.004 A 
ATOM      5  C5  I4B d   1      -5.838  -3.119  -5.965  0.00  0.00     0.002 A 
ATOM      6  C6  I4B d   1      -4.983  -4.231  -5.933  0.00  0.00     0.003 A 
ENDROOT
BRANCH   1   7
ATOM      7  C1' I4B d   1      -2.674  -5.210  -5.999  0.00  0.00     0.060 C 
BRANCH   7   8
ATOM      8  C2' I4B d   1      -1.571  -4.960  -4.991  0.00  0.00    -0.013 C 
ATOM      9  C4' I4B d   1      -2.101  -4.998  -3.582  0.00  0.00     0.013 C 
ATOM     10  C3' I4B d   1      -0.509  -5.998  -5.199  0.00  0.00     0.013 C 
ENDBRANCH   7   8
ENDBRANCH   1   7
TORSDOF 2
ENDMDL
