MODEL 1
REMARK minimizedAffinity 3.89720654
REMARK minimizedRMSD -1
REMARK  2 active torsions:
REMARK  status: ('A' for Active; 'I' for Inactive)
REMARK    1  A    between atoms: C2'_3  and  C1'_4 
REMARK    2  A    between atoms: C1'_4  and  C1_5 
ROOT
ATOM      1  C1  I4B d   1      -0.171  -0.234   0.605  0.00  0.00    -0.075 A 
ATOM      2  C2  I4B d   1       0.638   0.519  -0.209  0.00  0.00     0.003 A 
ATOM      3  C3  I4B d   1       1.160  -0.034  -1.403  0.00  0.00     0.002 A 
ATOM      4  C4  I4B d   1       0.889  -1.350  -1.718  0.00  0.00    -0.004 A 
ATOM      5  C5  I4B d   1       0.049  -2.104  -0.904  0.00  0.00     0.002 A 
ATOM      6  C6  I4B d   1      -0.495  -1.539   0.259  0.00  0.00     0.003 A 
ENDROOT
BRANCH   1   7
ATOM      7  C1' I4B d   1      -0.678   0.371   1.876  0.00  0.00     0.060 C 
BRANCH   7   8
ATOM      8  C2' I4B d   1      -1.994   1.058   1.574  0.00  0.00    -0.013 C 
ATOM      9  C4' I4B d   1      -3.050   0.062   1.174  0.00  0.00     0.013 C 
ATOM     10  C3' I4B d   1      -2.406   1.825   2.795  0.00  0.00     0.013 C 
ENDBRANCH   7   8
ENDBRANCH   1   7
TORSDOF 2
ENDMDL
