MODEL 1
REMARK minimizedAffinity 7.73305893
REMARK minimizedRMSD -1
REMARK  2 active torsions:
REMARK  status: ('A' for Active; 'I' for Inactive)
REMARK    1  A    between atoms: C2'_3  and  C1'_4 
REMARK    2  A    between atoms: C1'_4  and  C1_5 
ROOT
ATOM      1  C1  I4B d   1      -3.359   2.161  -5.919  0.00  0.00    -0.075 A 
ATOM      2  C2  I4B d   1      -4.616   1.615  -5.994  0.00  0.00     0.003 A 
ATOM      3  C3  I4B d   1      -4.783   0.209  -5.994  0.00  0.00     0.002 A 
ATOM      4  C4  I4B d   1      -3.671  -0.608  -5.967  0.00  0.00    -0.004 A 
ATOM      5  C5  I4B d   1      -2.399  -0.052  -5.868  0.00  0.00     0.002 A 
ATOM      6  C6  I4B d   1      -2.242   1.341  -5.831  0.00  0.00     0.003 A 
ENDROOT
BRANCH   1   7
ATOM      7  C1' I4B d   1      -3.217   3.650  -5.955  0.00  0.00     0.060 C 
BRANCH   7   8
ATOM      8  C2' I4B d   1      -4.607   4.252  -5.932  0.00  0.00    -0.013 C 
ATOM      9  C4' I4B d   1      -5.372   3.811  -4.713  0.00  0.00     0.013 C 
ATOM     10  C3' I4B d   1      -4.465   5.744  -5.972  0.00  0.00     0.013 C 
ENDBRANCH   7   8
ENDBRANCH   1   7
TORSDOF 2
ENDMDL
