MODEL 1
REMARK minimizedAffinity 3.07172799
REMARK minimizedRMSD -1
REMARK  2 active torsions:
REMARK  status: ('A' for Active; 'I' for Inactive)
REMARK    1  A    between atoms: C2'_3  and  C1'_4 
REMARK    2  A    between atoms: C1'_4  and  C1_5 
ROOT
ATOM      1  C1  I4B d   1       0.474   0.162  -1.245  0.00  0.00    -0.075 A 
ATOM      2  C2  I4B d   1       0.614   0.296  -2.604  0.00  0.00     0.003 A 
ATOM      3  C3  I4B d   1       1.013  -0.811  -3.391  0.00  0.00     0.002 A 
ATOM      4  C4  I4B d   1       1.310  -2.010  -2.777  0.00  0.00    -0.004 A 
ATOM      5  C5  I4B d   1       1.146  -2.150  -1.402  0.00  0.00     0.002 A 
ATOM      6  C6  I4B d   1       0.714  -1.061  -0.632  0.00  0.00     0.003 A 
ENDROOT
BRANCH   1   7
ATOM      7  C1' I4B d   1       0.082   1.360  -0.439  0.00  0.00     0.060 C 
BRANCH   7   8
ATOM      8  C2' I4B d   1       0.779   1.269   0.903  0.00  0.00    -0.013 C 
ATOM      9  C4' I4B d   1       1.720   2.427   1.108  0.00  0.00     0.013 C 
ATOM     10  C3' I4B d   1      -0.274   1.231   1.970  0.00  0.00     0.013 C 
ENDBRANCH   7   8
ENDBRANCH   1   7
TORSDOF 2
ENDMDL
