MODEL 1
REMARK minimizedAffinity 7.76562834
REMARK minimizedRMSD -1
REMARK  2 active torsions:
REMARK  status: ('A' for Active; 'I' for Inactive)
REMARK    1  A    between atoms: C2'_3  and  C1'_4 
REMARK    2  A    between atoms: C1'_4  and  C1_5 
ROOT
ATOM      1  C1  I4B d   1       0.785   0.682  -0.573  0.00  0.00    -0.075 A 
ATOM      2  C2  I4B d   1       0.689  -0.639  -0.213  0.00  0.00     0.003 A 
ATOM      3  C3  I4B d   1       0.677  -1.649  -1.205  0.00  0.00     0.002 A 
ATOM      4  C4  I4B d   1       0.712  -1.293  -2.538  0.00  0.00    -0.004 A 
ATOM      5  C5  I4B d   1       0.833   0.045  -2.900  0.00  0.00     0.002 A 
ATOM      6  C6  I4B d   1       0.882   1.039  -1.912  0.00  0.00     0.003 A 
ENDROOT
BRANCH   1   7
ATOM      7  C1' I4B d   1       0.762   1.725   0.499  0.00  0.00     0.060 C 
BRANCH   7   8
ATOM      8  C2' I4B d   1       2.003   2.580   0.345  0.00  0.00    -0.013 C 
ATOM      9  C4' I4B d   1       1.709   3.831  -0.441  0.00  0.00     0.013 C 
ATOM     10  C3' I4B d   1       2.511   2.910   1.717  0.00  0.00     0.013 C 
ENDBRANCH   7   8
ENDBRANCH   1   7
TORSDOF 2
ENDMDL
