MODEL 1
REMARK minimizedAffinity 0.977354586
REMARK minimizedRMSD -1
REMARK  2 active torsions:
REMARK  status: ('A' for Active; 'I' for Inactive)
REMARK    1  A    between atoms: C2'_3  and  C1'_4 
REMARK    2  A    between atoms: C1'_4  and  C1_5 
ROOT
ATOM      1  C1  I4B d   1       1.307   0.731  -1.132  0.00  0.00    -0.075 A 
ATOM      2  C2  I4B d   1       1.284   0.030  -2.313  0.00  0.00     0.003 A 
ATOM      3  C3  I4B d   1       0.543  -1.172  -2.414  0.00  0.00     0.002 A 
ATOM      4  C4  I4B d   1      -0.115  -1.660  -1.304  0.00  0.00    -0.004 A 
ATOM      5  C5  I4B d   1      -0.110  -0.937  -0.114  0.00  0.00     0.002 A 
ATOM      6  C6  I4B d   1       0.595   0.272  -0.031  0.00  0.00     0.003 A 
ENDROOT
BRANCH   1   7
ATOM      7  C1' I4B d   1       2.127   1.979  -1.050  0.00  0.00     0.060 C 
BRANCH   7   8
ATOM      8  C2' I4B d   1       1.461   2.911  -0.058  0.00  0.00    -0.013 C 
ATOM      9  C4' I4B d   1       2.180   2.902   1.265  0.00  0.00     0.013 C 
ATOM     10  C3' I4B d   1       1.442   4.286  -0.655  0.00  0.00     0.013 C 
ENDBRANCH   7   8
ENDBRANCH   1   7
TORSDOF 2
ENDMDL
