MODEL 1
REMARK minimizedAffinity -1.64810431
REMARK minimizedRMSD -1
REMARK  2 active torsions:
REMARK  status: ('A' for Active; 'I' for Inactive)
REMARK    1  A    between atoms: C2'_3  and  C1'_4 
REMARK    2  A    between atoms: C1'_4  and  C1_5 
ROOT
ATOM      1  C1  I4B d   1      -4.410   2.557  -5.943  0.00  0.00    -0.075 A 
ATOM      2  C2  I4B d   1      -3.112   3.002  -5.993  0.00  0.00     0.003 A 
ATOM      3  C3  I4B d   1      -2.834   4.390  -5.996  0.00  0.00     0.002 A 
ATOM      4  C4  I4B d   1      -3.879   5.293  -5.998  0.00  0.00    -0.004 A 
ATOM      5  C5  I4B d   1      -5.193   4.840  -5.924  0.00  0.00     0.002 A 
ATOM      6  C6  I4B d   1      -5.460   3.464  -5.884  0.00  0.00     0.003 A 
ENDROOT
BRANCH   1   7
ATOM      7  C1' I4B d   1      -4.669   1.084  -5.975  0.00  0.00     0.060 C 
BRANCH   7   8
ATOM      8  C2' I4B d   1      -3.330   0.376  -5.999  0.00  0.00    -0.013 C 
ATOM      9  C4' I4B d   1      -2.347   1.035  -5.067  0.00  0.00     0.013 C 
ATOM     10  C3' I4B d   1      -3.557  -1.057  -5.620  0.00  0.00     0.013 C 
ENDBRANCH   7   8
ENDBRANCH   1   7
TORSDOF 2
ENDMDL
