MODEL 1
REMARK minimizedAffinity 8.25877285
REMARK minimizedRMSD -1
REMARK  2 active torsions:
REMARK  status: ('A' for Active; 'I' for Inactive)
REMARK    1  A    between atoms: C2'_3  and  C1'_4 
REMARK    2  A    between atoms: C1'_4  and  C1_5 
ROOT
ATOM      1  C1  I4B d   1      -2.054   4.087  -5.750  0.00  0.00    -0.075 A 
ATOM      2  C2  I4B d   1      -1.421   2.876  -5.617  0.00  0.00     0.003 A 
ATOM      3  C3  I4B d   1      -2.162   1.672  -5.688  0.00  0.00     0.002 A 
ATOM      4  C4  I4B d   1      -3.533   1.726  -5.842  0.00  0.00    -0.004 A 
ATOM      5  C5  I4B d   1      -4.170   2.953  -6.000  0.00  0.00     0.002 A 
ATOM      6  C6  I4B d   1      -3.425   4.141  -5.967  0.00  0.00     0.003 A 
ENDROOT
BRANCH   1   7
ATOM      7  C1' I4B d   1      -1.245   5.340  -5.637  0.00  0.00     0.060 C 
BRANCH   7   8
ATOM      8  C2' I4B d   1      -1.382   5.857  -4.220  0.00  0.00    -0.013 C 
ATOM      9  C4' I4B d   1      -2.234   4.940  -3.384  0.00  0.00     0.013 C 
ATOM     10  C3' I4B d   1      -0.005   5.994  -3.642  0.00  0.00     0.013 C 
ENDBRANCH   7   8
ENDBRANCH   1   7
TORSDOF 2
ENDMDL
