MODEL 1
REMARK minimizedAffinity 18.829319
REMARK minimizedRMSD -1
REMARK  2 active torsions:
REMARK  status: ('A' for Active; 'I' for Inactive)
REMARK    1  A    between atoms: C2'_3  and  C1'_4 
REMARK    2  A    between atoms: C1'_4  and  C1_5 
ROOT
ATOM      1  C1  I4B d   1       1.045   5.392   3.224  0.00  0.00    -0.075 A 
ATOM      2  C2  I4B d   1       2.175   5.433   4.004  0.00  0.00     0.003 A 
ATOM      3  C3  I4B d   1       2.074   5.702   5.390  0.00  0.00     0.002 A 
ATOM      4  C4  I4B d   1       0.839   5.972   5.943  0.00  0.00    -0.004 A 
ATOM      5  C5  I4B d   1      -0.307   5.907   5.156  0.00  0.00     0.002 A 
ATOM      6  C6  I4B d   1      -0.205   5.604   3.790  0.00  0.00     0.003 A 
ENDROOT
BRANCH   1   7
ATOM      7  C1' I4B d   1       1.191   5.138   1.758  0.00  0.00     0.060 C 
BRANCH   7   8
ATOM      8  C2' I4B d   1       0.637   3.758   1.466  0.00  0.00    -0.013 C 
ATOM      9  C4' I4B d   1       0.670   3.458  -0.010  0.00  0.00     0.013 C 
ATOM     10  C3' I4B d   1       1.447   2.761   2.239  0.00  0.00     0.013 C 
ENDBRANCH   7   8
ENDBRANCH   1   7
TORSDOF 2
ENDMDL
