MODEL 1
REMARK minimizedAffinity 5.02757549
REMARK minimizedRMSD -1
REMARK  2 active torsions:
REMARK  status: ('A' for Active; 'I' for Inactive)
REMARK    1  A    between atoms: C2'_3  and  C1'_4 
REMARK    2  A    between atoms: C1'_4  and  C1_5 
ROOT
ATOM      1  C1  I4B d   1      -4.098  -0.175   3.085  0.00  0.00    -0.075 A 
ATOM      2  C2  I4B d   1      -3.399  -0.121   4.265  0.00  0.00     0.003 A 
ATOM      3  C3  I4B d   1      -2.802   1.092   4.686  0.00  0.00     0.002 A 
ATOM      4  C4  I4B d   1      -2.886   2.207   3.877  0.00  0.00    -0.004 A 
ATOM      5  C5  I4B d   1      -3.615   2.157   2.692  0.00  0.00     0.002 A 
ATOM      6  C6  I4B d   1      -4.235   0.962   2.299  0.00  0.00     0.003 A 
ENDROOT
BRANCH   1   7
ATOM      7  C1' I4B d   1      -4.687  -1.481   2.655  0.00  0.00     0.060 C 
BRANCH   7   8
ATOM      8  C2' I4B d   1      -4.191  -2.552   3.604  0.00  0.00    -0.013 C 
ATOM      9  C4' I4B d   1      -5.174  -3.689   3.705  0.00  0.00     0.013 C 
ATOM     10  C3' I4B d   1      -2.859  -3.030   3.107  0.00  0.00     0.013 C 
ENDBRANCH   7   8
ENDBRANCH   1   7
TORSDOF 2
ENDMDL
