MODEL 1
REMARK minimizedAffinity 24.1111488
REMARK minimizedRMSD -1
REMARK  2 active torsions:
REMARK  status: ('A' for Active; 'I' for Inactive)
REMARK    1  A    between atoms: C2'_3  and  C1'_4 
REMARK    2  A    between atoms: C1'_4  and  C1_5 
ROOT
ATOM      1  C1  I4B d   1      -1.831  -1.836  -2.379  0.00  0.00    -0.075 A 
ATOM      2  C2  I4B d   1      -0.870  -0.877  -2.585  0.00  0.00     0.003 A 
ATOM      3  C3  I4B d   1       0.382  -0.971  -1.931  0.00  0.00     0.002 A 
ATOM      4  C4  I4B d   1       0.612  -2.005  -1.047  0.00  0.00    -0.004 A 
ATOM      5  C5  I4B d   1      -0.354  -2.989  -0.857  0.00  0.00     0.002 A 
ATOM      6  C6  I4B d   1      -1.579  -2.911  -1.536  0.00  0.00     0.003 A 
ENDROOT
BRANCH   1   7
ATOM      7  C1' I4B d   1      -3.154  -1.689  -3.060  0.00  0.00     0.060 C 
BRANCH   7   8
ATOM      8  C2' I4B d   1      -2.896  -1.430  -4.530  0.00  0.00    -0.013 C 
ATOM      9  C4' I4B d   1      -3.856  -2.203  -5.396  0.00  0.00     0.013 C 
ATOM     10  C3' I4B d   1      -3.019   0.045  -4.769  0.00  0.00     0.013 C 
ENDBRANCH   7   8
ENDBRANCH   1   7
TORSDOF 2
ENDMDL
