MODEL 1
REMARK minimizedAffinity 13.1840372
REMARK minimizedRMSD -1
REMARK  2 active torsions:
REMARK  status: ('A' for Active; 'I' for Inactive)
REMARK    1  A    between atoms: C2'_3  and  C1'_4 
REMARK    2  A    between atoms: C1'_4  and  C1_5 
ROOT
ATOM      1  C1  I4B d   1      -2.636   4.200  -3.973  0.00  0.00    -0.075 A 
ATOM      2  C2  I4B d   1      -3.968   4.533  -3.957  0.00  0.00     0.003 A 
ATOM      3  C3  I4B d   1      -4.835   4.054  -4.969  0.00  0.00     0.002 A 
ATOM      4  C4  I4B d   1      -4.322   3.291  -5.998  0.00  0.00    -0.004 A 
ATOM      5  C5  I4B d   1      -2.976   2.935  -6.000  0.00  0.00     0.002 A 
ATOM      6  C6  I4B d   1      -2.130   3.382  -4.974  0.00  0.00     0.003 A 
ENDROOT
BRANCH   1   7
ATOM      7  C1' I4B d   1      -1.743   4.750  -2.907  0.00  0.00     0.060 C 
BRANCH   7   8
ATOM      8  C2' I4B d   1      -1.026   5.958  -3.476  0.00  0.00    -0.013 C 
ATOM      9  C4' I4B d   1       0.429   5.962  -3.087  0.00  0.00     0.013 C 
ATOM     10  C3' I4B d   1      -1.187   5.931  -4.967  0.00  0.00     0.013 C 
ENDBRANCH   7   8
ENDBRANCH   1   7
TORSDOF 2
ENDMDL
