MODEL 1
REMARK minimizedAffinity 0.786784768
REMARK minimizedRMSD -1
REMARK  2 active torsions:
REMARK  status: ('A' for Active; 'I' for Inactive)
REMARK    1  A    between atoms: C2'_3  and  C1'_4 
REMARK    2  A    between atoms: C1'_4  and  C1_5 
ROOT
ATOM      1  C1  I4B d   1      -0.047  -0.508  -0.148  0.00  0.00    -0.075 A 
ATOM      2  C2  I4B d   1       1.153  -1.170  -0.082  0.00  0.00     0.003 A 
ATOM      3  C3  I4B d   1       2.366  -0.471  -0.298  0.00  0.00     0.002 A 
ATOM      4  C4  I4B d   1       2.329   0.869  -0.625  0.00  0.00    -0.004 A 
ATOM      5  C5  I4B d   1       1.112   1.544  -0.668  0.00  0.00     0.002 A 
ATOM      6  C6  I4B d   1      -0.083   0.854  -0.417  0.00  0.00     0.003 A 
ENDROOT
BRANCH   1   7
ATOM      7  C1' I4B d   1      -1.310  -1.284   0.052  0.00  0.00     0.060 C 
BRANCH   7   8
ATOM      8  C2' I4B d   1      -1.430  -2.282  -1.081  0.00  0.00    -0.013 C 
ATOM      9  C4' I4B d   1      -1.835  -3.640  -0.571  0.00  0.00     0.013 C 
ATOM     10  C3' I4B d   1      -2.432  -1.751  -2.062  0.00  0.00     0.013 C 
ENDBRANCH   7   8
ENDBRANCH   1   7
TORSDOF 2
ENDMDL
