MODEL 1
REMARK minimizedAffinity -4.43349314
REMARK minimizedRMSD -1
REMARK  0 active torsions:
REMARK  status: ('A' for Active; 'I' for Inactive)
ROOT
ATOM      1  C1  BNZ d   1       0.231  -1.267   0.429  0.00  0.00     0.000 A 
ATOM      2  C2  BNZ d   1       0.020  -2.615   0.312  0.00  0.00     0.000 A 
ATOM      3  C3  BNZ d   1       1.072  -3.481   0.206  0.00  0.00     0.000 A 
ATOM      4  C4  BNZ d   1       2.330  -2.996   0.177  0.00  0.00     0.000 A 
ATOM      5  C5  BNZ d   1       2.558  -1.639   0.285  0.00  0.00     0.000 A 
ATOM      6  C6  BNZ d   1       1.499  -0.773   0.431  0.00  0.00     0.000 A 
ENDROOT
TORSDOF 0
ENDMDL
