MODEL 1
REMARK minimizedAffinity -0.872572243
REMARK minimizedRMSD -1
REMARK  0 active torsions:
REMARK  status: ('A' for Active; 'I' for Inactive)
ROOT
ATOM      1  C1  BNZ d   1       0.312  -2.881   0.337  0.00  0.00     0.000 A 
ATOM      2  C2  BNZ d   1       0.689  -1.565   0.390  0.00  0.00     0.000 A 
ATOM      3  C3  BNZ d   1       1.980  -1.196   0.136  0.00  0.00     0.000 A 
ATOM      4  C4  BNZ d   1       2.901  -2.145  -0.131  0.00  0.00     0.000 A 
ATOM      5  C5  BNZ d   1       2.539  -3.477  -0.179  0.00  0.00     0.000 A 
ATOM      6  C6  BNZ d   1       1.230  -3.841   0.039  0.00  0.00     0.000 A 
ENDROOT
TORSDOF 0
ENDMDL
