MODEL 1
REMARK minimizedAffinity -2.90192199
REMARK minimizedRMSD -1
REMARK  0 active torsions:
REMARK  status: ('A' for Active; 'I' for Inactive)
ROOT
ATOM      1  C1  BNZ d   1       0.446  -2.652   1.241  0.00  0.00     0.000 A 
ATOM      2  C2  BNZ d   1       1.812  -2.591   1.169  0.00  0.00     0.000 A 
ATOM      3  C3  BNZ d   1       2.449  -1.403   0.939  0.00  0.00     0.000 A 
ATOM      4  C4  BNZ d   1       1.718  -0.287   0.741  0.00  0.00     0.000 A 
ATOM      5  C5  BNZ d   1       0.339  -0.334   0.801  0.00  0.00     0.000 A 
ATOM      6  C6  BNZ d   1      -0.296  -1.525   1.071  0.00  0.00     0.000 A 
ENDROOT
TORSDOF 0
ENDMDL
