MODEL 1
REMARK minimizedAffinity -2.16024828
REMARK minimizedRMSD -1
REMARK  0 active torsions:
REMARK  status: ('A' for Active; 'I' for Inactive)
ROOT
ATOM      1  C1  BNZ d   1       1.226  -0.864   0.736  0.00  0.00     0.000 A 
ATOM      2  C2  BNZ d   1       1.843  -2.052   0.449  0.00  0.00     0.000 A 
ATOM      3  C3  BNZ d   1       1.115  -3.196   0.281  0.00  0.00     0.000 A 
ATOM      4  C4  BNZ d   1      -0.224  -3.159   0.439  0.00  0.00     0.000 A 
ATOM      5  C5  BNZ d   1      -0.860  -1.970   0.737  0.00  0.00     0.000 A 
ATOM      6  C6  BNZ d   1      -0.127  -0.813   0.867  0.00  0.00     0.000 A 
ENDROOT
TORSDOF 0
ENDMDL
