MODEL 1
REMARK minimizedAffinity -5.40586424
REMARK minimizedRMSD -1
REMARK  0 active torsions:
REMARK  status: ('A' for Active; 'I' for Inactive)
ROOT
ATOM      1  C1  BNZ d   1       2.663  -3.465   0.034  0.00  0.00     0.000 A 
ATOM      2  C2  BNZ d   1       2.884  -2.137   0.287  0.00  0.00     0.000 A 
ATOM      3  C3  BNZ d   1       1.859  -1.234   0.230  0.00  0.00     0.000 A 
ATOM      4  C4  BNZ d   1       0.625  -1.652  -0.117  0.00  0.00     0.000 A 
ATOM      5  C5  BNZ d   1       0.388  -2.986  -0.383  0.00  0.00     0.000 A 
ATOM      6  C6  BNZ d   1       1.413  -3.899  -0.287  0.00  0.00     0.000 A 
ENDROOT
TORSDOF 0
ENDMDL
