MODEL 1
REMARK minimizedAffinity -4.11070824
REMARK minimizedRMSD -1
REMARK  0 active torsions:
REMARK  status: ('A' for Active; 'I' for Inactive)
ROOT
ATOM      1  C1  BNZ d   1       1.352  -2.754   0.084  0.00  0.00     0.000 A 
ATOM      2  C2  BNZ d   1      -0.016  -2.799   0.035  0.00  0.00     0.000 A 
ATOM      3  C3  BNZ d   1      -0.768  -1.787   0.563  0.00  0.00     0.000 A 
ATOM      4  C4  BNZ d   1      -0.154  -0.753   1.173  0.00  0.00     0.000 A 
ATOM      5  C5  BNZ d   1       1.224  -0.698   1.238  0.00  0.00     0.000 A 
ATOM      6  C6  BNZ d   1       1.979  -1.699   0.671  0.00  0.00     0.000 A 
ENDROOT
TORSDOF 0
ENDMDL
