MODEL 1
REMARK minimizedAffinity 1.87936497
REMARK minimizedRMSD -1
REMARK  0 active torsions:
REMARK  status: ('A' for Active; 'I' for Inactive)
ROOT
ATOM      1  C1  BNZ d   1       1.750  -1.051   0.382  0.00  0.00     0.000 A 
ATOM      2  C2  BNZ d   1       2.564  -2.073  -0.031  0.00  0.00     0.000 A 
ATOM      3  C3  BNZ d   1       2.079  -3.344  -0.163  0.00  0.00     0.000 A 
ATOM      4  C4  BNZ d   1       0.793  -3.599   0.154  0.00  0.00     0.000 A 
ATOM      5  C5  BNZ d   1      -0.037  -2.582   0.580  0.00  0.00     0.000 A 
ATOM      6  C6  BNZ d   1       0.444  -1.296   0.676  0.00  0.00     0.000 A 
ENDROOT
TORSDOF 0
ENDMDL
