MODEL 1
REMARK minimizedAffinity -3.03511953
REMARK minimizedRMSD -1
REMARK  0 active torsions:
REMARK  status: ('A' for Active; 'I' for Inactive)
ROOT
ATOM      1  C1  BNZ d   1      -0.264  -1.713   0.807  0.00  0.00     0.000 A 
ATOM      2  C2  BNZ d   1       0.102  -0.409   1.009  0.00  0.00     0.000 A 
ATOM      3  C3  BNZ d   1       1.344   0.033   0.649  0.00  0.00     0.000 A 
ATOM      4  C4  BNZ d   1       2.231  -0.837   0.126  0.00  0.00     0.000 A 
ATOM      5  C5  BNZ d   1       1.881  -2.157  -0.075  0.00  0.00     0.000 A 
ATOM      6  C6  BNZ d   1       0.616  -2.590   0.252  0.00  0.00     0.000 A 
ENDROOT
TORSDOF 0
ENDMDL
