MODEL 1
REMARK minimizedAffinity -4.99706554
REMARK minimizedRMSD -1
REMARK  0 active torsions:
REMARK  status: ('A' for Active; 'I' for Inactive)
ROOT
ATOM      1  C1  BNZ d   1       0.776  -3.115   0.768  0.00  0.00     0.000 A 
ATOM      2  C2  BNZ d   1       2.061  -2.943   0.327  0.00  0.00     0.000 A 
ATOM      3  C3  BNZ d   1       2.591  -1.691   0.187  0.00  0.00     0.000 A 
ATOM      4  C4  BNZ d   1       1.824  -0.613   0.450  0.00  0.00     0.000 A 
ATOM      5  C5  BNZ d   1       0.524  -0.770   0.887  0.00  0.00     0.000 A 
ATOM      6  C6  BNZ d   1       0.006  -2.033   1.064  0.00  0.00     0.000 A 
ENDROOT
TORSDOF 0
ENDMDL
