MODEL 1
REMARK minimizedAffinity -4.0249095
REMARK minimizedRMSD -1
REMARK  0 active torsions:
REMARK  status: ('A' for Active; 'I' for Inactive)
ROOT
ATOM      1  C1  BNZ d   1       0.492  -0.595   0.997  0.00  0.00     0.000 A 
ATOM      2  C2  BNZ d   1       1.834  -0.431   0.776  0.00  0.00     0.000 A 
ATOM      3  C3  BNZ d   1       2.569  -1.413   0.173  0.00  0.00     0.000 A 
ATOM      4  C4  BNZ d   1       1.971  -2.572  -0.171  0.00  0.00     0.000 A 
ATOM      5  C5  BNZ d   1       0.622  -2.757   0.053  0.00  0.00     0.000 A 
ATOM      6  C6  BNZ d   1      -0.123  -1.751   0.625  0.00  0.00     0.000 A 
ENDROOT
TORSDOF 0
ENDMDL
