MODEL 1
REMARK minimizedAffinity -0.741734982
REMARK minimizedRMSD -1
REMARK  0 active torsions:
REMARK  status: ('A' for Active; 'I' for Inactive)
ROOT
ATOM      1  C1  BNZ d   1      -0.949  -0.784   0.684  0.00  0.00     0.000 A 
ATOM      2  C2  BNZ d   1      -0.119   0.044   1.392  0.00  0.00     0.000 A 
ATOM      3  C3  BNZ d   1       1.229  -0.182   1.430  0.00  0.00     0.000 A 
ATOM      4  C4  BNZ d   1       1.739  -1.257   0.796  0.00  0.00     0.000 A 
ATOM      5  C5  BNZ d   1       0.913  -2.107   0.086  0.00  0.00     0.000 A 
ATOM      6  C6  BNZ d   1      -0.437  -1.854   0.017  0.00  0.00     0.000 A 
ENDROOT
TORSDOF 0
ENDMDL
