MODEL 1
REMARK minimizedAffinity -0.904989183
REMARK minimizedRMSD -1
REMARK  0 active torsions:
REMARK  status: ('A' for Active; 'I' for Inactive)
ROOT
ATOM      1  C1  BNZ d   1      -0.859  -1.379   0.450  0.00  0.00     0.000 A 
ATOM      2  C2  BNZ d   1      -0.342  -2.556  -0.024  0.00  0.00     0.000 A 
ATOM      3  C3  BNZ d   1       0.949  -2.912   0.246  0.00  0.00     0.000 A 
ATOM      4  C4  BNZ d   1       1.734  -2.074   0.954  0.00  0.00     0.000 A 
ATOM      5  C5  BNZ d   1       1.230  -0.880   1.431  0.00  0.00     0.000 A 
ATOM      6  C6  BNZ d   1      -0.082  -0.543   1.190  0.00  0.00     0.000 A 
ENDROOT
TORSDOF 0
ENDMDL
