MODEL 1
REMARK minimizedAffinity -3.74840999
REMARK minimizedRMSD -1
REMARK  0 active torsions:
REMARK  status: ('A' for Active; 'I' for Inactive)
ROOT
ATOM      1  C1  BNZ d   1       2.634  -3.345  -0.102  0.00  0.00     0.000 A 
ATOM      2  C2  BNZ d   1       1.295  -3.627  -0.155  0.00  0.00     0.000 A 
ATOM      3  C3  BNZ d   1       0.365  -2.661   0.112  0.00  0.00     0.000 A 
ATOM      4  C4  BNZ d   1       0.775  -1.428   0.472  0.00  0.00     0.000 A 
ATOM      5  C5  BNZ d   1       2.122  -1.131   0.540  0.00  0.00     0.000 A 
ATOM      6  C6  BNZ d   1       3.054  -2.094   0.232  0.00  0.00     0.000 A 
ENDROOT
TORSDOF 0
ENDMDL
