MODEL 1
REMARK minimizedAffinity -4.80245113
REMARK minimizedRMSD -1
REMARK  0 active torsions:
REMARK  status: ('A' for Active; 'I' for Inactive)
ROOT
ATOM      1  C1  BNZ d   1       1.484  -0.504   0.637  0.00  0.00     0.000 A 
ATOM      2  C2  BNZ d   1       2.279  -1.552   0.259  0.00  0.00     0.000 A 
ATOM      3  C3  BNZ d   1       1.779  -2.823   0.195  0.00  0.00     0.000 A 
ATOM      4  C4  BNZ d   1       0.496  -3.049   0.547  0.00  0.00     0.000 A 
ATOM      5  C5  BNZ d   1      -0.315  -2.003   0.939  0.00  0.00     0.000 A 
ATOM      6  C6  BNZ d   1       0.181  -0.720   0.965  0.00  0.00     0.000 A 
ENDROOT
TORSDOF 0
ENDMDL
