MODEL 1
REMARK minimizedAffinity -2.93929505
REMARK minimizedRMSD -1
REMARK  0 active torsions:
REMARK  status: ('A' for Active; 'I' for Inactive)
ROOT
ATOM      1  C1  BNZ d   1       0.798  -0.608   0.293  0.00  0.00     0.000 A 
ATOM      2  C2  BNZ d   1       1.741  -1.471  -0.198  0.00  0.00     0.000 A 
ATOM      3  C3  BNZ d   1       1.624  -2.819  -0.005  0.00  0.00     0.000 A 
ATOM      4  C4  BNZ d   1       0.588  -3.299   0.712  0.00  0.00     0.000 A 
ATOM      5  C5  BNZ d   1      -0.366  -2.441   1.222  0.00  0.00     0.000 A 
ATOM      6  C6  BNZ d   1      -0.266  -1.088   0.993  0.00  0.00     0.000 A 
ENDROOT
TORSDOF 0
ENDMDL
