MODEL 1
REMARK minimizedAffinity -1.14237487
REMARK minimizedRMSD -1
REMARK  0 active torsions:
REMARK  status: ('A' for Active; 'I' for Inactive)
ROOT
ATOM      1  C1  BNZ d   1       0.553  -3.169   0.768  0.00  0.00     0.000 A 
ATOM      2  C2  BNZ d   1      -0.317  -2.216   1.225  0.00  0.00     0.000 A 
ATOM      3  C3  BNZ d   1       0.002  -0.888   1.159  0.00  0.00     0.000 A 
ATOM      4  C4  BNZ d   1       1.205  -0.519   0.674  0.00  0.00     0.000 A 
ATOM      5  C5  BNZ d   1       2.096  -1.469   0.218  0.00  0.00     0.000 A 
ATOM      6  C6  BNZ d   1       1.756  -2.802   0.250  0.00  0.00     0.000 A 
ENDROOT
TORSDOF 0
ENDMDL
