MODEL 1
REMARK minimizedAffinity 5.43819189
REMARK minimizedRMSD -1
REMARK  2 active torsions:
REMARK  status: ('A' for Active; 'I' for Inactive)
REMARK    1  A    between atoms: C2'_3  and  C1'_4 
REMARK    2  A    between atoms: C1'_4  and  C1_5 
ROOT
ATOM      1  C1  I4B d   1       0.160   5.003  -0.774  0.00  0.00    -0.075 A 
ATOM      2  C2  I4B d   1      -1.202   5.034  -0.613  0.00  0.00     0.003 A 
ATOM      3  C3  I4B d   1      -2.034   5.499  -1.660  0.00  0.00     0.002 A 
ATOM      4  C4  I4B d   1      -1.462   5.968  -2.825  0.00  0.00    -0.004 A 
ATOM      5  C5  I4B d   1      -0.081   5.916  -2.995  0.00  0.00     0.002 A 
ATOM      6  C6  I4B d   1       0.735   5.419  -1.968  0.00  0.00     0.003 A 
ENDROOT
BRANCH   1   7
ATOM      7  C1' I4B d   1       1.011   4.537   0.365  0.00  0.00     0.060 C 
BRANCH   7   8
ATOM      8  C2' I4B d   1       0.301   3.377   1.033  0.00  0.00    -0.013 C 
ATOM      9  C4' I4B d   1       0.287   2.161   0.144  0.00  0.00     0.013 C 
ATOM     10  C3' I4B d   1       0.999   3.092   2.329  0.00  0.00     0.013 C 
ENDBRANCH   7   8
ENDBRANCH   1   7
TORSDOF 2
ENDMDL
