MODEL 1
REMARK minimizedAffinity 12.5561075
REMARK minimizedRMSD -1
REMARK  2 active torsions:
REMARK  status: ('A' for Active; 'I' for Inactive)
REMARK    1  A    between atoms: C2'_3  and  C1'_4 
REMARK    2  A    between atoms: C1'_4  and  C1_5 
ROOT
ATOM      1  C1  I4B d   1       0.890   3.346   1.846  0.00  0.00    -0.075 A 
ATOM      2  C2  I4B d   1       0.679   2.633   2.999  0.00  0.00     0.003 A 
ATOM      3  C3  I4B d   1       1.590   2.736   4.078  0.00  0.00     0.002 A 
ATOM      4  C4  I4B d   1       2.718   3.520   3.943  0.00  0.00    -0.004 A 
ATOM      5  C5  I4B d   1       2.918   4.260   2.781  0.00  0.00     0.002 A 
ATOM      6  C6  I4B d   1       1.992   4.183   1.730  0.00  0.00     0.003 A 
ENDROOT
BRANCH   1   7
ATOM      7  C1' I4B d   1      -0.075   3.187   0.714  0.00  0.00     0.060 C 
BRANCH   7   8
ATOM      8  C2' I4B d   1      -0.343   4.561   0.133  0.00  0.00    -0.013 C 
ATOM      9  C4' I4B d   1      -1.005   5.461   1.144  0.00  0.00     0.013 C 
ATOM     10  C3' I4B d   1       0.965   5.133  -0.326  0.00  0.00     0.013 C 
ENDBRANCH   7   8
ENDBRANCH   1   7
TORSDOF 2
ENDMDL
