MODEL 1
REMARK minimizedAffinity 15.3407383
REMARK minimizedRMSD -1
REMARK  2 active torsions:
REMARK  status: ('A' for Active; 'I' for Inactive)
REMARK    1  A    between atoms: C2'_3  and  C1'_4 
REMARK    2  A    between atoms: C1'_4  and  C1_5 
ROOT
ATOM      1  C1  I4B d   1       3.396  -4.874  -2.615  0.00  0.00    -0.075 A 
ATOM      2  C2  I4B d   1       2.743  -5.404  -1.530  0.00  0.00     0.003 A 
ATOM      3  C3  I4B d   1       1.468  -5.999  -1.686  0.00  0.00     0.002 A 
ATOM      4  C4  I4B d   1       0.865  -5.998  -2.927  0.00  0.00    -0.004 A 
ATOM      5  C5  I4B d   1       1.539  -5.482  -4.030  0.00  0.00     0.002 A 
ATOM      6  C6  I4B d   1       2.817  -4.927  -3.876  0.00  0.00     0.003 A 
ENDROOT
BRANCH   1   7
ATOM      7  C1' I4B d   1       4.727  -4.224  -2.408  0.00  0.00     0.060 C 
BRANCH   7   8
ATOM      8  C2' I4B d   1       5.002  -3.333  -3.602  0.00  0.00    -0.013 C 
ATOM      9  C4' I4B d   1       5.968  -2.232  -3.251  0.00  0.00     0.013 C 
ATOM     10  C3' I4B d   1       5.538  -4.192  -4.708  0.00  0.00     0.013 C 
ENDBRANCH   7   8
ENDBRANCH   1   7
TORSDOF 2
ENDMDL
