MODEL 1
REMARK minimizedAffinity 8.64523029
REMARK minimizedRMSD -1
REMARK  2 active torsions:
REMARK  status: ('A' for Active; 'I' for Inactive)
REMARK    1  A    between atoms: C2'_3  and  C1'_4 
REMARK    2  A    between atoms: C1'_4  and  C1_5 
ROOT
ATOM      1  C1  I4B d   1      -0.077   3.218   0.424  0.00  0.00    -0.075 A 
ATOM      2  C2  I4B d   1       0.397   3.942  -0.642  0.00  0.00     0.003 A 
ATOM      3  C3  I4B d   1       0.332   5.356  -0.628  0.00  0.00     0.002 A 
ATOM      4  C4  I4B d   1      -0.256   5.999   0.442  0.00  0.00    -0.004 A 
ATOM      5  C5  I4B d   1      -0.715   5.265   1.532  0.00  0.00     0.002 A 
ATOM      6  C6  I4B d   1      -0.614   3.866   1.529  0.00  0.00     0.003 A 
ENDROOT
BRANCH   1   7
ATOM      7  C1' I4B d   1      -0.023   1.724   0.362  0.00  0.00     0.060 C 
BRANCH   7   8
ATOM      8  C2' I4B d   1      -0.856   1.276  -0.823  0.00  0.00    -0.013 C 
ATOM      9  C4' I4B d   1      -0.361  -0.036  -1.371  0.00  0.00     0.013 C 
ATOM     10  C3' I4B d   1      -2.282   1.172  -0.373  0.00  0.00     0.013 C 
ENDBRANCH   7   8
ENDBRANCH   1   7
TORSDOF 2
ENDMDL
