MODEL 1
REMARK minimizedAffinity 14.1859808
REMARK minimizedRMSD -1
REMARK  2 active torsions:
REMARK  status: ('A' for Active; 'I' for Inactive)
REMARK    1  A    between atoms: C2'_3  and  C1'_4 
REMARK    2  A    between atoms: C1'_4  and  C1_5 
ROOT
ATOM      1  C1  I4B d   1       5.290  -3.241  -2.861  0.00  0.00    -0.075 A 
ATOM      2  C2  I4B d   1       5.669  -3.504  -4.153  0.00  0.00     0.003 A 
ATOM      3  C3  I4B d   1       5.039  -4.539  -4.885  0.00  0.00     0.002 A 
ATOM      4  C4  I4B d   1       4.075  -5.314  -4.273  0.00  0.00    -0.004 A 
ATOM      5  C5  I4B d   1       3.675  -5.032  -2.970  0.00  0.00     0.002 A 
ATOM      6  C6  I4B d   1       4.277  -3.981  -2.263  0.00  0.00     0.003 A 
ENDROOT
BRANCH   1   7
ATOM      7  C1' I4B d   1       6.000  -2.163  -2.106  0.00  0.00     0.060 C 
BRANCH   7   8
ATOM      8  C2' I4B d   1       5.772  -2.400  -0.627  0.00  0.00    -0.013 C 
ATOM      9  C4' I4B d   1       4.437  -1.859  -0.187  0.00  0.00     0.013 C 
ATOM     10  C3' I4B d   1       5.868  -3.875  -0.375  0.00  0.00     0.013 C 
ENDBRANCH   7   8
ENDBRANCH   1   7
TORSDOF 2
ENDMDL
