MODEL 1
REMARK minimizedAffinity 13.6336851
REMARK minimizedRMSD -1
REMARK  2 active torsions:
REMARK  status: ('A' for Active; 'I' for Inactive)
REMARK    1  A    between atoms: C2'_3  and  C1'_4 
REMARK    2  A    between atoms: C1'_4  and  C1_5 
ROOT
ATOM      1  C1  I4B d   1       0.001   2.205   0.012  0.00  0.00    -0.075 A 
ATOM      2  C2  I4B d   1      -1.335   1.891   0.012  0.00  0.00     0.003 A 
ATOM      3  C3  I4B d   1      -1.798   0.747  -0.683  0.00  0.00     0.002 A 
ATOM      4  C4  I4B d   1      -0.904  -0.021  -1.401  0.00  0.00    -0.004 A 
ATOM      5  C5  I4B d   1       0.453   0.287  -1.381  0.00  0.00     0.002 A 
ATOM      6  C6  I4B d   1       0.911   1.399  -0.660  0.00  0.00     0.003 A 
ENDROOT
BRANCH   1   7
ATOM      7  C1' I4B d   1       0.451   3.439   0.728  0.00  0.00     0.060 C 
BRANCH   7   8
ATOM      8  C2' I4B d   1       0.003   4.638  -0.081  0.00  0.00    -0.013 C 
ATOM      9  C4' I4B d   1      -0.637   5.681   0.797  0.00  0.00     0.013 C 
ATOM     10  C3' I4B d   1       1.202   5.191  -0.792  0.00  0.00     0.013 C 
ENDBRANCH   7   8
ENDBRANCH   1   7
TORSDOF 2
ENDMDL
