MODEL 1
REMARK minimizedAffinity 11.9512959
REMARK minimizedRMSD -1
REMARK  2 active torsions:
REMARK  status: ('A' for Active; 'I' for Inactive)
REMARK    1  A    between atoms: C2'_3  and  C1'_4 
REMARK    2  A    between atoms: C1'_4  and  C1_5 
ROOT
ATOM      1  C1  I4B d   1       0.272   1.145  -0.558  0.00  0.00    -0.075 A 
ATOM      2  C2  I4B d   1       0.969   0.243  -1.322  0.00  0.00     0.003 A 
ATOM      3  C3  I4B d   1       0.281  -0.631  -2.198  0.00  0.00     0.002 A 
ATOM      4  C4  I4B d   1      -1.098  -0.604  -2.240  0.00  0.00    -0.004 A 
ATOM      5  C5  I4B d   1      -1.802   0.327  -1.482  0.00  0.00     0.002 A 
ATOM      6  C6  I4B d   1      -1.112   1.216  -0.644  0.00  0.00     0.003 A 
ENDROOT
BRANCH   1   7
ATOM      7  C1' I4B d   1       1.028   2.031   0.381  0.00  0.00     0.060 C 
BRANCH   7   8
ATOM      8  C2' I4B d   1       0.026   2.900   1.112  0.00  0.00    -0.013 C 
ATOM      9  C4' I4B d   1       0.063   2.645   2.596  0.00  0.00     0.013 C 
ATOM     10  C3' I4B d   1       0.341   4.333   0.801  0.00  0.00     0.013 C 
ENDBRANCH   7   8
ENDBRANCH   1   7
TORSDOF 2
ENDMDL
