MODEL 1
REMARK minimizedAffinity 10.8446312
REMARK minimizedRMSD -1
REMARK  2 active torsions:
REMARK  status: ('A' for Active; 'I' for Inactive)
REMARK    1  A    between atoms: C2'_3  and  C1'_4 
REMARK    2  A    between atoms: C1'_4  and  C1_5 
ROOT
ATOM      1  C1  I4B d   1       5.149  -3.004  -2.775  0.00  0.00    -0.075 A 
ATOM      2  C2  I4B d   1       5.688  -2.926  -4.035  0.00  0.00     0.003 A 
ATOM      3  C3  I4B d   1       5.293  -3.844  -5.038  0.00  0.00     0.002 A 
ATOM      4  C4  I4B d   1       4.400  -4.849  -4.725  0.00  0.00    -0.004 A 
ATOM      5  C5  I4B d   1       3.837  -4.913  -3.454  0.00  0.00     0.002 A 
ATOM      6  C6  I4B d   1       4.204  -3.977  -2.476  0.00  0.00     0.003 A 
ENDROOT
BRANCH   1   7
ATOM      7  C1' I4B d   1       5.613  -2.039  -1.731  0.00  0.00     0.060 C 
BRANCH   7   8
ATOM      8  C2' I4B d   1       5.034  -2.476  -0.401  0.00  0.00    -0.013 C 
ATOM      9  C4' I4B d   1       6.000  -3.352   0.353  0.00  0.00     0.013 C 
ATOM     10  C3' I4B d   1       4.696  -1.243   0.384  0.00  0.00     0.013 C 
ENDBRANCH   7   8
ENDBRANCH   1   7
TORSDOF 2
ENDMDL
