MODEL 1
REMARK minimizedAffinity 11.2568483
REMARK minimizedRMSD -1
REMARK  2 active torsions:
REMARK  status: ('A' for Active; 'I' for Inactive)
REMARK    1  A    between atoms: C2'_3  and  C1'_4 
REMARK    2  A    between atoms: C1'_4  and  C1_5 
ROOT
ATOM      1  C1  I4B d   1      -0.075   3.200   0.092  0.00  0.00    -0.075 A 
ATOM      2  C2  I4B d   1       0.030   3.699  -1.182  0.00  0.00     0.003 A 
ATOM      3  C3  I4B d   1       0.111   5.097  -1.396  0.00  0.00     0.002 A 
ATOM      4  C4  I4B d   1       0.032   5.955  -0.318  0.00  0.00    -0.004 A 
ATOM      5  C5  I4B d   1      -0.052   5.446   0.975  0.00  0.00     0.002 A 
ATOM      6  C6  I4B d   1      -0.094   4.059   1.183  0.00  0.00     0.003 A 
ENDROOT
BRANCH   1   7
ATOM      7  C1' I4B d   1      -0.192   1.720   0.279  0.00  0.00     0.060 C 
BRANCH   7   8
ATOM      8  C2' I4B d   1      -1.355   1.234  -0.561  0.00  0.00    -0.013 C 
ATOM      9  C4' I4B d   1      -1.002  -0.028  -1.303  0.00  0.00     0.013 C 
ATOM     10  C3' I4B d   1      -2.526   1.016   0.351  0.00  0.00     0.013 C 
ENDBRANCH   7   8
ENDBRANCH   1   7
TORSDOF 2
ENDMDL
