MODEL 1
REMARK minimizedAffinity 13.7380943
REMARK minimizedRMSD -1
REMARK  2 active torsions:
REMARK  status: ('A' for Active; 'I' for Inactive)
REMARK    1  A    between atoms: C2'_3  and  C1'_4 
REMARK    2  A    between atoms: C1'_4  and  C1_5 
ROOT
ATOM      1  C1  I4B d   1       0.063   3.286   0.683  0.00  0.00    -0.075 A 
ATOM      2  C2  I4B d   1       0.591   4.103  -0.287  0.00  0.00     0.003 A 
ATOM      3  C3  I4B d   1       0.293   5.487  -0.293  0.00  0.00     0.002 A 
ATOM      4  C4  I4B d   1      -0.572   6.000   0.652  0.00  0.00    -0.004 A 
ATOM      5  C5  I4B d   1      -1.088   5.175   1.647  0.00  0.00     0.002 A 
ATOM      6  C6  I4B d   1      -0.759   3.812   1.671  0.00  0.00     0.003 A 
ENDROOT
BRANCH   1   7
ATOM      7  C1' I4B d   1       0.373   1.824   0.640  0.00  0.00     0.060 C 
BRANCH   7   8
ATOM      8  C2' I4B d   1      -0.258   1.249  -0.612  0.00  0.00    -0.013 C 
ATOM      9  C4' I4B d   1       0.555   0.104  -1.156  0.00  0.00     0.013 C 
ATOM     10  C3' I4B d   1      -1.650   0.810  -0.269  0.00  0.00     0.013 C 
ENDBRANCH   7   8
ENDBRANCH   1   7
TORSDOF 2
ENDMDL
