MODEL 1
REMARK minimizedAffinity -3.81703782
REMARK minimizedRMSD -1
REMARK  1 active torsions:
REMARK  status: ('A' for Active; 'I' for Inactive)
REMARK    1  A    between atoms: C1_2  and  C2_3 
ROOT
ATOM      1  C2  UNL d   1       0.028   0.893  -0.783  0.00  0.00    -0.073 A 
ATOM      2  C3  UNL d   1       0.634  -0.058  -1.612  0.00  0.00    -0.002 A 
ATOM      3  C4  UNL d   1       1.529  -0.988  -1.080  0.00  0.00     0.004 A 
ATOM      4  C5  UNL d   1       1.820  -0.981   0.284  0.00  0.00    -0.004 A 
ATOM      5  C6  UNL d   1       1.215  -0.046   1.130  0.00  0.00    -0.075 A 
ATOM      6  C7  UNL d   1       1.520  -0.024   2.599  0.00  0.00     0.076 C 
ATOM      7  C8  UNL d   1       0.320   0.886   0.588  0.00  0.00     0.001 A 
ENDROOT
BRANCH   1   8
ATOM      8  C1  UNL d   1      -0.944   1.895  -1.352  0.00  0.00     0.053 C 
ATOM      9  C   UNL d   1      -0.245   3.159  -1.829  0.00  0.00     0.018 C 
ENDBRANCH   1   8
TORSDOF 1
ENDMDL
