MODEL 1
REMARK minimizedAffinity -5.27458811
REMARK minimizedRMSD -1
REMARK  1 active torsions:
REMARK  status: ('A' for Active; 'I' for Inactive)
REMARK    1  A    between atoms: C1_2  and  C2_3 
ROOT
ATOM      1  C2  UNL d   1      -0.815  -0.881   0.409  0.00  0.00    -0.073 A 
ATOM      2  C3  UNL d   1      -1.023  -0.714   1.783  0.00  0.00    -0.002 A 
ATOM      3  C4  UNL d   1       0.004  -0.980   2.689  0.00  0.00     0.004 A 
ATOM      4  C5  UNL d   1       1.250  -1.408   2.232  0.00  0.00    -0.004 A 
ATOM      5  C6  UNL d   1       1.482  -1.570   0.862  0.00  0.00    -0.075 A 
ATOM      6  C7  UNL d   1       2.816  -2.031   0.354  0.00  0.00     0.076 C 
ATOM      7  C8  UNL d   1       0.444  -1.303  -0.042  0.00  0.00     0.001 A 
ENDROOT
BRANCH   1   8
ATOM      8  C1  UNL d   1      -1.919  -0.589  -0.574  0.00  0.00     0.053 C 
ATOM      9  C   UNL d   1      -3.092  -1.544  -0.413  0.00  0.00     0.018 C 
ENDBRANCH   1   8
TORSDOF 1
ENDMDL
