MODEL 1
REMARK minimizedAffinity -2.08814335
REMARK minimizedRMSD -1
REMARK  1 active torsions:
REMARK  status: ('A' for Active; 'I' for Inactive)
REMARK    1  A    between atoms: C1_2  and  C2_3 
ROOT
ATOM      1  C2  UNL d   1       0.901  -2.001   2.005  0.00  0.00    -0.073 A 
ATOM      2  C3  UNL d   1       1.753  -3.016   1.552  0.00  0.00    -0.002 A 
ATOM      3  C4  UNL d   1       1.628  -4.314   2.047  0.00  0.00     0.004 A 
ATOM      4  C5  UNL d   1       0.647  -4.613   2.993  0.00  0.00    -0.004 A 
ATOM      5  C6  UNL d   1      -0.221  -3.616   3.449  0.00  0.00    -0.075 A 
ATOM      6  C7  UNL d   1      -1.279  -3.921   4.468  0.00  0.00     0.076 C 
ATOM      7  C8  UNL d   1      -0.087  -2.314   2.949  0.00  0.00     0.001 A 
ENDROOT
BRANCH   1   8
ATOM      8  C1  UNL d   1       1.028  -0.599   1.468  0.00  0.00     0.053 C 
ATOM      9  C   UNL d   1       0.785  -0.538  -0.032  0.00  0.00     0.018 C 
ENDBRANCH   1   8
TORSDOF 1
ENDMDL
