MODEL 1
REMARK minimizedAffinity -4.00924015
REMARK minimizedRMSD -1
REMARK  1 active torsions:
REMARK  status: ('A' for Active; 'I' for Inactive)
REMARK    1  A    between atoms: C1_2  and  C2_3 
ROOT
ATOM      1  C2  UNL d   1      -1.796  -0.675   0.458  0.00  0.00    -0.073 A 
ATOM      2  C3  UNL d   1      -1.098  -0.553  -0.749  0.00  0.00    -0.002 A 
ATOM      3  C4  UNL d   1       0.261  -0.235  -0.748  0.00  0.00     0.004 A 
ATOM      4  C5  UNL d   1       0.937  -0.043   0.457  0.00  0.00    -0.004 A 
ATOM      5  C6  UNL d   1       0.259  -0.172   1.673  0.00  0.00    -0.075 A 
ATOM      6  C7  UNL d   1       0.971   0.034   2.978  0.00  0.00     0.076 C 
ATOM      7  C8  UNL d   1      -1.106  -0.489   1.665  0.00  0.00     0.001 A 
ENDROOT
BRANCH   1   8
ATOM      8  C1  UNL d   1      -3.261  -1.024   0.463  0.00  0.00     0.053 C 
ATOM      9  C   UNL d   1      -3.670  -1.784  -0.789  0.00  0.00     0.018 C 
ENDBRANCH   1   8
TORSDOF 1
ENDMDL
