MODEL 1
REMARK minimizedAffinity -4.89032555
REMARK minimizedRMSD -1
REMARK  1 active torsions:
REMARK  status: ('A' for Active; 'I' for Inactive)
REMARK    1  A    between atoms: C1_2  and  C2_3 
ROOT
ATOM      1  C2  UNL d   1      -0.605  -0.594   0.535  0.00  0.00    -0.073 A 
ATOM      2  C3  UNL d   1      -0.919  -0.561   1.899  0.00  0.00    -0.002 A 
ATOM      3  C4  UNL d   1       0.091  -0.644   2.858  0.00  0.00     0.004 A 
ATOM      4  C5  UNL d   1       1.425  -0.753   2.465  0.00  0.00    -0.004 A 
ATOM      5  C6  UNL d   1       1.760  -0.775   1.107  0.00  0.00    -0.075 A 
ATOM      6  C7  UNL d   1       3.190  -0.895   0.668  0.00  0.00     0.076 C 
ATOM      7  C8  UNL d   1       0.740  -0.695   0.150  0.00  0.00     0.001 A 
ENDROOT
BRANCH   1   8
ATOM      8  C1  UNL d   1      -1.692  -0.498  -0.504  0.00  0.00     0.053 C 
ATOM      9  C   UNL d   1      -2.965  -1.202  -0.063  0.00  0.00     0.018 C 
ENDBRANCH   1   8
TORSDOF 1
ENDMDL
