MODEL 1
REMARK minimizedAffinity 3.89713192
REMARK minimizedRMSD -1
REMARK  0 active torsions:
REMARK  status: ('A' for Active; 'I' for Inactive)
ROOT
ATOM      1  C   UNL d   1       5.257   3.352   4.146  0.00  0.00     0.078 C 
ATOM      2  C1  UNL d   1       4.931   3.992   2.829  0.00  0.00    -0.077 A 
ATOM      3  C2  UNL d   1       4.613   3.215   1.709  0.00  0.00    -0.001 A 
ATOM      4  C3  UNL d   1       4.322   3.823   0.487  0.00  0.00     0.003 A 
ATOM      5  C4  UNL d   1       4.347   5.212   0.374  0.00  0.00    -0.005 A 
ATOM      6  C5  UNL d   1       4.664   5.994   1.483  0.00  0.00     0.003 A 
ATOM      7  C6  UNL d   1       4.956   5.386   2.705  0.00  0.00    -0.001 A 
ENDROOT
TORSDOF 0
ENDMDL
