MODEL 1
REMARK minimizedAffinity 14.901782
REMARK minimizedRMSD -1
REMARK  0 active torsions:
REMARK  status: ('A' for Active; 'I' for Inactive)
ROOT
ATOM      1  C   UNL d   1       1.386  -0.500  -4.995  0.00  0.00     0.078 C 
ATOM      2  C1  UNL d   1       0.515  -1.093  -3.929  0.00  0.00    -0.077 A 
ATOM      3  C2  UNL d   1      -0.547  -0.366  -3.378  0.00  0.00    -0.001 A 
ATOM      4  C3  UNL d   1      -1.344  -0.928  -2.379  0.00  0.00     0.003 A 
ATOM      5  C4  UNL d   1      -1.086  -2.218  -1.921  0.00  0.00    -0.005 A 
ATOM      6  C5  UNL d   1      -0.030  -2.949  -2.462  0.00  0.00     0.003 A 
ATOM      7  C6  UNL d   1       0.768  -2.389  -3.461  0.00  0.00    -0.001 A 
ENDROOT
TORSDOF 0
ENDMDL
