MODEL 1
REMARK minimizedAffinity 6.07345009
REMARK minimizedRMSD -1
REMARK  0 active torsions:
REMARK  status: ('A' for Active; 'I' for Inactive)
ROOT
ATOM      1  C   UNL d   1      -2.067  -1.454  -3.479  0.00  0.00     0.078 C 
ATOM      2  C1  UNL d   1      -0.674  -1.107  -3.912  0.00  0.00    -0.077 A 
ATOM      3  C2  UNL d   1      -0.291  -1.202  -5.256  0.00  0.00    -0.001 A 
ATOM      4  C3  UNL d   1       1.011  -0.885  -5.643  0.00  0.00     0.003 A 
ATOM      5  C4  UNL d   1       1.943  -0.471  -4.693  0.00  0.00    -0.005 A 
ATOM      6  C5  UNL d   1       1.572  -0.375  -3.354  0.00  0.00     0.003 A 
ATOM      7  C6  UNL d   1       0.270  -0.692  -2.964  0.00  0.00    -0.001 A 
ENDROOT
TORSDOF 0
ENDMDL
