MODEL 1
REMARK minimizedAffinity 7.35779953
REMARK minimizedRMSD -1
REMARK  0 active torsions:
REMARK  status: ('A' for Active; 'I' for Inactive)
ROOT
ATOM      1  C   UNL d   1       4.348   1.114   4.871  0.00  0.00     0.078 C 
ATOM      2  C1  UNL d   1       3.124   0.863   4.041  0.00  0.00    -0.077 A 
ATOM      3  C2  UNL d   1       3.165   0.968   2.646  0.00  0.00    -0.001 A 
ATOM      4  C3  UNL d   1       2.016   0.741   1.887  0.00  0.00     0.003 A 
ATOM      5  C4  UNL d   1       0.817   0.409   2.515  0.00  0.00    -0.005 A 
ATOM      6  C5  UNL d   1       0.766   0.305   3.903  0.00  0.00     0.003 A 
ATOM      7  C6  UNL d   1       1.914   0.531   4.664  0.00  0.00    -0.001 A 
ENDROOT
TORSDOF 0
ENDMDL
