MODEL 1
REMARK minimizedAffinity 17.2355957
REMARK minimizedRMSD -1
REMARK  0 active torsions:
REMARK  status: ('A' for Active; 'I' for Inactive)
ROOT
ATOM      1  C   UNL d   1       0.091   3.025   6.000  0.00  0.00     0.078 C 
ATOM      2  C1  UNL d   1       0.078   2.273   4.703  0.00  0.00    -0.077 A 
ATOM      3  C2  UNL d   1      -0.844   2.588   3.696  0.00  0.00    -0.001 A 
ATOM      4  C3  UNL d   1      -0.851   1.873   2.497  0.00  0.00     0.003 A 
ATOM      5  C4  UNL d   1       0.060   0.838   2.294  0.00  0.00    -0.005 A 
ATOM      6  C5  UNL d   1       0.980   0.517   3.291  0.00  0.00     0.003 A 
ATOM      7  C6  UNL d   1       0.988   1.231   4.490  0.00  0.00    -0.001 A 
ENDROOT
TORSDOF 0
ENDMDL
