MODEL 1
REMARK minimizedAffinity 14.4720755
REMARK minimizedRMSD -1
REMARK  0 active torsions:
REMARK  status: ('A' for Active; 'I' for Inactive)
ROOT
ATOM      1  C   UNL d   1      -0.880  -1.644  -0.096  0.00  0.00     0.078 C 
ATOM      2  C1  UNL d   1      -0.137  -0.872   0.953  0.00  0.00    -0.077 A 
ATOM      3  C2  UNL d   1      -0.312   0.510   1.091  0.00  0.00    -0.001 A 
ATOM      4  C3  UNL d   1       0.393   1.218   2.066  0.00  0.00     0.003 A 
ATOM      5  C4  UNL d   1       1.281   0.552   2.909  0.00  0.00    -0.005 A 
ATOM      6  C5  UNL d   1       1.464  -0.823   2.777  0.00  0.00     0.003 A 
ATOM      7  C6  UNL d   1       0.759  -1.532   1.804  0.00  0.00    -0.001 A 
ENDROOT
TORSDOF 0
ENDMDL
