MODEL 1
REMARK minimizedAffinity -0.331445515
REMARK minimizedRMSD -1
REMARK  0 active torsions:
REMARK  status: ('A' for Active; 'I' for Inactive)
ROOT
ATOM      1  C   UNL d   1       0.431   0.012   2.616  0.00  0.00     0.078 C 
ATOM      2  C1  UNL d   1       1.350  -0.396   3.727  0.00  0.00    -0.077 A 
ATOM      3  C2  UNL d   1       2.341   0.473   4.200  0.00  0.00    -0.001 A 
ATOM      4  C3  UNL d   1       3.197   0.075   5.229  0.00  0.00     0.003 A 
ATOM      5  C4  UNL d   1       3.071  -1.193   5.793  0.00  0.00    -0.005 A 
ATOM      6  C5  UNL d   1       2.089  -2.065   5.328  0.00  0.00     0.003 A 
ATOM      7  C6  UNL d   1       1.233  -1.670   4.299  0.00  0.00    -0.001 A 
ENDROOT
TORSDOF 0
ENDMDL
