MODEL 1
REMARK minimizedAffinity 10.226058
REMARK minimizedRMSD -1
REMARK  0 active torsions:
REMARK  status: ('A' for Active; 'I' for Inactive)
ROOT
ATOM      1  C   UNL d   1      -2.171  -1.837  -3.309  0.00  0.00     0.078 C 
ATOM      2  C1  UNL d   1      -0.867  -1.616  -4.015  0.00  0.00    -0.077 A 
ATOM      3  C2  UNL d   1      -0.000  -0.588  -3.624  0.00  0.00    -0.001 A 
ATOM      4  C3  UNL d   1       1.206  -0.387  -4.296  0.00  0.00     0.003 A 
ATOM      5  C4  UNL d   1       1.557  -1.211  -5.365  0.00  0.00    -0.005 A 
ATOM      6  C5  UNL d   1       0.700  -2.235  -5.763  0.00  0.00     0.003 A 
ATOM      7  C6  UNL d   1      -0.507  -2.436  -5.091  0.00  0.00    -0.001 A 
ENDROOT
TORSDOF 0
ENDMDL
