MODEL 1
REMARK minimizedAffinity 10.9169436
REMARK minimizedRMSD -1
REMARK  0 active torsions:
REMARK  status: ('A' for Active; 'I' for Inactive)
ROOT
ATOM      1  C   UNL d   1      -0.170   0.427   1.896  0.00  0.00     0.023 A 
ATOM      2  C1  UNL d   1       1.157  -0.001   1.940  0.00  0.00     0.003 A 
ATOM      3  C2  UNL d   1       1.563  -1.099   1.178  0.00  0.00     0.048 A 
ATOM      4  C3  UNL d   1       0.637  -1.763   0.374  0.00  0.00     0.023 A 
ATOM      5  C4  UNL d   1      -0.691  -1.337   0.326  0.00  0.00     0.048 A 
ATOM      6  C5  UNL d   1      -1.092  -0.240   1.090  0.00  0.00     0.003 A 
ATOM      7  I   UNL d   1       1.239  -3.397  -0.760  0.00  0.00    -0.146 I 
ENDROOT
TORSDOF 0
ENDMDL
