MODEL 1
REMARK minimizedAffinity 2.98602009
REMARK minimizedRMSD -1
REMARK  0 active torsions:
REMARK  status: ('A' for Active; 'I' for Inactive)
ROOT
ATOM      1  C   UNL d   1      -0.215  -2.705   0.021  0.00  0.00     0.023 A 
ATOM      2  C1  UNL d   1      -0.397  -1.717   0.988  0.00  0.00     0.003 A 
ATOM      3  C2  UNL d   1       0.706  -1.038   1.511  0.00  0.00     0.048 A 
ATOM      4  C3  UNL d   1       1.988  -1.352   1.060  0.00  0.00     0.023 A 
ATOM      5  C4  UNL d   1       2.174  -2.339   0.091  0.00  0.00     0.048 A 
ATOM      6  C5  UNL d   1       1.069  -3.016  -0.427  0.00  0.00     0.003 A 
ATOM      7  I   UNL d   1       3.631  -0.343   1.836  0.00  0.00    -0.146 I 
ENDROOT
TORSDOF 0
ENDMDL
