MODEL 1
REMARK minimizedAffinity 7.93171072
REMARK minimizedRMSD -1
REMARK  0 active torsions:
REMARK  status: ('A' for Active; 'I' for Inactive)
ROOT
ATOM      1  C   UNL d   1       0.624   0.051   1.449  0.00  0.00     0.023 A 
ATOM      2  C1  UNL d   1       1.842  -0.359   0.907  0.00  0.00     0.003 A 
ATOM      3  C2  UNL d   1       1.900  -1.493   0.094  0.00  0.00     0.048 A 
ATOM      4  C3  UNL d   1       0.735  -2.212  -0.173  0.00  0.00     0.023 A 
ATOM      5  C4  UNL d   1      -0.486  -1.805   0.367  0.00  0.00     0.048 A 
ATOM      6  C5  UNL d   1      -0.538  -0.671   1.179  0.00  0.00     0.003 A 
ATOM      7  I   UNL d   1       0.819  -3.901  -1.382  0.00  0.00    -0.146 I 
ENDROOT
TORSDOF 0
ENDMDL
