MODEL 1
REMARK minimizedAffinity 3.99566031
REMARK minimizedRMSD -1
REMARK  0 active torsions:
REMARK  status: ('A' for Active; 'I' for Inactive)
ROOT
ATOM      1  C   UNL d   1      -0.983  -2.298   0.539  0.00  0.00     0.023 A 
ATOM      2  C1  UNL d   1      -0.903  -0.987   1.008  0.00  0.00     0.003 A 
ATOM      3  C2  UNL d   1       0.338  -0.438   1.339  0.00  0.00     0.048 A 
ATOM      4  C3  UNL d   1       1.494  -1.204   1.197  0.00  0.00     0.023 A 
ATOM      5  C4  UNL d   1       1.418  -2.517   0.727  0.00  0.00     0.048 A 
ATOM      6  C5  UNL d   1       0.175  -3.062   0.399  0.00  0.00     0.003 A 
ATOM      7  I   UNL d   1       3.341  -0.389   1.688  0.00  0.00    -0.146 I 
ENDROOT
TORSDOF 0
ENDMDL
