MODEL 1
REMARK minimizedAffinity 3.92522168
REMARK minimizedRMSD -1
REMARK  0 active torsions:
REMARK  status: ('A' for Active; 'I' for Inactive)
ROOT
ATOM      1  C   UNL d   1       0.678  -3.556  -0.930  0.00  0.00     0.023 A 
ATOM      2  C1  UNL d   1       1.694  -2.849  -0.288  0.00  0.00     0.003 A 
ATOM      3  C2  UNL d   1       1.381  -1.929   0.715  0.00  0.00     0.048 A 
ATOM      4  C3  UNL d   1       0.049  -1.723   1.072  0.00  0.00     0.023 A 
ATOM      5  C4  UNL d   1      -0.971  -2.429   0.433  0.00  0.00     0.048 A 
ATOM      6  C5  UNL d   1      -0.653  -3.347  -0.569  0.00  0.00     0.003 A 
ATOM      7  I   UNL d   1      -0.420  -0.354   2.565  0.00  0.00    -0.146 I 
ENDROOT
TORSDOF 0
ENDMDL
