MODEL 1
REMARK minimizedAffinity -1.85052812
REMARK minimizedRMSD -1
REMARK  0 active torsions:
REMARK  status: ('A' for Active; 'I' for Inactive)
ROOT
ATOM      1  C   UNL d   1      -0.314  -3.073  -0.310  0.00  0.00     0.023 A 
ATOM      2  C1  UNL d   1      -0.695  -1.967   0.449  0.00  0.00     0.003 A 
ATOM      3  C2  UNL d   1       0.261  -1.033   0.854  0.00  0.00     0.048 A 
ATOM      4  C3  UNL d   1       1.596  -1.211   0.495  0.00  0.00     0.023 A 
ATOM      5  C4  UNL d   1       1.982  -2.316  -0.265  0.00  0.00     0.048 A 
ATOM      6  C5  UNL d   1       1.023  -3.248  -0.667  0.00  0.00     0.003 A 
ATOM      7  I   UNL d   1       3.021   0.178   1.096  0.00  0.00    -0.146 I 
ENDROOT
TORSDOF 0
ENDMDL
