MODEL 1
REMARK minimizedAffinity -3.01585388
REMARK minimizedRMSD -1
REMARK  0 active torsions:
REMARK  status: ('A' for Active; 'I' for Inactive)
ROOT
ATOM      1  C   UNL d   1      -1.631  -2.066   0.449  0.00  0.00     0.023 A 
ATOM      2  C1  UNL d   1      -0.891  -3.248   0.446  0.00  0.00     0.003 A 
ATOM      3  C2  UNL d   1       0.498  -3.204   0.304  0.00  0.00     0.048 A 
ATOM      4  C3  UNL d   1       1.140  -1.974   0.168  0.00  0.00     0.023 A 
ATOM      5  C4  UNL d   1       0.404  -0.788   0.172  0.00  0.00     0.048 A 
ATOM      6  C5  UNL d   1      -0.984  -0.837   0.312  0.00  0.00     0.003 A 
ATOM      7  I   UNL d   1       3.207  -1.906  -0.042  0.00  0.00    -0.146 I 
ENDROOT
TORSDOF 0
ENDMDL
