MODEL 1
REMARK minimizedAffinity -2.93985868
REMARK minimizedRMSD -1
REMARK  0 active torsions:
REMARK  status: ('A' for Active; 'I' for Inactive)
ROOT
ATOM      1  C   UNL d   1      -5.588  -5.049   5.999  0.00  0.00     0.023 A 
ATOM      2  C1  UNL d   1      -5.889  -3.740   5.623  0.00  0.00     0.003 A 
ATOM      3  C2  UNL d   1      -5.863  -3.376   4.275  0.00  0.00     0.048 A 
ATOM      4  C3  UNL d   1      -5.535  -4.327   3.309  0.00  0.00     0.023 A 
ATOM      5  C4  UNL d   1      -5.234  -5.638   3.680  0.00  0.00     0.048 A 
ATOM      6  C5  UNL d   1      -5.261  -5.997   5.029  0.00  0.00     0.003 A 
ATOM      7  I   UNL d   1      -5.495  -3.787   1.302  0.00  0.00    -0.146 I 
ENDROOT
TORSDOF 0
ENDMDL
