MODEL 1
REMARK minimizedAffinity 6.21486568
REMARK minimizedRMSD -1
REMARK  0 active torsions:
REMARK  status: ('A' for Active; 'I' for Inactive)
ROOT
ATOM      1  C   UNL d   1       3.226  -3.347  -0.349  0.00  0.00     0.023 A 
ATOM      2  C1  UNL d   1       2.209  -4.279  -0.556  0.00  0.00     0.003 A 
ATOM      3  C2  UNL d   1       0.881  -3.935  -0.295  0.00  0.00     0.048 A 
ATOM      4  C3  UNL d   1       0.577  -2.657   0.173  0.00  0.00     0.023 A 
ATOM      5  C4  UNL d   1       1.591  -1.721   0.381  0.00  0.00     0.048 A 
ATOM      6  C5  UNL d   1       2.918  -2.070   0.119  0.00  0.00     0.003 A 
ATOM      7  I   UNL d   1      -1.398  -2.143   0.563  0.00  0.00    -0.146 I 
ENDROOT
TORSDOF 0
ENDMDL
