MODEL 1
REMARK minimizedAffinity 6.3350172
REMARK minimizedRMSD -1
REMARK  0 active torsions:
REMARK  status: ('A' for Active; 'I' for Inactive)
ROOT
ATOM      1  C   UNL d   1      -0.584  -1.515   0.310  0.00  0.00     0.023 A 
ATOM      2  C1  UNL d   1      -0.542  -2.534  -0.641  0.00  0.00     0.003 A 
ATOM      3  C2  UNL d   1       0.601  -3.325  -0.769  0.00  0.00     0.048 A 
ATOM      4  C3  UNL d   1       1.700  -3.092   0.058  0.00  0.00     0.023 A 
ATOM      5  C4  UNL d   1       1.662  -2.074   1.012  0.00  0.00     0.048 A 
ATOM      6  C5  UNL d   1       0.517  -1.285   1.135  0.00  0.00     0.003 A 
ATOM      7  I   UNL d   1       3.403  -4.268  -0.131  0.00  0.00    -0.146 I 
ENDROOT
TORSDOF 0
ENDMDL
