MODEL 1
REMARK minimizedAffinity 2.20445013
REMARK minimizedRMSD -1
REMARK  0 active torsions:
REMARK  status: ('A' for Active; 'I' for Inactive)
ROOT
ATOM      1  C   UNL d   1       0.308   0.675   1.576  0.00  0.00     0.023 A 
ATOM      2  C1  UNL d   1      -0.762  -0.150   1.227  0.00  0.00     0.003 A 
ATOM      3  C2  UNL d   1      -0.527  -1.363   0.578  0.00  0.00     0.048 A 
ATOM      4  C3  UNL d   1       0.781  -1.747   0.281  0.00  0.00     0.023 A 
ATOM      5  C4  UNL d   1       1.854  -0.925   0.629  0.00  0.00     0.048 A 
ATOM      6  C5  UNL d   1       1.614   0.287   1.278  0.00  0.00     0.003 A 
ATOM      7  I   UNL d   1       1.133  -3.553  -0.686  0.00  0.00    -0.146 I 
ENDROOT
TORSDOF 0
ENDMDL
