MODEL 1
REMARK minimizedAffinity 0.513381958
REMARK minimizedRMSD -1
REMARK  0 active torsions:
REMARK  status: ('A' for Active; 'I' for Inactive)
ROOT
ATOM      1  C   UNL d   1      -2.041   1.547   3.445  0.00  0.00     0.023 A 
ATOM      2  C1  UNL d   1      -1.590   0.433   4.153  0.00  0.00     0.003 A 
ATOM      3  C2  UNL d   1      -1.164  -0.706   3.467  0.00  0.00     0.048 A 
ATOM      4  C3  UNL d   1      -1.190  -0.723   2.072  0.00  0.00     0.023 A 
ATOM      5  C4  UNL d   1      -1.640   0.389   1.360  0.00  0.00     0.048 A 
ATOM      6  C5  UNL d   1      -2.066   1.526   2.050  0.00  0.00     0.003 A 
ATOM      7  I   UNL d   1      -0.556  -2.417   1.049  0.00  0.00    -0.146 I 
ENDROOT
TORSDOF 0
ENDMDL
