MODEL 1
REMARK minimizedAffinity 3.77937126
REMARK minimizedRMSD -1
REMARK  0 active torsions:
REMARK  status: ('A' for Active; 'I' for Inactive)
ROOT
ATOM      1  C   UNL d   1       0.620   0.151   1.539  0.00  0.00     0.023 A 
ATOM      2  C1  UNL d   1      -0.555  -0.503   1.165  0.00  0.00     0.003 A 
ATOM      3  C2  UNL d   1      -0.493  -1.661   0.387  0.00  0.00     0.048 A 
ATOM      4  C3  UNL d   1       0.746  -2.161  -0.012  0.00  0.00     0.023 A 
ATOM      5  C4  UNL d   1       1.923  -1.511   0.361  0.00  0.00     0.048 A 
ATOM      6  C5  UNL d   1       1.857  -0.353   1.138  0.00  0.00     0.003 A 
ATOM      7  I   UNL d   1       0.840  -3.884  -1.169  0.00  0.00    -0.146 I 
ENDROOT
TORSDOF 0
ENDMDL
