MODEL 1
REMARK minimizedAffinity 2.87642479
REMARK minimizedRMSD -1
REMARK  0 active torsions:
REMARK  status: ('A' for Active; 'I' for Inactive)
ROOT
ATOM      1  C   UNL d   1      -0.528   0.316   1.361  0.00  0.00     0.023 A 
ATOM      2  C1  UNL d   1       0.863   0.216   1.352  0.00  0.00     0.003 A 
ATOM      3  C2  UNL d   1       1.479  -0.924   0.830  0.00  0.00     0.048 A 
ATOM      4  C3  UNL d   1       0.697  -1.959   0.318  0.00  0.00     0.023 A 
ATOM      5  C4  UNL d   1      -0.695  -1.862   0.324  0.00  0.00     0.048 A 
ATOM      6  C5  UNL d   1      -1.306  -0.722   0.848  0.00  0.00     0.003 A 
ATOM      7  I   UNL d   1       1.611  -3.656  -0.460  0.00  0.00    -0.146 I 
ENDROOT
TORSDOF 0
ENDMDL
