MODEL 1
REMARK minimizedAffinity -2.47644615
REMARK minimizedRMSD -1
REMARK  0 active torsions:
REMARK  status: ('A' for Active; 'I' for Inactive)
ROOT
ATOM      1  C   UNL d   1       0.094  -3.053   0.139  0.00  0.00     0.023 A 
ATOM      2  C1  UNL d   1       0.758  -2.261   1.076  0.00  0.00     0.003 A 
ATOM      3  C2  UNL d   1       0.091  -1.201   1.694  0.00  0.00     0.048 A 
ATOM      4  C3  UNL d   1      -1.240  -0.939   1.371  0.00  0.00     0.023 A 
ATOM      5  C4  UNL d   1      -1.908  -1.730   0.434  0.00  0.00     0.048 A 
ATOM      6  C5  UNL d   1      -1.237  -2.788  -0.182  0.00  0.00     0.003 A 
ATOM      7  I   UNL d   1      -2.235   0.638   2.289  0.00  0.00    -0.146 I 
ENDROOT
TORSDOF 0
ENDMDL
