MODEL 1
REMARK minimizedAffinity -2.66662741
REMARK minimizedRMSD -1
REMARK  0 active torsions:
REMARK  status: ('A' for Active; 'I' for Inactive)
ROOT
ATOM      1  C1  BNZ d   1       4.128  -5.025   4.473  0.00  0.00     0.000 A 
ATOM      2  C2  BNZ d   1       4.176  -3.657   4.500  0.00  0.00     0.000 A 
ATOM      3  C3  BNZ d   1       5.116  -3.004   5.248  0.00  0.00     0.000 A 
ATOM      4  C4  BNZ d   1       5.979  -3.719   5.999  0.00  0.00     0.000 A 
ATOM      5  C5  BNZ d   1       5.937  -5.099   5.990  0.00  0.00     0.000 A 
ATOM      6  C6  BNZ d   1       5.015  -5.753   5.205  0.00  0.00     0.000 A 
ENDROOT
TORSDOF 0
ENDMDL
