MODEL 1
REMARK minimizedAffinity 2.44745755
REMARK minimizedRMSD -1
REMARK  0 active torsions:
REMARK  status: ('A' for Active; 'I' for Inactive)
ROOT
ATOM      1  C1  BNZ d   1      -4.155   6.000   4.842  0.00  0.00     0.000 A 
ATOM      2  C2  BNZ d   1      -3.363   6.000   5.958  0.00  0.00     0.000 A 
ATOM      3  C3  BNZ d   1      -2.209   5.268   5.997  0.00  0.00     0.000 A 
ATOM      4  C4  BNZ d   1      -1.870   4.508   4.937  0.00  0.00     0.000 A 
ATOM      5  C5  BNZ d   1      -2.663   4.490   3.807  0.00  0.00     0.000 A 
ATOM      6  C6  BNZ d   1      -3.804   5.258   3.756  0.00  0.00     0.000 A 
ENDROOT
TORSDOF 0
ENDMDL
