MODEL 1
REMARK minimizedAffinity -1.05696416
REMARK minimizedRMSD -1
REMARK  0 active torsions:
REMARK  status: ('A' for Active; 'I' for Inactive)
ROOT
ATOM      1  C1  BNZ d   1       3.756   5.999   2.150  0.00  0.00     0.000 A 
ATOM      2  C2  BNZ d   1       3.778   5.998   0.781  0.00  0.00     0.000 A 
ATOM      3  C3  BNZ d   1       4.895   5.602   0.099  0.00  0.00     0.000 A 
ATOM      4  C4  BNZ d   1       6.000   5.248   0.785  0.00  0.00     0.000 A 
ATOM      5  C5  BNZ d   1       5.997   5.253   2.166  0.00  0.00     0.000 A 
ATOM      6  C6  BNZ d   1       4.858   5.614   2.849  0.00  0.00     0.000 A 
ENDROOT
TORSDOF 0
ENDMDL
