MODEL 1
REMARK minimizedAffinity 5.37468672
REMARK minimizedRMSD -1
REMARK  0 active torsions:
REMARK  status: ('A' for Active; 'I' for Inactive)
ROOT
ATOM      1  C1  BNZ d   1      -2.787   2.968   1.082  0.00  0.00     0.000 A 
ATOM      2  C2  BNZ d   1      -2.639   1.646   0.758  0.00  0.00     0.000 A 
ATOM      3  C3  BNZ d   1      -2.503   0.697   1.732  0.00  0.00     0.000 A 
ATOM      4  C4  BNZ d   1      -2.475   1.075   3.027  0.00  0.00     0.000 A 
ATOM      5  C5  BNZ d   1      -2.612   2.405   3.369  0.00  0.00     0.000 A 
ATOM      6  C6  BNZ d   1      -2.788   3.353   2.388  0.00  0.00     0.000 A 
ENDROOT
TORSDOF 0
ENDMDL
