MODEL 1
REMARK minimizedAffinity 5.0080719
REMARK minimizedRMSD -1
REMARK  0 active torsions:
REMARK  status: ('A' for Active; 'I' for Inactive)
ROOT
ATOM      1  C1  BNZ d   1       5.963   5.966   2.024  0.00  0.00     0.000 A 
ATOM      2  C2  BNZ d   1       5.999   5.352   0.801  0.00  0.00     0.000 A 
ATOM      3  C3  BNZ d   1       5.335   4.176   0.588  0.00  0.00     0.000 A 
ATOM      4  C4  BNZ d   1       4.671   3.596   1.608  0.00  0.00     0.000 A 
ATOM      5  C5  BNZ d   1       4.633   4.198   2.850  0.00  0.00     0.000 A 
ATOM      6  C6  BNZ d   1       5.270   5.401   3.050  0.00  0.00     0.000 A 
ENDROOT
TORSDOF 0
ENDMDL
