MODEL 1
REMARK minimizedAffinity 7.70227766
REMARK minimizedRMSD -1
REMARK  0 active torsions:
REMARK  status: ('A' for Active; 'I' for Inactive)
ROOT
ATOM      1  C1  BNZ d   1      -1.610   5.983   3.588  0.00  0.00     0.000 A 
ATOM      2  C2  BNZ d   1      -0.906   5.998   4.762  0.00  0.00     0.000 A 
ATOM      3  C3  BNZ d   1      -1.553   5.970   5.966  0.00  0.00     0.000 A 
ATOM      4  C4  BNZ d   1      -2.901   5.967   5.995  0.00  0.00     0.000 A 
ATOM      5  C5  BNZ d   1      -3.625   5.961   4.820  0.00  0.00     0.000 A 
ATOM      6  C6  BNZ d   1      -2.971   5.950   3.609  0.00  0.00     0.000 A 
ENDROOT
TORSDOF 0
ENDMDL
