MODEL 1
REMARK minimizedAffinity 4.55278111
REMARK minimizedRMSD -1
REMARK  0 active torsions:
REMARK  status: ('A' for Active; 'I' for Inactive)
ROOT
ATOM      1  C1  BNZ d   1      -3.386   0.365   3.509  0.00  0.00     0.000 A 
ATOM      2  C2  BNZ d   1      -2.609   1.492   3.472  0.00  0.00     0.000 A 
ATOM      3  C3  BNZ d   1      -3.121   2.681   3.031  0.00  0.00     0.000 A 
ATOM      4  C4  BNZ d   1      -4.395   2.732   2.591  0.00  0.00     0.000 A 
ATOM      5  C5  BNZ d   1      -5.188   1.602   2.613  0.00  0.00     0.000 A 
ATOM      6  C6  BNZ d   1      -4.681   0.416   3.093  0.00  0.00     0.000 A 
ENDROOT
TORSDOF 0
ENDMDL
