MODEL 1
REMARK minimizedAffinity -1.75224912
REMARK minimizedRMSD -1
REMARK  0 active torsions:
REMARK  status: ('A' for Active; 'I' for Inactive)
ROOT
ATOM      1  C1  BNZ d   1      -3.469   5.995   6.000  0.00  0.00     0.000 A 
ATOM      2  C2  BNZ d   1      -2.305   5.275   5.998  0.00  0.00     0.000 A 
ATOM      3  C3  BNZ d   1      -1.943   4.532   4.909  0.00  0.00     0.000 A 
ATOM      4  C4  BNZ d   1      -2.764   4.478   3.841  0.00  0.00     0.000 A 
ATOM      5  C5  BNZ d   1      -3.947   5.191   3.831  0.00  0.00     0.000 A 
ATOM      6  C6  BNZ d   1      -4.289   5.969   4.914  0.00  0.00     0.000 A 
ENDROOT
TORSDOF 0
ENDMDL
