MODEL 1
REMARK minimizedAffinity 2.05774689
REMARK minimizedRMSD -1
REMARK  0 active torsions:
REMARK  status: ('A' for Active; 'I' for Inactive)
ROOT
ATOM      1  C1  BNZ d   1       3.809   5.997   3.389  0.00  0.00     0.000 A 
ATOM      2  C2  BNZ d   1       3.836   5.240   2.248  0.00  0.00     0.000 A 
ATOM      3  C3  BNZ d   1       4.924   4.472   1.943  0.00  0.00     0.000 A 
ATOM      4  C4  BNZ d   1       6.000   4.493   2.757  0.00  0.00     0.000 A 
ATOM      5  C5  BNZ d   1       5.992   5.258   3.906  0.00  0.00     0.000 A 
ATOM      6  C6  BNZ d   1       4.879   6.000   4.230  0.00  0.00     0.000 A 
ENDROOT
TORSDOF 0
ENDMDL
