MODEL 1
REMARK minimizedAffinity 8.17840576
REMARK minimizedRMSD -1
REMARK  0 active torsions:
REMARK  status: ('A' for Active; 'I' for Inactive)
ROOT
ATOM      1  C1  BNZ d   1      -2.026   4.357   4.924  0.00  0.00     0.000 A 
ATOM      2  C2  BNZ d   1      -2.885   4.374   3.857  0.00  0.00     0.000 A 
ATOM      3  C3  BNZ d   1      -3.966   5.210   3.842  0.00  0.00     0.000 A 
ATOM      4  C4  BNZ d   1      -4.208   5.999   4.909  0.00  0.00     0.000 A 
ATOM      5  C5  BNZ d   1      -3.357   5.987   5.996  0.00  0.00     0.000 A 
ATOM      6  C6  BNZ d   1      -2.248   5.171   5.991  0.00  0.00     0.000 A 
ENDROOT
TORSDOF 0
ENDMDL
