MODEL 1
REMARK minimizedAffinity 5.35423088
REMARK minimizedRMSD -1
REMARK  0 active torsions:
REMARK  status: ('A' for Active; 'I' for Inactive)
ROOT
ATOM      1  C1  BNZ d   1      -3.509  -0.517   2.175  0.00  0.00     0.000 A 
ATOM      2  C2  BNZ d   1      -2.185  -0.373   2.495  0.00  0.00     0.000 A 
ATOM      3  C3  BNZ d   1      -1.670   0.855   2.807  0.00  0.00     0.000 A 
ATOM      4  C4  BNZ d   1      -2.470   1.940   2.761  0.00  0.00     0.000 A 
ATOM      5  C5  BNZ d   1      -3.804   1.812   2.432  0.00  0.00     0.000 A 
ATOM      6  C6  BNZ d   1      -4.328   0.570   2.156  0.00  0.00     0.000 A 
ENDROOT
TORSDOF 0
ENDMDL
