MODEL 1
REMARK minimizedAffinity 6.77114773
REMARK minimizedRMSD -1
REMARK  0 active torsions:
REMARK  status: ('A' for Active; 'I' for Inactive)
ROOT
ATOM      1  C1  BNZ d   1      -1.084   1.457  -2.204  0.00  0.00     0.000 A 
ATOM      2  C2  BNZ d   1      -2.186   1.376  -1.395  0.00  0.00     0.000 A 
ATOM      3  C3  BNZ d   1      -2.432   0.252  -0.658  0.00  0.00     0.000 A 
ATOM      4  C4  BNZ d   1      -1.600  -0.804  -0.762  0.00  0.00     0.000 A 
ATOM      5  C5  BNZ d   1      -0.490  -0.742  -1.581  0.00  0.00     0.000 A 
ATOM      6  C6  BNZ d   1      -0.224   0.406  -2.292  0.00  0.00     0.000 A 
ENDROOT
TORSDOF 0
ENDMDL
