MODEL 1
REMARK minimizedAffinity 6.56738997
REMARK minimizedRMSD -1
REMARK  0 active torsions:
REMARK  status: ('A' for Active; 'I' for Inactive)
ROOT
ATOM      1  C1  BNZ d   1       1.176  -0.058  -2.031  0.00  0.00     0.000 A 
ATOM      2  C2  BNZ d   1       1.429  -1.404  -2.066  0.00  0.00     0.000 A 
ATOM      3  C3  BNZ d   1       0.431  -2.309  -1.836  0.00  0.00     0.000 A 
ATOM      4  C4  BNZ d   1      -0.807  -1.869  -1.533  0.00  0.00     0.000 A 
ATOM      5  C5  BNZ d   1      -1.076  -0.516  -1.485  0.00  0.00     0.000 A 
ATOM      6  C6  BNZ d   1      -0.078   0.393  -1.755  0.00  0.00     0.000 A 
ENDROOT
TORSDOF 0
ENDMDL
