MODEL 1
REMARK minimizedAffinity 3.57654262
REMARK minimizedRMSD -1
REMARK  0 active torsions:
REMARK  status: ('A' for Active; 'I' for Inactive)
ROOT
ATOM      1  C1  BNZ d   1       5.995   4.090   2.917  0.00  0.00     0.000 A 
ATOM      2  C2  BNZ d   1       5.913   5.025   3.915  0.00  0.00     0.000 A 
ATOM      3  C3  BNZ d   1       4.923   5.967   3.912  0.00  0.00     0.000 A 
ATOM      4  C4  BNZ d   1       4.041   5.999   2.892  0.00  0.00     0.000 A 
ATOM      5  C5  BNZ d   1       4.116   5.069   1.874  0.00  0.00     0.000 A 
ATOM      6  C6  BNZ d   1       5.090   4.098   1.901  0.00  0.00     0.000 A 
ENDROOT
TORSDOF 0
ENDMDL
