MODEL 1
REMARK minimizedAffinity -1.0794313
REMARK minimizedRMSD -1
REMARK  0 active torsions:
REMARK  status: ('A' for Active; 'I' for Inactive)
ROOT
ATOM      1  C1  BNZ d   1      -2.206  -0.453   0.450  0.00  0.00     0.000 A 
ATOM      2  C2  BNZ d   1      -2.851  -0.378   1.655  0.00  0.00     0.000 A 
ATOM      3  C3  BNZ d   1      -2.387   0.439   2.648  0.00  0.00     0.000 A 
ATOM      4  C4  BNZ d   1      -1.258   1.149   2.449  0.00  0.00     0.000 A 
ATOM      5  C5  BNZ d   1      -0.590   1.076   1.242  0.00  0.00     0.000 A 
ATOM      6  C6  BNZ d   1      -1.082   0.282   0.232  0.00  0.00     0.000 A 
ENDROOT
TORSDOF 0
ENDMDL
