MODEL 1
REMARK minimizedAffinity 0.0234888867
REMARK minimizedRMSD -1
REMARK  0 active torsions:
REMARK  status: ('A' for Active; 'I' for Inactive)
ROOT
ATOM      1  C1  BNZ d   1      -6.000  -1.153   3.100  0.00  0.00     0.000 A 
ATOM      2  C2  BNZ d   1      -5.998  -1.117   4.469  0.00  0.00     0.000 A 
ATOM      3  C3  BNZ d   1      -5.434  -0.069   5.141  0.00  0.00     0.000 A 
ATOM      4  C4  BNZ d   1      -4.839   0.921   4.445  0.00  0.00     0.000 A 
ATOM      5  C5  BNZ d   1      -4.824   0.895   3.065  0.00  0.00     0.000 A 
ATOM      6  C6  BNZ d   1      -5.427  -0.142   2.391  0.00  0.00     0.000 A 
ENDROOT
TORSDOF 0
ENDMDL
