MODEL 1
REMARK minimizedAffinity 4.55857849
REMARK minimizedRMSD -1
REMARK  0 active torsions:
REMARK  status: ('A' for Active; 'I' for Inactive)
ROOT
ATOM      1  C1  BNZ d   1       1.224   6.000  -3.382  0.00  0.00     0.000 A 
ATOM      2  C2  BNZ d   1       2.225   5.086  -3.579  0.00  0.00     0.000 A 
ATOM      3  C3  BNZ d   1       2.524   4.159  -2.620  0.00  0.00     0.000 A 
ATOM      4  C4  BNZ d   1       1.851   4.172  -1.452  0.00  0.00     0.000 A 
ATOM      5  C5  BNZ d   1       0.845   5.093  -1.235  0.00  0.00     0.000 A 
ATOM      6  C6  BNZ d   1       0.520   6.000  -2.217  0.00  0.00     0.000 A 
ENDROOT
TORSDOF 0
ENDMDL
