MODEL 1
REMARK minimizedAffinity -3.64717722
REMARK minimizedRMSD -1
REMARK  0 active torsions:
REMARK  status: ('A' for Active; 'I' for Inactive)
ROOT
ATOM      1  C   UNL d   1      -1.068   0.098   0.399  0.00  0.00     0.023 A 
ATOM      2  C1  UNL d   1      -0.340  -1.011  -0.033  0.00  0.00     0.003 A 
ATOM      3  C2  UNL d   1       0.442  -0.928  -1.186  0.00  0.00     0.048 A 
ATOM      4  C3  UNL d   1       0.493   0.267  -1.902  0.00  0.00     0.023 A 
ATOM      5  C4  UNL d   1      -0.233   1.380  -1.473  0.00  0.00     0.048 A 
ATOM      6  C5  UNL d   1      -1.014   1.292  -0.320  0.00  0.00     0.003 A 
ATOM      7  I   UNL d   1       1.657   0.394  -3.620  0.00  0.00    -0.146 I 
ENDROOT
TORSDOF 0
ENDMDL
