MODEL 1
REMARK minimizedAffinity -2.90389752
REMARK minimizedRMSD -1
REMARK  0 active torsions:
REMARK  status: ('A' for Active; 'I' for Inactive)
ROOT
ATOM      1  C   UNL d   1       0.798   0.477   3.762  0.00  0.00     0.023 A 
ATOM      2  C1  UNL d   1      -0.401   0.782   3.117  0.00  0.00     0.003 A 
ATOM      3  C2  UNL d   1      -0.524   0.588   1.740  0.00  0.00     0.048 A 
ATOM      4  C3  UNL d   1       0.555   0.086   1.014  0.00  0.00     0.023 A 
ATOM      5  C4  UNL d   1       1.756  -0.223   1.654  0.00  0.00     0.048 A 
ATOM      6  C5  UNL d   1       1.875  -0.025   3.031  0.00  0.00     0.003 A 
ATOM      7  I   UNL d   1       0.374  -0.205  -1.036  0.00  0.00    -0.146 I 
ENDROOT
TORSDOF 0
ENDMDL
