MODEL 1
REMARK minimizedAffinity -4.5236063
REMARK minimizedRMSD -1
REMARK  0 active torsions:
REMARK  status: ('A' for Active; 'I' for Inactive)
ROOT
ATOM      1  C   UNL d   1      -0.960   0.694   2.730  0.00  0.00     0.023 A 
ATOM      2  C1  UNL d   1      -1.814   0.290   1.703  0.00  0.00     0.003 A 
ATOM      3  C2  UNL d   1      -1.289  -0.086   0.465  0.00  0.00     0.048 A 
ATOM      4  C3  UNL d   1       0.090  -0.058   0.261  0.00  0.00     0.023 A 
ATOM      5  C4  UNL d   1       0.948   0.344   1.287  0.00  0.00     0.048 A 
ATOM      6  C5  UNL d   1       0.419   0.721   2.522  0.00  0.00     0.003 A 
ATOM      7  I   UNL d   1       0.874  -0.618  -1.580  0.00  0.00    -0.146 I 
ENDROOT
TORSDOF 0
ENDMDL
