MODEL 1
REMARK minimizedAffinity -2.2859869
REMARK minimizedRMSD -1
REMARK  0 active torsions:
REMARK  status: ('A' for Active; 'I' for Inactive)
ROOT
ATOM      1  C   UNL d   1      -0.214  -0.218   1.678  0.00  0.00     0.023 A 
ATOM      2  C1  UNL d   1       1.032  -0.579   1.165  0.00  0.00     0.003 A 
ATOM      3  C2  UNL d   1       1.228  -0.646  -0.216  0.00  0.00     0.048 A 
ATOM      4  C3  UNL d   1       0.173  -0.350  -1.079  0.00  0.00     0.023 A 
ATOM      5  C4  UNL d   1      -1.076   0.012  -0.570  0.00  0.00     0.048 A 
ATOM      6  C5  UNL d   1      -1.267   0.077   0.811  0.00  0.00     0.003 A 
ATOM      7  I   UNL d   1       0.461  -0.449  -3.135  0.00  0.00    -0.146 I 
ENDROOT
TORSDOF 0
ENDMDL
