MODEL 1
REMARK minimizedAffinity -1.34330714
REMARK minimizedRMSD -1
REMARK  0 active torsions:
REMARK  status: ('A' for Active; 'I' for Inactive)
ROOT
ATOM      1  C   UNL d   1       0.939   0.798  -3.867  0.00  0.00     0.023 A 
ATOM      2  C1  UNL d   1       0.579   1.825  -2.995  0.00  0.00     0.003 A 
ATOM      3  C2  UNL d   1       0.042   1.523  -1.742  0.00  0.00     0.048 A 
ATOM      4  C3  UNL d   1      -0.132   0.191  -1.367  0.00  0.00     0.023 A 
ATOM      5  C4  UNL d   1       0.228  -0.840  -2.236  0.00  0.00     0.048 A 
ATOM      6  C5  UNL d   1       0.764  -0.533  -3.488  0.00  0.00     0.003 A 
ATOM      7  I   UNL d   1      -0.930  -0.261   0.498  0.00  0.00    -0.146 I 
ENDROOT
TORSDOF 0
ENDMDL
