MODEL 1
REMARK minimizedAffinity 1.65458739
REMARK minimizedRMSD -1
REMARK  0 active torsions:
REMARK  status: ('A' for Active; 'I' for Inactive)
ROOT
ATOM      1  C   UNL d   1       0.526  -0.192   1.619  0.00  0.00     0.023 A 
ATOM      2  C1  UNL d   1       0.910  -1.285   0.841  0.00  0.00     0.003 A 
ATOM      3  C2  UNL d   1       0.905  -1.188  -0.552  0.00  0.00     0.048 A 
ATOM      4  C3  UNL d   1       0.517   0.005  -1.161  0.00  0.00     0.023 A 
ATOM      5  C4  UNL d   1       0.133   1.101  -0.387  0.00  0.00     0.048 A 
ATOM      6  C5  UNL d   1       0.139   0.999   1.006  0.00  0.00     0.003 A 
ATOM      7  I   UNL d   1       0.510   0.152  -3.234  0.00  0.00    -0.146 I 
ENDROOT
TORSDOF 0
ENDMDL
