MODEL 1
REMARK minimizedAffinity 7.9130044
REMARK minimizedRMSD -1
REMARK  2 active torsions:
REMARK  status: ('A' for Active; 'I' for Inactive)
REMARK    1  A    between atoms: C1_2  and  C2_3 
REMARK    2  A    between atoms: C2_3  and  C3_4 
ROOT
ATOM      1  C3  UNL d   1      -1.196  -3.707   0.385  0.00  0.00    -0.075 A 
ATOM      2  C4  UNL d   1      -2.331  -3.279   1.088  0.00  0.00     0.002 A 
ATOM      3  C5  UNL d   1      -3.046  -2.159   0.663  0.00  0.00     0.002 A 
ATOM      4  C6  UNL d   1      -2.631  -1.448  -0.461  0.00  0.00    -0.004 A 
ATOM      5  C7  UNL d   1      -1.495  -1.855  -1.157  0.00  0.00     0.002 A 
ATOM      6  C8  UNL d   1      -0.780  -2.978  -0.737  0.00  0.00     0.002 A 
ENDROOT
BRANCH   1   7
ATOM      7  C2  UNL d   1      -0.434  -4.936   0.822  0.00  0.00     0.056 C 
BRANCH   7   8
ATOM      8  C1  UNL d   1      -1.302  -5.995   1.510  0.00  0.00     0.007 C 
ATOM      9  C   UNL d   1      -1.180  -5.978   3.028  0.00  0.00     0.009 C 
ENDBRANCH   7   8
ENDBRANCH   1   7
TORSDOF 2
ENDMDL
