MODEL 1
REMARK minimizedAffinity 19.0295105
REMARK minimizedRMSD -1
REMARK  2 active torsions:
REMARK  status: ('A' for Active; 'I' for Inactive)
REMARK    1  A    between atoms: C1_2  and  C2_3 
REMARK    2  A    between atoms: C2_3  and  C3_4 
ROOT
ATOM      1  C3  UNL d   1      -3.695   3.770  -4.961  0.00  0.00    -0.075 A 
ATOM      2  C4  UNL d   1      -3.412   4.902  -4.183  0.00  0.00     0.002 A 
ATOM      3  C5  UNL d   1      -4.275   5.999  -4.189  0.00  0.00     0.002 A 
ATOM      4  C6  UNL d   1      -5.423   5.981  -4.977  0.00  0.00    -0.004 A 
ATOM      5  C7  UNL d   1      -5.706   4.868  -5.766  0.00  0.00     0.002 A 
ATOM      6  C8  UNL d   1      -4.847   3.768  -5.759  0.00  0.00     0.002 A 
ENDROOT
BRANCH   1   7
ATOM      7  C2  UNL d   1      -2.781   2.568  -4.937  0.00  0.00     0.056 C 
BRANCH   7   8
ATOM      8  C1  UNL d   1      -1.632   2.679  -3.929  0.00  0.00     0.007 C 
ATOM      9  C   UNL d   1      -0.265   2.810  -4.589  0.00  0.00     0.009 C 
ENDBRANCH   7   8
ENDBRANCH   1   7
TORSDOF 2
ENDMDL
