MODEL 1
REMARK minimizedAffinity 16.7797527
REMARK minimizedRMSD -1
REMARK  2 active torsions:
REMARK  status: ('A' for Active; 'I' for Inactive)
REMARK    1  A    between atoms: C1_2  and  C2_3 
REMARK    2  A    between atoms: C2_3  and  C3_4 
ROOT
ATOM      1  C3  UNL d   1      -0.858   0.845  -3.416  0.00  0.00    -0.075 A 
ATOM      2  C4  UNL d   1      -2.204   1.223  -3.311  0.00  0.00     0.002 A 
ATOM      3  C5  UNL d   1      -2.641   2.441  -3.832  0.00  0.00     0.002 A 
ATOM      4  C6  UNL d   1      -1.738   3.300  -4.455  0.00  0.00    -0.004 A 
ATOM      5  C7  UNL d   1      -0.395   2.942  -4.550  0.00  0.00     0.002 A 
ATOM      6  C8  UNL d   1       0.044   1.722  -4.033  0.00  0.00     0.002 A 
ENDROOT
BRANCH   1   7
ATOM      7  C2  UNL d   1      -0.384  -0.485  -2.880  0.00  0.00     0.056 C 
BRANCH   7   8
ATOM      8  C1  UNL d   1      -1.501  -1.352  -2.289  0.00  0.00     0.007 C 
ATOM      9  C   UNL d   1      -1.154  -1.927  -0.922  0.00  0.00     0.009 C 
ENDBRANCH   7   8
ENDBRANCH   1   7
TORSDOF 2
ENDMDL
