MODEL 1
REMARK minimizedAffinity 9.52839565
REMARK minimizedRMSD -1
REMARK  2 active torsions:
REMARK  status: ('A' for Active; 'I' for Inactive)
REMARK    1  A    between atoms: C1_2  and  C2_3 
REMARK    2  A    between atoms: C2_3  and  C3_4 
ROOT
ATOM      1  C3  UNL d   1      -0.805  -3.555  -0.760  0.00  0.00    -0.075 A 
ATOM      2  C4  UNL d   1      -0.612  -3.588   0.629  0.00  0.00     0.002 A 
ATOM      3  C5  UNL d   1      -0.441  -4.804   1.291  0.00  0.00     0.002 A 
ATOM      4  C6  UNL d   1      -0.469  -6.000   0.577  0.00  0.00    -0.004 A 
ATOM      5  C7  UNL d   1      -0.677  -5.980  -0.800  0.00  0.00     0.002 A 
ATOM      6  C8  UNL d   1      -0.844  -4.765  -1.466  0.00  0.00     0.002 A 
ENDROOT
BRANCH   1   7
ATOM      7  C2  UNL d   1      -0.962  -2.241  -1.487  0.00  0.00     0.056 C 
BRANCH   7   8
ATOM      8  C1  UNL d   1      -2.249  -1.486  -1.139  0.00  0.00     0.007 C 
ATOM      9  C   UNL d   1      -2.659  -1.637   0.319  0.00  0.00     0.009 C 
ENDBRANCH   7   8
ENDBRANCH   1   7
TORSDOF 2
ENDMDL
