MODEL 1
REMARK minimizedAffinity 16.5091286
REMARK minimizedRMSD -1
REMARK  2 active torsions:
REMARK  status: ('A' for Active; 'I' for Inactive)
REMARK    1  A    between atoms: C1_2  and  C2_3 
REMARK    2  A    between atoms: C2_3  and  C3_4 
ROOT
ATOM      1  C3  UNL d   1      -1.912   0.939  -3.753  0.00  0.00    -0.075 A 
ATOM      2  C4  UNL d   1      -0.524   0.959  -3.948  0.00  0.00     0.002 A 
ATOM      3  C5  UNL d   1       0.096   2.074  -4.512  0.00  0.00     0.002 A 
ATOM      4  C6  UNL d   1      -0.663   3.177  -4.897  0.00  0.00    -0.004 A 
ATOM      5  C7  UNL d   1      -2.045   3.161  -4.722  0.00  0.00     0.002 A 
ATOM      6  C8  UNL d   1      -2.668   2.049  -4.154  0.00  0.00     0.002 A 
ENDROOT
BRANCH   1   7
ATOM      7  C2  UNL d   1      -2.586  -0.253  -3.116  0.00  0.00     0.056 C 
BRANCH   7   8
ATOM      8  C1  UNL d   1      -1.650  -1.442  -2.872  0.00  0.00     0.007 C 
ATOM      9  C   UNL d   1      -1.362  -1.686  -1.397  0.00  0.00     0.009 C 
ENDBRANCH   7   8
ENDBRANCH   1   7
TORSDOF 2
ENDMDL
