MODEL 1
REMARK minimizedAffinity 2.14160013
REMARK minimizedRMSD -1
REMARK  2 active torsions:
REMARK  status: ('A' for Active; 'I' for Inactive)
REMARK    1  A    between atoms: C1_2  and  C2_3 
REMARK    2  A    between atoms: C2_3  and  C3_4 
ROOT
ATOM      1  C3  UNL d   1      -3.771   4.010  -4.850  0.00  0.00    -0.075 A 
ATOM      2  C4  UNL d   1      -3.858   5.095  -3.966  0.00  0.00     0.002 A 
ATOM      3  C5  UNL d   1      -4.919   5.997  -4.053  0.00  0.00     0.002 A 
ATOM      4  C6  UNL d   1      -5.898   5.832  -5.030  0.00  0.00    -0.004 A 
ATOM      5  C7  UNL d   1      -5.813   4.767  -5.924  0.00  0.00     0.002 A 
ATOM      6  C8  UNL d   1      -4.755   3.861  -5.836  0.00  0.00     0.002 A 
ENDROOT
BRANCH   1   7
ATOM      7  C2  UNL d   1      -2.641   3.014  -4.742  0.00  0.00     0.056 C 
BRANCH   7   8
ATOM      8  C1  UNL d   1      -1.410   3.374  -5.580  0.00  0.00     0.007 C 
ATOM      9  C   UNL d   1      -0.101   2.912  -4.954  0.00  0.00     0.009 C 
ENDBRANCH   7   8
ENDBRANCH   1   7
TORSDOF 2
ENDMDL
