MODEL 1
REMARK minimizedAffinity 7.42280293
REMARK minimizedRMSD -1
REMARK  2 active torsions:
REMARK  status: ('A' for Active; 'I' for Inactive)
REMARK    1  A    between atoms: C1_2  and  C2_3 
REMARK    2  A    between atoms: C2_3  and  C3_4 
ROOT
ATOM      1  C3  UNL d   1      -1.964  -3.093   2.091  0.00  0.00    -0.075 A 
ATOM      2  C4  UNL d   1      -1.384  -4.355   1.904  0.00  0.00     0.002 A 
ATOM      3  C5  UNL d   1      -0.799  -4.692   0.683  0.00  0.00     0.002 A 
ATOM      4  C6  UNL d   1      -0.796  -3.777  -0.367  0.00  0.00    -0.004 A 
ATOM      5  C7  UNL d   1      -1.384  -2.525  -0.198  0.00  0.00     0.002 A 
ATOM      6  C8  UNL d   1      -1.966  -2.184   1.024  0.00  0.00     0.002 A 
ENDROOT
BRANCH   1   7
ATOM      7  C2  UNL d   1      -2.573  -2.711   3.420  0.00  0.00     0.056 C 
BRANCH   7   8
ATOM      8  C1  UNL d   1      -1.888  -1.522   4.101  0.00  0.00     0.007 C 
ATOM      9  C   UNL d   1      -0.911  -1.938   5.193  0.00  0.00     0.009 C 
ENDBRANCH   7   8
ENDBRANCH   1   7
TORSDOF 2
ENDMDL
