MODEL 1
REMARK minimizedAffinity 13.0875425
REMARK minimizedRMSD -1
REMARK  2 active torsions:
REMARK  status: ('A' for Active; 'I' for Inactive)
REMARK    1  A    between atoms: C1_2  and  C2_3 
REMARK    2  A    between atoms: C2_3  and  C3_4 
ROOT
ATOM      1  C3  UNL d   1      -1.006  -1.727  -1.741  0.00  0.00    -0.075 A 
ATOM      2  C4  UNL d   1      -2.112  -0.871  -1.634  0.00  0.00     0.002 A 
ATOM      3  C5  UNL d   1      -3.045  -1.044  -0.612  0.00  0.00     0.002 A 
ATOM      4  C6  UNL d   1      -2.892  -2.079   0.308  0.00  0.00    -0.004 A 
ATOM      5  C7  UNL d   1      -1.806  -2.945   0.201  0.00  0.00     0.002 A 
ATOM      6  C8  UNL d   1      -0.868  -2.772  -0.818  0.00  0.00     0.002 A 
ENDROOT
BRANCH   1   7
ATOM      7  C2  UNL d   1       0.023  -1.527  -2.828  0.00  0.00     0.056 C 
BRANCH   7   8
ATOM      8  C1  UNL d   1       0.944  -0.323  -2.601  0.00  0.00     0.007 C 
ATOM      9  C   UNL d   1       2.336  -0.713  -2.124  0.00  0.00     0.009 C 
ENDBRANCH   7   8
ENDBRANCH   1   7
TORSDOF 2
ENDMDL
