MODEL 1
REMARK minimizedAffinity 15.5825739
REMARK minimizedRMSD -1
REMARK  2 active torsions:
REMARK  status: ('A' for Active; 'I' for Inactive)
REMARK    1  A    between atoms: C1_2  and  C2_3 
REMARK    2  A    between atoms: C2_3  and  C3_4 
ROOT
ATOM      1  C3  UNL d   1      -2.239   2.176  -3.909  0.00  0.00    -0.075 A 
ATOM      2  C4  UNL d   1      -0.859   2.422  -3.897  0.00  0.00     0.002 A 
ATOM      3  C5  UNL d   1      -0.263   3.165  -4.917  0.00  0.00     0.002 A 
ATOM      4  C6  UNL d   1      -1.036   3.661  -5.964  0.00  0.00    -0.004 A 
ATOM      5  C7  UNL d   1      -2.405   3.409  -5.995  0.00  0.00     0.002 A 
ATOM      6  C8  UNL d   1      -3.005   2.670  -4.974  0.00  0.00     0.002 A 
ENDROOT
BRANCH   1   7
ATOM      7  C2  UNL d   1      -2.895   1.398  -2.794  0.00  0.00     0.056 C 
BRANCH   7   8
ATOM      8  C1  UNL d   1      -2.570  -0.100  -2.803  0.00  0.00     0.007 C 
ATOM      9  C   UNL d   1      -2.653  -0.740  -1.424  0.00  0.00     0.009 C 
ENDBRANCH   7   8
ENDBRANCH   1   7
TORSDOF 2
ENDMDL
