MODEL 1
REMARK minimizedAffinity 11.1191454
REMARK minimizedRMSD -1
REMARK  2 active torsions:
REMARK  status: ('A' for Active; 'I' for Inactive)
REMARK    1  A    between atoms: C1_2  and  C2_3 
REMARK    2  A    between atoms: C2_3  and  C3_4 
ROOT
ATOM      1  C3  UNL d   1      -1.151  -3.535   0.742  0.00  0.00    -0.075 A 
ATOM      2  C4  UNL d   1      -2.118  -3.416   1.750  0.00  0.00     0.002 A 
ATOM      3  C5  UNL d   1      -3.059  -2.387   1.710  0.00  0.00     0.002 A 
ATOM      4  C6  UNL d   1      -3.039  -1.460   0.671  0.00  0.00    -0.004 A 
ATOM      5  C7  UNL d   1      -2.072  -1.559  -0.327  0.00  0.00     0.002 A 
ATOM      6  C8  UNL d   1      -1.131  -2.591  -0.292  0.00  0.00     0.002 A 
ENDROOT
BRANCH   1   7
ATOM      7  C2  UNL d   1      -0.148  -4.664   0.764  0.00  0.00     0.056 C 
BRANCH   7   8
ATOM      8  C1  UNL d   1      -0.721  -5.999   1.252  0.00  0.00     0.007 C 
ATOM      9  C   UNL d   1      -1.070  -5.996   2.734  0.00  0.00     0.009 C 
ENDBRANCH   7   8
ENDBRANCH   1   7
TORSDOF 2
ENDMDL
