MODEL 1
REMARK minimizedAffinity 7.00315809
REMARK minimizedRMSD -1
REMARK  2 active torsions:
REMARK  status: ('A' for Active; 'I' for Inactive)
REMARK    1  A    between atoms: C1_2  and  C2_3 
REMARK    2  A    between atoms: C2_3  and  C3_4 
ROOT
ATOM      1  C3  UNL d   1      -2.146  -2.958   2.082  0.00  0.00    -0.075 A 
ATOM      2  C4  UNL d   1      -1.329  -4.009   1.639  0.00  0.00     0.002 A 
ATOM      3  C5  UNL d   1      -0.823  -4.013   0.340  0.00  0.00     0.002 A 
ATOM      4  C6  UNL d   1      -1.134  -2.975  -0.536  0.00  0.00    -0.004 A 
ATOM      5  C7  UNL d   1      -1.958  -1.935  -0.113  0.00  0.00     0.002 A 
ATOM      6  C8  UNL d   1      -2.463  -1.926   1.189  0.00  0.00     0.002 A 
ENDROOT
BRANCH   1   7
ATOM      7  C2  UNL d   1      -2.673  -2.932   3.497  0.00  0.00     0.056 C 
BRANCH   7   8
ATOM      8  C1  UNL d   1      -1.997  -1.892   4.396  0.00  0.00     0.007 C 
ATOM      9  C   UNL d   1      -0.788  -2.440   5.142  0.00  0.00     0.009 C 
ENDBRANCH   7   8
ENDBRANCH   1   7
TORSDOF 2
ENDMDL
