MODEL 1
REMARK minimizedAffinity 7.91255903
REMARK minimizedRMSD -1
REMARK  2 active torsions:
REMARK  status: ('A' for Active; 'I' for Inactive)
REMARK    1  A    between atoms: C1_2  and  C2_3 
REMARK    2  A    between atoms: C2_3  and  C3_4 
ROOT
ATOM      1  C3  UNL d   1      -1.659  -2.131  -0.737  0.00  0.00    -0.075 A 
ATOM      2  C4  UNL d   1      -0.826  -3.257  -0.808  0.00  0.00     0.002 A 
ATOM      3  C5  UNL d   1      -0.708  -4.121   0.281  0.00  0.00     0.002 A 
ATOM      4  C6  UNL d   1      -1.412  -3.865   1.456  0.00  0.00    -0.004 A 
ATOM      5  C7  UNL d   1      -2.229  -2.740   1.544  0.00  0.00     0.002 A 
ATOM      6  C8  UNL d   1      -2.352  -1.877   0.454  0.00  0.00     0.002 A 
ENDROOT
BRANCH   1   7
ATOM      7  C2  UNL d   1      -1.814  -1.209  -1.923  0.00  0.00     0.056 C 
BRANCH   7   8
ATOM      8  C1  UNL d   1      -0.916  -1.566  -3.112  0.00  0.00     0.007 C 
ATOM      9  C   UNL d   1      -1.667  -2.246  -4.249  0.00  0.00     0.009 C 
ENDBRANCH   7   8
ENDBRANCH   1   7
TORSDOF 2
ENDMDL
