MODEL 1
REMARK minimizedAffinity 1.1976552
REMARK minimizedRMSD -1
REMARK  0 active torsions:
REMARK  status: ('A' for Active; 'I' for Inactive)
ROOT
ATOM      1  C   UNL d   1       0.686  -0.608  -0.876  0.00  0.00     0.078 C 
ATOM      2  C1  UNL d   1       0.005  -1.938  -1.004  0.00  0.00    -0.077 A 
ATOM      3  C2  UNL d   1      -1.065  -2.119  -1.889  0.00  0.00    -0.001 A 
ATOM      4  C3  UNL d   1      -1.695  -3.360  -1.991  0.00  0.00     0.003 A 
ATOM      5  C4  UNL d   1      -1.263  -4.430  -1.210  0.00  0.00    -0.005 A 
ATOM      6  C5  UNL d   1      -0.201  -4.259  -0.325  0.00  0.00     0.003 A 
ATOM      7  C6  UNL d   1       0.431  -3.019  -0.222  0.00  0.00    -0.001 A 
ENDROOT
TORSDOF 0
ENDMDL
