MODEL 1
REMARK minimizedAffinity -0.929520488
REMARK minimizedRMSD -1
REMARK  0 active torsions:
REMARK  status: ('A' for Active; 'I' for Inactive)
ROOT
ATOM      1  C   UNL d   1      -0.261   0.289   1.069  0.00  0.00     0.078 C 
ATOM      2  C1  UNL d   1      -0.250   1.633   0.405  0.00  0.00    -0.077 A 
ATOM      3  C2  UNL d   1      -0.119   2.807   1.157  0.00  0.00    -0.001 A 
ATOM      4  C3  UNL d   1      -0.120   4.053   0.526  0.00  0.00     0.003 A 
ATOM      5  C4  UNL d   1      -0.254   4.136  -0.858  0.00  0.00    -0.005 A 
ATOM      6  C5  UNL d   1      -0.387   2.973  -1.614  0.00  0.00     0.003 A 
ATOM      7  C6  UNL d   1      -0.386   1.727  -0.985  0.00  0.00    -0.001 A 
ENDROOT
TORSDOF 0
ENDMDL
