MODEL 1
REMARK minimizedAffinity -4.9671402
REMARK minimizedRMSD -1
REMARK  0 active torsions:
REMARK  status: ('A' for Active; 'I' for Inactive)
ROOT
ATOM      1  C   UNL d   1      -0.487   3.844  -0.696  0.00  0.00     0.078 C 
ATOM      2  C1  UNL d   1      -0.366   2.485  -0.074  0.00  0.00    -0.077 A 
ATOM      3  C2  UNL d   1      -0.297   1.333  -0.867  0.00  0.00    -0.001 A 
ATOM      4  C3  UNL d   1      -0.195   0.074  -0.275  0.00  0.00     0.003 A 
ATOM      5  C4  UNL d   1      -0.163  -0.046   1.113  0.00  0.00    -0.005 A 
ATOM      6  C5  UNL d   1      -0.233   1.094   1.910  0.00  0.00     0.003 A 
ATOM      7  C6  UNL d   1      -0.335   2.355   1.320  0.00  0.00    -0.001 A 
ENDROOT
TORSDOF 0
ENDMDL
