MODEL 1
REMARK minimizedAffinity -4.38120461
REMARK minimizedRMSD -1
REMARK  0 active torsions:
REMARK  status: ('A' for Active; 'I' for Inactive)
ROOT
ATOM      1  C   UNL d   1       0.031  -3.099  -1.122  0.00  0.00     0.078 C 
ATOM      2  C1  UNL d   1      -0.036  -1.909  -0.212  0.00  0.00    -0.077 A 
ATOM      3  C2  UNL d   1       0.753  -0.776  -0.449  0.00  0.00    -0.001 A 
ATOM      4  C3  UNL d   1       0.688   0.321   0.412  0.00  0.00     0.003 A 
ATOM      5  C4  UNL d   1      -0.163   0.296   1.515  0.00  0.00    -0.005 A 
ATOM      6  C5  UNL d   1      -0.949  -0.828   1.760  0.00  0.00     0.003 A 
ATOM      7  C6  UNL d   1      -0.886  -1.926   0.900  0.00  0.00    -0.001 A 
ENDROOT
TORSDOF 0
ENDMDL
