MODEL 1
REMARK minimizedAffinity -3.30788112
REMARK minimizedRMSD -1
REMARK  0 active torsions:
REMARK  status: ('A' for Active; 'I' for Inactive)
ROOT
ATOM      1  C   UNL d   1       0.209  -0.832  -0.725  0.00  0.00     0.078 C 
ATOM      2  C1  UNL d   1       0.016   0.527  -0.120  0.00  0.00    -0.077 A 
ATOM      3  C2  UNL d   1      -0.252   1.643  -0.923  0.00  0.00    -0.001 A 
ATOM      4  C3  UNL d   1      -0.419   2.903  -0.348  0.00  0.00     0.003 A 
ATOM      5  C4  UNL d   1      -0.321   3.060   1.033  0.00  0.00    -0.005 A 
ATOM      6  C5  UNL d   1      -0.053   1.957   1.841  0.00  0.00     0.003 A 
ATOM      7  C6  UNL d   1       0.115   0.695   1.267  0.00  0.00    -0.001 A 
ENDROOT
TORSDOF 0
ENDMDL
