MODEL 1
REMARK minimizedAffinity -0.154107749
REMARK minimizedRMSD -1
REMARK  0 active torsions:
REMARK  status: ('A' for Active; 'I' for Inactive)
ROOT
ATOM      1  C   UNL d   1       0.657   4.708  -0.372  0.00  0.00     0.078 C 
ATOM      2  C1  UNL d   1       1.069   4.110   0.940  0.00  0.00    -0.077 A 
ATOM      3  C2  UNL d   1       2.230   4.539   1.595  0.00  0.00    -0.001 A 
ATOM      4  C3  UNL d   1       2.606   3.967   2.811  0.00  0.00     0.003 A 
ATOM      5  C4  UNL d   1       1.828   2.963   3.383  0.00  0.00    -0.005 A 
ATOM      6  C5  UNL d   1       0.671   2.529   2.738  0.00  0.00     0.003 A 
ATOM      7  C6  UNL d   1       0.293   3.099   1.521  0.00  0.00    -0.001 A 
ENDROOT
TORSDOF 0
ENDMDL
