MODEL 1
REMARK minimizedAffinity 2.61685896
REMARK minimizedRMSD -1
REMARK  0 active torsions:
REMARK  status: ('A' for Active; 'I' for Inactive)
ROOT
ATOM      1  C   UNL d   1       3.635   0.277  -0.420  0.00  0.00     0.172 C 
ATOM      2  N   UNL d   1       2.971  -1.005  -0.380  0.00  0.00    -0.070 N 
ATOM      3  C1  UNL d   1       2.886  -1.826   0.713  0.00  0.00    -0.004 A 
ATOM      4  C2  UNL d   1       2.175  -2.948   0.343  0.00  0.00    -0.047 A 
ATOM      5  C3  UNL d   1       1.821  -2.795  -1.018  0.00  0.00    -0.047 A 
ATOM      6  C4  UNL d   1       2.327  -1.584  -1.441  0.00  0.00    -0.004 A 
ENDROOT
TORSDOF 0
ENDMDL
