MODEL 1
REMARK minimizedAffinity -0.221053928
REMARK minimizedRMSD -1
REMARK  0 active torsions:
REMARK  status: ('A' for Active; 'I' for Inactive)
ROOT
ATOM      1  C   UNL d   1      -5.850  -0.051  -4.255  0.00  0.00     0.172 C 
ATOM      2  N   UNL d   1      -4.465   0.359  -4.294  0.00  0.00    -0.070 N 
ATOM      3  C1  UNL d   1      -3.461  -0.146  -3.513  0.00  0.00    -0.004 A 
ATOM      4  C2  UNL d   1      -2.294   0.503  -3.854  0.00  0.00    -0.047 A 
ATOM      5  C3  UNL d   1      -2.609   1.432  -4.874  0.00  0.00    -0.047 A 
ATOM      6  C4  UNL d   1      -3.960   1.322  -5.127  0.00  0.00    -0.004 A 
ENDROOT
TORSDOF 0
ENDMDL
