MODEL 1
REMARK minimizedAffinity 5.37569761
REMARK minimizedRMSD -1
REMARK  0 active torsions:
REMARK  status: ('A' for Active; 'I' for Inactive)
ROOT
ATOM      1  C   UNL d   1       5.641   3.094  -1.490  0.00  0.00     0.172 C 
ATOM      2  N   UNL d   1       4.897   1.939  -1.044  0.00  0.00    -0.070 N 
ATOM      3  C1  UNL d   1       4.863   1.457   0.237  0.00  0.00    -0.004 A 
ATOM      4  C2  UNL d   1       4.044   0.349   0.249  0.00  0.00    -0.047 A 
ATOM      5  C3  UNL d   1       3.569   0.158  -1.070  0.00  0.00    -0.047 A 
ATOM      6  C4  UNL d   1       4.113   1.157  -1.851  0.00  0.00    -0.004 A 
ENDROOT
TORSDOF 0
ENDMDL
