MODEL 1
REMARK minimizedAffinity 8.02180672
REMARK minimizedRMSD -1
REMARK  0 active torsions:
REMARK  status: ('A' for Active; 'I' for Inactive)
ROOT
ATOM      1  C   UNL d   1      -0.212  -5.186  -1.385  0.00  0.00     0.172 C 
ATOM      2  N   UNL d   1      -1.140  -5.203  -2.491  0.00  0.00    -0.070 N 
ATOM      3  C1  UNL d   1      -2.269  -4.436  -2.598  0.00  0.00    -0.004 A 
ATOM      4  C2  UNL d   1      -2.878  -4.745  -3.795  0.00  0.00    -0.047 A 
ATOM      5  C3  UNL d   1      -2.088  -5.734  -4.429  0.00  0.00    -0.047 A 
ATOM      6  C4  UNL d   1      -1.018  -5.999  -3.600  0.00  0.00    -0.004 A 
ENDROOT
TORSDOF 0
ENDMDL
