MODEL 1
REMARK minimizedAffinity 1.49858832
REMARK minimizedRMSD -1
REMARK  0 active torsions:
REMARK  status: ('A' for Active; 'I' for Inactive)
ROOT
ATOM      1  C   UNL d   1       3.403  -1.693  -0.277  0.00  0.00     0.172 C 
ATOM      2  N   UNL d   1       4.229  -0.531  -0.508  0.00  0.00    -0.070 N 
ATOM      3  C1  UNL d   1       3.812   0.646  -1.070  0.00  0.00    -0.004 A 
ATOM      4  C2  UNL d   1       4.894   1.499  -1.115  0.00  0.00    -0.047 A 
ATOM      5  C3  UNL d   1       6.000   0.809  -0.562  0.00  0.00    -0.047 A 
ATOM      6  C4  UNL d   1       5.560  -0.445  -0.195  0.00  0.00    -0.004 A 
ENDROOT
TORSDOF 0
ENDMDL
