MODEL 1
REMARK minimizedAffinity 4.2457056
REMARK minimizedRMSD -1
REMARK  0 active torsions:
REMARK  status: ('A' for Active; 'I' for Inactive)
ROOT
ATOM      1  C   UNL d   1       0.014   4.484   2.248  0.00  0.00     0.172 C 
ATOM      2  N   UNL d   1      -0.373   3.170   1.793  0.00  0.00    -0.070 N 
ATOM      3  C1  UNL d   1       0.191   1.988   2.194  0.00  0.00    -0.004 A 
ATOM      4  C2  UNL d   1      -0.455   0.966   1.533  0.00  0.00    -0.047 A 
ATOM      5  C3  UNL d   1      -1.442   1.554   0.706  0.00  0.00    -0.047 A 
ATOM      6  C4  UNL d   1      -1.368   2.919   0.886  0.00  0.00    -0.004 A 
ENDROOT
TORSDOF 0
ENDMDL
