MODEL 1
REMARK minimizedAffinity 6.60270786
REMARK minimizedRMSD -1
REMARK  0 active torsions:
REMARK  status: ('A' for Active; 'I' for Inactive)
ROOT
ATOM      1  C   UNL d   1       2.879  -1.013  -0.793  0.00  0.00     0.172 C 
ATOM      2  N   UNL d   1       4.014  -0.120  -0.784  0.00  0.00    -0.070 N 
ATOM      3  C1  UNL d   1       5.164  -0.298  -0.062  0.00  0.00    -0.004 A 
ATOM      4  C2  UNL d   1       5.997   0.768  -0.326  0.00  0.00    -0.047 A 
ATOM      5  C3  UNL d   1       5.325   1.616  -1.238  0.00  0.00    -0.047 A 
ATOM      6  C4  UNL d   1       4.099   1.042  -1.505  0.00  0.00    -0.004 A 
ENDROOT
TORSDOF 0
ENDMDL
