MODEL 1
REMARK minimizedAffinity 8.82565022
REMARK minimizedRMSD -1
REMARK  0 active torsions:
REMARK  status: ('A' for Active; 'I' for Inactive)
ROOT
ATOM      1  C   UNL d   1       4.678   1.721  -2.099  0.00  0.00     0.172 C 
ATOM      2  N   UNL d   1       4.023   0.781  -1.220  0.00  0.00    -0.070 N 
ATOM      3  C1  UNL d   1       2.973  -0.030  -1.559  0.00  0.00    -0.004 A 
ATOM      4  C2  UNL d   1       2.639  -0.775  -0.448  0.00  0.00    -0.047 A 
ATOM      5  C3  UNL d   1       3.519  -0.398   0.594  0.00  0.00    -0.047 A 
ATOM      6  C4  UNL d   1       4.365   0.567   0.089  0.00  0.00    -0.004 A 
ENDROOT
TORSDOF 0
ENDMDL
