MODEL 1
REMARK minimizedAffinity -1.99820185
REMARK minimizedRMSD -1
REMARK  2 active torsions:
REMARK  status: ('A' for Active; 'I' for Inactive)
REMARK    1  A    between atoms: C1_2  and  C2_3 
REMARK    2  A    between atoms: C2_3  and  C3_4 
ROOT
ATOM      1  C3  UNL d   1       0.479   3.800  -0.528  0.00  0.00    -0.075 A 
ATOM      2  C4  UNL d   1       0.578   3.483   0.835  0.00  0.00     0.002 A 
ATOM      3  C5  UNL d   1       0.329   2.185   1.280  0.00  0.00     0.002 A 
ATOM      4  C6  UNL d   1      -0.032   1.191   0.373  0.00  0.00    -0.004 A 
ATOM      5  C7  UNL d   1      -0.150   1.498  -0.981  0.00  0.00     0.002 A 
ATOM      6  C8  UNL d   1       0.103   2.795  -1.430  0.00  0.00     0.002 A 
ENDROOT
BRANCH   1   7
ATOM      7  C2  UNL d   1       0.776   5.196  -1.020  0.00  0.00     0.056 C 
BRANCH   7   8
ATOM      8  C1  UNL d   1      -0.029   5.605  -2.259  0.00  0.00     0.007 C 
ATOM      9  C   UNL d   1       0.847   6.000  -3.440  0.00  0.00     0.009 C 
ENDBRANCH   7   8
ENDBRANCH   1   7
TORSDOF 2
ENDMDL
