MODEL 1
REMARK minimizedAffinity 12.4165468
REMARK minimizedRMSD -1
REMARK  2 active torsions:
REMARK  status: ('A' for Active; 'I' for Inactive)
REMARK    1  A    between atoms: C1_2  and  C2_3 
REMARK    2  A    between atoms: C2_3  and  C3_4 
ROOT
ATOM      1  C3  UNL d   1       1.769  -0.963  -3.800  0.00  0.00    -0.075 A 
ATOM      2  C4  UNL d   1       1.531  -2.321  -4.054  0.00  0.00     0.002 A 
ATOM      3  C5  UNL d   1       0.661  -2.709  -5.074  0.00  0.00     0.002 A 
ATOM      4  C6  UNL d   1       0.012  -1.746  -5.844  0.00  0.00    -0.004 A 
ATOM      5  C7  UNL d   1       0.229  -0.394  -5.589  0.00  0.00     0.002 A 
ATOM      6  C8  UNL d   1       1.102  -0.003  -4.572  0.00  0.00     0.002 A 
ENDROOT
BRANCH   1   7
ATOM      7  C2  UNL d   1       2.732  -0.537  -2.717  0.00  0.00     0.056 C 
BRANCH   7   8
ATOM      8  C1  UNL d   1       3.605  -1.674  -2.176  0.00  0.00     0.007 C 
ATOM      9  C   UNL d   1       5.095  -1.439  -2.384  0.00  0.00     0.009 C 
ENDBRANCH   7   8
ENDBRANCH   1   7
TORSDOF 2
ENDMDL
