MODEL 1
REMARK minimizedAffinity 3.88754034
REMARK minimizedRMSD -1
REMARK  2 active torsions:
REMARK  status: ('A' for Active; 'I' for Inactive)
REMARK    1  A    between atoms: C1_2  and  C2_3 
REMARK    2  A    between atoms: C2_3  and  C3_4 
ROOT
ATOM      1  C3  UNL d   1      -0.031   3.390  -1.116  0.00  0.00    -0.075 A 
ATOM      2  C4  UNL d   1      -1.221   3.947  -1.606  0.00  0.00     0.002 A 
ATOM      3  C5  UNL d   1      -1.235   5.242  -2.125  0.00  0.00     0.002 A 
ATOM      4  C6  UNL d   1      -0.065   5.998  -2.151  0.00  0.00    -0.004 A 
ATOM      5  C7  UNL d   1       1.119   5.461  -1.651  0.00  0.00     0.002 A 
ATOM      6  C8  UNL d   1       1.137   4.164  -1.135  0.00  0.00     0.002 A 
ENDROOT
BRANCH   1   7
ATOM      7  C2  UNL d   1      -0.003   1.978  -0.580  0.00  0.00     0.056 C 
BRANCH   7   8
ATOM      8  C1  UNL d   1       0.084   1.892   0.948  0.00  0.00     0.007 C 
ATOM      9  C   UNL d   1      -0.783   0.788   1.537  0.00  0.00     0.009 C 
ENDBRANCH   7   8
ENDBRANCH   1   7
TORSDOF 2
ENDMDL
