MODEL 1
REMARK minimizedAffinity -4.56974459
REMARK minimizedRMSD -1
REMARK  2 active torsions:
REMARK  status: ('A' for Active; 'I' for Inactive)
REMARK    1  A    between atoms: C1_2  and  C2_3 
REMARK    2  A    between atoms: C2_3  and  C3_4 
ROOT
ATOM      1  C3  UNL d   1      -0.840  -4.803  -3.173  0.00  0.00    -0.075 A 
ATOM      2  C4  UNL d   1      -1.169  -6.000  -3.825  0.00  0.00     0.002 A 
ATOM      3  C5  UNL d   1      -1.498  -6.000  -5.181  0.00  0.00     0.002 A 
ATOM      4  C6  UNL d   1      -1.512  -4.805  -5.898  0.00  0.00    -0.004 A 
ATOM      5  C7  UNL d   1      -1.203  -3.608  -5.255  0.00  0.00     0.002 A 
ATOM      6  C8  UNL d   1      -0.869  -3.606  -3.900  0.00  0.00     0.002 A 
ENDROOT
BRANCH   1   7
ATOM      7  C2  UNL d   1      -0.455  -4.800  -1.712  0.00  0.00     0.056 C 
BRANCH   7   8
ATOM      8  C1  UNL d   1       0.829  -5.578  -1.405  0.00  0.00     0.007 C 
ATOM      9  C   UNL d   1       1.390  -5.287  -0.019  0.00  0.00     0.009 C 
ENDBRANCH   7   8
ENDBRANCH   1   7
TORSDOF 2
ENDMDL
