MODEL 1
REMARK minimizedAffinity 2.67141819
REMARK minimizedRMSD -1
REMARK  2 active torsions:
REMARK  status: ('A' for Active; 'I' for Inactive)
REMARK    1  A    between atoms: C1_2  and  C2_3 
REMARK    2  A    between atoms: C2_3  and  C3_4 
ROOT
ATOM      1  C3  UNL d   1      -0.063   2.339   0.022  0.00  0.00    -0.075 A 
ATOM      2  C4  UNL d   1       0.566   3.516   0.451  0.00  0.00     0.002 A 
ATOM      3  C5  UNL d   1       0.789   4.566  -0.441  0.00  0.00     0.002 A 
ATOM      4  C6  UNL d   1       0.395   4.448  -1.772  0.00  0.00    -0.004 A 
ATOM      5  C7  UNL d   1      -0.216   3.276  -2.213  0.00  0.00     0.002 A 
ATOM      6  C8  UNL d   1      -0.443   2.226  -1.322  0.00  0.00     0.002 A 
ENDROOT
BRANCH   1   7
ATOM      7  C2  UNL d   1      -0.333   1.211   0.989  0.00  0.00     0.056 C 
BRANCH   7   8
ATOM      8  C1  UNL d   1       0.924   0.657   1.668  0.00  0.00     0.007 C 
ATOM      9  C   UNL d   1       0.845  -0.838   1.950  0.00  0.00     0.009 C 
ENDBRANCH   7   8
ENDBRANCH   1   7
TORSDOF 2
ENDMDL
