MODEL 1
REMARK minimizedAffinity 5.650033
REMARK minimizedRMSD -1
REMARK  2 active torsions:
REMARK  status: ('A' for Active; 'I' for Inactive)
REMARK    1  A    between atoms: C1_2  and  C2_3 
REMARK    2  A    between atoms: C2_3  and  C3_4 
ROOT
ATOM      1  C3  UNL d   1       1.010   2.221   0.778  0.00  0.00    -0.075 A 
ATOM      2  C4  UNL d   1       1.805   3.371   0.888  0.00  0.00     0.002 A 
ATOM      3  C5  UNL d   1       1.889   4.278  -0.168  0.00  0.00     0.002 A 
ATOM      4  C6  UNL d   1       1.189   4.044  -1.350  0.00  0.00    -0.004 A 
ATOM      5  C7  UNL d   1       0.409   2.896  -1.476  0.00  0.00     0.002 A 
ATOM      6  C8  UNL d   1       0.320   1.989  -0.419  0.00  0.00     0.002 A 
ENDROOT
BRANCH   1   7
ATOM      7  C2  UNL d   1       0.892   1.250   1.928  0.00  0.00     0.056 C 
BRANCH   7   8
ATOM      8  C1  UNL d   1       1.967   0.159   1.936  0.00  0.00     0.007 C 
ATOM      9  C   UNL d   1       1.574  -1.065   2.752  0.00  0.00     0.009 C 
ENDBRANCH   7   8
ENDBRANCH   1   7
TORSDOF 2
ENDMDL
