MODEL 1
REMARK minimizedAffinity 6.01706266
REMARK minimizedRMSD -1
REMARK  2 active torsions:
REMARK  status: ('A' for Active; 'I' for Inactive)
REMARK    1  A    between atoms: C2'_3  and  C1'_4 
REMARK    2  A    between atoms: C1'_4  and  C1_5 
ROOT
ATOM      1  C1  I4B d   1      -0.266   2.216  -2.450  0.00  0.00    -0.075 A 
ATOM      2  C2  I4B d   1       0.318   1.565  -3.508  0.00  0.00     0.003 A 
ATOM      3  C3  I4B d   1       1.394   0.671  -3.289  0.00  0.00     0.002 A 
ATOM      4  C4  I4B d   1       1.885   0.499  -2.011  0.00  0.00    -0.004 A 
ATOM      5  C5  I4B d   1       1.277   1.142  -0.937  0.00  0.00     0.002 A 
ATOM      6  C6  I4B d   1       0.187   1.997  -1.156  0.00  0.00     0.003 A 
ENDROOT
BRANCH   1   7
ATOM      7  C1' I4B d   1      -1.380   3.177  -2.721  0.00  0.00     0.060 C 
BRANCH   7   8
ATOM      8  C2' I4B d   1      -2.641   2.374  -2.965  0.00  0.00    -0.013 C 
ATOM      9  C4' I4B d   1      -3.129   1.727  -1.696  0.00  0.00     0.013 C 
ATOM     10  C3' I4B d   1      -3.676   3.298  -3.535  0.00  0.00     0.013 C 
ENDBRANCH   7   8
ENDBRANCH   1   7
TORSDOF 2
ENDMDL
