MODEL 1
REMARK minimizedAffinity 7.84325266
REMARK minimizedRMSD -1
REMARK  2 active torsions:
REMARK  status: ('A' for Active; 'I' for Inactive)
REMARK    1  A    between atoms: C2'_3  and  C1'_4 
REMARK    2  A    between atoms: C1'_4  and  C1_5 
ROOT
ATOM      1  C1  I4B d   1       0.519  -2.068   2.326  0.00  0.00    -0.075 A 
ATOM      2  C2  I4B d   1       0.585  -1.165   3.357  0.00  0.00     0.003 A 
ATOM      3  C3  I4B d   1      -0.593  -0.537   3.832  0.00  0.00     0.002 A 
ATOM      4  C4  I4B d   1      -1.799  -0.802   3.217  0.00  0.00    -0.004 A 
ATOM      5  C5  I4B d   1      -1.868  -1.735   2.186  0.00  0.00     0.002 A 
ATOM      6  C6  I4B d   1      -0.704  -2.382   1.746  0.00  0.00     0.003 A 
ENDROOT
BRANCH   1   7
ATOM      7  C1' I4B d   1       1.786  -2.688   1.828  0.00  0.00     0.060 C 
BRANCH   7   8
ATOM      8  C2' I4B d   1       2.349  -1.792   0.744  0.00  0.00    -0.013 C 
ATOM      9  C4' I4B d   1       3.852  -1.873   0.695  0.00  0.00     0.013 C 
ATOM     10  C3' I4B d   1       1.742  -2.209  -0.563  0.00  0.00     0.013 C 
ENDBRANCH   7   8
ENDBRANCH   1   7
TORSDOF 2
ENDMDL
