MODEL 1
REMARK minimizedAffinity 7.12117577
REMARK minimizedRMSD -1
REMARK  2 active torsions:
REMARK  status: ('A' for Active; 'I' for Inactive)
REMARK    1  A    between atoms: C2'_3  and  C1'_4 
REMARK    2  A    between atoms: C1'_4  and  C1_5 
ROOT
ATOM      1  C1  I4B d   1      -1.366   2.424  -2.296  0.00  0.00    -0.075 A 
ATOM      2  C2  I4B d   1      -2.565   2.877  -2.785  0.00  0.00     0.003 A 
ATOM      3  C3  I4B d   1      -2.596   3.904  -3.759  0.00  0.00     0.002 A 
ATOM      4  C4  I4B d   1      -1.413   4.481  -4.175  0.00  0.00    -0.004 A 
ATOM      5  C5  I4B d   1      -0.197   4.005  -3.695  0.00  0.00     0.002 A 
ATOM      6  C6  I4B d   1      -0.172   2.961  -2.759  0.00  0.00     0.003 A 
ENDROOT
BRANCH   1   7
ATOM      7  C1' I4B d   1      -1.371   1.360  -1.244  0.00  0.00     0.060 C 
BRANCH   7   8
ATOM      8  C2' I4B d   1      -1.480   0.018  -1.939  0.00  0.00    -0.013 C 
ATOM      9  C4' I4B d   1      -0.365  -0.904  -1.521  0.00  0.00     0.013 C 
ATOM     10  C3' I4B d   1      -2.820  -0.568  -1.606  0.00  0.00     0.013 C 
ENDBRANCH   7   8
ENDBRANCH   1   7
TORSDOF 2
ENDMDL
