MODEL 1
REMARK minimizedAffinity 10.7080765
REMARK minimizedRMSD -1
REMARK  2 active torsions:
REMARK  status: ('A' for Active; 'I' for Inactive)
REMARK    1  A    between atoms: C2'_3  and  C1'_4 
REMARK    2  A    between atoms: C1'_4  and  C1_5 
ROOT
ATOM      1  C1  I4B d   1       2.468  -2.011   1.003  0.00  0.00    -0.075 A 
ATOM      2  C2  I4B d   1       2.063  -1.222   2.050  0.00  0.00     0.003 A 
ATOM      3  C3  I4B d   1       0.896  -1.552   2.781  0.00  0.00     0.002 A 
ATOM      4  C4  I4B d   1       0.143  -2.644   2.402  0.00  0.00    -0.004 A 
ATOM      5  C5  I4B d   1       0.568  -3.457   1.355  0.00  0.00     0.002 A 
ATOM      6  C6  I4B d   1       1.745  -3.145   0.658  0.00  0.00     0.003 A 
ENDROOT
BRANCH   1   7
ATOM      7  C1' I4B d   1       3.687  -1.614   0.231  0.00  0.00     0.060 C 
BRANCH   7   8
ATOM      8  C2' I4B d   1       4.901  -1.934   1.079  0.00  0.00    -0.013 C 
ATOM      9  C4' I4B d   1       5.530  -3.237   0.663  0.00  0.00     0.013 C 
ATOM     10  C3' I4B d   1       5.871  -0.798   0.945  0.00  0.00     0.013 C 
ENDBRANCH   7   8
ENDBRANCH   1   7
TORSDOF 2
ENDMDL
