MODEL 1
REMARK minimizedAffinity 13.5790453
REMARK minimizedRMSD -1
REMARK  2 active torsions:
REMARK  status: ('A' for Active; 'I' for Inactive)
REMARK    1  A    between atoms: C2'_3  and  C1'_4 
REMARK    2  A    between atoms: C1'_4  and  C1_5 
ROOT
ATOM      1  C1  I4B d   1      -1.121   0.423  -1.417  0.00  0.00    -0.075 A 
ATOM      2  C2  I4B d   1      -0.081   1.225  -1.813  0.00  0.00     0.003 A 
ATOM      3  C3  I4B d   1      -0.335   2.524  -2.318  0.00  0.00     0.002 A 
ATOM      4  C4  I4B d   1      -1.638   2.957  -2.455  0.00  0.00    -0.004 A 
ATOM      5  C5  I4B d   1      -2.690   2.151  -2.031  0.00  0.00     0.002 A 
ATOM      6  C6  I4B d   1      -2.430   0.880  -1.497  0.00  0.00     0.003 A 
ENDROOT
BRANCH   1   7
ATOM      7  C1' I4B d   1      -0.819  -0.955  -0.919  0.00  0.00     0.060 C 
BRANCH   7   8
ATOM      8  C2' I4B d   1       0.636  -0.991  -0.499  0.00  0.00    -0.013 C 
ATOM      9  C4' I4B d   1       0.782  -1.491   0.915  0.00  0.00     0.013 C 
ATOM     10  C3' I4B d   1       1.375  -1.870  -1.463  0.00  0.00     0.013 C 
ENDBRANCH   7   8
ENDBRANCH   1   7
TORSDOF 2
ENDMDL
