MODEL 1
REMARK minimizedAffinity 5.48596811
REMARK minimizedRMSD -1
REMARK  2 active torsions:
REMARK  status: ('A' for Active; 'I' for Inactive)
REMARK    1  A    between atoms: C2'_3  and  C1'_4 
REMARK    2  A    between atoms: C1'_4  and  C1_5 
ROOT
ATOM      1  C1  I4B d   1       1.707  -2.658   1.230  0.00  0.00    -0.075 A 
ATOM      2  C2  I4B d   1       2.760  -2.529   0.358  0.00  0.00     0.003 A 
ATOM      3  C3  I4B d   1       3.497  -3.670  -0.042  0.00  0.00     0.002 A 
ATOM      4  C4  I4B d   1       3.182  -4.904   0.489  0.00  0.00    -0.004 A 
ATOM      5  C5  I4B d   1       2.100  -5.036   1.355  0.00  0.00     0.002 A 
ATOM      6  C6  I4B d   1       1.350  -3.908   1.718  0.00  0.00     0.003 A 
ENDROOT
BRANCH   1   7
ATOM      7  C1' I4B d   1       0.971  -1.428   1.657  0.00  0.00     0.060 C 
BRANCH   7   8
ATOM      8  C2' I4B d   1       0.726  -1.525   3.149  0.00  0.00    -0.013 C 
ATOM      9  C4' I4B d   1       0.905  -0.188   3.819  0.00  0.00     0.013 C 
ATOM     10  C3' I4B d   1      -0.662  -2.053   3.357  0.00  0.00     0.013 C 
ENDBRANCH   7   8
ENDBRANCH   1   7
TORSDOF 2
ENDMDL
