MODEL 1
REMARK minimizedAffinity -1.46824467
REMARK minimizedRMSD -1
REMARK  2 active torsions:
REMARK  status: ('A' for Active; 'I' for Inactive)
REMARK    1  A    between atoms: C2'_3  and  C1'_4 
REMARK    2  A    between atoms: C1'_4  and  C1_5 
ROOT
ATOM      1  C1  I4B d   1       1.002  -0.861  -0.738  0.00  0.00    -0.075 A 
ATOM      2  C2  I4B d   1       0.818  -0.751  -2.094  0.00  0.00     0.003 A 
ATOM      3  C3  I4B d   1       1.298   0.387  -2.788  0.00  0.00     0.002 A 
ATOM      4  C4  I4B d   1       1.905   1.406  -2.084  0.00  0.00    -0.004 A 
ATOM      5  C5  I4B d   1       2.111   1.282  -0.713  0.00  0.00     0.002 A 
ATOM      6  C6  I4B d   1       1.667   0.136  -0.037  0.00  0.00     0.003 A 
ENDROOT
BRANCH   1   7
ATOM      7  C1' I4B d   1       0.454  -2.061  -0.032  0.00  0.00     0.060 C 
BRANCH   7   8
ATOM      8  C2' I4B d   1       1.184  -2.198   1.288  0.00  0.00    -0.013 C 
ATOM      9  C4' I4B d   1       0.254  -1.974   2.451  0.00  0.00     0.013 C 
ATOM     10  C3' I4B d   1       1.795  -3.567   1.339  0.00  0.00     0.013 C 
ENDBRANCH   7   8
ENDBRANCH   1   7
TORSDOF 2
ENDMDL
