MODEL 1
REMARK minimizedAffinity -1.11141539
REMARK minimizedRMSD -1
REMARK  0 active torsions:
REMARK  status: ('A' for Active; 'I' for Inactive)
ROOT
ATOM      1  C   UNL d   1       0.972  -0.001  -1.666  0.00  0.00     0.023 A 
ATOM      2  C1  UNL d   1       0.495  -0.749  -0.590  0.00  0.00     0.003 A 
ATOM      3  C2  UNL d   1      -0.254  -0.132   0.414  0.00  0.00     0.048 A 
ATOM      4  C3  UNL d   1      -0.524   1.234   0.335  0.00  0.00     0.023 A 
ATOM      5  C4  UNL d   1      -0.049   1.987  -0.741  0.00  0.00     0.048 A 
ATOM      6  C5  UNL d   1       0.700   1.365  -1.742  0.00  0.00     0.003 A 
ATOM      7  I   UNL d   1      -1.638   2.155   1.828  0.00  0.00    -0.146 I 
ENDROOT
TORSDOF 0
ENDMDL
