MODEL 1
REMARK minimizedAffinity 6.60053825
REMARK minimizedRMSD -1
REMARK  0 active torsions:
REMARK  status: ('A' for Active; 'I' for Inactive)
ROOT
ATOM      1  C   UNL d   1       0.014   1.225   0.451  0.00  0.00     0.023 A 
ATOM      2  C1  UNL d   1      -0.584   1.254  -0.809  0.00  0.00     0.003 A 
ATOM      3  C2  UNL d   1      -0.769   0.068  -1.524  0.00  0.00     0.048 A 
ATOM      4  C3  UNL d   1      -0.354  -1.143  -0.971  0.00  0.00     0.023 A 
ATOM      5  C4  UNL d   1       0.244  -1.177   0.290  0.00  0.00     0.048 A 
ATOM      6  C5  UNL d   1       0.427   0.011   0.999  0.00  0.00     0.003 A 
ATOM      7  I   UNL d   1      -0.628  -2.909  -2.032  0.00  0.00    -0.146 I 
ENDROOT
TORSDOF 0
ENDMDL
