MODEL 1
REMARK minimizedAffinity -4.81720734
REMARK minimizedRMSD -1
REMARK  0 active torsions:
REMARK  status: ('A' for Active; 'I' for Inactive)
ROOT
ATOM      1  C   UNL d   1      -1.847   2.706   1.144  0.00  0.00     0.023 A 
ATOM      2  C1  UNL d   1      -1.850   1.499   1.844  0.00  0.00     0.003 A 
ATOM      3  C2  UNL d   1      -1.215   0.378   1.306  0.00  0.00     0.048 A 
ATOM      4  C3  UNL d   1      -0.578   0.471   0.069  0.00  0.00     0.023 A 
ATOM      5  C4  UNL d   1      -0.572   1.676  -0.634  0.00  0.00     0.048 A 
ATOM      6  C5  UNL d   1      -1.209   2.795  -0.093  0.00  0.00     0.003 A 
ATOM      7  I   UNL d   1       0.368  -1.197  -0.732  0.00  0.00    -0.146 I 
ENDROOT
TORSDOF 0
ENDMDL
