MODEL 1
REMARK minimizedAffinity -1.73581219
REMARK minimizedRMSD -1
REMARK  0 active torsions:
REMARK  status: ('A' for Active; 'I' for Inactive)
ROOT
ATOM      1  C   UNL d   1       0.745  -1.028  -2.368  0.00  0.00     0.023 A 
ATOM      2  C1  UNL d   1       0.502  -2.274  -2.947  0.00  0.00     0.003 A 
ATOM      3  C2  UNL d   1       0.767  -3.442  -2.231  0.00  0.00     0.048 A 
ATOM      4  C3  UNL d   1       1.272  -3.359  -0.934  0.00  0.00     0.023 A 
ATOM      5  C4  UNL d   1       1.516  -2.115  -0.349  0.00  0.00     0.048 A 
ATOM      6  C5  UNL d   1       1.251  -0.949  -1.070  0.00  0.00     0.003 A 
ATOM      7  I   UNL d   1       1.666  -5.097   0.136  0.00  0.00    -0.146 I 
ENDROOT
TORSDOF 0
ENDMDL
