MODEL 1
REMARK minimizedAffinity -4.96324825
REMARK minimizedRMSD -1
REMARK  0 active torsions:
REMARK  status: ('A' for Active; 'I' for Inactive)
ROOT
ATOM      1  C   UNL d   1      -0.788   3.654   0.591  0.00  0.00     0.023 A 
ATOM      2  C1  UNL d   1       0.012   3.317  -0.501  0.00  0.00     0.003 A 
ATOM      3  C2  UNL d   1       0.375   1.986  -0.718  0.00  0.00     0.048 A 
ATOM      4  C3  UNL d   1      -0.067   0.997   0.159  0.00  0.00     0.023 A 
ATOM      5  C4  UNL d   1      -0.869   1.329   1.252  0.00  0.00     0.048 A 
ATOM      6  C5  UNL d   1      -1.229   2.661   1.466  0.00  0.00     0.003 A 
ATOM      7  I   UNL d   1       0.471  -0.984  -0.162  0.00  0.00    -0.146 I 
ENDROOT
TORSDOF 0
ENDMDL
