MODEL 1
REMARK minimizedAffinity 1.93657219
REMARK minimizedRMSD -1
REMARK  0 active torsions:
REMARK  status: ('A' for Active; 'I' for Inactive)
ROOT
ATOM      1  C   UNL d   1       1.376  -0.637  -0.812  0.00  0.00     0.023 A 
ATOM      2  C1  UNL d   1       0.988  -1.103   0.444  0.00  0.00     0.003 A 
ATOM      3  C2  UNL d   1       0.225  -0.292   1.286  0.00  0.00     0.048 A 
ATOM      4  C3  UNL d   1      -0.146   0.985   0.866  0.00  0.00     0.023 A 
ATOM      5  C4  UNL d   1       0.239   1.456  -0.390  0.00  0.00     0.048 A 
ATOM      6  C5  UNL d   1       1.003   0.641  -1.228  0.00  0.00     0.003 A 
ATOM      7  I   UNL d   1      -1.281   2.194   2.119  0.00  0.00    -0.146 I 
ENDROOT
TORSDOF 0
ENDMDL
