MODEL 1
REMARK minimizedAffinity -1.30583704
REMARK minimizedRMSD -1
REMARK  0 active torsions:
REMARK  status: ('A' for Active; 'I' for Inactive)
ROOT
ATOM      1  C   UNL d   1      -1.373   2.976   1.114  0.00  0.00     0.023 A 
ATOM      2  C1  UNL d   1      -1.424   1.761   1.798  0.00  0.00     0.003 A 
ATOM      3  C2  UNL d   1      -0.889   0.609   1.218  0.00  0.00     0.048 A 
ATOM      4  C3  UNL d   1      -0.303   0.679  -0.046  0.00  0.00     0.023 A 
ATOM      5  C4  UNL d   1      -0.249   1.893  -0.733  0.00  0.00     0.048 A 
ATOM      6  C5  UNL d   1      -0.786   3.042  -0.149  0.00  0.00     0.003 A 
ATOM      7  I   UNL d   1       0.494  -1.034  -0.911  0.00  0.00    -0.146 I 
ENDROOT
TORSDOF 0
ENDMDL
