MODEL 1
REMARK minimizedAffinity -3.24133921
REMARK minimizedRMSD -1
REMARK  0 active torsions:
REMARK  status: ('A' for Active; 'I' for Inactive)
ROOT
ATOM      1  C   UNL d   1      -1.452   1.428   2.176  0.00  0.00     0.023 A 
ATOM      2  C1  UNL d   1      -1.152   1.877   0.890  0.00  0.00     0.003 A 
ATOM      3  C2  UNL d   1      -0.419   1.068   0.019  0.00  0.00     0.048 A 
ATOM      4  C3  UNL d   1       0.009  -0.190   0.441  0.00  0.00     0.023 A 
ATOM      5  C4  UNL d   1      -0.289  -0.644   1.726  0.00  0.00     0.048 A 
ATOM      6  C5  UNL d   1      -1.021   0.169   2.594  0.00  0.00     0.003 A 
ATOM      7  I   UNL d   1       1.100  -1.397  -0.853  0.00  0.00    -0.146 I 
ENDROOT
TORSDOF 0
ENDMDL
