MODEL 1
REMARK minimizedAffinity 0.781347334
REMARK minimizedRMSD -1
REMARK  0 active torsions:
REMARK  status: ('A' for Active; 'I' for Inactive)
ROOT
ATOM      1  C   UNL d   1       1.032  -3.089  -2.052  0.00  0.00     0.023 A 
ATOM      2  C1  UNL d   1       0.407  -2.233  -2.959  0.00  0.00     0.003 A 
ATOM      3  C2  UNL d   1      -0.197  -1.058  -2.508  0.00  0.00     0.048 A 
ATOM      4  C3  UNL d   1      -0.172  -0.744  -1.150  0.00  0.00     0.023 A 
ATOM      5  C4  UNL d   1       0.453  -1.598  -0.239  0.00  0.00     0.048 A 
ATOM      6  C5  UNL d   1       1.055  -2.772  -0.694  0.00  0.00     0.003 A 
ATOM      7  I   UNL d   1      -1.071   1.004  -0.477  0.00  0.00    -0.146 I 
ENDROOT
TORSDOF 0
ENDMDL
