MODEL 1
REMARK minimizedAffinity -3.60363817
REMARK minimizedRMSD -1
REMARK  0 active torsions:
REMARK  status: ('A' for Active; 'I' for Inactive)
ROOT
ATOM      1  C   UNL d   1      -1.440   1.714   2.019  0.00  0.00     0.023 A 
ATOM      2  C1  UNL d   1      -1.491   1.941   0.643  0.00  0.00     0.003 A 
ATOM      3  C2  UNL d   1      -0.816   1.087  -0.232  0.00  0.00     0.048 A 
ATOM      4  C3  UNL d   1      -0.093   0.008   0.274  0.00  0.00     0.023 A 
ATOM      5  C4  UNL d   1      -0.039  -0.223   1.650  0.00  0.00     0.048 A 
ATOM      6  C5  UNL d   1      -0.715   0.633   2.521  0.00  0.00     0.003 A 
ATOM      7  I   UNL d   1       0.912  -1.264  -1.026  0.00  0.00    -0.146 I 
ENDROOT
TORSDOF 0
ENDMDL
