MODEL 1
REMARK minimizedAffinity -2.49436545
REMARK minimizedRMSD -1
REMARK  0 active torsions:
REMARK  status: ('A' for Active; 'I' for Inactive)
ROOT
ATOM      1  C   UNL d   1      -1.417   1.091   2.449  0.00  0.00     0.023 A 
ATOM      2  C1  UNL d   1      -0.730  -0.110   2.628  0.00  0.00     0.003 A 
ATOM      3  C2  UNL d   1      -0.021  -0.675   1.566  0.00  0.00     0.048 A 
ATOM      4  C3  UNL d   1      -0.001  -0.033   0.328  0.00  0.00     0.023 A 
ATOM      5  C4  UNL d   1      -0.686   1.169   0.145  0.00  0.00     0.048 A 
ATOM      6  C5  UNL d   1      -1.395   1.730   1.209  0.00  0.00     0.003 A 
ATOM      7  I   UNL d   1       1.055  -0.872  -1.253  0.00  0.00    -0.146 I 
ENDROOT
TORSDOF 0
ENDMDL
