MODEL 1
REMARK minimizedAffinity -1.2008003
REMARK minimizedRMSD -1
REMARK  0 active torsions:
REMARK  status: ('A' for Active; 'I' for Inactive)
ROOT
ATOM      1  C   UNL d   1      -0.035   0.285   0.428  0.00  0.00     0.023 A 
ATOM      2  C1  UNL d   1      -0.134  -0.971   1.028  0.00  0.00     0.003 A 
ATOM      3  C2  UNL d   1      -0.024  -2.127   0.254  0.00  0.00     0.048 A 
ATOM      4  C3  UNL d   1       0.184  -2.022  -1.121  0.00  0.00     0.023 A 
ATOM      5  C4  UNL d   1       0.284  -0.768  -1.726  0.00  0.00     0.048 A 
ATOM      6  C5  UNL d   1       0.173   0.386  -0.948  0.00  0.00     0.003 A 
ATOM      7  I   UNL d   1       0.348  -3.742  -2.276  0.00  0.00    -0.146 I 
ENDROOT
TORSDOF 0
ENDMDL
