MODEL 1
REMARK minimizedAffinity -4.76445246
REMARK minimizedRMSD -1
REMARK  0 active torsions:
REMARK  status: ('A' for Active; 'I' for Inactive)
ROOT
ATOM      1  C   UNL d   1      -1.220   3.068   1.112  0.00  0.00     0.023 A 
ATOM      2  C1  UNL d   1      -0.475   3.068  -0.068  0.00  0.00     0.003 A 
ATOM      3  C2  UNL d   1      -0.050   1.861  -0.627  0.00  0.00     0.048 A 
ATOM      4  C3  UNL d   1      -0.374   0.657  -0.002  0.00  0.00     0.023 A 
ATOM      5  C4  UNL d   1      -1.120   0.652   1.178  0.00  0.00     0.048 A 
ATOM      6  C5  UNL d   1      -1.542   1.861   1.734  0.00  0.00     0.003 A 
ATOM      7  I   UNL d   1       0.258  -1.140  -0.832  0.00  0.00    -0.146 I 
ENDROOT
TORSDOF 0
ENDMDL
