MODEL 1
REMARK minimizedAffinity -5.95081377
REMARK minimizedRMSD -1
REMARK  1 active torsions:
REMARK  status: ('A' for Active; 'I' for Inactive)
REMARK    1  A    between atoms: C1_2  and  C2_3 
ROOT
ATOM      1  C2  UNL d   1      -0.963   1.434   0.006  0.00  0.00    -0.073 A 
ATOM      2  C3  UNL d   1      -0.931   2.192  -1.170  0.00  0.00    -0.002 A 
ATOM      3  C4  UNL d   1      -0.781   1.566  -2.409  0.00  0.00     0.004 A 
ATOM      4  C5  UNL d   1      -0.670   0.178  -2.484  0.00  0.00    -0.004 A 
ATOM      5  C6  UNL d   1      -0.712  -0.598  -1.321  0.00  0.00    -0.075 A 
ATOM      6  C7  UNL d   1      -0.591  -2.092  -1.385  0.00  0.00     0.076 C 
ATOM      7  C8  UNL d   1      -0.859   0.039  -0.081  0.00  0.00     0.001 A 
ENDROOT
BRANCH   1   8
ATOM      8  C1  UNL d   1      -1.131   2.105   1.344  0.00  0.00     0.053 C 
ATOM      9  C   UNL d   1       0.194   2.262   2.074  0.00  0.00     0.018 C 
ENDBRANCH   1   8
TORSDOF 1
ENDMDL
