MODEL 1
REMARK minimizedAffinity -4.15499735
REMARK minimizedRMSD -1
REMARK  1 active torsions:
REMARK  status: ('A' for Active; 'I' for Inactive)
REMARK    1  A    between atoms: C1_2  and  C2_3 
ROOT
ATOM      1  C2  UNL d   1       0.358  -0.228  -0.198  0.00  0.00    -0.073 A 
ATOM      2  C3  UNL d   1       0.966  -0.696   0.973  0.00  0.00    -0.002 A 
ATOM      3  C4  UNL d   1       0.776  -0.025   2.182  0.00  0.00     0.004 A 
ATOM      4  C5  UNL d   1      -0.027   1.114   2.234  0.00  0.00    -0.004 A 
ATOM      5  C6  UNL d   1      -0.652   1.590   1.077  0.00  0.00    -0.075 A 
ATOM      6  C7  UNL d   1      -1.518   2.816   1.116  0.00  0.00     0.076 C 
ATOM      7  C8  UNL d   1      -0.455   0.913  -0.134  0.00  0.00     0.001 A 
ENDROOT
BRANCH   1   8
ATOM      8  C1  UNL d   1       0.554  -0.953  -1.504  0.00  0.00     0.053 C 
ATOM      9  C   UNL d   1       0.438  -2.460  -1.343  0.00  0.00     0.018 C 
ENDBRANCH   1   8
TORSDOF 1
ENDMDL
