MODEL 1
REMARK minimizedAffinity -5.13221598
REMARK minimizedRMSD -1
REMARK  1 active torsions:
REMARK  status: ('A' for Active; 'I' for Inactive)
REMARK    1  A    between atoms: C1_2  and  C2_3 
ROOT
ATOM      1  C2  UNL d   1       1.015  -0.153   1.636  0.00  0.00    -0.073 A 
ATOM      2  C3  UNL d   1       0.956  -0.629   0.321  0.00  0.00    -0.002 A 
ATOM      3  C4  UNL d   1       0.005  -0.127  -0.568  0.00  0.00     0.004 A 
ATOM      4  C5  UNL d   1      -0.891   0.859  -0.155  0.00  0.00    -0.004 A 
ATOM      5  C6  UNL d   1      -0.840   1.355   1.151  0.00  0.00    -0.075 A 
ATOM      6  C7  UNL d   1      -1.799   2.414   1.611  0.00  0.00     0.076 C 
ATOM      7  C8  UNL d   1       0.116   0.844   2.039  0.00  0.00     0.001 A 
ENDROOT
BRANCH   1   8
ATOM      8  C1  UNL d   1       2.044  -0.688   2.598  0.00  0.00     0.053 C 
ATOM      9  C   UNL d   1       1.553  -0.650   4.036  0.00  0.00     0.018 C 
ENDBRANCH   1   8
TORSDOF 1
ENDMDL
