MODEL 1
REMARK minimizedAffinity -2.26776171
REMARK minimizedRMSD -1
REMARK  1 active torsions:
REMARK  status: ('A' for Active; 'I' for Inactive)
REMARK    1  A    between atoms: C1_2  and  C2_3 
ROOT
ATOM      1  C2  UNL d   1      -0.370   0.536   0.510  0.00  0.00    -0.081 A 
ATOM      2  C3  UNL d   1      -1.561   1.101   0.036  0.00  0.00     0.006 A 
ATOM      3  C4  UNL d   1      -2.006   2.330   0.527  0.00  0.00     0.002 A 
ATOM      4  C5  UNL d   1      -1.266   3.019   1.494  0.00  0.00    -0.080 A 
ATOM      5  C6  UNL d   1      -1.717   4.354   2.007  0.00  0.00     0.076 C 
ATOM      6  C7  UNL d   1      -0.085   2.447   1.980  0.00  0.00     0.002 A 
ATOM      7  C8  UNL d   1       0.360   1.217   1.490  0.00  0.00     0.006 A 
ENDROOT
BRANCH   1   8
ATOM      8  C1  UNL d   1       0.146  -0.758  -0.064  0.00  0.00     0.054 C 
ATOM      9  C   UNL d   1       1.667  -0.778  -0.104  0.00  0.00     0.018 C 
ENDBRANCH   1   8
TORSDOF 1
ENDMDL
