MODEL 1
REMARK minimizedAffinity -5.2054677
REMARK minimizedRMSD -1
REMARK  1 active torsions:
REMARK  status: ('A' for Active; 'I' for Inactive)
REMARK    1  A    between atoms: C1_2  and  C2_3 
ROOT
ATOM      1  C2  UNL d   1       0.154  -0.150  -0.450  0.00  0.00    -0.081 A 
ATOM      2  C3  UNL d   1      -0.617   0.864  -1.031  0.00  0.00     0.006 A 
ATOM      3  C4  UNL d   1      -1.115   1.911  -0.251  0.00  0.00     0.002 A 
ATOM      4  C5  UNL d   1      -0.844   1.965   1.121  0.00  0.00    -0.080 A 
ATOM      5  C6  UNL d   1      -1.347   3.098   1.964  0.00  0.00     0.076 C 
ATOM      6  C7  UNL d   1      -0.089   0.942   1.705  0.00  0.00     0.002 A 
ATOM      7  C8  UNL d   1       0.409  -0.105   0.925  0.00  0.00     0.006 A 
ENDROOT
BRANCH   1   8
ATOM      8  C1  UNL d   1       0.747  -1.245  -1.300  0.00  0.00     0.054 C 
ATOM      9  C   UNL d   1      -0.037  -2.541  -1.157  0.00  0.00     0.018 C 
ENDBRANCH   1   8
TORSDOF 1
ENDMDL
