MODEL 1
REMARK minimizedAffinity -0.614122748
REMARK minimizedRMSD -1
REMARK  1 active torsions:
REMARK  status: ('A' for Active; 'I' for Inactive)
REMARK    1  A    between atoms: C1_2  and  C2_3 
ROOT
ATOM      1  C2  UNL d   1      -0.111  -2.093  -0.790  0.00  0.00    -0.081 A 
ATOM      2  C3  UNL d   1       0.807  -1.133  -1.234  0.00  0.00     0.006 A 
ATOM      3  C4  UNL d   1       0.886   0.114  -0.609  0.00  0.00     0.002 A 
ATOM      4  C5  UNL d   1       0.055   0.419   0.474  0.00  0.00    -0.080 A 
ATOM      5  C6  UNL d   1       0.150   1.742   1.173  0.00  0.00     0.076 C 
ATOM      6  C7  UNL d   1      -0.874  -0.534   0.907  0.00  0.00     0.002 A 
ATOM      7  C8  UNL d   1      -0.954  -1.780   0.282  0.00  0.00     0.006 A 
ENDROOT
BRANCH   1   8
ATOM      8  C1  UNL d   1      -0.153  -3.462  -1.419  0.00  0.00     0.054 C 
ATOM      9  C   UNL d   1      -0.058  -4.558  -0.368  0.00  0.00     0.018 C 
ENDBRANCH   1   8
TORSDOF 1
ENDMDL
