MODEL 1
REMARK minimizedAffinity -2.03510332
REMARK minimizedRMSD -1
REMARK  1 active torsions:
REMARK  status: ('A' for Active; 'I' for Inactive)
REMARK    1  A    between atoms: C1_2  and  C2_3 
ROOT
ATOM      1  C2  UNL d   1       0.450  -0.809  -0.684  0.00  0.00    -0.081 A 
ATOM      2  C3  UNL d   1       0.755  -0.960   0.674  0.00  0.00     0.006 A 
ATOM      3  C4  UNL d   1       0.413   0.036   1.592  0.00  0.00     0.002 A 
ATOM      4  C5  UNL d   1      -0.246   1.195   1.169  0.00  0.00    -0.080 A 
ATOM      5  C6  UNL d   1      -0.645   2.258   2.148  0.00  0.00     0.076 C 
ATOM      6  C7  UNL d   1      -0.534   1.355  -0.191  0.00  0.00     0.002 A 
ATOM      7  C8  UNL d   1      -0.192   0.359  -1.109  0.00  0.00     0.006 A 
ENDROOT
BRANCH   1   8
ATOM      8  C1  UNL d   1       0.759  -1.910  -1.667  0.00  0.00     0.054 C 
ATOM      9  C   UNL d   1       0.700  -3.277  -1.001  0.00  0.00     0.018 C 
ENDBRANCH   1   8
TORSDOF 1
ENDMDL
