MODEL 1
REMARK minimizedAffinity -4.57947683
REMARK minimizedRMSD -1
REMARK  1 active torsions:
REMARK  status: ('A' for Active; 'I' for Inactive)
REMARK    1  A    between atoms: C1_2  and  C2_3 
ROOT
ATOM      1  C2  UNL d   1       0.016  -0.843  -0.410  0.00  0.00    -0.081 A 
ATOM      2  C3  UNL d   1       0.506  -0.681   0.891  0.00  0.00     0.006 A 
ATOM      3  C4  UNL d   1       0.169   0.450   1.639  0.00  0.00     0.002 A 
ATOM      4  C5  UNL d   1      -0.669   1.433   1.100  0.00  0.00    -0.080 A 
ATOM      5  C6  UNL d   1      -1.063   2.637   1.903  0.00  0.00     0.076 C 
ATOM      6  C7  UNL d   1      -1.144   1.279  -0.207  0.00  0.00     0.002 A 
ATOM      7  C8  UNL d   1      -0.807   0.149  -0.954  0.00  0.00     0.006 A 
ENDROOT
BRANCH   1   8
ATOM      8  C1  UNL d   1       0.326  -2.093  -1.195  0.00  0.00     0.054 C 
ATOM      9  C   UNL d   1      -0.943  -2.730  -1.744  0.00  0.00     0.018 C 
ENDBRANCH   1   8
TORSDOF 1
ENDMDL
