MODEL 1
REMARK minimizedAffinity -3.62418246
REMARK minimizedRMSD -1
REMARK  1 active torsions:
REMARK  status: ('A' for Active; 'I' for Inactive)
REMARK    1  A    between atoms: C1_2  and  C2_3 
ROOT
ATOM      1  C2  UNL d   1      -0.308   2.023   0.425  0.00  0.00    -0.081 A 
ATOM      2  C3  UNL d   1      -0.346   1.672  -0.930  0.00  0.00     0.006 A 
ATOM      3  C4  UNL d   1      -0.024   0.374  -1.335  0.00  0.00     0.002 A 
ATOM      4  C5  UNL d   1       0.333  -0.596  -0.391  0.00  0.00    -0.080 A 
ATOM      5  C6  UNL d   1       0.652  -2.000  -0.809  0.00  0.00     0.076 C 
ATOM      6  C7  UNL d   1       0.389  -0.240   0.961  0.00  0.00     0.002 A 
ATOM      7  C8  UNL d   1       0.068   1.058   1.365  0.00  0.00     0.006 A 
ENDROOT
BRANCH   1   8
ATOM      8  C1  UNL d   1      -0.717   3.404   0.870  0.00  0.00     0.054 C 
ATOM      9  C   UNL d   1      -1.690   3.342   2.039  0.00  0.00     0.018 C 
ENDBRANCH   1   8
TORSDOF 1
ENDMDL
