MODEL 1
REMARK minimizedAffinity -3.42334485
REMARK minimizedRMSD -1
REMARK  1 active torsions:
REMARK  status: ('A' for Active; 'I' for Inactive)
REMARK    1  A    between atoms: C1_2  and  C2_3 
ROOT
ATOM      1  C2  UNL d   1       0.226  -0.209  -0.054  0.00  0.00    -0.081 A 
ATOM      2  C3  UNL d   1      -0.536   0.723  -0.770  0.00  0.00     0.006 A 
ATOM      3  C4  UNL d   1      -1.160   1.784  -0.110  0.00  0.00     0.002 A 
ATOM      4  C5  UNL d   1      -1.027   1.936   1.274  0.00  0.00    -0.080 A 
ATOM      5  C6  UNL d   1      -1.667   3.087   1.991  0.00  0.00     0.076 C 
ATOM      6  C7  UNL d   1      -0.280   0.995   1.992  0.00  0.00     0.002 A 
ATOM      7  C8  UNL d   1       0.343  -0.066   1.333  0.00  0.00     0.006 A 
ENDROOT
BRANCH   1   8
ATOM      8  C1  UNL d   1       0.954  -1.317  -0.772  0.00  0.00     0.054 C 
ATOM      9  C   UNL d   1      -0.021  -2.302  -1.401  0.00  0.00     0.018 C 
ENDBRANCH   1   8
TORSDOF 1
ENDMDL
