MODEL 1
REMARK minimizedAffinity -4.47282076
REMARK minimizedRMSD -1
REMARK  1 active torsions:
REMARK  status: ('A' for Active; 'I' for Inactive)
REMARK    1  A    between atoms: C1_2  and  C2_3 
ROOT
ATOM      1  C2  UNL d   1       0.444  -0.256   0.025  0.00  0.00    -0.081 A 
ATOM      2  C3  UNL d   1       0.478   0.062   1.388  0.00  0.00     0.006 A 
ATOM      3  C4  UNL d   1      -0.127   1.229   1.859  0.00  0.00     0.002 A 
ATOM      4  C5  UNL d   1      -0.784   2.094   0.977  0.00  0.00    -0.080 A 
ATOM      5  C6  UNL d   1      -1.464   3.335   1.473  0.00  0.00     0.076 C 
ATOM      6  C7  UNL d   1      -0.803   1.786  -0.388  0.00  0.00     0.002 A 
ATOM      7  C8  UNL d   1      -0.197   0.619  -0.859  0.00  0.00     0.006 A 
ENDROOT
BRANCH   1   8
ATOM      8  C1  UNL d   1       1.039  -1.546  -0.477  0.00  0.00     0.054 C 
ATOM      9  C   UNL d   1      -0.013  -2.418  -1.147  0.00  0.00     0.018 C 
ENDBRANCH   1   8
TORSDOF 1
ENDMDL
