MODEL 1
REMARK minimizedAffinity -3.00916815
REMARK minimizedRMSD -1
REMARK  1 active torsions:
REMARK  status: ('A' for Active; 'I' for Inactive)
REMARK    1  A    between atoms: C1_2  and  C2_3 
ROOT
ATOM      1  C2  UNL d   1       0.011  -0.614  -0.749  0.00  0.00    -0.081 A 
ATOM      2  C3  UNL d   1       0.003  -0.940   0.613  0.00  0.00     0.006 A 
ATOM      3  C4  UNL d   1       0.014   0.067   1.582  0.00  0.00     0.002 A 
ATOM      4  C5  UNL d   1       0.025   1.414   1.205  0.00  0.00    -0.080 A 
ATOM      5  C6  UNL d   1       0.006   2.504   2.235  0.00  0.00     0.076 C 
ATOM      6  C7  UNL d   1       0.051   1.739  -0.155  0.00  0.00     0.002 A 
ATOM      7  C8  UNL d   1       0.041   0.733  -1.124  0.00  0.00     0.006 A 
ENDROOT
BRANCH   1   8
ATOM      8  C1  UNL d   1      -0.066  -1.696  -1.796  0.00  0.00     0.054 C 
ATOM      9  C   UNL d   1       0.162  -3.072  -1.187  0.00  0.00     0.018 C 
ENDBRANCH   1   8
TORSDOF 1
ENDMDL
