MODEL 1
REMARK minimizedAffinity -4.44736767
REMARK minimizedRMSD -1
REMARK  0 active torsions:
REMARK  status: ('A' for Active; 'I' for Inactive)
ROOT
ATOM      1  O1  BZF d   1       0.400   1.135  -1.328  0.00  0.00    -0.204 OA
ATOM      2  C2  BZF d   1       1.203   0.021  -1.480  0.00  0.00     0.174 A 
ATOM      3  C3  BZF d   1       1.091  -0.799  -0.415  0.00  0.00    -0.012 A 
ATOM      4  C3A BZF d   1       0.090  -0.203   0.415  0.00  0.00    -0.107 A 
ATOM      5  C4  BZF d   1      -0.474  -0.557   1.607  0.00  0.00     0.055 A 
ATOM      6  C5  BZF d   1      -1.373   0.281   2.188  0.00  0.00    -0.016 A 
ATOM      7  C6  BZF d   1      -1.726   1.481   1.607  0.00  0.00     0.022 A 
ATOM      8  C7  BZF d   1      -1.198   1.873   0.422  0.00  0.00     0.029 A 
ATOM      9  C7A BZF d   1      -0.314   1.013  -0.183  0.00  0.00     0.058 A 
ENDROOT
TORSDOF 0
ENDMDL
