MODEL 1
REMARK minimizedAffinity -2.85458636
REMARK minimizedRMSD -1
REMARK  0 active torsions:
REMARK  status: ('A' for Active; 'I' for Inactive)
ROOT
ATOM      1  O1  BZF d   1       1.493  -1.443  -0.322  0.00  0.00    -0.204 OA
ATOM      2  C2  BZF d   1       1.879  -1.066  -1.593  0.00  0.00     0.174 A 
ATOM      3  C3  BZF d   1       1.148  -0.018  -2.024  0.00  0.00    -0.012 A 
ATOM      4  C3A BZF d   1       0.311   0.337  -0.919  0.00  0.00    -0.107 A 
ATOM      5  C4  BZF d   1      -0.627   1.311  -0.727  0.00  0.00     0.055 A 
ATOM      6  C5  BZF d   1      -1.318   1.340   0.443  0.00  0.00    -0.016 A 
ATOM      7  C6  BZF d   1      -1.100   0.410   1.439  0.00  0.00     0.022 A 
ATOM      8  C7  BZF d   1      -0.176  -0.572   1.295  0.00  0.00     0.029 A 
ATOM      9  C7A BZF d   1       0.546  -0.584   0.127  0.00  0.00     0.058 A 
ENDROOT
TORSDOF 0
ENDMDL
