MODEL 1
REMARK minimizedAffinity -5.65955448
REMARK minimizedRMSD -1
REMARK  0 active torsions:
REMARK  status: ('A' for Active; 'I' for Inactive)
ROOT
ATOM      1  O1  BZF d   1       0.682   0.148  -1.255  0.00  0.00    -0.204 OA
ATOM      2  C2  BZF d   1       1.296  -0.863  -0.541  0.00  0.00     0.174 A 
ATOM      3  C3  BZF d   1       0.807  -0.927   0.714  0.00  0.00    -0.012 A 
ATOM      4  C3A BZF d   1      -0.240   0.048   0.760  0.00  0.00    -0.107 A 
ATOM      5  C4  BZF d   1      -1.112   0.444   1.734  0.00  0.00     0.055 A 
ATOM      6  C5  BZF d   1      -1.962   1.473   1.480  0.00  0.00    -0.016 A 
ATOM      7  C6  BZF d   1      -1.965   2.131   0.268  0.00  0.00     0.022 A 
ATOM      8  C7  BZF d   1      -1.122   1.770  -0.731  0.00  0.00     0.029 A 
ATOM      9  C7A BZF d   1      -0.284   0.709  -0.489  0.00  0.00     0.058 A 
ENDROOT
TORSDOF 0
ENDMDL
