MODEL 1
REMARK minimizedAffinity -2.98671794
REMARK minimizedRMSD -1
REMARK  0 active torsions:
REMARK  status: ('A' for Active; 'I' for Inactive)
ROOT
ATOM      1  O1  BZF d   1      -1.672   0.589   2.209  0.00  0.00    -0.204 OA
ATOM      2  C2  BZF d   1      -2.194   1.868   2.189  0.00  0.00     0.174 A 
ATOM      3  C3  BZF d   1      -1.793   2.532   1.086  0.00  0.00    -0.012 A 
ATOM      4  C3A BZF d   1      -1.044   1.579   0.325  0.00  0.00    -0.107 A 
ATOM      5  C4  BZF d   1      -0.401   1.636  -0.878  0.00  0.00     0.055 A 
ATOM      6  C5  BZF d   1       0.298   0.551  -1.305  0.00  0.00    -0.016 A 
ATOM      7  C6  BZF d   1       0.380  -0.602  -0.553  0.00  0.00     0.022 A 
ATOM      8  C7  BZF d   1      -0.246  -0.707   0.645  0.00  0.00     0.029 A 
ATOM      9  C7A BZF d   1      -0.980   0.375   1.064  0.00  0.00     0.058 A 
ENDROOT
TORSDOF 0
ENDMDL
