MODEL 1
REMARK minimizedAffinity -5.05084562
REMARK minimizedRMSD -1
REMARK  0 active torsions:
REMARK  status: ('A' for Active; 'I' for Inactive)
ROOT
ATOM      1  O1  BZF d   1       0.300  -1.152   0.231  0.00  0.00    -0.204 OA
ATOM      2  C2  BZF d   1       0.373  -0.965  -1.136  0.00  0.00     0.174 A 
ATOM      3  C3  BZF d   1      -0.431   0.046  -1.524  0.00  0.00    -0.012 A 
ATOM      4  C3A BZF d   1      -0.974   0.581  -0.313  0.00  0.00    -0.107 A 
ATOM      5  C4  BZF d   1      -1.829   1.611  -0.041  0.00  0.00     0.055 A 
ATOM      6  C5  BZF d   1      -2.217   1.826   1.243  0.00  0.00    -0.016 A 
ATOM      7  C6  BZF d   1      -1.775   1.028   2.278  0.00  0.00     0.022 A 
ATOM      8  C7  BZF d   1      -0.922  -0.002   2.059  0.00  0.00     0.029 A 
ATOM      9  C7A BZF d   1      -0.502  -0.201   0.767  0.00  0.00     0.058 A 
ENDROOT
TORSDOF 0
ENDMDL
