MODEL 1
REMARK minimizedAffinity -2.96327734
REMARK minimizedRMSD -1
REMARK  0 active torsions:
REMARK  status: ('A' for Active; 'I' for Inactive)
ROOT
ATOM      1  O1  BZF d   1      -1.460   1.064   1.994  0.00  0.00    -0.204 OA
ATOM      2  C2  BZF d   1      -2.019   2.141   1.334  0.00  0.00     0.174 A 
ATOM      3  C3  BZF d   1      -1.564   2.214   0.067  0.00  0.00    -0.012 A 
ATOM      4  C3A BZF d   1      -0.735   1.060  -0.103  0.00  0.00    -0.107 A 
ATOM      5  C4  BZF d   1      -0.013   0.569  -1.153  0.00  0.00     0.055 A 
ATOM      6  C5  BZF d   1       0.747  -0.542  -0.969  0.00  0.00    -0.016 A 
ATOM      7  C6  BZF d   1       0.813  -1.184   0.251  0.00  0.00     0.022 A 
ATOM      8  C7  BZF d   1       0.111  -0.736   1.320  0.00  0.00     0.029 A 
ATOM      9  C7A BZF d   1      -0.685   0.367   1.129  0.00  0.00     0.058 A 
ENDROOT
TORSDOF 0
ENDMDL
