MODEL 1
REMARK minimizedAffinity -5.2189374
REMARK minimizedRMSD -1
REMARK  0 active torsions:
REMARK  status: ('A' for Active; 'I' for Inactive)
ROOT
ATOM      1  O1  BZF d   1       1.072   1.226  -1.305  0.00  0.00    -0.204 OA
ATOM      2  C2  BZF d   1       1.581  -0.057  -1.231  0.00  0.00     0.174 A 
ATOM      3  C3  BZF d   1       0.977  -0.756  -0.249  0.00  0.00    -0.012 A 
ATOM      4  C3A BZF d   1      -0.033   0.117   0.268  0.00  0.00    -0.107 A 
ATOM      5  C4  BZF d   1      -0.975  -0.014   1.248  0.00  0.00     0.055 A 
ATOM      6  C5  BZF d   1      -1.760   1.052   1.556  0.00  0.00    -0.016 A 
ATOM      7  C6  BZF d   1      -1.627   2.263   0.908  0.00  0.00     0.022 A 
ATOM      8  C7  BZF d   1      -0.710   2.439  -0.075  0.00  0.00     0.029 A 
ATOM      9  C7A BZF d   1       0.062   1.354  -0.411  0.00  0.00     0.058 A 
ENDROOT
TORSDOF 0
ENDMDL
