MODEL 1
REMARK minimizedAffinity -3.13999724
REMARK minimizedRMSD -1
REMARK  0 active torsions:
REMARK  status: ('A' for Active; 'I' for Inactive)
ROOT
ATOM      1  O1  BZF d   1       0.839  -0.124   1.083  0.00  0.00    -0.204 OA
ATOM      2  C2  BZF d   1       0.934  -0.695  -0.172  0.00  0.00     0.174 A 
ATOM      3  C3  BZF d   1      -0.181  -0.456  -0.892  0.00  0.00    -0.012 A 
ATOM      4  C3A BZF d   1      -0.988   0.389  -0.066  0.00  0.00    -0.107 A 
ATOM      5  C4  BZF d   1      -2.209   0.978  -0.235  0.00  0.00     0.055 A 
ATOM      6  C5  BZF d   1      -2.750   1.683   0.793  0.00  0.00    -0.016 A 
ATOM      7  C6  BZF d   1      -2.101   1.816   2.003  0.00  0.00     0.022 A 
ATOM      8  C7  BZF d   1      -0.886   1.254   2.216  0.00  0.00     0.029 A 
ATOM      9  C7A BZF d   1      -0.322   0.568   1.168  0.00  0.00     0.058 A 
ENDROOT
TORSDOF 0
ENDMDL
