MODEL 1
REMARK minimizedAffinity 0.281865656
REMARK minimizedRMSD -1
REMARK  0 active torsions:
REMARK  status: ('A' for Active; 'I' for Inactive)
ROOT
ATOM      1  O1  BZF d   1       0.975  -1.273   0.525  0.00  0.00    -0.204 OA
ATOM      2  C2  BZF d   1       1.334  -1.113  -0.799  0.00  0.00     0.174 A 
ATOM      3  C3  BZF d   1       0.741  -0.023  -1.328  0.00  0.00    -0.012 A 
ATOM      4  C3A BZF d   1       0.035   0.585  -0.242  0.00  0.00    -0.107 A 
ATOM      5  C4  BZF d   1      -0.735   1.708  -0.134  0.00  0.00     0.055 A 
ATOM      6  C5  BZF d   1      -1.340   1.982   1.051  0.00  0.00    -0.016 A 
ATOM      7  C6  BZF d   1      -1.202   1.154   2.146  0.00  0.00     0.022 A 
ATOM      8  C7  BZF d   1      -0.444   0.032   2.089  0.00  0.00     0.029 A 
ATOM      9  C7A BZF d   1       0.196  -0.231   0.902  0.00  0.00     0.058 A 
ENDROOT
TORSDOF 0
ENDMDL
