MODEL 1
REMARK minimizedAffinity -4.19001961
REMARK minimizedRMSD -1
REMARK  0 active torsions:
REMARK  status: ('A' for Active; 'I' for Inactive)
ROOT
ATOM      1  O1  BZF d   1       0.938   0.243   1.398  0.00  0.00    -0.204 OA
ATOM      2  C2  BZF d   1       1.452  -0.153   0.178  0.00  0.00     0.174 A 
ATOM      3  C3  BZF d   1       0.563   0.072  -0.811  0.00  0.00    -0.012 A 
ATOM      4  C3A BZF d   1      -0.541   0.729  -0.182  0.00  0.00    -0.107 A 
ATOM      5  C4  BZF d   1      -1.728   1.221  -0.645  0.00  0.00     0.055 A 
ATOM      6  C5  BZF d   1      -2.619   1.739   0.241  0.00  0.00    -0.016 A 
ATOM      7  C6  BZF d   1      -2.358   1.776   1.595  0.00  0.00     0.022 A 
ATOM      8  C7  BZF d   1      -1.192   1.305   2.101  0.00  0.00     0.029 A 
ATOM      9  C7A BZF d   1      -0.276   0.811   1.204  0.00  0.00     0.058 A 
ENDROOT
TORSDOF 0
ENDMDL
