MODEL 1
REMARK minimizedAffinity -4.50729179
REMARK minimizedRMSD -1
REMARK  0 active torsions:
REMARK  status: ('A' for Active; 'I' for Inactive)
ROOT
ATOM      1  O1  BZF d   1      -1.444   2.555   0.241  0.00  0.00    -0.204 OA
ATOM      2  C2  BZF d   1      -2.076   2.496   1.469  0.00  0.00     0.174 A 
ATOM      3  C3  BZF d   1      -1.757   1.357   2.117  0.00  0.00    -0.012 A 
ATOM      4  C3A BZF d   1      -0.798   0.704   1.280  0.00  0.00    -0.107 A 
ATOM      5  C4  BZF d   1      -0.096  -0.462   1.390  0.00  0.00     0.055 A 
ATOM      6  C5  BZF d   1       0.705  -0.850   0.363  0.00  0.00    -0.016 A 
ATOM      7  C6  BZF d   1       0.824  -0.100  -0.789  0.00  0.00     0.022 A 
ATOM      8  C7  BZF d   1       0.152   1.067  -0.942  0.00  0.00     0.029 A 
ATOM      9  C7A BZF d   1      -0.634   1.478   0.108  0.00  0.00     0.058 A 
ENDROOT
TORSDOF 0
ENDMDL
