MODEL 1
REMARK minimizedAffinity -1.78195441
REMARK minimizedRMSD -1
REMARK  0 active torsions:
REMARK  status: ('A' for Active; 'I' for Inactive)
ROOT
ATOM      1  O1  BZF d   1       0.548   1.574  -1.020  0.00  0.00    -0.204 OA
ATOM      2  C2  BZF d   1       1.237   0.419  -1.338  0.00  0.00     0.174 A 
ATOM      3  C3  BZF d   1       0.901  -0.584  -0.501  0.00  0.00    -0.012 A 
ATOM      4  C3A BZF d   1      -0.125  -0.046   0.338  0.00  0.00    -0.107 A 
ATOM      5  C4  BZF d   1      -0.871  -0.564   1.359  0.00  0.00     0.055 A 
ATOM      6  C5  BZF d   1      -1.738   0.247   2.020  0.00  0.00    -0.016 A 
ATOM      7  C6  BZF d   1      -1.881   1.579   1.692  0.00  0.00     0.022 A 
ATOM      8  C7  BZF d   1      -1.167   2.136   0.684  0.00  0.00     0.029 A 
ATOM      9  C7A BZF d   1      -0.314   1.312  -0.008  0.00  0.00     0.058 A 
ENDROOT
TORSDOF 0
ENDMDL
