MODEL 1
REMARK minimizedAffinity -3.83858037
REMARK minimizedRMSD -1
REMARK  0 active torsions:
REMARK  status: ('A' for Active; 'I' for Inactive)
ROOT
ATOM      1  O1  BZF d   1      -1.506   1.947   0.382  0.00  0.00    -0.204 OA
ATOM      2  C2  BZF d   1      -1.895   2.077   1.701  0.00  0.00     0.174 A 
ATOM      3  C3  BZF d   1      -1.530   0.993   2.416  0.00  0.00    -0.012 A 
ATOM      4  C3A BZF d   1      -0.790   0.174   1.506  0.00  0.00    -0.107 A 
ATOM      5  C4  BZF d   1      -0.153  -1.028   1.629  0.00  0.00     0.055 A 
ATOM      6  C5  BZF d   1       0.413  -1.592   0.530  0.00  0.00    -0.016 A 
ATOM      7  C6  BZF d   1       0.357  -0.985  -0.708  0.00  0.00     0.022 A 
ATOM      8  C7  BZF d   1      -0.259   0.210  -0.879  0.00  0.00     0.029 A 
ATOM      9  C7A BZF d   1      -0.804   0.798   0.237  0.00  0.00     0.058 A 
ENDROOT
TORSDOF 0
ENDMDL
