MODEL 1
REMARK minimizedAffinity -4.14735937
REMARK minimizedRMSD -1
REMARK  0 active torsions:
REMARK  status: ('A' for Active; 'I' for Inactive)
ROOT
ATOM      1  O1  BZF d   1      -0.311  -0.225  -1.552  0.00  0.00    -0.204 OA
ATOM      2  C2  BZF d   1       0.456  -1.352  -1.334  0.00  0.00     0.174 A 
ATOM      3  C3  BZF d   1       0.640  -1.558  -0.014  0.00  0.00    -0.012 A 
ATOM      4  C3A BZF d   1      -0.134  -0.545   0.636  0.00  0.00    -0.107 A 
ATOM      5  C4  BZF d   1      -0.367  -0.238   1.946  0.00  0.00     0.055 A 
ATOM      6  C5  BZF d   1      -1.112   0.859   2.244  0.00  0.00    -0.016 A 
ATOM      7  C6  BZF d   1      -1.633   1.673   1.260  0.00  0.00     0.022 A 
ATOM      8  C7  BZF d   1      -1.432   1.406  -0.054  0.00  0.00     0.029 A 
ATOM      9  C7A BZF d   1      -0.708   0.279  -0.359  0.00  0.00     0.058 A 
ENDROOT
TORSDOF 0
ENDMDL
