MODEL 1
REMARK minimizedAffinity -4.54497385
REMARK minimizedRMSD -1
REMARK  0 active torsions:
REMARK  status: ('A' for Active; 'I' for Inactive)
ROOT
ATOM      1  O1  BZF d   1      -0.618  -0.476  -1.363  0.00  0.00    -0.204 OA
ATOM      2  C2  BZF d   1       0.624  -1.063  -1.216  0.00  0.00     0.174 A 
ATOM      3  C3  BZF d   1       1.169  -0.736  -0.026  0.00  0.00    -0.012 A 
ATOM      4  C3A BZF d   1       0.168   0.032   0.648  0.00  0.00    -0.107 A 
ATOM      5  C4  BZF d   1       0.110   0.628   1.876  0.00  0.00     0.055 A 
ATOM      6  C5  BZF d   1      -0.984   1.366   2.201  0.00  0.00    -0.016 A 
ATOM      7  C6  BZF d   1      -2.034   1.533   1.322  0.00  0.00     0.022 A 
ATOM      8  C7  BZF d   1      -2.024   0.957   0.095  0.00  0.00     0.029 A 
ATOM      9  C7A BZF d   1      -0.935   0.184  -0.224  0.00  0.00     0.058 A 
ENDROOT
TORSDOF 0
ENDMDL
