MODEL 1
REMARK minimizedAffinity -2.24048615
REMARK minimizedRMSD -1
REMARK  0 active torsions:
REMARK  status: ('A' for Active; 'I' for Inactive)
ROOT
ATOM      1  O1  BZF d   1      -2.153   1.571  -0.001  0.00  0.00    -0.204 OA
ATOM      2  C2  BZF d   1      -2.254   2.024   1.300  0.00  0.00     0.174 A 
ATOM      3  C3  BZF d   1      -1.303   1.466   2.076  0.00  0.00    -0.012 A 
ATOM      4  C3A BZF d   1      -0.503   0.682   1.186  0.00  0.00    -0.107 A 
ATOM      5  C4  BZF d   1       0.604  -0.099   1.360  0.00  0.00     0.055 A 
ATOM      6  C5  BZF d   1       1.098  -0.789   0.299  0.00  0.00    -0.016 A 
ATOM      7  C6  BZF d   1       0.508  -0.727  -0.947  0.00  0.00     0.022 A 
ATOM      8  C7  BZF d   1      -0.589   0.037  -1.169  0.00  0.00     0.029 A 
ATOM      9  C7A BZF d   1      -1.071   0.762  -0.106  0.00  0.00     0.058 A 
ENDROOT
TORSDOF 0
ENDMDL
