MODEL 1
REMARK minimizedAffinity -3.2769084
REMARK minimizedRMSD -1
REMARK  0 active torsions:
REMARK  status: ('A' for Active; 'I' for Inactive)
ROOT
ATOM      1  O1  BZF d   1       0.765  -0.635   0.961  0.00  0.00    -0.204 OA
ATOM      2  C2  BZF d   1       0.961  -0.712  -0.404  0.00  0.00     0.174 A 
ATOM      3  C3  BZF d   1       0.074   0.064  -1.060  0.00  0.00    -0.012 A 
ATOM      4  C3A BZF d   1      -0.668   0.734  -0.036  0.00  0.00    -0.107 A 
ATOM      5  C4  BZF d   1      -1.682   1.649  -0.058  0.00  0.00     0.055 A 
ATOM      6  C5  BZF d   1      -2.235   2.049   1.116  0.00  0.00    -0.016 A 
ATOM      7  C6  BZF d   1      -1.805   1.552   2.329  0.00  0.00     0.022 A 
ATOM      8  C7  BZF d   1      -0.799   0.646   2.401  0.00  0.00     0.029 A 
ATOM      9  C7A BZF d   1      -0.215   0.265   1.218  0.00  0.00     0.058 A 
ENDROOT
TORSDOF 0
ENDMDL
