MODEL 1
REMARK minimizedAffinity -3.80583572
REMARK minimizedRMSD -1
REMARK  0 active torsions:
REMARK  status: ('A' for Active; 'I' for Inactive)
ROOT
ATOM      1  O1  BZF d   1       0.624  -1.256   0.834  0.00  0.00    -0.204 OA
ATOM      2  C2  BZF d   1       1.156  -1.445  -0.427  0.00  0.00     0.174 A 
ATOM      3  C3  BZF d   1       0.671  -0.532  -1.293  0.00  0.00    -0.012 A 
ATOM      4  C3A BZF d   1      -0.150   0.336  -0.504  0.00  0.00    -0.107 A 
ATOM      5  C4  BZF d   1      -0.891   1.446  -0.793  0.00  0.00     0.055 A 
ATOM      6  C5  BZF d   1      -1.635   2.017   0.191  0.00  0.00    -0.016 A 
ATOM      7  C6  BZF d   1      -1.666   1.502   1.470  0.00  0.00     0.022 A 
ATOM      8  C7  BZF d   1      -0.943   0.405   1.805  0.00  0.00     0.029 A 
ATOM      9  C7A BZF d   1      -0.164  -0.154   0.822  0.00  0.00     0.058 A 
ENDROOT
TORSDOF 0
ENDMDL
