MODEL 1
REMARK minimizedAffinity 15.1201611
REMARK minimizedRMSD -1
REMARK  3 active torsions:
REMARK  status: ('A' for Active; 'I' for Inactive)
REMARK    1  A    between atoms: C3'_2  and  C2'_3 
REMARK    2  A    between atoms: C2'_3  and  C1'_4 
REMARK    3  A    between atoms: C1'_4  and  C1_5 
ROOT
ATOM      1  C1  N4B d   1       4.004   3.202  -3.128  0.00  0.00    -0.075 A 
ATOM      2  C2  N4B d   1       4.487   4.253  -2.318  0.00  0.00     0.002 A 
ATOM      3  C3  N4B d   1       5.472   5.086  -2.789  0.00  0.00     0.002 A 
ATOM      4  C4  N4B d   1       6.000   4.877  -4.054  0.00  0.00    -0.004 A 
ATOM      5  C5  N4B d   1       5.510   3.876  -4.840  0.00  0.00     0.002 A 
ATOM      6  C6  N4B d   1       4.517   3.033  -4.381  0.00  0.00     0.002 A 
ENDROOT
BRANCH   1   7
ATOM      7  C1' N4B d   1       2.988   2.213  -2.624  0.00  0.00     0.057 C 
BRANCH   7   8
ATOM      8  C2' N4B d   1       1.711   2.342  -3.449  0.00  0.00     0.009 C 
BRANCH   8   9
ATOM      9  C3' N4B d   1       0.948   3.614  -3.120  0.00  0.00     0.004 C 
ATOM     10  C4' N4B d   1       0.040   4.050  -4.231  0.00  0.00     0.003 C 
ENDBRANCH   8   9
ENDBRANCH   7   8
ENDBRANCH   1   7
TORSDOF 3
ENDMDL
