MODEL 1
REMARK minimizedAffinity 11.3225679
REMARK minimizedRMSD -1
REMARK  3 active torsions:
REMARK  status: ('A' for Active; 'I' for Inactive)
REMARK    1  A    between atoms: C3'_2  and  C2'_3 
REMARK    2  A    between atoms: C2'_3  and  C1'_4 
REMARK    3  A    between atoms: C1'_4  and  C1_5 
ROOT
ATOM      1  C1  N4B d   1      -3.588   0.052   2.620  0.00  0.00    -0.075 A 
ATOM      2  C2  N4B d   1      -2.966  -0.539   1.499  0.00  0.00     0.002 A 
ATOM      3  C3  N4B d   1      -1.702  -1.064   1.613  0.00  0.00     0.002 A 
ATOM      4  C4  N4B d   1      -1.036  -0.992   2.827  0.00  0.00    -0.004 A 
ATOM      5  C5  N4B d   1      -1.655  -0.443   3.912  0.00  0.00     0.002 A 
ATOM      6  C6  N4B d   1      -2.926   0.085   3.813  0.00  0.00     0.002 A 
ENDROOT
BRANCH   1   7
ATOM      7  C1' N4B d   1      -4.935   0.716   2.523  0.00  0.00     0.057 C 
BRANCH   7   8
ATOM      8  C2' N4B d   1      -5.501   0.498   1.122  0.00  0.00     0.009 C 
BRANCH   8   9
ATOM      9  C3' N4B d   1      -5.369   1.739   0.256  0.00  0.00     0.004 C 
ATOM     10  C4' N4B d   1      -5.229   2.997   1.061  0.00  0.00     0.003 C 
ENDBRANCH   8   9
ENDBRANCH   7   8
ENDBRANCH   1   7
TORSDOF 3
ENDMDL
