MODEL 1
REMARK minimizedAffinity 6.94941139
REMARK minimizedRMSD -1
REMARK  3 active torsions:
REMARK  status: ('A' for Active; 'I' for Inactive)
REMARK    1  A    between atoms: C3'_2  and  C2'_3 
REMARK    2  A    between atoms: C2'_3  and  C1'_4 
REMARK    3  A    between atoms: C1'_4  and  C1_5 
ROOT
ATOM      1  C1  N4B d   1      -2.938  -2.533   2.048  0.00  0.00    -0.075 A 
ATOM      2  C2  N4B d   1      -3.530  -1.398   2.646  0.00  0.00     0.002 A 
ATOM      3  C3  N4B d   1      -2.838  -0.214   2.706  0.00  0.00     0.002 A 
ATOM      4  C4  N4B d   1      -1.551  -0.145   2.193  0.00  0.00    -0.004 A 
ATOM      5  C5  N4B d   1      -0.996  -1.238   1.594  0.00  0.00     0.002 A 
ATOM      6  C6  N4B d   1      -1.682  -2.434   1.524  0.00  0.00     0.002 A 
ENDROOT
BRANCH   1   7
ATOM      7  C1' N4B d   1      -3.623  -3.872   2.036  0.00  0.00     0.057 C 
BRANCH   7   8
ATOM      8  C2' N4B d   1      -4.752  -3.867   3.062  0.00  0.00     0.009 C 
BRANCH   8   9
ATOM      9  C3' N4B d   1      -4.781  -5.145   3.882  0.00  0.00     0.004 C 
ATOM     10  C4' N4B d   1      -5.469  -4.973   5.203  0.00  0.00     0.003 C 
ENDBRANCH   8   9
ENDBRANCH   7   8
ENDBRANCH   1   7
TORSDOF 3
ENDMDL
