MODEL 1
REMARK minimizedAffinity 6.99771309
REMARK minimizedRMSD -1
REMARK  3 active torsions:
REMARK  status: ('A' for Active; 'I' for Inactive)
REMARK    1  A    between atoms: C3'_2  and  C2'_3 
REMARK    2  A    between atoms: C2'_3  and  C1'_4 
REMARK    3  A    between atoms: C1'_4  and  C1_5 
ROOT
ATOM      1  C1  N4B d   1      -3.136   5.405  -5.215  0.00  0.00    -0.075 A 
ATOM      2  C2  N4B d   1      -3.436   4.926  -3.921  0.00  0.00     0.002 A 
ATOM      3  C3  N4B d   1      -4.721   5.000  -3.443  0.00  0.00     0.002 A 
ATOM      4  C4  N4B d   1      -5.715   5.563  -4.230  0.00  0.00    -0.004 A 
ATOM      5  C5  N4B d   1      -5.422   5.999  -5.489  0.00  0.00     0.002 A 
ATOM      6  C6  N4B d   1      -4.135   5.928  -5.984  0.00  0.00     0.002 A 
ENDROOT
BRANCH   1   7
ATOM      7  C1' N4B d   1      -1.729   5.424  -5.748  0.00  0.00     0.057 C 
BRANCH   7   8
ATOM      8  C2' N4B d   1      -0.752   5.516  -4.579  0.00  0.00     0.009 C 
BRANCH   8   9
ATOM      9  C3' N4B d   1      -0.787   4.270  -3.711  0.00  0.00     0.004 C 
ATOM     10  C4' N4B d   1       0.581   3.768  -3.360  0.00  0.00     0.003 C 
ENDBRANCH   8   9
ENDBRANCH   7   8
ENDBRANCH   1   7
TORSDOF 3
ENDMDL
