MODEL 1
REMARK minimizedAffinity 8.75498772
REMARK minimizedRMSD -1
REMARK  3 active torsions:
REMARK  status: ('A' for Active; 'I' for Inactive)
REMARK    1  A    between atoms: C3'_2  and  C2'_3 
REMARK    2  A    between atoms: C2'_3  and  C1'_4 
REMARK    3  A    between atoms: C1'_4  and  C1_5 
ROOT
ATOM      1  C1  N4B d   1       4.071  -0.916   0.892  0.00  0.00    -0.075 A 
ATOM      2  C2  N4B d   1       4.890  -1.501  -0.099  0.00  0.00     0.002 A 
ATOM      3  C3  N4B d   1       4.488  -2.652  -0.731  0.00  0.00     0.002 A 
ATOM      4  C4  N4B d   1       3.284  -3.244  -0.377  0.00  0.00    -0.004 A 
ATOM      5  C5  N4B d   1       2.487  -2.659   0.563  0.00  0.00     0.002 A 
ATOM      6  C6  N4B d   1       2.877  -1.500   1.203  0.00  0.00     0.002 A 
ENDROOT
BRANCH   1   7
ATOM      7  C1' N4B d   1       4.507   0.294   1.671  0.00  0.00     0.057 C 
BRANCH   7   8
ATOM      8  C2' N4B d   1       4.692   1.467   0.712  0.00  0.00     0.009 C 
BRANCH   8   9
ATOM      9  C3' N4B d   1       5.973   2.234   0.993  0.00  0.00     0.004 C 
ATOM     10  C4' N4B d   1       5.996   3.585   0.343  0.00  0.00     0.003 C 
ENDBRANCH   8   9
ENDBRANCH   7   8
ENDBRANCH   1   7
TORSDOF 3
ENDMDL
