MODEL 1
REMARK minimizedAffinity 6.31625557
REMARK minimizedRMSD -1
REMARK  3 active torsions:
REMARK  status: ('A' for Active; 'I' for Inactive)
REMARK    1  A    between atoms: C3'_2  and  C2'_3 
REMARK    2  A    between atoms: C2'_3  and  C1'_4 
REMARK    3  A    between atoms: C1'_4  and  C1_5 
ROOT
ATOM      1  C1  N4B d   1      -1.594  -1.411   1.713  0.00  0.00    -0.075 A 
ATOM      2  C2  N4B d   1      -0.272  -1.317   2.201  0.00  0.00     0.002 A 
ATOM      3  C3  N4B d   1       0.727  -2.065   1.627  0.00  0.00     0.002 A 
ATOM      4  C4  N4B d   1       0.425  -2.924   0.580  0.00  0.00    -0.004 A 
ATOM      5  C5  N4B d   1      -0.850  -2.989   0.098  0.00  0.00     0.002 A 
ATOM      6  C6  N4B d   1      -1.862  -2.240   0.663  0.00  0.00     0.002 A 
ENDROOT
BRANCH   1   7
ATOM      7  C1' N4B d   1      -2.734  -0.677   2.364  0.00  0.00     0.057 C 
BRANCH   7   8
ATOM      8  C2' N4B d   1      -2.185   0.229   3.462  0.00  0.00     0.009 C 
BRANCH   8   9
ATOM      9  C3' N4B d   1      -2.911   0.028   4.781  0.00  0.00     0.004 C 
ATOM     10  C4' N4B d   1      -2.136   0.545   5.956  0.00  0.00     0.003 C 
ENDBRANCH   8   9
ENDBRANCH   7   8
ENDBRANCH   1   7
TORSDOF 3
ENDMDL
