MODEL 1
REMARK minimizedAffinity -1.15763402
REMARK minimizedRMSD -1
REMARK  3 active torsions:
REMARK  status: ('A' for Active; 'I' for Inactive)
REMARK    1  A    between atoms: C3'_2  and  C2'_3 
REMARK    2  A    between atoms: C2'_3  and  C1'_4 
REMARK    3  A    between atoms: C1'_4  and  C1_5 
ROOT
ATOM      1  C1  N4B d   1      -4.579   0.376   4.810  0.00  0.00    -0.075 A 
ATOM      2  C2  N4B d   1      -4.138   0.462   3.471  0.00  0.00     0.002 A 
ATOM      3  C3  N4B d   1      -4.260  -0.622   2.637  0.00  0.00     0.002 A 
ATOM      4  C4  N4B d   1      -4.800  -1.804   3.122  0.00  0.00    -0.004 A 
ATOM      5  C5  N4B d   1      -5.247  -1.871   4.409  0.00  0.00     0.002 A 
ATOM      6  C6  N4B d   1      -5.134  -0.788   5.257  0.00  0.00     0.002 A 
ENDROOT
BRANCH   1   7
ATOM      7  C1' N4B d   1      -4.388   1.507   5.783  0.00  0.00     0.057 C 
BRANCH   7   8
ATOM      8  C2' N4B d   1      -2.976   2.065   5.632  0.00  0.00     0.009 C 
BRANCH   8   9
ATOM      9  C3' N4B d   1      -2.032   1.058   4.997  0.00  0.00     0.004 C 
ATOM     10  C4' N4B d   1      -1.153   0.374   6.000  0.00  0.00     0.003 C 
ENDBRANCH   8   9
ENDBRANCH   7   8
ENDBRANCH   1   7
TORSDOF 3
ENDMDL
