MODEL 1
REMARK minimizedAffinity 5.35798216
REMARK minimizedRMSD -1
REMARK  3 active torsions:
REMARK  status: ('A' for Active; 'I' for Inactive)
REMARK    1  A    between atoms: C3'_2  and  C2'_3 
REMARK    2  A    between atoms: C2'_3  and  C1'_4 
REMARK    3  A    between atoms: C1'_4  and  C1_5 
ROOT
ATOM      1  C1  N4B d   1      -3.837  -0.491   3.452  0.00  0.00    -0.075 A 
ATOM      2  C2  N4B d   1      -3.047  -0.977   2.387  0.00  0.00     0.002 A 
ATOM      3  C3  N4B d   1      -1.730  -0.603   2.283  0.00  0.00     0.002 A 
ATOM      4  C4  N4B d   1      -1.188   0.267   3.217  0.00  0.00    -0.004 A 
ATOM      5  C5  N4B d   1      -1.951   0.712   4.257  0.00  0.00     0.002 A 
ATOM      6  C6  N4B d   1      -3.275   0.341   4.376  0.00  0.00     0.002 A 
ENDROOT
BRANCH   1   7
ATOM      7  C1' N4B d   1      -5.305  -0.804   3.559  0.00  0.00     0.057 C 
BRANCH   7   8
ATOM      8  C2' N4B d   1      -5.999  -0.401   2.261  0.00  0.00     0.009 C 
BRANCH   8   9
ATOM      9  C3' N4B d   1      -5.261   0.717   1.545  0.00  0.00     0.004 C 
ATOM     10  C4' N4B d   1      -5.487   0.705   0.063  0.00  0.00     0.003 C 
ENDBRANCH   8   9
ENDBRANCH   7   8
ENDBRANCH   1   7
TORSDOF 3
ENDMDL
