MODEL 1
REMARK minimizedAffinity 4.45421553
REMARK minimizedRMSD -1
REMARK  3 active torsions:
REMARK  status: ('A' for Active; 'I' for Inactive)
REMARK    1  A    between atoms: C3'_2  and  C2'_3 
REMARK    2  A    between atoms: C2'_3  and  C1'_4 
REMARK    3  A    between atoms: C1'_4  and  C1_5 
ROOT
ATOM      1  C1  N4B d   1       4.940   4.802  -2.402  0.00  0.00    -0.075 A 
ATOM      2  C2  N4B d   1       3.700   4.217  -2.064  0.00  0.00     0.002 A 
ATOM      3  C3  N4B d   1       3.078   3.367  -2.945  0.00  0.00     0.002 A 
ATOM      4  C4  N4B d   1       3.665   3.104  -4.174  0.00  0.00    -0.004 A 
ATOM      5  C5  N4B d   1       4.875   3.653  -4.483  0.00  0.00     0.002 A 
ATOM      6  C6  N4B d   1       5.513   4.505  -3.605  0.00  0.00     0.002 A 
ENDROOT
BRANCH   1   7
ATOM      7  C1' N4B d   1       5.616   5.804  -1.507  0.00  0.00     0.057 C 
BRANCH   7   8
ATOM      8  C2' N4B d   1       5.635   5.267  -0.079  0.00  0.00     0.009 C 
BRANCH   8   9
ATOM      9  C3' N4B d   1       6.000   3.793  -0.031  0.00  0.00     0.004 C 
ATOM     10  C4' N4B d   1       5.999   3.240   1.363  0.00  0.00     0.003 C 
ENDBRANCH   8   9
ENDBRANCH   7   8
ENDBRANCH   1   7
TORSDOF 3
ENDMDL
