MODEL 1
REMARK minimizedAffinity -0.249249637
REMARK minimizedRMSD -1
REMARK  3 active torsions:
REMARK  status: ('A' for Active; 'I' for Inactive)
REMARK    1  A    between atoms: C3'_2  and  C2'_3 
REMARK    2  A    between atoms: C2'_3  and  C1'_4 
REMARK    3  A    between atoms: C1'_4  and  C1_5 
ROOT
ATOM      1  C1  N4B d   1      -3.237  -0.226   3.917  0.00  0.00    -0.075 A 
ATOM      2  C2  N4B d   1      -3.202  -1.079   2.793  0.00  0.00     0.002 A 
ATOM      3  C3  N4B d   1      -4.126  -2.087   2.667  0.00  0.00     0.002 A 
ATOM      4  C4  N4B d   1      -5.079  -2.272   3.658  0.00  0.00    -0.004 A 
ATOM      5  C5  N4B d   1      -5.123  -1.427   4.728  0.00  0.00     0.002 A 
ATOM      6  C6  N4B d   1      -4.202  -0.407   4.865  0.00  0.00     0.002 A 
ENDROOT
BRANCH   1   7
ATOM      7  C1' N4B d   1      -2.196   0.836   4.141  0.00  0.00     0.057 C 
BRANCH   7   8
ATOM      8  C2' N4B d   1      -2.196   1.236   5.614  0.00  0.00     0.009 C 
BRANCH   8   9
ATOM      9  C3' N4B d   1      -3.463   1.980   6.000  0.00  0.00     0.004 C 
ATOM     10  C4' N4B d   1      -3.291   3.470   5.976  0.00  0.00     0.003 C 
ENDBRANCH   8   9
ENDBRANCH   7   8
ENDBRANCH   1   7
TORSDOF 3
ENDMDL
