MODEL 1
REMARK minimizedAffinity 9.34292412
REMARK minimizedRMSD -1
REMARK  3 active torsions:
REMARK  status: ('A' for Active; 'I' for Inactive)
REMARK    1  A    between atoms: C3'_2  and  C2'_3 
REMARK    2  A    between atoms: C2'_3  and  C1'_4 
REMARK    3  A    between atoms: C1'_4  and  C1_5 
ROOT
ATOM      1  C1  N4B d   1      -1.551  -0.482   2.531  0.00  0.00    -0.075 A 
ATOM      2  C2  N4B d   1      -2.940  -0.636   2.327  0.00  0.00     0.002 A 
ATOM      3  C3  N4B d   1      -3.825  -0.208   3.285  0.00  0.00     0.002 A 
ATOM      4  C4  N4B d   1      -3.347   0.357   4.458  0.00  0.00    -0.004 A 
ATOM      5  C5  N4B d   1      -2.005   0.525   4.636  0.00  0.00     0.002 A 
ATOM      6  C6  N4B d   1      -1.104   0.103   3.680  0.00  0.00     0.002 A 
ENDROOT
BRANCH   1   7
ATOM      7  C1' N4B d   1      -0.541  -1.012   1.550  0.00  0.00     0.057 C 
BRANCH   7   8
ATOM      8  C2' N4B d   1       0.859  -0.614   2.008  0.00  0.00     0.009 C 
BRANCH   8   9
ATOM      9  C3' N4B d   1       1.479   0.431   1.097  0.00  0.00     0.004 C 
ATOM     10  C4' N4B d   1       2.946   0.621   1.345  0.00  0.00     0.003 C 
ENDBRANCH   8   9
ENDBRANCH   7   8
ENDBRANCH   1   7
TORSDOF 3
ENDMDL
