MODEL 1
REMARK minimizedAffinity 8.65913963
REMARK minimizedRMSD -1
REMARK  3 active torsions:
REMARK  status: ('A' for Active; 'I' for Inactive)
REMARK    1  A    between atoms: C3'_2  and  C2'_3 
REMARK    2  A    between atoms: C2'_3  and  C1'_4 
REMARK    3  A    between atoms: C1'_4  and  C1_5 
ROOT
ATOM      1  C1  N4B d   1      -0.311  -0.592   1.954  0.00  0.00    -0.075 A 
ATOM      2  C2  N4B d   1      -1.099  -1.493   1.204  0.00  0.00     0.002 A 
ATOM      3  C3  N4B d   1      -2.457  -1.544   1.400  0.00  0.00     0.002 A 
ATOM      4  C4  N4B d   1      -3.044  -0.723   2.351  0.00  0.00    -0.004 A 
ATOM      5  C5  N4B d   1      -2.280   0.162   3.053  0.00  0.00     0.002 A 
ATOM      6  C6  N4B d   1      -0.914   0.228   2.863  0.00  0.00     0.002 A 
ENDROOT
BRANCH   1   7
ATOM      7  C1' N4B d   1       1.188  -0.560   1.835  0.00  0.00     0.057 C 
BRANCH   7   8
ATOM      8  C2' N4B d   1       1.609   0.741   1.159  0.00  0.00     0.009 C 
BRANCH   8   9
ATOM      9  C3' N4B d   1       3.086   0.743   0.801  0.00  0.00     0.004 C 
ATOM     10  C4' N4B d   1       3.881   1.716   1.620  0.00  0.00     0.003 C 
ENDBRANCH   8   9
ENDBRANCH   7   8
ENDBRANCH   1   7
TORSDOF 3
ENDMDL
