MODEL 1
REMARK minimizedAffinity 8.17194939
REMARK minimizedRMSD -1
REMARK  3 active torsions:
REMARK  status: ('A' for Active; 'I' for Inactive)
REMARK    1  A    between atoms: C3'_2  and  C2'_3 
REMARK    2  A    between atoms: C2'_3  and  C1'_4 
REMARK    3  A    between atoms: C1'_4  and  C1_5 
ROOT
ATOM      1  C1  N4B d   1       1.239   3.532  -4.301  0.00  0.00    -0.075 A 
ATOM      2  C2  N4B d   1       1.363   2.972  -3.010  0.00  0.00     0.002 A 
ATOM      3  C3  N4B d   1       2.595   2.581  -2.546  0.00  0.00     0.002 A 
ATOM      4  C4  N4B d   1       3.710   2.722  -3.359  0.00  0.00    -0.004 A 
ATOM      5  C5  N4B d   1       3.586   3.287  -4.594  0.00  0.00     0.002 A 
ATOM      6  C6  N4B d   1       2.355   3.688  -5.072  0.00  0.00     0.002 A 
ENDROOT
BRANCH   1   7
ATOM      7  C1' N4B d   1      -0.099   3.895  -4.884  0.00  0.00     0.057 C 
BRANCH   7   8
ATOM      8  C2' N4B d   1       0.102   4.917  -5.999  0.00  0.00     0.009 C 
BRANCH   8   9
ATOM      9  C3' N4B d   1      -0.986   5.978  -6.000  0.00  0.00     0.004 C 
ATOM     10  C4' N4B d   1      -2.364   5.397  -5.887  0.00  0.00     0.003 C 
ENDBRANCH   8   9
ENDBRANCH   7   8
ENDBRANCH   1   7
TORSDOF 3
ENDMDL
