MODEL 1
REMARK minimizedAffinity -1.5395931
REMARK minimizedRMSD -1
REMARK  0 active torsions:
REMARK  status: ('A' for Active; 'I' for Inactive)
ROOT
ATOM      1  C   UNL d   1      -4.154   3.624   5.808  0.00  0.00     0.023 A 
ATOM      2  C1  UNL d   1      -2.961   2.913   5.943  0.00  0.00     0.003 A 
ATOM      3  C2  UNL d   1      -1.743   3.593   5.996  0.00  0.00     0.048 A 
ATOM      4  C3  UNL d   1      -1.724   4.985   5.916  0.00  0.00     0.023 A 
ATOM      5  C4  UNL d   1      -2.915   5.701   5.782  0.00  0.00     0.048 A 
ATOM      6  C5  UNL d   1      -4.130   5.017   5.728  0.00  0.00     0.003 A 
ATOM      7  I   UNL d   1       0.088   6.000   5.995  0.00  0.00    -0.146 I 
ENDROOT
TORSDOF 0
ENDMDL
