MODEL 1
REMARK minimizedAffinity 16.5001755
REMARK minimizedRMSD -1
REMARK  0 active torsions:
REMARK  status: ('A' for Active; 'I' for Inactive)
ROOT
ATOM      1  C   UNL d   1      -6.000  -1.503  -4.792  0.00  0.00     0.023 A 
ATOM      2  C1  UNL d   1      -5.258  -2.551  -4.246  0.00  0.00     0.003 A 
ATOM      3  C2  UNL d   1      -4.515  -2.350  -3.081  0.00  0.00     0.048 A 
ATOM      4  C3  UNL d   1      -4.518  -1.098  -2.467  0.00  0.00     0.023 A 
ATOM      5  C4  UNL d   1      -5.259  -0.046  -3.009  0.00  0.00     0.048 A 
ATOM      6  C5  UNL d   1      -6.000  -0.252  -4.174  0.00  0.00     0.003 A 
ATOM      7  I   UNL d   1      -3.412  -0.796  -0.733  0.00  0.00    -0.146 I 
ENDROOT
TORSDOF 0
ENDMDL
