MODEL 1
REMARK minimizedAffinity 5.32658005
REMARK minimizedRMSD -1
REMARK  0 active torsions:
REMARK  status: ('A' for Active; 'I' for Inactive)
ROOT
ATOM      1  C   UNL d   1       1.878  -1.890   1.429  0.00  0.00     0.023 A 
ATOM      2  C1  UNL d   1       1.335  -2.884   0.615  0.00  0.00     0.003 A 
ATOM      3  C2  UNL d   1       2.083  -4.022   0.307  0.00  0.00     0.048 A 
ATOM      4  C3  UNL d   1       3.373  -4.161   0.818  0.00  0.00     0.023 A 
ATOM      5  C4  UNL d   1       3.920  -3.169   1.635  0.00  0.00     0.048 A 
ATOM      6  C5  UNL d   1       3.168  -2.032   1.939  0.00  0.00     0.003 A 
ATOM      7  I   UNL d   1       4.488  -5.854   0.362  0.00  0.00    -0.146 I 
ENDROOT
TORSDOF 0
ENDMDL
