MODEL 1
REMARK minimizedAffinity 6.46445751
REMARK minimizedRMSD -1
REMARK  0 active torsions:
REMARK  status: ('A' for Active; 'I' for Inactive)
ROOT
ATOM      1  C   UNL d   1       5.094  -1.973   4.114  0.00  0.00     0.023 A 
ATOM      2  C1  UNL d   1       3.860  -1.539   4.598  0.00  0.00     0.003 A 
ATOM      3  C2  UNL d   1       2.748  -1.508   3.754  0.00  0.00     0.048 A 
ATOM      4  C3  UNL d   1       2.877  -1.914   2.426  0.00  0.00     0.023 A 
ATOM      5  C4  UNL d   1       4.110  -2.349   1.937  0.00  0.00     0.048 A 
ATOM      6  C5  UNL d   1       5.219  -2.377   2.784  0.00  0.00     0.003 A 
ATOM      7  I   UNL d   1       1.224  -1.869   1.167  0.00  0.00    -0.146 I 
ENDROOT
TORSDOF 0
ENDMDL
