MODEL 1
REMARK minimizedAffinity 15.6321011
REMARK minimizedRMSD -1
REMARK  0 active torsions:
REMARK  status: ('A' for Active; 'I' for Inactive)
ROOT
ATOM      1  C   UNL d   1      -4.705   1.998   2.519  0.00  0.00     0.023 A 
ATOM      2  C1  UNL d   1      -3.823   1.524   3.491  0.00  0.00     0.003 A 
ATOM      3  C2  UNL d   1      -3.012   0.419   3.220  0.00  0.00     0.048 A 
ATOM      4  C3  UNL d   1      -3.088  -0.205   1.976  0.00  0.00     0.023 A 
ATOM      5  C4  UNL d   1      -3.968   0.267   1.000  0.00  0.00     0.048 A 
ATOM      6  C5  UNL d   1      -4.777   1.370   1.276  0.00  0.00     0.003 A 
ATOM      7  I   UNL d   1      -1.882  -1.849   1.570  0.00  0.00    -0.146 I 
ENDROOT
TORSDOF 0
ENDMDL
