MODEL 1
REMARK minimizedAffinity 11.2630672
REMARK minimizedRMSD -1
REMARK  0 active torsions:
REMARK  status: ('A' for Active; 'I' for Inactive)
ROOT
ATOM      1  C   UNL d   1      -0.250   1.528  -2.928  0.00  0.00     0.023 A 
ATOM      2  C1  UNL d   1      -0.365   2.100  -4.195  0.00  0.00     0.003 A 
ATOM      3  C2  UNL d   1      -1.581   2.651  -4.606  0.00  0.00     0.048 A 
ATOM      4  C3  UNL d   1      -2.677   2.628  -3.744  0.00  0.00     0.023 A 
ATOM      5  C4  UNL d   1      -2.566   2.058  -2.474  0.00  0.00     0.048 A 
ATOM      6  C5  UNL d   1      -1.349   1.507  -2.069  0.00  0.00     0.003 A 
ATOM      7  I   UNL d   1      -4.487   3.448  -4.353  0.00  0.00    -0.146 I 
ENDROOT
TORSDOF 0
ENDMDL
