MODEL 1
REMARK minimizedAffinity 6.55744076
REMARK minimizedRMSD -1
REMARK  1 active torsions:
REMARK  status: ('A' for Active; 'I' for Inactive)
REMARK    1  A    between atoms: C1_2  and  C2_3 
ROOT
ATOM      1  C2  UNL d   1       4.112   2.173   5.367  0.00  0.00    -0.077 A 
ATOM      2  C3  UNL d   1       4.768   1.984   4.142  0.00  0.00     0.002 A 
ATOM      3  C4  UNL d   1       4.823   0.717   3.558  0.00  0.00     0.002 A 
ATOM      4  C5  UNL d   1       4.221  -0.369   4.189  0.00  0.00    -0.004 A 
ATOM      5  C6  UNL d   1       3.567  -0.193   5.408  0.00  0.00     0.002 A 
ATOM      6  C7  UNL d   1       3.512   1.073   5.994  0.00  0.00     0.002 A 
ENDROOT
BRANCH   1   7
ATOM      7  C1  UNL d   1       4.009   3.547   5.974  0.00  0.00     0.055 C 
ATOM      8  C   UNL d   1       5.360   4.246   5.994  0.00  0.00     0.019 C 
ENDBRANCH   1   7
TORSDOF 1
ENDMDL
