MODEL 1
REMARK minimizedAffinity 2.26046062
REMARK minimizedRMSD -1
REMARK  1 active torsions:
REMARK  status: ('A' for Active; 'I' for Inactive)
REMARK    1  A    between atoms: C1_2  and  C2_3 
ROOT
ATOM      1  C2  UNL d   1      -1.861  -3.366   0.432  0.00  0.00    -0.077 A 
ATOM      2  C3  UNL d   1      -0.940  -4.393   0.185  0.00  0.00     0.002 A 
ATOM      3  C4  UNL d   1      -1.221  -5.703   0.577  0.00  0.00     0.002 A 
ATOM      4  C5  UNL d   1      -2.424  -5.999   1.214  0.00  0.00    -0.004 A 
ATOM      5  C6  UNL d   1      -3.346  -4.983   1.466  0.00  0.00     0.002 A 
ATOM      6  C7  UNL d   1      -3.067  -3.673   1.076  0.00  0.00     0.002 A 
ENDROOT
BRANCH   1   7
ATOM      7  C1  UNL d   1      -1.582  -1.961  -0.034  0.00  0.00     0.055 C 
ATOM      8  C   UNL d   1      -1.511  -1.885  -1.552  0.00  0.00     0.019 C 
ENDBRANCH   1   7
TORSDOF 1
ENDMDL
