MODEL 1
REMARK minimizedAffinity 7.56938505
REMARK minimizedRMSD -1
REMARK  1 active torsions:
REMARK  status: ('A' for Active; 'I' for Inactive)
REMARK    1  A    between atoms: C1_2  and  C2_3 
ROOT
ATOM      1  C2  UNL d   1      -1.435  -1.668   2.219  0.00  0.00    -0.077 A 
ATOM      2  C3  UNL d   1      -1.249  -0.327   1.853  0.00  0.00     0.002 A 
ATOM      3  C4  UNL d   1      -1.112   0.659   2.832  0.00  0.00     0.002 A 
ATOM      4  C5  UNL d   1      -1.154   0.315   4.181  0.00  0.00    -0.004 A 
ATOM      5  C6  UNL d   1      -1.340  -1.015   4.555  0.00  0.00     0.002 A 
ATOM      6  C7  UNL d   1      -1.479  -2.002   3.578  0.00  0.00     0.002 A 
ENDROOT
BRANCH   1   7
ATOM      7  C1  UNL d   1      -1.534  -2.740   1.165  0.00  0.00     0.055 C 
ATOM      8  C   UNL d   1      -1.197  -4.110   1.736  0.00  0.00     0.019 C 
ENDBRANCH   1   7
TORSDOF 1
ENDMDL
