MODEL 1
REMARK minimizedAffinity 6.63503361
REMARK minimizedRMSD -1
REMARK  1 active torsions:
REMARK  status: ('A' for Active; 'I' for Inactive)
REMARK    1  A    between atoms: C1_2  and  C2_3 
ROOT
ATOM      1  C2  UNL d   1      -1.602  -1.675   2.202  0.00  0.00    -0.077 A 
ATOM      2  C3  UNL d   1      -2.551  -1.741   1.172  0.00  0.00     0.002 A 
ATOM      3  C4  UNL d   1      -2.474  -2.744   0.204  0.00  0.00     0.002 A 
ATOM      4  C5  UNL d   1      -1.454  -3.691   0.260  0.00  0.00    -0.004 A 
ATOM      5  C6  UNL d   1      -0.505  -3.634   1.279  0.00  0.00     0.002 A 
ATOM      6  C7  UNL d   1      -0.579  -2.631   2.247  0.00  0.00     0.002 A 
ENDROOT
BRANCH   1   7
ATOM      7  C1  UNL d   1      -1.712  -0.623   3.275  0.00  0.00     0.055 C 
ATOM      8  C   UNL d   1      -1.007  -1.059   4.552  0.00  0.00     0.019 C 
ENDBRANCH   1   7
TORSDOF 1
ENDMDL
