MODEL 1
REMARK minimizedAffinity 7.72867107
REMARK minimizedRMSD -1
REMARK  1 active torsions:
REMARK  status: ('A' for Active; 'I' for Inactive)
REMARK    1  A    between atoms: C1_2  and  C2_3 
ROOT
ATOM      1  C2  UNL d   1      -1.861  -1.411   1.322  0.00  0.00    -0.077 A 
ATOM      2  C3  UNL d   1      -1.322  -2.022   0.181  0.00  0.00     0.002 A 
ATOM      3  C4  UNL d   1      -0.386  -3.050   0.306  0.00  0.00     0.002 A 
ATOM      4  C5  UNL d   1       0.016  -3.478   1.570  0.00  0.00    -0.004 A 
ATOM      5  C6  UNL d   1      -0.512  -2.876   2.710  0.00  0.00     0.002 A 
ATOM      6  C7  UNL d   1      -1.448  -1.847   2.587  0.00  0.00     0.002 A 
ENDROOT
BRANCH   1   7
ATOM      7  C1  UNL d   1      -2.908  -0.335   1.190  0.00  0.00     0.055 C 
ATOM      8  C   UNL d   1      -4.294  -0.933   0.993  0.00  0.00     0.019 C 
ENDBRANCH   1   7
TORSDOF 1
ENDMDL
