MODEL 1
REMARK minimizedAffinity 9.82870102
REMARK minimizedRMSD -1
REMARK  1 active torsions:
REMARK  status: ('A' for Active; 'I' for Inactive)
REMARK    1  A    between atoms: C1_2  and  C2_3 
ROOT
ATOM      1  C2  UNL d   1      -3.396  -1.927   1.380  0.00  0.00    -0.077 A 
ATOM      2  C3  UNL d   1      -3.617  -0.760   0.635  0.00  0.00     0.002 A 
ATOM      3  C4  UNL d   1      -4.914  -0.381   0.284  0.00  0.00     0.002 A 
ATOM      4  C5  UNL d   1      -6.000  -1.160   0.678  0.00  0.00    -0.004 A 
ATOM      5  C6  UNL d   1      -5.791  -2.323   1.418  0.00  0.00     0.002 A 
ATOM      6  C7  UNL d   1      -4.495  -2.704   1.768  0.00  0.00     0.002 A 
ENDROOT
BRANCH   1   7
ATOM      7  C1  UNL d   1      -2.002  -2.312   1.801  0.00  0.00     0.055 C 
ATOM      8  C   UNL d   1      -1.162  -2.744   0.608  0.00  0.00     0.019 C 
ENDBRANCH   1   7
TORSDOF 1
ENDMDL
