MODEL 1
REMARK minimizedAffinity 1.49776888
REMARK minimizedRMSD -1
REMARK  1 active torsions:
REMARK  status: ('A' for Active; 'I' for Inactive)
REMARK    1  A    between atoms: C1_2  and  C2_3 
ROOT
ATOM      1  C2  UNL d   1      -1.890  -2.298  -0.589  0.00  0.00    -0.077 A 
ATOM      2  C3  UNL d   1      -1.890  -1.672   0.665  0.00  0.00     0.002 A 
ATOM      3  C4  UNL d   1      -1.307  -2.300   1.768  0.00  0.00     0.002 A 
ATOM      4  C5  UNL d   1      -0.717  -3.554   1.626  0.00  0.00    -0.004 A 
ATOM      5  C6  UNL d   1      -0.714  -4.186   0.383  0.00  0.00     0.002 A 
ATOM      6  C7  UNL d   1      -1.297  -3.560  -0.719  0.00  0.00     0.002 A 
ENDROOT
BRANCH   1   7
ATOM      7  C1  UNL d   1      -2.475  -1.601  -1.790  0.00  0.00     0.055 C 
ATOM      8  C   UNL d   1      -2.101  -2.316  -3.081  0.00  0.00     0.019 C 
ENDBRANCH   1   7
TORSDOF 1
ENDMDL
