MODEL 1
REMARK minimizedAffinity 6.15392303
REMARK minimizedRMSD -1
REMARK  1 active torsions:
REMARK  status: ('A' for Active; 'I' for Inactive)
REMARK    1  A    between atoms: C1_2  and  C2_3 
ROOT
ATOM      1  C2  UNL d   1       4.622   1.874   3.322  0.00  0.00    -0.077 A 
ATOM      2  C3  UNL d   1       4.529   0.537   3.733  0.00  0.00     0.002 A 
ATOM      3  C4  UNL d   1       4.260   0.226   5.067  0.00  0.00     0.002 A 
ATOM      4  C5  UNL d   1       4.077   1.246   5.999  0.00  0.00    -0.004 A 
ATOM      5  C6  UNL d   1       4.169   2.578   5.600  0.00  0.00     0.002 A 
ATOM      6  C7  UNL d   1       4.439   2.891   4.267  0.00  0.00     0.002 A 
ENDROOT
BRANCH   1   7
ATOM      7  C1  UNL d   1       4.863   2.212   1.874  0.00  0.00     0.055 C 
ATOM      8  C   UNL d   1       3.628   1.937   1.028  0.00  0.00     0.019 C 
ENDBRANCH   1   7
TORSDOF 1
ENDMDL
