MODEL 1
REMARK minimizedAffinity 0.346964806
REMARK minimizedRMSD -1
REMARK  1 active torsions:
REMARK  status: ('A' for Active; 'I' for Inactive)
REMARK    1  A    between atoms: C1_2  and  C2_3 
ROOT
ATOM      1  C2  UNL d   1      -3.540  -0.246   5.991  0.00  0.00    -0.077 A 
ATOM      2  C3  UNL d   1      -4.895  -0.607   5.997  0.00  0.00     0.002 A 
ATOM      3  C4  UNL d   1      -5.888   0.374   6.000  0.00  0.00     0.002 A 
ATOM      4  C5  UNL d   1      -5.537   1.722   5.993  0.00  0.00    -0.004 A 
ATOM      5  C6  UNL d   1      -4.193   2.092   5.989  0.00  0.00     0.002 A 
ATOM      6  C7  UNL d   1      -3.199   1.113   5.987  0.00  0.00     0.002 A 
ENDROOT
BRANCH   1   7
ATOM      7  C1  UNL d   1      -2.468  -1.303   5.938  0.00  0.00     0.055 C 
ATOM      8  C   UNL d   1      -2.831  -2.411   4.960  0.00  0.00     0.019 C 
ENDBRANCH   1   7
TORSDOF 1
ENDMDL
