MODEL 1
REMARK minimizedAffinity 9.06037426
REMARK minimizedRMSD -1
REMARK  3 active torsions:
REMARK  status: ('A' for Active; 'I' for Inactive)
REMARK    1  A    between atoms: C3'_2  and  C2'_3 
REMARK    2  A    between atoms: C2'_3  and  C1'_4 
REMARK    3  A    between atoms: C1'_4  and  C1_5 
ROOT
ATOM      1  C1  N4B d   1       3.811  -2.810  -0.381  0.00  0.00    -0.075 A 
ATOM      2  C2  N4B d   1       3.976  -4.186  -0.109  0.00  0.00     0.002 A 
ATOM      3  C3  N4B d   1       5.071  -4.855  -0.598  0.00  0.00     0.002 A 
ATOM      4  C4  N4B d   1       6.000  -4.177  -1.373  0.00  0.00    -0.004 A 
ATOM      5  C5  N4B d   1       5.846  -2.842  -1.609  0.00  0.00     0.002 A 
ATOM      6  C6  N4B d   1       4.753  -2.156  -1.121  0.00  0.00     0.002 A 
ENDROOT
BRANCH   1   7
ATOM      7  C1' N4B d   1       2.587  -2.055   0.060  0.00  0.00     0.057 C 
BRANCH   7   8
ATOM      8  C2' N4B d   1       1.650  -3.007   0.798  0.00  0.00     0.009 C 
BRANCH   8   9
ATOM      9  C3' N4B d   1       0.586  -3.583  -0.120  0.00  0.00     0.004 C 
ATOM     10  C4' N4B d   1       1.037  -4.830  -0.820  0.00  0.00     0.003 C 
ENDBRANCH   8   9
ENDBRANCH   7   8
ENDBRANCH   1   7
TORSDOF 3
ENDMDL
