MODEL 1
REMARK minimizedAffinity 8.77363968
REMARK minimizedRMSD -1
REMARK  3 active torsions:
REMARK  status: ('A' for Active; 'I' for Inactive)
REMARK    1  A    between atoms: C3'_2  and  C2'_3 
REMARK    2  A    between atoms: C2'_3  and  C1'_4 
REMARK    3  A    between atoms: C1'_4  and  C1_5 
ROOT
ATOM      1  C1  N4B d   1      -5.236   0.471   1.127  0.00  0.00    -0.075 A 
ATOM      2  C2  N4B d   1      -4.031   1.208   1.126  0.00  0.00     0.002 A 
ATOM      3  C3  N4B d   1      -3.325   1.368  -0.041  0.00  0.00     0.002 A 
ATOM      4  C4  N4B d   1      -3.793   0.788  -1.211  0.00  0.00    -0.004 A 
ATOM      5  C5  N4B d   1      -4.971   0.100  -1.206  0.00  0.00     0.002 A 
ATOM      6  C6  N4B d   1      -5.693  -0.066  -0.041  0.00  0.00     0.002 A 
ENDROOT
BRANCH   1   7
ATOM      7  C1' N4B d   1      -5.998   0.196   2.395  0.00  0.00     0.057 C 
BRANCH   7   8
ATOM      8  C2' N4B d   1      -5.910  -1.292   2.719  0.00  0.00     0.009 C 
BRANCH   8   9
ATOM      9  C3' N4B d   1      -5.918  -1.549   4.216  0.00  0.00     0.004 C 
ATOM     10  C4' N4B d   1      -5.981  -3.009   4.554  0.00  0.00     0.003 C 
ENDBRANCH   8   9
ENDBRANCH   7   8
ENDBRANCH   1   7
TORSDOF 3
ENDMDL
