MODEL 1
REMARK minimizedAffinity 5.97306299
REMARK minimizedRMSD -1
REMARK  3 active torsions:
REMARK  status: ('A' for Active; 'I' for Inactive)
REMARK    1  A    between atoms: C3'_2  and  C2'_3 
REMARK    2  A    between atoms: C2'_3  and  C1'_4 
REMARK    3  A    between atoms: C1'_4  and  C1_5 
ROOT
ATOM      1  C1  N4B d   1      -0.173   2.453   0.826  0.00  0.00    -0.075 A 
ATOM      2  C2  N4B d   1       0.893   1.858   1.536  0.00  0.00     0.002 A 
ATOM      3  C3  N4B d   1       0.646   1.178   2.703  0.00  0.00     0.002 A 
ATOM      4  C4  N4B d   1      -0.650   1.095   3.188  0.00  0.00    -0.004 A 
ATOM      5  C5  N4B d   1      -1.678   1.651   2.483  0.00  0.00     0.002 A 
ATOM      6  C6  N4B d   1      -1.445   2.334   1.306  0.00  0.00     0.002 A 
ENDROOT
BRANCH   1   7
ATOM      7  C1' N4B d   1       0.059   3.280  -0.409  0.00  0.00     0.057 C 
BRANCH   7   8
ATOM      8  C2' N4B d   1      -0.714   2.668  -1.573  0.00  0.00     0.009 C 
BRANCH   8   9
ATOM      9  C3' N4B d   1      -0.480   3.424  -2.870  0.00  0.00     0.004 C 
ATOM     10  C4' N4B d   1      -1.433   4.567  -3.056  0.00  0.00     0.003 C 
ENDBRANCH   8   9
ENDBRANCH   7   8
ENDBRANCH   1   7
TORSDOF 3
ENDMDL
