MODEL 1
REMARK minimizedAffinity 13.1623211
REMARK minimizedRMSD -1
REMARK  3 active torsions:
REMARK  status: ('A' for Active; 'I' for Inactive)
REMARK    1  A    between atoms: C3'_2  and  C2'_3 
REMARK    2  A    between atoms: C2'_3  and  C1'_4 
REMARK    3  A    between atoms: C1'_4  and  C1_5 
ROOT
ATOM      1  C1  N4B d   1      -2.383  -4.714  -5.114  0.00  0.00    -0.075 A 
ATOM      2  C2  N4B d   1      -3.067  -3.603  -5.654  0.00  0.00     0.002 A 
ATOM      3  C3  N4B d   1      -4.392  -3.713  -5.999  0.00  0.00     0.002 A 
ATOM      4  C4  N4B d   1      -5.045  -4.924  -5.832  0.00  0.00    -0.004 A 
ATOM      5  C5  N4B d   1      -4.385  -5.986  -5.287  0.00  0.00     0.002 A 
ATOM      6  C6  N4B d   1      -3.054  -5.889  -4.932  0.00  0.00     0.002 A 
ENDROOT
BRANCH   1   7
ATOM      7  C1' N4B d   1      -0.912  -4.667  -4.802  0.00  0.00     0.057 C 
BRANCH   7   8
ATOM      8  C2' N4B d   1      -0.723  -4.625  -3.289  0.00  0.00     0.009 C 
BRANCH   8   9
ATOM      9  C3' N4B d   1       0.736  -4.448  -2.903  0.00  0.00     0.004 C 
ATOM     10  C4' N4B d   1       0.971  -4.609  -1.431  0.00  0.00     0.003 C 
ENDBRANCH   8   9
ENDBRANCH   7   8
ENDBRANCH   1   7
TORSDOF 3
ENDMDL
