MODEL 1
REMARK minimizedAffinity 5.11655664
REMARK minimizedRMSD -1
REMARK  3 active torsions:
REMARK  status: ('A' for Active; 'I' for Inactive)
REMARK    1  A    between atoms: C3'_2  and  C2'_3 
REMARK    2  A    between atoms: C2'_3  and  C1'_4 
REMARK    3  A    between atoms: C1'_4  and  C1_5 
ROOT
ATOM      1  C1  N4B d   1      -3.073   5.269  -3.902  0.00  0.00    -0.075 A 
ATOM      2  C2  N4B d   1      -2.754   4.935  -5.237  0.00  0.00     0.002 A 
ATOM      3  C3  N4B d   1      -3.642   4.210  -5.993  0.00  0.00     0.002 A 
ATOM      4  C4  N4B d   1      -4.840   3.793  -5.433  0.00  0.00    -0.004 A 
ATOM      5  C5  N4B d   1      -5.151   4.141  -4.151  0.00  0.00     0.002 A 
ATOM      6  C6  N4B d   1      -4.270   4.874  -3.381  0.00  0.00     0.002 A 
ENDROOT
BRANCH   1   7
ATOM      7  C1' N4B d   1      -2.098   5.987  -3.009  0.00  0.00     0.057 C 
BRANCH   7   8
ATOM      8  C2' N4B d   1      -0.689   5.823  -3.572  0.00  0.00     0.009 C 
BRANCH   8   9
ATOM      9  C3' N4B d   1      -0.684   5.787  -5.090  0.00  0.00     0.004 C 
ATOM     10  C4' N4B d   1       0.684   5.987  -5.671  0.00  0.00     0.003 C 
ENDBRANCH   8   9
ENDBRANCH   7   8
ENDBRANCH   1   7
TORSDOF 3
ENDMDL
