MODEL 1
REMARK minimizedAffinity 6.64475632
REMARK minimizedRMSD -1
REMARK  3 active torsions:
REMARK  status: ('A' for Active; 'I' for Inactive)
REMARK    1  A    between atoms: C3'_2  and  C2'_3 
REMARK    2  A    between atoms: C2'_3  and  C1'_4 
REMARK    3  A    between atoms: C1'_4  and  C1_5 
ROOT
ATOM      1  C1  N4B d   1      -3.619  -3.807  -5.602  0.00  0.00    -0.075 A 
ATOM      2  C2  N4B d   1      -3.029  -4.821  -4.815  0.00  0.00     0.002 A 
ATOM      3  C3  N4B d   1      -3.773  -5.905  -4.420  0.00  0.00     0.002 A 
ATOM      4  C4  N4B d   1      -5.110  -5.988  -4.783  0.00  0.00    -0.004 A 
ATOM      5  C5  N4B d   1      -5.665  -5.018  -5.564  0.00  0.00     0.002 A 
ATOM      6  C6  N4B d   1      -4.928  -3.924  -5.972  0.00  0.00     0.002 A 
ENDROOT
BRANCH   1   7
ATOM      7  C1' N4B d   1      -2.869  -2.561  -5.985  0.00  0.00     0.057 C 
BRANCH   7   8
ATOM      8  C2' N4B d   1      -3.817  -1.368  -5.926  0.00  0.00     0.009 C 
BRANCH   8   9
ATOM      9  C3' N4B d   1      -3.094  -0.085  -5.553  0.00  0.00     0.004 C 
ATOM     10  C4' N4B d   1      -3.827   1.146  -5.996  0.00  0.00     0.003 C 
ENDBRANCH   8   9
ENDBRANCH   7   8
ENDBRANCH   1   7
TORSDOF 3
ENDMDL
