MODEL 1
REMARK minimizedAffinity 11.7281342
REMARK minimizedRMSD -1
REMARK  3 active torsions:
REMARK  status: ('A' for Active; 'I' for Inactive)
REMARK    1  A    between atoms: C3'_2  and  C2'_3 
REMARK    2  A    between atoms: C2'_3  and  C1'_4 
REMARK    3  A    between atoms: C1'_4  and  C1_5 
ROOT
ATOM      1  C1  N4B d   1      -2.710   1.267  -0.189  0.00  0.00    -0.075 A 
ATOM      2  C2  N4B d   1      -3.791   0.769   0.571  0.00  0.00     0.002 A 
ATOM      3  C3  N4B d   1      -4.994   0.506  -0.036  0.00  0.00     0.002 A 
ATOM      4  C4  N4B d   1      -5.145   0.751  -1.393  0.00  0.00    -0.004 A 
ATOM      5  C5  N4B d   1      -4.089   1.209  -2.125  0.00  0.00     0.002 A 
ATOM      6  C6  N4B d   1      -2.872   1.473  -1.528  0.00  0.00     0.002 A 
ENDROOT
BRANCH   1   7
ATOM      7  C1' N4B d   1      -1.402   1.650   0.447  0.00  0.00     0.057 C 
BRANCH   7   8
ATOM      8  C2' N4B d   1      -0.403   2.020  -0.645  0.00  0.00     0.009 C 
BRANCH   8   9
ATOM      9  C3' N4B d   1       0.111   3.441  -0.488  0.00  0.00     0.004 C 
ATOM     10  C4' N4B d   1      -0.011   4.246  -1.747  0.00  0.00     0.003 C 
ENDBRANCH   8   9
ENDBRANCH   7   8
ENDBRANCH   1   7
TORSDOF 3
ENDMDL
