MODEL 1
REMARK minimizedAffinity 2.90459418
REMARK minimizedRMSD -1
REMARK  0 active torsions:
REMARK  status: ('A' for Active; 'I' for Inactive)
ROOT
ATOM      1  C   UNL d   1       4.455  -0.322  -1.856  0.00  0.00     0.020 A 
ATOM      2  C1  UNL d   1       3.860  -0.279  -0.596  0.00  0.00     0.020 A 
ATOM      3  C2  UNL d   1       2.608  -0.864  -0.394  0.00  0.00     0.034 A 
ATOM      4  C3  UNL d   1       1.947  -1.495  -1.454  0.00  0.00     0.017 A 
ATOM      5  C4  UNL d   1       2.546  -1.538  -2.719  0.00  0.00     0.017 A 
ATOM      6  C5  UNL d   1       3.799  -0.950  -2.915  0.00  0.00     0.034 A 
ATOM      7 Cl   UNL d   1       1.792  -2.298  -4.076  0.00  0.00    -0.070 Cl
ATOM      8 Cl1  UNL d   1       0.402  -2.197  -1.133  0.00  0.00    -0.070 Cl
ENDROOT
TORSDOF 0
ENDMDL
