MODEL 1
REMARK minimizedAffinity 5.31039
REMARK minimizedRMSD -1
REMARK  0 active torsions:
REMARK  status: ('A' for Active; 'I' for Inactive)
ROOT
ATOM      1  C   UNL d   1       0.639   2.884  -2.730  0.00  0.00     0.020 A 
ATOM      2  C1  UNL d   1       1.858   2.294  -3.066  0.00  0.00     0.020 A 
ATOM      3  C2  UNL d   1       2.182   1.030  -2.569  0.00  0.00     0.034 A 
ATOM      4  C3  UNL d   1       1.287   0.351  -1.734  0.00  0.00     0.017 A 
ATOM      5  C4  UNL d   1       0.065   0.943  -1.397  0.00  0.00     0.017 A 
ATOM      6  C5  UNL d   1      -0.255   2.209  -1.897  0.00  0.00     0.034 A 
ATOM      7 Cl   UNL d   1      -1.090   0.167  -0.373  0.00  0.00    -0.070 Cl
ATOM      8 Cl1  UNL d   1       1.753  -1.210  -1.157  0.00  0.00    -0.070 Cl
ENDROOT
TORSDOF 0
ENDMDL
