MODEL 1
REMARK minimizedAffinity -1.30502045
REMARK minimizedRMSD -1
REMARK  0 active torsions:
REMARK  status: ('A' for Active; 'I' for Inactive)
ROOT
ATOM      1  C   UNL d   1      -2.149  -0.396  -0.575  0.00  0.00     0.020 A 
ATOM      2  C1  UNL d   1      -2.343  -1.722  -0.959  0.00  0.00     0.020 A 
ATOM      3  C2  UNL d   1      -1.291  -2.446  -1.523  0.00  0.00     0.034 A 
ATOM      4  C3  UNL d   1      -0.040  -1.845  -1.705  0.00  0.00     0.017 A 
ATOM      5  C4  UNL d   1       0.154  -0.514  -1.319  0.00  0.00     0.017 A 
ATOM      6  C5  UNL d   1      -0.903   0.207  -0.755  0.00  0.00     0.034 A 
ATOM      7 Cl   UNL d   1       1.668   0.296  -1.512  0.00  0.00    -0.070 Cl
ATOM      8 Cl1  UNL d   1       1.216  -2.801  -2.409  0.00  0.00    -0.070 Cl
ENDROOT
TORSDOF 0
ENDMDL
