MODEL 1
REMARK minimizedAffinity 7.15381956
REMARK minimizedRMSD -1
REMARK  0 active torsions:
REMARK  status: ('A' for Active; 'I' for Inactive)
ROOT
ATOM      1  C   UNL d   1      -1.504  -2.608  -0.738  0.00  0.00     0.020 A 
ATOM      2  C1  UNL d   1      -1.676  -1.226  -0.788  0.00  0.00     0.020 A 
ATOM      3  C2  UNL d   1      -2.934  -0.688  -1.065  0.00  0.00     0.034 A 
ATOM      4  C3  UNL d   1      -4.026  -1.534  -1.293  0.00  0.00     0.017 A 
ATOM      5  C4  UNL d   1      -3.852  -2.922  -1.242  0.00  0.00     0.017 A 
ATOM      6  C5  UNL d   1      -2.590  -3.455  -0.964  0.00  0.00     0.034 A 
ATOM      7 Cl   UNL d   1      -5.152  -4.029  -1.513  0.00  0.00    -0.070 Cl
ATOM      8 Cl1  UNL d   1      -5.554  -0.801  -1.630  0.00  0.00    -0.070 Cl
ENDROOT
TORSDOF 0
ENDMDL
