MODEL 1
REMARK minimizedAffinity 5.84998512
REMARK minimizedRMSD -1
REMARK  0 active torsions:
REMARK  status: ('A' for Active; 'I' for Inactive)
ROOT
ATOM      1  C   UNL d   1       2.992   1.939  -3.449  0.00  0.00     0.020 A 
ATOM      2  C1  UNL d   1       1.989   2.879  -3.220  0.00  0.00     0.020 A 
ATOM      3  C2  UNL d   1       1.001   2.628  -2.265  0.00  0.00     0.034 A 
ATOM      4  C3  UNL d   1       1.015   1.433  -1.536  0.00  0.00     0.017 A 
ATOM      5  C4  UNL d   1       2.022   0.490  -1.767  0.00  0.00     0.017 A 
ATOM      6  C5  UNL d   1       3.009   0.747  -2.724  0.00  0.00     0.034 A 
ATOM      7 Cl   UNL d   1       2.105  -1.007  -0.907  0.00  0.00    -0.070 Cl
ATOM      8 Cl1  UNL d   1      -0.237   1.189  -0.371  0.00  0.00    -0.070 Cl
ENDROOT
TORSDOF 0
ENDMDL
