MODEL 1
REMARK minimizedAffinity 10.1996384
REMARK minimizedRMSD -1
REMARK  0 active torsions:
REMARK  status: ('A' for Active; 'I' for Inactive)
ROOT
ATOM      1  C   UNL d   1       1.480   2.850  -2.953  0.00  0.00     0.020 A 
ATOM      2  C1  UNL d   1       2.639   2.098  -3.143  0.00  0.00     0.020 A 
ATOM      3  C2  UNL d   1       2.794   0.876  -2.487  0.00  0.00     0.034 A 
ATOM      4  C3  UNL d   1       1.789   0.401  -1.636  0.00  0.00     0.017 A 
ATOM      5  C4  UNL d   1       0.626   1.156  -1.446  0.00  0.00     0.017 A 
ATOM      6  C5  UNL d   1       0.476   2.379  -2.106  0.00  0.00     0.034 A 
ATOM      7 Cl   UNL d   1      -0.658   0.635  -0.412  0.00  0.00    -0.070 Cl
ATOM      8 Cl1  UNL d   1       2.048  -1.120  -0.857  0.00  0.00    -0.070 Cl
ENDROOT
TORSDOF 0
ENDMDL
