MODEL 1
REMARK minimizedAffinity 5.83430481
REMARK minimizedRMSD -1
REMARK  0 active torsions:
REMARK  status: ('A' for Active; 'I' for Inactive)
ROOT
ATOM      1  C   UNL d   1      -1.902  -2.143  -0.816  0.00  0.00     0.020 A 
ATOM      2  C1  UNL d   1      -2.797  -1.417  -0.031  0.00  0.00     0.020 A 
ATOM      3  C2  UNL d   1      -2.420  -0.180   0.496  0.00  0.00     0.034 A 
ATOM      4  C3  UNL d   1      -1.144   0.335   0.239  0.00  0.00     0.017 A 
ATOM      5  C4  UNL d   1      -0.247  -0.394  -0.550  0.00  0.00     0.017 A 
ATOM      6  C5  UNL d   1      -0.629  -1.632  -1.075  0.00  0.00     0.034 A 
ATOM      7 Cl   UNL d   1       1.344   0.177  -0.911  0.00  0.00    -0.070 Cl
ATOM      8 Cl1  UNL d   1      -0.746   1.871   0.922  0.00  0.00    -0.070 Cl
ENDROOT
TORSDOF 0
ENDMDL
