MODEL 1
REMARK minimizedAffinity 1.76450205
REMARK minimizedRMSD -1
REMARK  0 active torsions:
REMARK  status: ('A' for Active; 'I' for Inactive)
ROOT
ATOM      1  C   UNL d   1       1.492   2.631  -3.032  0.00  0.00     0.020 A 
ATOM      2  C1  UNL d   1       2.561   1.791  -3.343  0.00  0.00     0.020 A 
ATOM      3  C2  UNL d   1       2.799   0.650  -2.574  0.00  0.00     0.034 A 
ATOM      4  C3  UNL d   1       1.968   0.346  -1.489  0.00  0.00     0.017 A 
ATOM      5  C4  UNL d   1       0.895   1.190  -1.178  0.00  0.00     0.017 A 
ATOM      6  C5  UNL d   1       0.661   2.331  -1.952  0.00  0.00     0.034 A 
ATOM      7 Cl   UNL d   1      -0.174   0.881   0.145  0.00  0.00    -0.070 Cl
ATOM      8 Cl1  UNL d   1       2.321  -1.081  -0.582  0.00  0.00    -0.070 Cl
ENDROOT
TORSDOF 0
ENDMDL
