MODEL 1
REMARK minimizedAffinity 4.14736938
REMARK minimizedRMSD -1
REMARK  0 active torsions:
REMARK  status: ('A' for Active; 'I' for Inactive)
ROOT
ATOM      1  C   UNL d   1       1.875   2.894  -3.409  0.00  0.00     0.020 A 
ATOM      2  C1  UNL d   1       2.927   2.025  -3.695  0.00  0.00     0.020 A 
ATOM      3  C2  UNL d   1       3.028   0.806  -3.022  0.00  0.00     0.034 A 
ATOM      4  C3  UNL d   1       2.076   0.452  -2.059  0.00  0.00     0.017 A 
ATOM      5  C4  UNL d   1       1.020   1.326  -1.773  0.00  0.00     0.017 A 
ATOM      6  C5  UNL d   1       0.924   2.545  -2.450  0.00  0.00     0.034 A 
ATOM      7 Cl   UNL d   1      -0.193   0.960  -0.598  0.00  0.00    -0.070 Cl
ATOM      8 Cl1  UNL d   1       2.262  -1.071  -1.265  0.00  0.00    -0.070 Cl
ENDROOT
TORSDOF 0
ENDMDL
