MODEL 1
REMARK minimizedAffinity 0.945789158
REMARK minimizedRMSD -1
REMARK  0 active torsions:
REMARK  status: ('A' for Active; 'I' for Inactive)
ROOT
ATOM      1  C   UNL d   1       2.323  -2.264  -1.584  0.00  0.00     0.020 A 
ATOM      2  C1  UNL d   1       2.620  -0.929  -1.314  0.00  0.00     0.020 A 
ATOM      3  C2  UNL d   1       1.600  -0.048  -0.946  0.00  0.00     0.034 A 
ATOM      4  C3  UNL d   1       0.280  -0.502  -0.846  0.00  0.00     0.017 A 
ATOM      5  C4  UNL d   1      -0.016  -1.842  -1.117  0.00  0.00     0.017 A 
ATOM      6  C5  UNL d   1       1.008  -2.720  -1.486  0.00  0.00     0.034 A 
ATOM      7 Cl   UNL d   1      -1.621  -2.476  -1.015  0.00  0.00    -0.070 Cl
ATOM      8 Cl1  UNL d   1      -0.930   0.642  -0.385  0.00  0.00    -0.070 Cl
ENDROOT
TORSDOF 0
ENDMDL
