MODEL 1
REMARK minimizedAffinity 10.4923983
REMARK minimizedRMSD -1
REMARK  0 active torsions:
REMARK  status: ('A' for Active; 'I' for Inactive)
ROOT
ATOM      1  C   UNL d   1      -1.225   1.781   0.792  0.00  0.00     0.020 A 
ATOM      2  C1  UNL d   1      -1.126   1.412  -0.548  0.00  0.00     0.020 A 
ATOM      3  C2  UNL d   1       0.127   1.174  -1.116  0.00  0.00     0.034 A 
ATOM      4  C3  UNL d   1       1.286   1.305  -0.344  0.00  0.00     0.017 A 
ATOM      5  C4  UNL d   1       1.186   1.676   1.002  0.00  0.00     0.017 A 
ATOM      6  C5  UNL d   1      -0.071   1.913   1.566  0.00  0.00     0.034 A 
ATOM      7 Cl   UNL d   1       2.572   1.858   2.019  0.00  0.00    -0.070 Cl
ATOM      8 Cl1  UNL d   1       2.803   0.995  -1.111  0.00  0.00    -0.070 Cl
ENDROOT
TORSDOF 0
ENDMDL
