MODEL 1
REMARK minimizedAffinity 11.2907314
REMARK minimizedRMSD -1
REMARK  0 active torsions:
REMARK  status: ('A' for Active; 'I' for Inactive)
ROOT
ATOM      1  C   UNL d   1       2.466  -0.900  -1.720  0.00  0.00     0.020 A 
ATOM      2  C1  UNL d   1       1.835  -2.100  -2.048  0.00  0.00     0.020 A 
ATOM      3  C2  UNL d   1       0.474  -2.267  -1.783  0.00  0.00     0.034 A 
ATOM      4  C3  UNL d   1      -0.260  -1.234  -1.188  0.00  0.00     0.017 A 
ATOM      5  C4  UNL d   1       0.375  -0.031  -0.859  0.00  0.00     0.017 A 
ATOM      6  C5  UNL d   1       1.738   0.131  -1.127  0.00  0.00     0.034 A 
ATOM      7 Cl   UNL d   1      -0.464   1.289  -0.123  0.00  0.00    -0.070 Cl
ATOM      8 Cl1  UNL d   1      -1.939  -1.511  -0.889  0.00  0.00    -0.070 Cl
ENDROOT
TORSDOF 0
ENDMDL
