MODEL 1
REMARK minimizedAffinity 5.60286283
REMARK minimizedRMSD -1
REMARK  0 active torsions:
REMARK  status: ('A' for Active; 'I' for Inactive)
ROOT
ATOM      1  C   UNL d   1       2.521   1.434  -0.847  0.00  0.00     0.020 A 
ATOM      2  C1  UNL d   1       1.679   2.057   0.074  0.00  0.00     0.020 A 
ATOM      3  C2  UNL d   1       0.406   1.538   0.318  0.00  0.00     0.034 A 
ATOM      4  C3  UNL d   1      -0.029   0.393  -0.359  0.00  0.00     0.017 A 
ATOM      5  C4  UNL d   1       0.816  -0.231  -1.284  0.00  0.00     0.017 A 
ATOM      6  C5  UNL d   1       2.090   0.293  -1.524  0.00  0.00     0.034 A 
ATOM      7 Cl   UNL d   1       0.349  -1.647  -2.158  0.00  0.00    -0.070 Cl
ATOM      8 Cl1  UNL d   1      -1.616  -0.194  -0.007  0.00  0.00    -0.070 Cl
ENDROOT
TORSDOF 0
ENDMDL
