MODEL 1
REMARK minimizedAffinity 5.29424524
REMARK minimizedRMSD -1
REMARK  0 active torsions:
REMARK  status: ('A' for Active; 'I' for Inactive)
ROOT
ATOM      1  C   UNL d   1      -1.949  -3.093  -0.865  0.00  0.00     0.020 A 
ATOM      2  C1  UNL d   1      -2.894  -2.131  -0.512  0.00  0.00     0.020 A 
ATOM      3  C2  UNL d   1      -2.513  -0.795  -0.373  0.00  0.00     0.034 A 
ATOM      4  C3  UNL d   1      -1.182  -0.416  -0.588  0.00  0.00     0.017 A 
ATOM      5  C4  UNL d   1      -0.234  -1.383  -0.943  0.00  0.00     0.017 A 
ATOM      6  C5  UNL d   1      -0.621  -2.719  -1.081  0.00  0.00     0.034 A 
ATOM      7 Cl   UNL d   1       1.426  -0.992  -1.225  0.00  0.00    -0.070 Cl
ATOM      8 Cl1  UNL d   1      -0.781   1.254  -0.400  0.00  0.00    -0.070 Cl
ENDROOT
TORSDOF 0
ENDMDL
