MODEL 1
REMARK minimizedAffinity 3.82437491
REMARK minimizedRMSD -1
REMARK  0 active torsions:
REMARK  status: ('A' for Active; 'I' for Inactive)
ROOT
ATOM      1  C   UNL d   1       2.026  -2.428  -1.627  0.00  0.00     0.020 A 
ATOM      2  C1  UNL d   1       2.494  -1.143  -1.354  0.00  0.00     0.020 A 
ATOM      3  C2  UNL d   1       1.605  -0.148  -0.945  0.00  0.00     0.034 A 
ATOM      4  C3  UNL d   1       0.242  -0.436  -0.806  0.00  0.00     0.017 A 
ATOM      5  C4  UNL d   1      -0.227  -1.726  -1.080  0.00  0.00     0.017 A 
ATOM      6  C5  UNL d   1       0.668  -2.718  -1.489  0.00  0.00     0.034 A 
ATOM      7 Cl   UNL d   1      -1.895  -2.156  -0.931  0.00  0.00    -0.070 Cl
ATOM      8 Cl1  UNL d   1      -0.802   0.843  -0.295  0.00  0.00    -0.070 Cl
ENDROOT
TORSDOF 0
ENDMDL
