MODEL 1
REMARK minimizedAffinity -4.00967693
REMARK minimizedRMSD -1
REMARK  0 active torsions:
REMARK  status: ('A' for Active; 'I' for Inactive)
ROOT
ATOM      1  C   UNL d   1      -1.471   0.495  -0.287  0.00  0.00     0.020 A 
ATOM      2  C1  UNL d   1      -0.641   1.607  -0.154  0.00  0.00     0.020 A 
ATOM      3  C2  UNL d   1       0.746   1.453  -0.206  0.00  0.00     0.034 A 
ATOM      4  C3  UNL d   1       1.307   0.184  -0.392  0.00  0.00     0.017 A 
ATOM      5  C4  UNL d   1       0.473  -0.932  -0.526  0.00  0.00     0.017 A 
ATOM      6  C5  UNL d   1      -0.915  -0.772  -0.473  0.00  0.00     0.034 A 
ATOM      7 Cl   UNL d   1       1.091  -2.529  -0.758  0.00  0.00    -0.070 Cl
ATOM      8 Cl1  UNL d   1       3.030   0.068  -0.447  0.00  0.00    -0.070 Cl
ENDROOT
TORSDOF 0
ENDMDL
