MODEL 1
REMARK minimizedAffinity 4.04366016
REMARK minimizedRMSD -1
REMARK  0 active torsions:
REMARK  status: ('A' for Active; 'I' for Inactive)
ROOT
ATOM      1  C   UNL d   1       2.404  -0.251  -1.628  0.00  0.00     0.020 A 
ATOM      2  C1  UNL d   1       3.309  -0.954  -0.833  0.00  0.00     0.020 A 
ATOM      3  C2  UNL d   1       2.870  -2.036  -0.066  0.00  0.00     0.034 A 
ATOM      4  C3  UNL d   1       1.524  -2.416  -0.092  0.00  0.00     0.017 A 
ATOM      5  C4  UNL d   1       0.617  -1.710  -0.889  0.00  0.00     0.017 A 
ATOM      6  C5  UNL d   1       1.061  -0.628  -1.656  0.00  0.00     0.034 A 
ATOM      7 Cl   UNL d   1      -1.060  -2.120  -0.973  0.00  0.00    -0.070 Cl
ATOM      8 Cl1  UNL d   1       1.051  -3.763   0.882  0.00  0.00    -0.070 Cl
ENDROOT
TORSDOF 0
ENDMDL
