MODEL 1
REMARK minimizedAffinity 4.10100937
REMARK minimizedRMSD -1
REMARK  0 active torsions:
REMARK  status: ('A' for Active; 'I' for Inactive)
ROOT
ATOM      1  C   UNL d   1       3.233  -1.032  -2.020  0.00  0.00     0.020 A 
ATOM      2  C1  UNL d   1       2.371  -1.484  -1.022  0.00  0.00     0.020 A 
ATOM      3  C2  UNL d   1       1.211  -0.766  -0.723  0.00  0.00     0.034 A 
ATOM      4  C3  UNL d   1       0.910   0.408  -1.424  0.00  0.00     0.017 A 
ATOM      5  C4  UNL d   1       1.776   0.860  -2.426  0.00  0.00     0.017 A 
ATOM      6  C5  UNL d   1       2.936   0.137  -2.721  0.00  0.00     0.034 A 
ATOM      7 Cl   UNL d   1       1.471   2.299  -3.334  0.00  0.00    -0.070 Cl
ATOM      8 Cl1  UNL d   1      -0.542   1.245  -1.003  0.00  0.00    -0.070 Cl
ENDROOT
TORSDOF 0
ENDMDL
