MODEL 1
REMARK minimizedAffinity 2.953089
REMARK minimizedRMSD -1
REMARK  0 active torsions:
REMARK  status: ('A' for Active; 'I' for Inactive)
ROOT
ATOM      1  C   UNL d   1       2.886   1.575  -3.329  0.00  0.00     0.020 A 
ATOM      2  C1  UNL d   1       1.861   2.504  -3.158  0.00  0.00     0.020 A 
ATOM      3  C2  UNL d   1       0.812   2.233  -2.276  0.00  0.00     0.034 A 
ATOM      4  C3  UNL d   1       0.786   1.029  -1.563  0.00  0.00     0.017 A 
ATOM      5  C4  UNL d   1       1.816   0.097  -1.735  0.00  0.00     0.017 A 
ATOM      6  C5  UNL d   1       2.864   0.374  -2.619  0.00  0.00     0.034 A 
ATOM      7 Cl   UNL d   1       1.853  -1.410  -0.890  0.00  0.00    -0.070 Cl
ATOM      8 Cl1  UNL d   1      -0.541   0.759  -0.490  0.00  0.00    -0.070 Cl
ENDROOT
TORSDOF 0
ENDMDL
