MODEL 1
REMARK minimizedAffinity -2.44502544
REMARK minimizedRMSD -1
REMARK  3 active torsions:
REMARK  status: ('A' for Active; 'I' for Inactive)
REMARK    1  A    between atoms: C3'_2  and  C2'_3 
REMARK    2  A    between atoms: C2'_3  and  C1'_4 
REMARK    3  A    between atoms: C1'_4  and  C1_5 
ROOT
ATOM      1  C1  N4B d   1       0.499   0.149   0.248  0.00  0.00    -0.075 A 
ATOM      2  C2  N4B d   1       1.017  -1.152   0.061  0.00  0.00     0.002 A 
ATOM      3  C3  N4B d   1       2.365  -1.379   0.187  0.00  0.00     0.002 A 
ATOM      4  C4  N4B d   1       3.214  -0.322   0.479  0.00  0.00    -0.004 A 
ATOM      5  C5  N4B d   1       2.704   0.927   0.682  0.00  0.00     0.002 A 
ATOM      6  C6  N4B d   1       1.350   1.169   0.563  0.00  0.00     0.002 A 
ENDROOT
BRANCH   1   7
ATOM      7  C1' N4B d   1      -0.957   0.462   0.036  0.00  0.00     0.057 C 
BRANCH   7   8
ATOM      8  C2' N4B d   1      -1.382  -0.038  -1.341  0.00  0.00     0.009 C 
BRANCH   8   9
ATOM      9  C3' N4B d   1      -2.162   1.012  -2.112  0.00  0.00     0.004 C 
ATOM     10  C4' N4B d   1      -2.286   0.690  -3.571  0.00  0.00     0.003 C 
ENDBRANCH   8   9
ENDBRANCH   7   8
ENDBRANCH   1   7
TORSDOF 3
ENDMDL
