MODEL 1
REMARK minimizedAffinity -6.2153554
REMARK minimizedRMSD -1
REMARK  3 active torsions:
REMARK  status: ('A' for Active; 'I' for Inactive)
REMARK    1  A    between atoms: C3'_2  and  C2'_3 
REMARK    2  A    between atoms: C2'_3  and  C1'_4 
REMARK    3  A    between atoms: C1'_4  and  C1_5 
ROOT
ATOM      1  C1  N4B d   1       0.811  -0.319   0.430  0.00  0.00    -0.075 A 
ATOM      2  C2  N4B d   1       2.055   0.293   0.701  0.00  0.00     0.002 A 
ATOM      3  C3  N4B d   1       2.971  -0.340   1.504  0.00  0.00     0.002 A 
ATOM      4  C4  N4B d   1       2.659  -1.571   2.061  0.00  0.00    -0.004 A 
ATOM      5  C5  N4B d   1       1.466  -2.167   1.775  0.00  0.00     0.002 A 
ATOM      6  C6  N4B d   1       0.538  -1.544   0.965  0.00  0.00     0.002 A 
ENDROOT
BRANCH   1   7
ATOM      7  C1' N4B d   1      -0.256   0.373  -0.373  0.00  0.00     0.057 C 
BRANCH   7   8
ATOM      8  C2' N4B d   1      -1.504  -0.504  -0.408  0.00  0.00     0.009 C 
BRANCH   8   9
ATOM      9  C3' N4B d   1      -2.434  -0.123  -1.547  0.00  0.00     0.004 C 
ATOM     10  C4' N4B d   1      -2.573  -1.209  -2.572  0.00  0.00     0.003 C 
ENDBRANCH   8   9
ENDBRANCH   7   8
ENDBRANCH   1   7
TORSDOF 3
ENDMDL
