MODEL 1
REMARK minimizedAffinity -6.40936375
REMARK minimizedRMSD -1
REMARK  3 active torsions:
REMARK  status: ('A' for Active; 'I' for Inactive)
REMARK    1  A    between atoms: C3'_2  and  C2'_3 
REMARK    2  A    between atoms: C2'_3  and  C1'_4 
REMARK    3  A    between atoms: C1'_4  and  C1_5 
ROOT
ATOM      1  C1  N4B d   1       0.477  -0.264   0.392  0.00  0.00    -0.075 A 
ATOM      2  C2  N4B d   1       1.327   0.862   0.323  0.00  0.00     0.002 A 
ATOM      3  C3  N4B d   1       2.622   0.773   0.772  0.00  0.00     0.002 A 
ATOM      4  C4  N4B d   1       3.081  -0.420   1.309  0.00  0.00    -0.004 A 
ATOM      5  C5  N4B d   1       2.261  -1.510   1.349  0.00  0.00     0.002 A 
ATOM      6  C6  N4B d   1       0.959  -1.436   0.897  0.00  0.00     0.002 A 
ENDROOT
BRANCH   1   7
ATOM      7  C1' N4B d   1      -0.972  -0.190  -0.007  0.00  0.00     0.057 C 
BRANCH   7   8
ATOM      8  C2' N4B d   1      -1.131  -0.744  -1.420  0.00  0.00     0.009 C 
BRANCH   8   9
ATOM      9  C3' N4B d   1      -2.369  -0.196  -2.109  0.00  0.00     0.004 C 
ATOM     10  C4' N4B d   1      -2.142   0.100  -3.561  0.00  0.00     0.003 C 
ENDBRANCH   8   9
ENDBRANCH   7   8
ENDBRANCH   1   7
TORSDOF 3
ENDMDL
