MODEL 1
REMARK minimizedAffinity -4.78680992
REMARK minimizedRMSD -1
REMARK  3 active torsions:
REMARK  status: ('A' for Active; 'I' for Inactive)
REMARK    1  A    between atoms: C3'_2  and  C2'_3 
REMARK    2  A    between atoms: C2'_3  and  C1'_4 
REMARK    3  A    between atoms: C1'_4  and  C1_5 
ROOT
ATOM      1  C1  N4B d   1       0.166   0.116  -0.151  0.00  0.00    -0.075 A 
ATOM      2  C2  N4B d   1       0.944   1.280   0.036  0.00  0.00     0.002 A 
ATOM      3  C3  N4B d   1       2.195   1.187   0.595  0.00  0.00     0.002 A 
ATOM      4  C4  N4B d   1       2.679  -0.051   0.991  0.00  0.00    -0.004 A 
ATOM      5  C5  N4B d   1       1.931  -1.173   0.784  0.00  0.00     0.002 A 
ATOM      6  C6  N4B d   1       0.674  -1.095   0.220  0.00  0.00     0.002 A 
ENDROOT
BRANCH   1   7
ATOM      7  C1' N4B d   1      -1.242   0.178  -0.679  0.00  0.00     0.057 C 
BRANCH   7   8
ATOM      8  C2' N4B d   1      -1.456  -0.965  -1.667  0.00  0.00     0.009 C 
BRANCH   8   9
ATOM      9  C3' N4B d   1      -2.556  -0.652  -2.667  0.00  0.00     0.004 C 
ATOM     10  C4' N4B d   1      -2.230   0.521  -3.542  0.00  0.00     0.003 C 
ENDBRANCH   8   9
ENDBRANCH   7   8
ENDBRANCH   1   7
TORSDOF 3
ENDMDL
