MODEL 1
REMARK minimizedAffinity 7.59796286
REMARK minimizedRMSD -1
REMARK  1 active torsions:
REMARK  status: ('A' for Active; 'I' for Inactive)
REMARK    1  A    between atoms: N_2  and  C1_3 
ROOT
ATOM      1  C1  UNL d   1      -5.787   5.280   3.481  0.00  0.00     0.143 A 
ATOM      2  C2  UNL d   1      -5.332   3.960   3.567  0.00  0.00    -0.057 A 
ATOM      3  C3  UNL d   1      -5.098   3.351   4.806  0.00  0.00     0.033 A 
ATOM      4  C4  UNL d   1      -5.288   4.065   5.985  0.00  0.00    -0.042 A 
ATOM      5  C5  UNL d   1      -5.715   5.386   5.923  0.00  0.00     0.033 A 
ATOM      6  C6  UNL d   1      -5.954   5.986   4.683  0.00  0.00    -0.057 A 
ENDROOT
BRANCH   1   7
ATOM      7  N   UNL d   1      -5.943   5.973   2.278  0.00  0.00    -0.732 N 
ATOM      8  C   UNL d   1      -5.474   5.404   1.033  0.00  0.00     0.284 C 
ATOM      9  H3  UNL d   1      -6.848   6.433   2.210  0.00  0.00     0.395 HD
ENDBRANCH   1   7
TORSDOF 1
ENDMDL
