MODEL 1
REMARK minimizedAffinity 9.51546574
REMARK minimizedRMSD -1
REMARK  1 active torsions:
REMARK  status: ('A' for Active; 'I' for Inactive)
REMARK    1  A    between atoms: N_2  and  C1_3 
ROOT
ATOM      1  C1  UNL d   1      -5.028   4.111   3.794  0.00  0.00     0.143 A 
ATOM      2  C2  UNL d   1      -4.077   5.132   3.904  0.00  0.00    -0.057 A 
ATOM      3  C3  UNL d   1      -4.067   6.000   5.002  0.00  0.00     0.033 A 
ATOM      4  C4  UNL d   1      -5.029   5.881   6.000  0.00  0.00    -0.042 A 
ATOM      5  C5  UNL d   1      -5.999   4.889   5.899  0.00  0.00     0.033 A 
ATOM      6  C6  UNL d   1      -6.000   4.021   4.803  0.00  0.00    -0.057 A 
ENDROOT
BRANCH   1   7
ATOM      7  N   UNL d   1      -5.151   3.279   2.679  0.00  0.00    -0.732 N 
ATOM      8  C   UNL d   1      -4.898   3.789   1.348  0.00  0.00     0.284 C 
ATOM      9  H3  UNL d   1      -4.776   2.348   2.846  0.00  0.00     0.395 HD
ENDBRANCH   1   7
TORSDOF 1
ENDMDL
