MODEL 1
REMARK minimizedAffinity 8.22559452
REMARK minimizedRMSD -1
REMARK  1 active torsions:
REMARK  status: ('A' for Active; 'I' for Inactive)
REMARK    1  A    between atoms: N_2  and  C1_3 
ROOT
ATOM      1  C1  UNL d   1      -5.992   4.668   2.652  0.00  0.00     0.143 A 
ATOM      2  C2  UNL d   1      -5.974   3.517   3.448  0.00  0.00    -0.057 A 
ATOM      3  C3  UNL d   1      -5.991   3.600   4.845  0.00  0.00     0.033 A 
ATOM      4  C4  UNL d   1      -5.996   4.841   5.474  0.00  0.00    -0.042 A 
ATOM      5  C5  UNL d   1      -5.989   5.998   4.704  0.00  0.00     0.033 A 
ATOM      6  C6  UNL d   1      -5.979   5.909   3.309  0.00  0.00    -0.057 A 
ENDROOT
BRANCH   1   7
ATOM      7  N   UNL d   1      -5.877   4.653   1.260  0.00  0.00    -0.732 N 
ATOM      8  C   UNL d   1      -5.838   3.400   0.537  0.00  0.00     0.284 C 
ATOM      9  H3  UNL d   1      -6.443   5.372   0.816  0.00  0.00     0.395 HD
ENDBRANCH   1   7
TORSDOF 1
ENDMDL
