MODEL 1
REMARK minimizedAffinity 8.90805817
REMARK minimizedRMSD -1
REMARK  1 active torsions:
REMARK  status: ('A' for Active; 'I' for Inactive)
REMARK    1  A    between atoms: N_2  and  C1_3 
ROOT
ATOM      1  C1  UNL d   1       2.767   0.736  -0.770  0.00  0.00     0.143 A 
ATOM      2  C2  UNL d   1       3.399   1.373  -1.843  0.00  0.00    -0.057 A 
ATOM      3  C3  UNL d   1       4.758   1.708  -1.791  0.00  0.00     0.033 A 
ATOM      4  C4  UNL d   1       5.504   1.436  -0.649  0.00  0.00    -0.042 A 
ATOM      5  C5  UNL d   1       4.890   0.826   0.439  0.00  0.00     0.033 A 
ATOM      6  C6  UNL d   1       3.535   0.488   0.379  0.00  0.00    -0.057 A 
ENDROOT
BRANCH   1   7
ATOM      7  N   UNL d   1       1.397   0.467  -0.723  0.00  0.00    -0.732 N 
ATOM      8  C   UNL d   1       0.431   1.538  -0.836  0.00  0.00     0.284 C 
ATOM      9  H3  UNL d   1       1.148  -0.374  -1.240  0.00  0.00     0.395 HD
ENDBRANCH   1   7
TORSDOF 1
ENDMDL
