MODEL 1
REMARK minimizedAffinity -0.62483418
REMARK minimizedRMSD -1
REMARK  1 active torsions:
REMARK  status: ('A' for Active; 'I' for Inactive)
REMARK    1  A    between atoms: N_2  and  C1_3 
ROOT
ATOM      1  C1  UNL d   1       3.011   0.753  -0.684  0.00  0.00     0.143 A 
ATOM      2  C2  UNL d   1       2.149  -0.271  -1.091  0.00  0.00    -0.057 A 
ATOM      3  C3  UNL d   1       2.029  -1.455  -0.353  0.00  0.00     0.033 A 
ATOM      4  C4  UNL d   1       2.793  -1.649   0.792  0.00  0.00    -0.042 A 
ATOM      5  C5  UNL d   1       3.675  -0.655   1.202  0.00  0.00     0.033 A 
ATOM      6  C6  UNL d   1       3.786   0.528   0.465  0.00  0.00    -0.057 A 
ENDROOT
BRANCH   1   7
ATOM      7  N   UNL d   1       3.247   1.912  -1.427  0.00  0.00    -0.732 N 
ATOM      8  C   UNL d   1       4.595   2.285  -1.802  0.00  0.00     0.284 C 
ATOM      9  H3  UNL d   1       2.558   2.049  -2.163  0.00  0.00     0.395 HD
ENDBRANCH   1   7
TORSDOF 1
ENDMDL
