MODEL 1
REMARK minimizedAffinity 11.8421907
REMARK minimizedRMSD -1
REMARK  1 active torsions:
REMARK  status: ('A' for Active; 'I' for Inactive)
REMARK    1  A    between atoms: N_2  and  C1_3 
ROOT
ATOM      1  C1  UNL d   1       3.233   1.415  -1.086  0.00  0.00     0.143 A 
ATOM      2  C2  UNL d   1       3.000   0.092  -1.475  0.00  0.00    -0.057 A 
ATOM      3  C3  UNL d   1       2.524  -0.860  -0.565  0.00  0.00     0.033 A 
ATOM      4  C4  UNL d   1       2.299  -0.510   0.762  0.00  0.00    -0.042 A 
ATOM      5  C5  UNL d   1       2.547   0.793   1.178  0.00  0.00     0.033 A 
ATOM      6  C6  UNL d   1       3.016   1.741   0.263  0.00  0.00    -0.057 A 
ENDROOT
BRANCH   1   7
ATOM      7  N   UNL d   1       3.799   2.383  -1.919  0.00  0.00    -0.732 N 
ATOM      8  C   UNL d   1       5.006   2.099  -2.665  0.00  0.00     0.284 C 
ATOM      9  H3  UNL d   1       3.099   2.902  -2.444  0.00  0.00     0.395 HD
ENDBRANCH   1   7
TORSDOF 1
ENDMDL
