MODEL 1
REMARK minimizedAffinity 1.07331574
REMARK minimizedRMSD -1
REMARK  0 active torsions:
REMARK  status: ('A' for Active; 'I' for Inactive)
ROOT
ATOM      1  N1  IND d   1      -5.625   0.722  -2.131  0.00  0.00    -0.196 N 
ATOM      2  C2  IND d   1      -4.734   1.302  -2.990  0.00  0.00     0.054 A 
ATOM      3  C3  IND d   1      -3.907   2.134  -2.319  0.00  0.00    -0.031 A 
ATOM      4  C4  IND d   1      -3.772   2.621   0.205  0.00  0.00     0.051 A 
ATOM      5  C5  IND d   1      -4.403   2.357   1.389  0.00  0.00    -0.031 A 
ATOM      6  C6  IND d   1      -5.494   1.515   1.461  0.00  0.00     0.015 A 
ATOM      7  C7  IND d   1      -5.990   0.894   0.349  0.00  0.00    -0.016 A 
ATOM      8  C8  IND d   1      -5.356   1.166  -0.855  0.00  0.00    -0.047 A 
ATOM      9  C9  IND d   1      -4.275   2.053  -0.941  0.00  0.00    -0.096 A 
ATOM     10  HN1 IND d   1      -6.250   0.173  -2.351  0.00  0.00     0.298 HD
ENDROOT
TORSDOF 0
ENDMDL
