MODEL 1
REMARK minimizedAffinity 2.29602265
REMARK minimizedRMSD -1
REMARK  0 active torsions:
REMARK  status: ('A' for Active; 'I' for Inactive)
ROOT
ATOM      1  N1  IND d   1       2.881  -0.640   2.417  0.00  0.00    -0.196 N 
ATOM      2  C2  IND d   1       1.544  -0.611   2.132  0.00  0.00     0.054 A 
ATOM      3  C3  IND d   1       0.940  -1.728   2.597  0.00  0.00    -0.031 A 
ATOM      4  C4  IND d   1       1.932  -3.685   3.944  0.00  0.00     0.051 A 
ATOM      5  C5  IND d   1       3.117  -4.176   4.416  0.00  0.00    -0.031 A 
ATOM      6  C6  IND d   1       4.307  -3.499   4.245  0.00  0.00     0.015 A 
ATOM      7  C7  IND d   1       4.355  -2.294   3.603  0.00  0.00    -0.016 A 
ATOM      8  C8  IND d   1       3.155  -1.795   3.116  0.00  0.00    -0.047 A 
ATOM      9  C9  IND d   1       1.951  -2.499   3.248  0.00  0.00    -0.096 A 
ATOM     10  HN1 IND d   1       3.454  -0.038   2.198  0.00  0.00     0.298 HD
ENDROOT
TORSDOF 0
ENDMDL
