MODEL 1
REMARK minimizedAffinity 6.81941319
REMARK minimizedRMSD -1
REMARK  0 active torsions:
REMARK  status: ('A' for Active; 'I' for Inactive)
ROOT
ATOM      1  N1  IND d   1       1.582  -4.265   0.121  0.00  0.00    -0.196 N 
ATOM      2  C2  IND d   1       1.482  -3.734  -1.134  0.00  0.00     0.054 A 
ATOM      3  C3  IND d   1       1.412  -2.385  -1.070  0.00  0.00    -0.031 A 
ATOM      4  C4  IND d   1       1.544  -0.836   0.982  0.00  0.00     0.051 A 
ATOM      5  C5  IND d   1       1.599  -0.860   2.347  0.00  0.00    -0.031 A 
ATOM      6  C6  IND d   1       1.656  -2.043   3.055  0.00  0.00     0.015 A 
ATOM      7  C7  IND d   1       1.670  -3.253   2.419  0.00  0.00    -0.016 A 
ATOM      8  C8  IND d   1       1.607  -3.233   1.033  0.00  0.00    -0.047 A 
ATOM      9  C9  IND d   1       1.507  -2.036   0.312  0.00  0.00    -0.096 A 
ATOM     10  HN1 IND d   1       1.622  -5.103   0.310  0.00  0.00     0.298 HD
ENDROOT
TORSDOF 0
ENDMDL
