MODEL 1
REMARK minimizedAffinity 2.9414928
REMARK minimizedRMSD -1
REMARK  0 active torsions:
REMARK  status: ('A' for Active; 'I' for Inactive)
ROOT
ATOM      1  N1  IND d   1      -5.870   2.074   1.901  0.00  0.00    -0.196 N 
ATOM      2  C2  IND d   1      -5.904   0.748   1.571  0.00  0.00     0.054 A 
ATOM      3  C3  IND d   1      -5.988   0.598   0.230  0.00  0.00    -0.031 A 
ATOM      4  C4  IND d   1      -5.980   2.390  -1.618  0.00  0.00     0.051 A 
ATOM      5  C5  IND d   1      -5.999   3.744  -1.807  0.00  0.00    -0.031 A 
ATOM      6  C6  IND d   1      -5.973   4.628  -0.747  0.00  0.00     0.015 A 
ATOM      7  C7  IND d   1      -5.915   4.189   0.545  0.00  0.00    -0.016 A 
ATOM      8  C8  IND d   1      -5.903   2.815   0.740  0.00  0.00    -0.047 A 
ATOM      9  C9  IND d   1      -5.972   1.913  -0.329  0.00  0.00    -0.096 A 
ATOM     10  HN1 IND d   1      -5.835   2.391   2.699  0.00  0.00     0.298 HD
ENDROOT
TORSDOF 0
ENDMDL
