MODEL 1
REMARK minimizedAffinity 3.1888206
REMARK minimizedRMSD -1
REMARK  0 active torsions:
REMARK  status: ('A' for Active; 'I' for Inactive)
ROOT
ATOM      1  N1  IND d   1      -3.806   1.890  -2.289  0.00  0.00    -0.196 N 
ATOM      2  C2  IND d   1      -4.964   1.872  -3.016  0.00  0.00     0.054 A 
ATOM      3  C3  IND d   1      -5.998   2.313  -2.264  0.00  0.00    -0.031 A 
ATOM      4  C4  IND d   1      -6.000   3.209   0.149  0.00  0.00     0.051 A 
ATOM      5  C5  IND d   1      -5.187   3.386   1.233  0.00  0.00    -0.031 A 
ATOM      6  C6  IND d   1      -3.845   3.068   1.197  0.00  0.00     0.015 A 
ATOM      7  C7  IND d   1      -3.260   2.571   0.067  0.00  0.00    -0.016 A 
ATOM      8  C8  IND d   1      -4.084   2.385  -1.034  0.00  0.00    -0.047 A 
ATOM      9  C9  IND d   1      -5.456   2.665  -0.990  0.00  0.00    -0.096 A 
ATOM     10  HN1 IND d   1      -3.034   1.635  -2.569  0.00  0.00     0.298 HD
ENDROOT
TORSDOF 0
ENDMDL
