MODEL 1
REMARK minimizedAffinity 0.132650346
REMARK minimizedRMSD -1
REMARK  0 active torsions:
REMARK  status: ('A' for Active; 'I' for Inactive)
ROOT
ATOM      1  C2' OXE d   1      -0.360  -1.279   0.627  0.00  0.00     0.078 C 
ATOM      2  C1' OXE d   1       1.907   0.363   0.408  0.00  0.00     0.078 C 
ATOM      3  C1  OXE d   1       0.584   1.025   0.706  0.00  0.00    -0.078 A 
ATOM      4  C2  OXE d   1      -0.527   0.219   0.765  0.00  0.00    -0.078 A 
ATOM      5  C3  OXE d   1      -1.762   0.771   1.091  0.00  0.00     0.003 A 
ATOM      6  C4  OXE d   1      -1.910   2.159   1.207  0.00  0.00    -0.002 A 
ATOM      7  C5  OXE d   1      -0.798   3.002   1.111  0.00  0.00    -0.002 A 
ATOM      8  C6  OXE d   1       0.461   2.448   0.903  0.00  0.00     0.003 A 
ENDROOT
TORSDOF 0
ENDMDL
