MODEL 1
REMARK minimizedAffinity -0.728048742
REMARK minimizedRMSD -1
REMARK  0 active torsions:
REMARK  status: ('A' for Active; 'I' for Inactive)
ROOT
ATOM      1  C2' OXE d   1       0.060  -1.150  -1.027  0.00  0.00     0.078 C 
ATOM      2  C1' OXE d   1       1.972   0.141   0.573  0.00  0.00     0.078 C 
ATOM      3  C1  OXE d   1       0.570   0.698   0.564  0.00  0.00    -0.078 A 
ATOM      4  C2  OXE d   1      -0.347   0.088  -0.258  0.00  0.00    -0.078 A 
ATOM      5  C3  OXE d   1      -1.668   0.528  -0.262  0.00  0.00     0.003 A 
ATOM      6  C4  OXE d   1      -2.034   1.679   0.445  0.00  0.00    -0.002 A 
ATOM      7  C5  OXE d   1      -1.106   2.339   1.257  0.00  0.00    -0.002 A 
ATOM      8  C6  OXE d   1       0.187   1.837   1.361  0.00  0.00     0.003 A 
ENDROOT
TORSDOF 0
ENDMDL
