MODEL 1
REMARK minimizedAffinity 1.4255147
REMARK minimizedRMSD -1
REMARK  0 active torsions:
REMARK  status: ('A' for Active; 'I' for Inactive)
ROOT
ATOM      1  C2' OXE d   1       2.260   2.201   1.569  0.00  0.00     0.078 C 
ATOM      2  C1' OXE d   1       1.697  -0.317   0.465  0.00  0.00     0.078 C 
ATOM      3  C1  OXE d   1       0.550   0.644   0.644  0.00  0.00    -0.078 A 
ATOM      4  C2  OXE d   1       0.826   1.857   1.229  0.00  0.00    -0.078 A 
ATOM      5  C3  OXE d   1      -0.186   2.802   1.368  0.00  0.00     0.003 A 
ATOM      6  C4  OXE d   1      -1.511   2.472   1.060  0.00  0.00    -0.002 A 
ATOM      7  C5  OXE d   1      -1.821   1.228   0.501  0.00  0.00    -0.002 A 
ATOM      8  C6  OXE d   1      -0.798   0.320   0.248  0.00  0.00     0.003 A 
ENDROOT
TORSDOF 0
ENDMDL
