MODEL 1
REMARK minimizedAffinity 2.18283629
REMARK minimizedRMSD -1
REMARK  0 active torsions:
REMARK  status: ('A' for Active; 'I' for Inactive)
ROOT
ATOM      1  C2' OXE d   1      -0.403   3.568   0.315  0.00  0.00     0.078 C 
ATOM      2  C1' OXE d   1       1.214   1.304   0.689  0.00  0.00     0.078 C 
ATOM      3  C1  OXE d   1      -0.281   1.121   0.765  0.00  0.00    -0.078 A 
ATOM      4  C2  OXE d   1      -1.063   2.242   0.627  0.00  0.00    -0.078 A 
ATOM      5  C3  OXE d   1      -2.450   2.120   0.634  0.00  0.00     0.003 A 
ATOM      6  C4  OXE d   1      -3.052   0.892   0.933  0.00  0.00    -0.002 A 
ATOM      7  C5  OXE d   1      -2.273  -0.255   1.117  0.00  0.00    -0.002 A 
ATOM      8  C6  OXE d   1      -0.890  -0.166   0.994  0.00  0.00     0.003 A 
ENDROOT
TORSDOF 0
ENDMDL
