MODEL 1
REMARK minimizedAffinity 0.944256604
REMARK minimizedRMSD -1
REMARK  0 active torsions:
REMARK  status: ('A' for Active; 'I' for Inactive)
ROOT
ATOM      1  C2' OXE d   1       1.686   0.748   0.737  0.00  0.00     0.078 C 
ATOM      2  C1' OXE d   1       0.668   3.272   1.425  0.00  0.00     0.078 C 
ATOM      3  C1  OXE d   1      -0.316   2.146   1.232  0.00  0.00    -0.078 A 
ATOM      4  C2  OXE d   1       0.187   0.926   0.850  0.00  0.00    -0.078 A 
ATOM      5  C3  OXE d   1      -0.672  -0.161   0.712  0.00  0.00     0.003 A 
ATOM      6  C4  OXE d   1      -2.058   0.014   0.808  0.00  0.00    -0.002 A 
ATOM      7  C5  OXE d   1      -2.594   1.258   1.158  0.00  0.00    -0.002 A 
ATOM      8  C6  OXE d   1      -1.736   2.322   1.414  0.00  0.00     0.003 A 
ENDROOT
TORSDOF 0
ENDMDL
