MODEL 1
REMARK minimizedAffinity 4.05295515
REMARK minimizedRMSD -1
REMARK  0 active torsions:
REMARK  status: ('A' for Active; 'I' for Inactive)
ROOT
ATOM      1  C2' OXE d   1      -0.617  -1.451   1.004  0.00  0.00     0.078 C 
ATOM      2  C1' OXE d   1       1.386   0.468   0.574  0.00  0.00     0.078 C 
ATOM      3  C1  OXE d   1      -0.015   0.961   0.836  0.00  0.00    -0.078 A 
ATOM      4  C2  OXE d   1      -0.998   0.014   0.999  0.00  0.00    -0.078 A 
ATOM      5  C3  OXE d   1      -2.297   0.414   1.298  0.00  0.00     0.003 A 
ATOM      6  C4  OXE d   1      -2.643   1.771   1.282  0.00  0.00    -0.002 A 
ATOM      7  C5  OXE d   1      -1.665   2.750   1.079  0.00  0.00    -0.002 A 
ATOM      8  C6  OXE d   1      -0.341   2.364   0.897  0.00  0.00     0.003 A 
ENDROOT
TORSDOF 0
ENDMDL
