MODEL 1
REMARK minimizedAffinity -1.58134472
REMARK minimizedRMSD -1
REMARK  0 active torsions:
REMARK  status: ('A' for Active; 'I' for Inactive)
ROOT
ATOM      1  C2' OXE d   1      -1.091   3.003   1.109  0.00  0.00     0.078 C 
ATOM      2  C1' OXE d   1      -2.643   0.664   1.092  0.00  0.00     0.078 C 
ATOM      3  C1  OXE d   1      -1.147   0.517   0.966  0.00  0.00    -0.078 A 
ATOM      4  C2  OXE d   1      -0.399   1.669   0.928  0.00  0.00    -0.078 A 
ATOM      5  C3  OXE d   1       0.989   1.589   0.868  0.00  0.00     0.003 A 
ATOM      6  C4  OXE d   1       1.620   0.352   0.690  0.00  0.00    -0.002 A 
ATOM      7  C5  OXE d   1       0.874  -0.832   0.686  0.00  0.00    -0.002 A 
ATOM      8  C6  OXE d   1      -0.503  -0.770   0.865  0.00  0.00     0.003 A 
ENDROOT
TORSDOF 0
ENDMDL
