MODEL 1
REMARK minimizedAffinity 0.495030046
REMARK minimizedRMSD -1
REMARK  0 active torsions:
REMARK  status: ('A' for Active; 'I' for Inactive)
ROOT
ATOM      1  C2' OXE d   1      -1.493   0.496   0.430  0.00  0.00     0.078 C 
ATOM      2  C1' OXE d   1      -1.661   3.005   1.677  0.00  0.00     0.078 C 
ATOM      3  C1  OXE d   1      -0.289   2.421   1.454  0.00  0.00    -0.078 A 
ATOM      4  C2  OXE d   1      -0.218   1.172   0.886  0.00  0.00    -0.078 A 
ATOM      5  C3  OXE d   1       1.025   0.610   0.608  0.00  0.00     0.003 A 
ATOM      6  C4  OXE d   1       2.199   1.237   1.042  0.00  0.00    -0.002 A 
ATOM      7  C5  OXE d   1       2.147   2.492   1.659  0.00  0.00    -0.002 A 
ATOM      8  C6  OXE d   1       0.917   3.115   1.834  0.00  0.00     0.003 A 
ENDROOT
TORSDOF 0
ENDMDL
