MODEL 1
REMARK minimizedAffinity 1.941769
REMARK minimizedRMSD -1
REMARK  0 active torsions:
REMARK  status: ('A' for Active; 'I' for Inactive)
ROOT
ATOM      1  C2' OXE d   1      -0.275  -1.652   1.012  0.00  0.00     0.078 C 
ATOM      2  C1' OXE d   1       1.854   0.152   0.696  0.00  0.00     0.078 C 
ATOM      3  C1  OXE d   1       0.476   0.722   0.923  0.00  0.00    -0.078 A 
ATOM      4  C2  OXE d   1      -0.567  -0.167   1.030  0.00  0.00    -0.078 A 
ATOM      5  C3  OXE d   1      -1.850   0.304   1.294  0.00  0.00     0.003 A 
ATOM      6  C4  OXE d   1      -2.113   1.679   1.299  0.00  0.00    -0.002 A 
ATOM      7  C5  OXE d   1      -1.072   2.602   1.153  0.00  0.00    -0.002 A 
ATOM      8  C6  OXE d   1       0.232   2.141   1.007  0.00  0.00     0.003 A 
ENDROOT
TORSDOF 0
ENDMDL
