MODEL 1
REMARK minimizedAffinity 1.81582737
REMARK minimizedRMSD -1
REMARK  0 active torsions:
REMARK  status: ('A' for Active; 'I' for Inactive)
ROOT
ATOM      1  C2' OXE d   1      -0.780   3.228   3.782  0.00  0.00     0.078 C 
ATOM      2  C1' OXE d   1       1.994   2.817   3.650  0.00  0.00     0.078 C 
ATOM      3  C1  OXE d   1       1.171   2.453   2.440  0.00  0.00    -0.078 A 
ATOM      4  C2  OXE d   1      -0.191   2.614   2.530  0.00  0.00    -0.078 A 
ATOM      5  C3  OXE d   1      -0.991   2.345   1.424  0.00  0.00     0.003 A 
ATOM      6  C4  OXE d   1      -0.440   1.767   0.273  0.00  0.00    -0.002 A 
ATOM      7  C5  OXE d   1       0.940   1.558   0.176  0.00  0.00    -0.002 A 
ATOM      8  C6  OXE d   1       1.762   1.934   1.232  0.00  0.00     0.003 A 
ENDROOT
TORSDOF 0
ENDMDL
