MODEL 1
REMARK minimizedAffinity 1.49976301
REMARK minimizedRMSD -1
REMARK  0 active torsions:
REMARK  status: ('A' for Active; 'I' for Inactive)
ROOT
ATOM      1  C2' OXE d   1      -0.298  -1.932   0.976  0.00  0.00     0.078 C 
ATOM      2  C1' OXE d   1       1.760  -0.073   0.536  0.00  0.00     0.078 C 
ATOM      3  C1  OXE d   1       0.373   0.460   0.795  0.00  0.00    -0.078 A 
ATOM      4  C2  OXE d   1      -0.636  -0.457   0.963  0.00  0.00    -0.078 A 
ATOM      5  C3  OXE d   1      -1.924  -0.019   1.259  0.00  0.00     0.003 A 
ATOM      6  C4  OXE d   1      -2.230   1.347   1.236  0.00  0.00    -0.002 A 
ATOM      7  C5  OXE d   1      -1.225   2.297   1.028  0.00  0.00    -0.002 A 
ATOM      8  C6  OXE d   1       0.087   1.873   0.848  0.00  0.00     0.003 A 
ENDROOT
TORSDOF 0
ENDMDL
