MODEL 1
REMARK minimizedAffinity -0.867557049
REMARK minimizedRMSD -1
REMARK  0 active torsions:
REMARK  status: ('A' for Active; 'I' for Inactive)
ROOT
ATOM      1  C2' OXE d   1      -1.641   5.995  -5.208  0.00  0.00     0.078 C 
ATOM      2  C1' OXE d   1      -1.210   3.319  -5.940  0.00  0.00     0.078 C 
ATOM      3  C1  OXE d   1      -2.636   3.782  -5.773  0.00  0.00    -0.078 A 
ATOM      4  C2  OXE d   1      -2.836   5.080  -5.368  0.00  0.00    -0.078 A 
ATOM      5  C3  OXE d   1      -4.132   5.574  -5.251  0.00  0.00     0.003 A 
ATOM      6  C4  OXE d   1      -5.232   4.719  -5.392  0.00  0.00    -0.002 A 
ATOM      7  C5  OXE d   1      -5.049   3.383  -5.765  0.00  0.00    -0.002 A 
ATOM      8  C6  OXE d   1      -3.762   2.911  -6.000  0.00  0.00     0.003 A 
ENDROOT
TORSDOF 0
ENDMDL
