MODEL 1
REMARK minimizedAffinity 5.51131248
REMARK minimizedRMSD -1
REMARK  0 active torsions:
REMARK  status: ('A' for Active; 'I' for Inactive)
ROOT
ATOM      1  C2' OXE d   1      -0.806  -1.453   1.109  0.00  0.00     0.078 C 
ATOM      2  C1' OXE d   1       1.222   0.430   0.633  0.00  0.00     0.078 C 
ATOM      3  C1  OXE d   1      -0.202   0.925   0.679  0.00  0.00    -0.078 A 
ATOM      4  C2  OXE d   1      -1.191  -0.010   0.866  0.00  0.00    -0.078 A 
ATOM      5  C3  OXE d   1      -2.517   0.401   0.971  0.00  0.00     0.003 A 
ATOM      6  C4  OXE d   1      -2.867   1.736   0.736  0.00  0.00    -0.002 A 
ATOM      7  C5  OXE d   1      -1.878   2.698   0.504  0.00  0.00    -0.002 A 
ATOM      8  C6  OXE d   1      -0.541   2.317   0.515  0.00  0.00     0.003 A 
ENDROOT
TORSDOF 0
ENDMDL
