MODEL 1
REMARK minimizedAffinity 8.34818745
REMARK minimizedRMSD -1
REMARK  0 active torsions:
REMARK  status: ('A' for Active; 'I' for Inactive)
ROOT
ATOM      1  C2' OXE d   1       0.889   0.375   0.499  0.00  0.00     0.078 C 
ATOM      2  C1' OXE d   1      -1.446  -1.153   0.803  0.00  0.00     0.078 C 
ATOM      3  C1  OXE d   1      -1.578   0.349   0.844  0.00  0.00    -0.078 A 
ATOM      4  C2  OXE d   1      -0.424   1.088   0.741  0.00  0.00    -0.078 A 
ATOM      5  C3  OXE d   1      -0.495   2.478   0.719  0.00  0.00     0.003 A 
ATOM      6  C4  OXE d   1      -1.712   3.130   0.953  0.00  0.00    -0.002 A 
ATOM      7  C5  OXE d   1      -2.893   2.395   1.100  0.00  0.00    -0.002 A 
ATOM      8  C6  OXE d   1      -2.850   1.009   1.006  0.00  0.00     0.003 A 
ENDROOT
TORSDOF 0
ENDMDL
