MODEL 1
REMARK minimizedAffinity 16.1601887
REMARK minimizedRMSD -1
REMARK  0 active torsions:
REMARK  status: ('A' for Active; 'I' for Inactive)
ROOT
ATOM      1  C2' OXE d   1       5.994  -1.108  -2.847  0.00  0.00     0.078 C 
ATOM      2  C1' OXE d   1       4.533  -2.486  -0.886  0.00  0.00     0.078 C 
ATOM      3  C1  OXE d   1       3.789  -1.506  -1.759  0.00  0.00    -0.078 A 
ATOM      4  C2  OXE d   1       4.521  -0.802  -2.685  0.00  0.00    -0.078 A 
ATOM      5  C3  OXE d   1       3.875   0.074  -3.552  0.00  0.00     0.003 A 
ATOM      6  C4  OXE d   1       2.514   0.359  -3.389  0.00  0.00    -0.002 A 
ATOM      7  C5  OXE d   1       1.758  -0.318  -2.426  0.00  0.00    -0.002 A 
ATOM      8  C6  OXE d   1       2.370  -1.283  -1.633  0.00  0.00     0.003 A 
ENDROOT
TORSDOF 0
ENDMDL
