MODEL 1
REMARK minimizedAffinity 12.3124905
REMARK minimizedRMSD -1
REMARK  0 active torsions:
REMARK  status: ('A' for Active; 'I' for Inactive)
ROOT
ATOM      1  C2' OXE d   1       1.146  -0.732  -1.499  0.00  0.00     0.078 C 
ATOM      2  C1' OXE d   1       3.566  -0.309  -2.857  0.00  0.00     0.078 C 
ATOM      3  C1  OXE d   1       2.395   0.570  -3.217  0.00  0.00    -0.078 A 
ATOM      4  C2  OXE d   1       1.202   0.325  -2.581  0.00  0.00    -0.078 A 
ATOM      5  C3  OXE d   1       0.104   1.142  -2.835  0.00  0.00     0.003 A 
ATOM      6  C4  OXE d   1       0.161   2.111  -3.845  0.00  0.00    -0.002 A 
ATOM      7  C5  OXE d   1       1.355   2.351  -4.533  0.00  0.00    -0.002 A 
ATOM      8  C6  OXE d   1       2.490   1.619  -4.202  0.00  0.00     0.003 A 
ENDROOT
TORSDOF 0
ENDMDL
