MODEL 1
REMARK minimizedAffinity 3.81600904
REMARK minimizedRMSD -1
REMARK  0 active torsions:
REMARK  status: ('A' for Active; 'I' for Inactive)
ROOT
ATOM      1  C2' OXE d   1       1.883  -0.831   0.854  0.00  0.00     0.078 C 
ATOM      2  C1' OXE d   1       1.767   1.817  -0.073  0.00  0.00     0.078 C 
ATOM      3  C1  OXE d   1       2.136   0.740  -1.063  0.00  0.00    -0.078 A 
ATOM      4  C2  OXE d   1       2.236  -0.546  -0.590  0.00  0.00    -0.078 A 
ATOM      5  C3  OXE d   1       2.519  -1.585  -1.473  0.00  0.00     0.003 A 
ATOM      6  C4  OXE d   1       2.854  -1.312  -2.804  0.00  0.00    -0.002 A 
ATOM      7  C5  OXE d   1       2.797  -0.004  -3.297  0.00  0.00    -0.002 A 
ATOM      8  C6  OXE d   1       2.399   1.026  -2.452  0.00  0.00     0.003 A 
ENDROOT
TORSDOF 0
ENDMDL
