MODEL 1
REMARK minimizedAffinity 0.243536457
REMARK minimizedRMSD -1
REMARK  1 active torsions:
REMARK  status: ('A' for Active; 'I' for Inactive)
REMARK    1  A    between atoms: N_2  and  C1_3 
ROOT
ATOM      1  C1  UNL d   1      -1.362  -1.244  -1.893  0.00  0.00     0.143 A 
ATOM      2  C2  UNL d   1      -2.182  -0.213  -1.424  0.00  0.00    -0.057 A 
ATOM      3  C3  UNL d   1      -1.714   1.104  -1.332  0.00  0.00     0.033 A 
ATOM      4  C4  UNL d   1      -0.402   1.407  -1.681  0.00  0.00    -0.042 A 
ATOM      5  C5  UNL d   1       0.439   0.394  -2.126  0.00  0.00     0.033 A 
ATOM      6  C6  UNL d   1      -0.037  -0.918  -2.222  0.00  0.00    -0.057 A 
ENDROOT
BRANCH   1   7
ATOM      7  N   UNL d   1      -1.738  -2.589  -1.914  0.00  0.00    -0.732 N 
ATOM      8  C   UNL d   1      -0.770  -3.630  -1.644  0.00  0.00     0.284 C 
ATOM      9  H3  UNL d   1      -2.647  -2.745  -1.483  0.00  0.00     0.395 HD
ENDBRANCH   1   7
TORSDOF 1
ENDMDL
