MODEL 1
REMARK minimizedAffinity 5.7796874
REMARK minimizedRMSD -1
REMARK  1 active torsions:
REMARK  status: ('A' for Active; 'I' for Inactive)
REMARK    1  A    between atoms: N_2  and  C1_3 
ROOT
ATOM      1  C1  UNL d   1      -0.400   1.624  -0.412  0.00  0.00     0.143 A 
ATOM      2  C2  UNL d   1      -1.344   2.001  -1.374  0.00  0.00    -0.057 A 
ATOM      3  C3  UNL d   1      -1.377   1.394  -2.635  0.00  0.00     0.033 A 
ATOM      4  C4  UNL d   1      -0.444   0.417  -2.969  0.00  0.00    -0.042 A 
ATOM      5  C5  UNL d   1       0.519   0.045  -2.038  0.00  0.00     0.033 A 
ATOM      6  C6  UNL d   1       0.542   0.650  -0.777  0.00  0.00    -0.057 A 
ENDROOT
BRANCH   1   7
ATOM      7  N   UNL d   1      -0.253   2.258   0.824  0.00  0.00    -0.732 N 
ATOM      8  C   UNL d   1      -0.066   1.484   2.032  0.00  0.00     0.284 C 
ATOM      9  H3  UNL d   1       0.332   3.089   0.767  0.00  0.00     0.395 HD
ENDBRANCH   1   7
TORSDOF 1
ENDMDL
