MODEL 1
REMARK minimizedAffinity 1.86519563
REMARK minimizedRMSD -1
REMARK  1 active torsions:
REMARK  status: ('A' for Active; 'I' for Inactive)
REMARK    1  A    between atoms: N_2  and  C1_3 
ROOT
ATOM      1  C1  UNL d   1       4.165  -3.578  -1.428  0.00  0.00     0.143 A 
ATOM      2  C2  UNL d   1       5.156  -4.256  -0.709  0.00  0.00    -0.057 A 
ATOM      3  C3  UNL d   1       5.902  -5.285  -1.295  0.00  0.00     0.033 A 
ATOM      4  C4  UNL d   1       5.650  -5.677  -2.606  0.00  0.00    -0.042 A 
ATOM      5  C5  UNL d   1       4.653  -5.034  -3.331  0.00  0.00     0.033 A 
ATOM      6  C6  UNL d   1       3.916  -4.002  -2.743  0.00  0.00    -0.057 A 
ENDROOT
BRANCH   1   7
ATOM      7  N   UNL d   1       3.323  -2.613  -0.871  0.00  0.00    -0.732 N 
ATOM      8  C   UNL d   1       3.517  -1.209  -1.162  0.00  0.00     0.284 C 
ATOM      9  H3  UNL d   1       2.348  -2.906  -0.865  0.00  0.00     0.395 HD
ENDBRANCH   1   7
TORSDOF 1
ENDMDL
