MODEL 1
REMARK minimizedAffinity 4.87000418
REMARK minimizedRMSD -1
REMARK  1 active torsions:
REMARK  status: ('A' for Active; 'I' for Inactive)
REMARK    1  A    between atoms: N_2  and  C1_3 
ROOT
ATOM      1  C1  UNL d   1       0.496   0.958   1.719  0.00  0.00     0.143 A 
ATOM      2  C2  UNL d   1       0.123   0.992   0.371  0.00  0.00    -0.057 A 
ATOM      3  C3  UNL d   1       0.338  -0.107  -0.469  0.00  0.00     0.033 A 
ATOM      4  C4  UNL d   1       0.959  -1.253   0.019  0.00  0.00    -0.042 A 
ATOM      5  C5  UNL d   1       1.361  -1.299   1.349  0.00  0.00     0.033 A 
ATOM      6  C6  UNL d   1       1.137  -0.200   2.185  0.00  0.00    -0.057 A 
ENDROOT
BRANCH   1   7
ATOM      7  N   UNL d   1       0.398   2.054   2.581  0.00  0.00    -0.732 N 
ATOM      8  C   UNL d   1       1.390   3.107   2.549  0.00  0.00     0.284 C 
ATOM      9  H3  UNL d   1      -0.558   2.387   2.679  0.00  0.00     0.395 HD
ENDBRANCH   1   7
TORSDOF 1
ENDMDL
