MODEL 1
REMARK minimizedAffinity 0.325341672
REMARK minimizedRMSD -1
REMARK  1 active torsions:
REMARK  status: ('A' for Active; 'I' for Inactive)
REMARK    1  A    between atoms: N_2  and  C1_3 
ROOT
ATOM      1  C1  UNL d   1      -0.713  -0.627  -0.336  0.00  0.00     0.143 A 
ATOM      2  C2  UNL d   1      -0.377  -0.758   1.015  0.00  0.00    -0.057 A 
ATOM      3  C3  UNL d   1       0.563   0.088   1.615  0.00  0.00     0.033 A 
ATOM      4  C4  UNL d   1       1.206   1.066   0.864  0.00  0.00    -0.042 A 
ATOM      5  C5  UNL d   1       0.906   1.199  -0.487  0.00  0.00     0.033 A 
ATOM      6  C6  UNL d   1      -0.038   0.354  -1.079  0.00  0.00    -0.057 A 
ENDROOT
BRANCH   1   7
ATOM      7  N   UNL d   1      -1.566  -1.501  -1.014  0.00  0.00    -0.732 N 
ATOM      8  C   UNL d   1      -1.255  -2.912  -1.107  0.00  0.00     0.284 C 
ATOM      9  H3  UNL d   1      -2.548  -1.304  -0.834  0.00  0.00     0.395 HD
ENDBRANCH   1   7
TORSDOF 1
ENDMDL
