MODEL 1
REMARK minimizedAffinity 0.0673700646
REMARK minimizedRMSD -1
REMARK  0 active torsions:
REMARK  status: ('A' for Active; 'I' for Inactive)
ROOT
ATOM      1  C   UNL d   1       3.181   1.516   0.039  0.00  0.00     0.078 C 
ATOM      2  C1  UNL d   1       3.121   0.091  -0.424  0.00  0.00    -0.077 A 
ATOM      3  C2  UNL d   1       3.912  -0.354  -1.491  0.00  0.00    -0.001 A 
ATOM      4  C3  UNL d   1       3.839  -1.681  -1.918  0.00  0.00     0.003 A 
ATOM      5  C4  UNL d   1       2.976  -2.573  -1.285  0.00  0.00    -0.005 A 
ATOM      6  C5  UNL d   1       2.183  -2.139  -0.225  0.00  0.00     0.003 A 
ATOM      7  C6  UNL d   1       2.255  -0.812   0.204  0.00  0.00    -0.001 A 
ENDROOT
TORSDOF 0
ENDMDL
