MODEL 1
REMARK minimizedAffinity 5.01615
REMARK minimizedRMSD -1
REMARK  0 active torsions:
REMARK  status: ('A' for Active; 'I' for Inactive)
ROOT
ATOM      1  C   UNL d   1      -5.229   0.540  -0.955  0.00  0.00     0.078 C 
ATOM      2  C1  UNL d   1      -3.803   0.986  -1.084  0.00  0.00    -0.077 A 
ATOM      3  C2  UNL d   1      -2.973   0.466  -2.084  0.00  0.00    -0.001 A 
ATOM      4  C3  UNL d   1      -1.645   0.883  -2.187  0.00  0.00     0.003 A 
ATOM      5  C4  UNL d   1      -1.135   1.821  -1.292  0.00  0.00    -0.005 A 
ATOM      6  C5  UNL d   1      -1.953   2.344  -0.292  0.00  0.00     0.003 A 
ATOM      7  C6  UNL d   1      -3.281   1.928  -0.188  0.00  0.00    -0.001 A 
ENDROOT
TORSDOF 0
ENDMDL
