MODEL 1
REMARK minimizedAffinity 7.76715231
REMARK minimizedRMSD -1
REMARK  0 active torsions:
REMARK  status: ('A' for Active; 'I' for Inactive)
ROOT
ATOM      1  C   UNL d   1      -1.488   1.458  -1.242  0.00  0.00     0.078 C 
ATOM      2  C1  UNL d   1      -1.526   2.414  -0.087  0.00  0.00    -0.077 A 
ATOM      3  C2  UNL d   1      -0.928   2.090   1.137  0.00  0.00    -0.001 A 
ATOM      4  C3  UNL d   1      -0.980   2.986   2.207  0.00  0.00     0.003 A 
ATOM      5  C4  UNL d   1      -1.631   4.210   2.063  0.00  0.00    -0.005 A 
ATOM      6  C5  UNL d   1      -2.231   4.539   0.850  0.00  0.00     0.003 A 
ATOM      7  C6  UNL d   1      -2.180   3.645  -0.221  0.00  0.00    -0.001 A 
ENDROOT
TORSDOF 0
ENDMDL
