MODEL 1
REMARK minimizedAffinity 5.70314026
REMARK minimizedRMSD -1
REMARK  0 active torsions:
REMARK  status: ('A' for Active; 'I' for Inactive)
ROOT
ATOM      1  C   UNL d   1       2.290   0.555   0.366  0.00  0.00     0.078 C 
ATOM      2  C1  UNL d   1       0.907   0.882   0.846  0.00  0.00    -0.077 A 
ATOM      3  C2  UNL d   1       0.603   0.895   2.213  0.00  0.00    -0.001 A 
ATOM      4  C3  UNL d   1      -0.690   1.192   2.645  0.00  0.00     0.003 A 
ATOM      5  C4  UNL d   1      -1.690   1.477   1.718  0.00  0.00    -0.005 A 
ATOM      6  C5  UNL d   1      -1.398   1.464   0.355  0.00  0.00     0.003 A 
ATOM      7  C6  UNL d   1      -0.105   1.168  -0.079  0.00  0.00    -0.001 A 
ENDROOT
TORSDOF 0
ENDMDL
