MODEL 1
REMARK minimizedAffinity -2.14961839
REMARK minimizedRMSD -1
REMARK  0 active torsions:
REMARK  status: ('A' for Active; 'I' for Inactive)
ROOT
ATOM      1  C   UNL d   1       1.011   0.372   1.386  0.00  0.00     0.078 C 
ATOM      2  C1  UNL d   1       2.060  -0.183   0.469  0.00  0.00    -0.077 A 
ATOM      3  C2  UNL d   1       2.080  -1.542   0.136  0.00  0.00    -0.001 A 
ATOM      4  C3  UNL d   1       3.068  -2.047  -0.712  0.00  0.00     0.003 A 
ATOM      5  C4  UNL d   1       4.043  -1.198  -1.233  0.00  0.00    -0.005 A 
ATOM      6  C5  UNL d   1       4.032   0.156  -0.905  0.00  0.00     0.003 A 
ATOM      7  C6  UNL d   1       3.045   0.662  -0.058  0.00  0.00    -0.001 A 
ENDROOT
TORSDOF 0
ENDMDL
