MODEL 1
REMARK minimizedAffinity -0.219702452
REMARK minimizedRMSD -1
REMARK  0 active torsions:
REMARK  status: ('A' for Active; 'I' for Inactive)
ROOT
ATOM      1  C   UNL d   1       2.508   1.095   0.276  0.00  0.00     0.078 C 
ATOM      2  C1  UNL d   1       1.155   1.202   0.913  0.00  0.00    -0.077 A 
ATOM      3  C2  UNL d   1       1.011   1.189   2.306  0.00  0.00    -0.001 A 
ATOM      4  C3  UNL d   1      -0.256   1.279   2.885  0.00  0.00     0.003 A 
ATOM      5  C4  UNL d   1      -1.388   1.382   2.079  0.00  0.00    -0.005 A 
ATOM      6  C5  UNL d   1      -1.254   1.393   0.692  0.00  0.00     0.003 A 
ATOM      7  C6  UNL d   1       0.011   1.303   0.111  0.00  0.00    -0.001 A 
ENDROOT
TORSDOF 0
ENDMDL
