MODEL 1
REMARK minimizedAffinity 4.86477804
REMARK minimizedRMSD -1
REMARK  0 active torsions:
REMARK  status: ('A' for Active; 'I' for Inactive)
ROOT
ATOM      1  C   UNL d   1      -1.486   1.936   1.262  0.00  0.00     0.078 C 
ATOM      2  C1  UNL d   1      -0.544   1.310   2.247  0.00  0.00    -0.077 A 
ATOM      3  C2  UNL d   1      -1.017   0.475   3.266  0.00  0.00    -0.001 A 
ATOM      4  C3  UNL d   1      -0.131  -0.093   4.183  0.00  0.00     0.003 A 
ATOM      5  C4  UNL d   1       1.235   0.170   4.090  0.00  0.00    -0.005 A 
ATOM      6  C5  UNL d   1       1.715   1.002   3.080  0.00  0.00     0.003 A 
ATOM      7  C6  UNL d   1       0.829   1.571   2.163  0.00  0.00    -0.001 A 
ENDROOT
TORSDOF 0
ENDMDL
