MODEL 1
REMARK minimizedAffinity 6.14669943
REMARK minimizedRMSD -1
REMARK  0 active torsions:
REMARK  status: ('A' for Active; 'I' for Inactive)
ROOT
ATOM      1  C   UNL d   1       3.475   0.769  -0.298  0.00  0.00     0.078 C 
ATOM      2  C1  UNL d   1       2.808  -0.574  -0.309  0.00  0.00    -0.077 A 
ATOM      3  C2  UNL d   1       2.546  -1.239  -1.513  0.00  0.00    -0.001 A 
ATOM      4  C3  UNL d   1       1.917  -2.485  -1.509  0.00  0.00     0.003 A 
ATOM      5  C4  UNL d   1       1.543  -3.076  -0.303  0.00  0.00    -0.005 A 
ATOM      6  C5  UNL d   1       1.797  -2.420   0.900  0.00  0.00     0.003 A 
ATOM      7  C6  UNL d   1       2.427  -1.174   0.897  0.00  0.00    -0.001 A 
ENDROOT
TORSDOF 0
ENDMDL
