MODEL 1
REMARK minimizedAffinity 3.12044954
REMARK minimizedRMSD -1
REMARK  0 active torsions:
REMARK  status: ('A' for Active; 'I' for Inactive)
ROOT
ATOM      1  C   UNL d   1       2.312   0.651   0.055  0.00  0.00     0.078 C 
ATOM      2  C1  UNL d   1       0.937   0.962   0.566  0.00  0.00    -0.077 A 
ATOM      3  C2  UNL d   1       0.635   0.863   1.930  0.00  0.00    -0.001 A 
ATOM      4  C3  UNL d   1      -0.651   1.146   2.390  0.00  0.00     0.003 A 
ATOM      5  C4  UNL d   1      -1.647   1.529   1.494  0.00  0.00    -0.005 A 
ATOM      6  C5  UNL d   1      -1.357   1.628   0.135  0.00  0.00     0.003 A 
ATOM      7  C6  UNL d   1      -0.070   1.345  -0.328  0.00  0.00    -0.001 A 
ENDROOT
TORSDOF 0
ENDMDL
