MODEL 1
REMARK minimizedAffinity -3.46889114
REMARK minimizedRMSD -1
REMARK  0 active torsions:
REMARK  status: ('A' for Active; 'I' for Inactive)
ROOT
ATOM      1  C   UNL d   1       0.927  -0.841   2.404  0.00  0.00     0.078 C 
ATOM      2  C1  UNL d   1       1.895  -0.712   1.266  0.00  0.00    -0.077 A 
ATOM      3  C2  UNL d   1       2.493  -1.843   0.696  0.00  0.00    -0.001 A 
ATOM      4  C3  UNL d   1       3.399  -1.707  -0.356  0.00  0.00     0.003 A 
ATOM      5  C4  UNL d   1       3.718  -0.443  -0.847  0.00  0.00    -0.005 A 
ATOM      6  C5  UNL d   1       3.130   0.689  -0.285  0.00  0.00     0.003 A 
ATOM      7  C6  UNL d   1       2.223   0.555   0.767  0.00  0.00    -0.001 A 
ENDROOT
TORSDOF 0
ENDMDL
