MODEL 1
REMARK minimizedAffinity 1.9675684
REMARK minimizedRMSD -1
REMARK  0 active torsions:
REMARK  status: ('A' for Active; 'I' for Inactive)
ROOT
ATOM      1  C   UNL d   1      -3.444   1.339   0.883  0.00  0.00     0.078 C 
ATOM      2  C1  UNL d   1      -2.346   0.539   1.518  0.00  0.00    -0.077 A 
ATOM      3  C2  UNL d   1      -1.908   0.818   2.818  0.00  0.00    -0.001 A 
ATOM      4  C3  UNL d   1      -0.879   0.071   3.392  0.00  0.00     0.003 A 
ATOM      5  C4  UNL d   1      -0.277  -0.960   2.673  0.00  0.00    -0.005 A 
ATOM      6  C5  UNL d   1      -0.704  -1.244   1.377  0.00  0.00     0.003 A 
ATOM      7  C6  UNL d   1      -1.733  -0.498   0.802  0.00  0.00    -0.001 A 
ENDROOT
TORSDOF 0
ENDMDL
