MODEL 1
REMARK minimizedAffinity -2.68253899
REMARK minimizedRMSD -1
REMARK  0 active torsions:
REMARK  status: ('A' for Active; 'I' for Inactive)
ROOT
ATOM      1  C   UNL d   1      -0.755  -2.177  -2.376  0.00  0.00     0.078 C 
ATOM      2  C1  UNL d   1      -0.589  -1.368  -3.627  0.00  0.00    -0.077 A 
ATOM      3  C2  UNL d   1      -0.800   0.017  -3.624  0.00  0.00    -0.001 A 
ATOM      4  C3  UNL d   1      -0.651   0.756  -4.799  0.00  0.00     0.003 A 
ATOM      5  C4  UNL d   1      -0.293   0.120  -5.985  0.00  0.00    -0.005 A 
ATOM      6  C5  UNL d   1      -0.084  -1.258  -5.999  0.00  0.00     0.003 A 
ATOM      7  C6  UNL d   1      -0.232  -1.999  -4.825  0.00  0.00    -0.001 A 
ENDROOT
TORSDOF 0
ENDMDL
