MODEL 1
REMARK minimizedAffinity -4.57546663
REMARK minimizedRMSD -1
REMARK  0 active torsions:
REMARK  status: ('A' for Active; 'I' for Inactive)
ROOT
ATOM      1  C   UNL d   1       2.247   1.011  -5.980  0.00  0.00     0.078 C 
ATOM      2  C1  UNL d   1       0.846   0.669  -5.571  0.00  0.00    -0.077 A 
ATOM      3  C2  UNL d   1      -0.057   1.668  -5.185  0.00  0.00    -0.001 A 
ATOM      4  C3  UNL d   1      -1.355   1.334  -4.797  0.00  0.00     0.003 A 
ATOM      5  C4  UNL d   1      -1.763   0.002  -4.790  0.00  0.00    -0.005 A 
ATOM      6  C5  UNL d   1      -0.871  -0.999  -5.170  0.00  0.00     0.003 A 
ATOM      7  C6  UNL d   1       0.428  -0.667  -5.558  0.00  0.00    -0.001 A 
ENDROOT
TORSDOF 0
ENDMDL
