MODEL 1
REMARK minimizedAffinity -2.55146313
REMARK minimizedRMSD -1
REMARK  0 active torsions:
REMARK  status: ('A' for Active; 'I' for Inactive)
ROOT
ATOM      1  C   UNL d   1      -0.715  -0.240   3.053  0.00  0.00     0.078 C 
ATOM      2  C1  UNL d   1      -1.670  -0.080   1.908  0.00  0.00    -0.077 A 
ATOM      3  C2  UNL d   1      -1.559  -0.873   0.760  0.00  0.00    -0.001 A 
ATOM      4  C3  UNL d   1      -2.449  -0.706  -0.302  0.00  0.00     0.003 A 
ATOM      5  C4  UNL d   1      -3.456   0.254  -0.227  0.00  0.00    -0.005 A 
ATOM      6  C5  UNL d   1      -3.573   1.049   0.911  0.00  0.00     0.003 A 
ATOM      7  C6  UNL d   1      -2.684   0.884   1.974  0.00  0.00    -0.001 A 
ENDROOT
TORSDOF 0
ENDMDL
