MODEL 1
REMARK minimizedAffinity -3.00345302
REMARK minimizedRMSD -1
REMARK  0 active torsions:
REMARK  status: ('A' for Active; 'I' for Inactive)
ROOT
ATOM      1  C   UNL d   1      -1.059  -2.394  -2.589  0.00  0.00     0.078 C 
ATOM      2  C1  UNL d   1      -0.958  -1.412  -3.718  0.00  0.00    -0.077 A 
ATOM      3  C2  UNL d   1       0.067  -1.507  -4.668  0.00  0.00    -0.001 A 
ATOM      4  C3  UNL d   1       0.154  -0.580  -5.707  0.00  0.00     0.003 A 
ATOM      5  C4  UNL d   1      -0.779   0.450  -5.806  0.00  0.00    -0.005 A 
ATOM      6  C5  UNL d   1      -1.801   0.554  -4.865  0.00  0.00     0.003 A 
ATOM      7  C6  UNL d   1      -1.890  -0.372  -3.824  0.00  0.00    -0.001 A 
ENDROOT
TORSDOF 0
ENDMDL
