MODEL 1
REMARK minimizedAffinity 0.16354689
REMARK minimizedRMSD -1
REMARK  0 active torsions:
REMARK  status: ('A' for Active; 'I' for Inactive)
ROOT
ATOM      1  C   UNL d   1       4.906   4.764   1.790  0.00  0.00     0.078 C 
ATOM      2  C1  UNL d   1       4.845   3.650   2.791  0.00  0.00    -0.077 A 
ATOM      3  C2  UNL d   1       5.053   3.892   4.154  0.00  0.00    -0.001 A 
ATOM      4  C3  UNL d   1       5.003   2.844   5.074  0.00  0.00     0.003 A 
ATOM      5  C4  UNL d   1       4.746   1.545   4.640  0.00  0.00    -0.005 A 
ATOM      6  C5  UNL d   1       4.540   1.293   3.285  0.00  0.00     0.003 A 
ATOM      7  C6  UNL d   1       4.589   2.340   2.364  0.00  0.00    -0.001 A 
ENDROOT
TORSDOF 0
ENDMDL
