MODEL 1
REMARK minimizedAffinity 3.94087148
REMARK minimizedRMSD -1
REMARK  0 active torsions:
REMARK  status: ('A' for Active; 'I' for Inactive)
ROOT
ATOM      1  C   UNL d   1      -1.876   0.864  -5.298  0.00  0.00     0.078 C 
ATOM      2  C1  UNL d   1      -1.223  -0.241  -4.523  0.00  0.00    -0.077 A 
ATOM      3  C2  UNL d   1      -1.407  -0.358  -3.140  0.00  0.00    -0.001 A 
ATOM      4  C3  UNL d   1      -0.784  -1.386  -2.430  0.00  0.00     0.003 A 
ATOM      5  C4  UNL d   1       0.027  -2.304  -3.094  0.00  0.00    -0.005 A 
ATOM      6  C5  UNL d   1       0.218  -2.193  -4.470  0.00  0.00     0.003 A 
ATOM      7  C6  UNL d   1      -0.404  -1.166  -5.182  0.00  0.00    -0.001 A 
ENDROOT
TORSDOF 0
ENDMDL
