MODEL 1
REMARK minimizedAffinity 0.598258436
REMARK minimizedRMSD -1
REMARK  0 active torsions:
REMARK  status: ('A' for Active; 'I' for Inactive)
ROOT
ATOM      1  C   UNL d   1      -0.193  -0.305   2.586  0.00  0.00     0.078 C 
ATOM      2  C1  UNL d   1      -1.412  -0.288   1.714  0.00  0.00    -0.077 A 
ATOM      3  C2  UNL d   1      -1.622  -1.280   0.748  0.00  0.00    -0.001 A 
ATOM      4  C3  UNL d   1      -2.757  -1.247  -0.063  0.00  0.00     0.003 A 
ATOM      5  C4  UNL d   1      -3.691  -0.223   0.082  0.00  0.00    -0.005 A 
ATOM      6  C5  UNL d   1      -3.490   0.769   1.039  0.00  0.00     0.003 A 
ATOM      7  C6  UNL d   1      -2.356   0.738   1.851  0.00  0.00    -0.001 A 
ENDROOT
TORSDOF 0
ENDMDL
