MODEL 1
REMARK minimizedAffinity 3.67762566
REMARK minimizedRMSD -1
REMARK  0 active torsions:
REMARK  status: ('A' for Active; 'I' for Inactive)
ROOT
ATOM      1  C   UNL d   1      -3.350  -0.009  -5.038  0.00  0.00     0.078 C 
ATOM      2  C1  UNL d   1      -1.898  -0.321  -5.248  0.00  0.00    -0.077 A 
ATOM      3  C2  UNL d   1      -1.028   0.628  -5.799  0.00  0.00    -0.001 A 
ATOM      4  C3  UNL d   1       0.318   0.320  -5.997  0.00  0.00     0.003 A 
ATOM      5  C4  UNL d   1       0.807  -0.938  -5.649  0.00  0.00    -0.005 A 
ATOM      6  C5  UNL d   1      -0.051  -1.889  -5.102  0.00  0.00     0.003 A 
ATOM      7  C6  UNL d   1      -1.398  -1.583  -4.903  0.00  0.00    -0.001 A 
ENDROOT
TORSDOF 0
ENDMDL
