MODEL 1
REMARK minimizedAffinity 11.7403002
REMARK minimizedRMSD -1
REMARK  0 active torsions:
REMARK  status: ('A' for Active; 'I' for Inactive)
ROOT
ATOM      1  C1  DEN d   1      -5.504  -0.903  -2.860  0.00  0.00     0.130 A 
ATOM      2  C2  DEN d   1      -5.867   0.080  -3.877  0.00  0.00    -0.031 A 
ATOM      3  C3  DEN d   1      -5.998   1.394  -3.216  0.00  0.00     0.027 A 
ATOM      4  C4  DEN d   1      -5.671   2.000  -0.731  0.00  0.00     0.027 A 
ATOM      5  C5  DEN d   1      -5.369   1.499   0.516  0.00  0.00    -0.003 A 
ATOM      6  C6  DEN d   1      -5.127   0.168   0.730  0.00  0.00     0.001 A 
ATOM      7  C7  DEN d   1      -5.137  -0.702  -0.329  0.00  0.00     0.017 A 
ATOM      8  C8  DEN d   1      -5.448  -0.206  -1.588  0.00  0.00    -0.094 A 
ATOM      9  C9  DEN d   1      -5.678   1.145  -1.785  0.00  0.00    -0.072 A 
ENDROOT
TORSDOF 0
ENDMDL
