MODEL 1
REMARK minimizedAffinity 12.4106302
REMARK minimizedRMSD -1
REMARK  0 active torsions:
REMARK  status: ('A' for Active; 'I' for Inactive)
ROOT
ATOM      1  C1  DEN d   1      -2.339  -2.649   2.088  0.00  0.00     0.130 A 
ATOM      2  C2  DEN d   1      -2.404  -3.718   1.095  0.00  0.00    -0.031 A 
ATOM      3  C3  DEN d   1      -1.041  -4.257   0.916  0.00  0.00     0.027 A 
ATOM      4  C4  DEN d   1       1.151  -3.548   2.076  0.00  0.00     0.027 A 
ATOM      5  C5  DEN d   1       1.708  -2.677   2.987  0.00  0.00    -0.003 A 
ATOM      6  C6  DEN d   1       0.968  -1.721   3.630  0.00  0.00     0.001 A 
ATOM      7  C7  DEN d   1      -0.381  -1.643   3.406  0.00  0.00     0.017 A 
ATOM      8  C8  DEN d   1      -0.949  -2.512   2.485  0.00  0.00    -0.094 A 
ATOM      9  C9  DEN d   1      -0.186  -3.480   1.853  0.00  0.00    -0.072 A 
ENDROOT
TORSDOF 0
ENDMDL
