MODEL 1
REMARK minimizedAffinity 6.8658042
REMARK minimizedRMSD -1
REMARK  0 active torsions:
REMARK  status: ('A' for Active; 'I' for Inactive)
ROOT
ATOM      1  C1  DEN d   1      -0.109  -2.598   1.873  0.00  0.00     0.130 A 
ATOM      2  C2  DEN d   1      -1.153  -2.477   0.859  0.00  0.00    -0.031 A 
ATOM      3  C3  DEN d   1      -2.057  -1.382   1.263  0.00  0.00     0.027 A 
ATOM      4  C4  DEN d   1      -1.941   0.132   3.348  0.00  0.00     0.027 A 
ATOM      5  C5  DEN d   1      -1.241   0.399   4.503  0.00  0.00    -0.003 A 
ATOM      6  C6  DEN d   1      -0.143  -0.330   4.877  0.00  0.00     0.001 A 
ATOM      7  C7  DEN d   1       0.314  -1.334   4.065  0.00  0.00     0.017 A 
ATOM      8  C8  DEN d   1      -0.392  -1.614   2.902  0.00  0.00    -0.094 A 
ATOM      9  C9  DEN d   1      -1.492  -0.858   2.535  0.00  0.00    -0.072 A 
ENDROOT
TORSDOF 0
ENDMDL
