MODEL 1
REMARK minimizedAffinity 12.6701784
REMARK minimizedRMSD -1
REMARK  0 active torsions:
REMARK  status: ('A' for Active; 'I' for Inactive)
ROOT
ATOM      1  C1  DEN d   1       5.183   5.880  -2.884  0.00  0.00     0.130 A 
ATOM      2  C2  DEN d   1       5.335   4.824  -3.881  0.00  0.00    -0.031 A 
ATOM      3  C3  DEN d   1       5.685   3.576  -3.175  0.00  0.00     0.027 A 
ATOM      4  C4  DEN d   1       6.000   3.176  -0.646  0.00  0.00     0.027 A 
ATOM      5  C5  DEN d   1       5.987   3.773   0.595  0.00  0.00    -0.003 A 
ATOM      6  C6  DEN d   1       5.740   5.110   0.759  0.00  0.00     0.001 A 
ATOM      7  C7  DEN d   1       5.452   5.886  -0.332  0.00  0.00     0.017 A 
ATOM      8  C8  DEN d   1       5.471   5.293  -1.588  0.00  0.00    -0.094 A 
ATOM      9  C9  DEN d   1       5.710   3.937  -1.732  0.00  0.00    -0.072 A 
ENDROOT
TORSDOF 0
ENDMDL
