MODEL 1
REMARK minimizedAffinity 18.0888214
REMARK minimizedRMSD -1
REMARK  0 active torsions:
REMARK  status: ('A' for Active; 'I' for Inactive)
ROOT
ATOM      1  C1  DEN d   1       3.768   3.841  -2.857  0.00  0.00     0.130 A 
ATOM      2  C2  DEN d   1       4.920   4.488  -3.480  0.00  0.00    -0.031 A 
ATOM      3  C3  DEN d   1       5.999   4.565  -2.475  0.00  0.00     0.027 A 
ATOM      4  C4  DEN d   1       6.000   3.746  -0.029  0.00  0.00     0.027 A 
ATOM      5  C5  DEN d   1       5.246   3.143   0.953  0.00  0.00    -0.003 A 
ATOM      6  C6  DEN d   1       3.945   2.765   0.747  0.00  0.00     0.001 A 
ATOM      7  C7  DEN d   1       3.374   2.944  -0.485  0.00  0.00     0.017 A 
ATOM      8  C8  DEN d   1       4.126   3.558  -1.479  0.00  0.00    -0.094 A 
ATOM      9  C9  DEN d   1       5.443   3.922  -1.254  0.00  0.00    -0.072 A 
ENDROOT
TORSDOF 0
ENDMDL
