MODEL 1
REMARK minimizedAffinity 9.08847046
REMARK minimizedRMSD -1
REMARK  0 active torsions:
REMARK  status: ('A' for Active; 'I' for Inactive)
ROOT
ATOM      1  C1  DEN d   1       5.997   3.836   1.853  0.00  0.00     0.130 A 
ATOM      2  C2  DEN d   1       5.718   5.040   1.076  0.00  0.00    -0.031 A 
ATOM      3  C3  DEN d   1       4.461   4.821   0.332  0.00  0.00     0.027 A 
ATOM      4  C4  DEN d   1       2.927   2.748   0.311  0.00  0.00     0.027 A 
ATOM      5  C5  DEN d   1       2.756   1.473   0.804  0.00  0.00    -0.003 A 
ATOM      6  C6  DEN d   1       3.664   0.889   1.647  0.00  0.00     0.001 A 
ATOM      7  C7  DEN d   1       4.761   1.597   2.060  0.00  0.00     0.017 A 
ATOM      8  C8  DEN d   1       4.944   2.880   1.561  0.00  0.00    -0.094 A 
ATOM      9  C9  DEN d   1       4.009   3.458   0.719  0.00  0.00    -0.072 A 
ENDROOT
TORSDOF 0
ENDMDL
