MODEL 1
REMARK minimizedAffinity 14.6254082
REMARK minimizedRMSD -1
REMARK  0 active torsions:
REMARK  status: ('A' for Active; 'I' for Inactive)
ROOT
ATOM      1  C1  DEN d   1       4.489   4.308  -2.095  0.00  0.00     0.130 A 
ATOM      2  C2  DEN d   1       5.270   5.541  -2.026  0.00  0.00    -0.031 A 
ATOM      3  C3  DEN d   1       5.987   5.556  -0.736  0.00  0.00     0.027 A 
ATOM      4  C4  DEN d   1       5.969   3.798   1.152  0.00  0.00     0.027 A 
ATOM      5  C5  DEN d   1       5.447   2.589   1.554  0.00  0.00    -0.003 A 
ATOM      6  C6  DEN d   1       4.550   1.890   0.790  0.00  0.00     0.001 A 
ATOM      7  C7  DEN d   1       4.183   2.373  -0.438  0.00  0.00     0.017 A 
ATOM      8  C8  DEN d   1       4.699   3.596  -0.847  0.00  0.00    -0.094 A 
ATOM      9  C9  DEN d   1       5.614   4.281  -0.066  0.00  0.00    -0.072 A 
ENDROOT
TORSDOF 0
ENDMDL
