MODEL 1
REMARK minimizedAffinity 26.8923054
REMARK minimizedRMSD -1
REMARK  0 active torsions:
REMARK  status: ('A' for Active; 'I' for Inactive)
ROOT
ATOM      1  C1  DEN d   1       4.070  -2.581  -0.413  0.00  0.00     0.130 A 
ATOM      2  C2  DEN d   1       3.963  -3.984  -0.803  0.00  0.00    -0.031 A 
ATOM      3  C3  DEN d   1       2.926  -4.614   0.040  0.00  0.00     0.027 A 
ATOM      4  C4  DEN d   1       1.482  -3.557   1.897  0.00  0.00     0.027 A 
ATOM      5  C5  DEN d   1       1.222  -2.398   2.594  0.00  0.00    -0.003 A 
ATOM      6  C6  DEN d   1       1.911  -1.237   2.363  0.00  0.00     0.001 A 
ATOM      7  C7  DEN d   1       2.864  -1.197   1.379  0.00  0.00     0.017 A 
ATOM      8  C8  DEN d   1       3.137  -2.364   0.677  0.00  0.00    -0.094 A 
ATOM      9  C9  DEN d   1       2.420  -3.524   0.917  0.00  0.00    -0.072 A 
ENDROOT
TORSDOF 0
ENDMDL
