MODEL 1
REMARK minimizedAffinity 15.8576841
REMARK minimizedRMSD -1
REMARK  0 active torsions:
REMARK  status: ('A' for Active; 'I' for Inactive)
ROOT
ATOM      1  C1  DEN d   1       3.605   4.421  -2.250  0.00  0.00     0.130 A 
ATOM      2  C2  DEN d   1       2.250   3.880  -2.205  0.00  0.00    -0.031 A 
ATOM      3  C3  DEN d   1       2.071   2.999  -3.377  0.00  0.00     0.027 A 
ATOM      4  C4  DEN d   1       3.753   2.422  -5.245  0.00  0.00     0.027 A 
ATOM      5  C5  DEN d   1       5.027   2.649  -5.718  0.00  0.00    -0.003 A 
ATOM      6  C6  DEN d   1       5.897   3.502  -5.092  0.00  0.00     0.001 A 
ATOM      7  C7  DEN d   1       5.520   4.125  -3.932  0.00  0.00     0.017 A 
ATOM      8  C8  DEN d   1       4.235   3.907  -3.453  0.00  0.00    -0.094 A 
ATOM      9  C9  DEN d   1       3.375   3.031  -4.093  0.00  0.00    -0.072 A 
ENDROOT
TORSDOF 0
ENDMDL
