MODEL 1
REMARK minimizedAffinity 7.23321962
REMARK minimizedRMSD -1
REMARK  0 active torsions:
REMARK  status: ('A' for Active; 'I' for Inactive)
ROOT
ATOM      1  C1  DEN d   1       5.749   2.750  -0.185  0.00  0.00     0.130 A 
ATOM      2  C2  DEN d   1       5.833   3.506   1.061  0.00  0.00    -0.031 A 
ATOM      3  C3  DEN d   1       4.587   3.276   1.819  0.00  0.00     0.027 A 
ATOM      4  C4  DEN d   1       2.549   1.826   1.190  0.00  0.00     0.027 A 
ATOM      5  C5  DEN d   1       2.012   1.003   0.225  0.00  0.00    -0.003 A 
ATOM      6  C6  DEN d   1       2.663   0.734  -0.950  0.00  0.00     0.001 A 
ATOM      7  C7  DEN d   1       3.909   1.257  -1.170  0.00  0.00     0.017 A 
ATOM      8  C8  DEN d   1       4.454   2.094  -0.205  0.00  0.00    -0.094 A 
ATOM      9  C9  DEN d   1       3.786   2.344   0.981  0.00  0.00    -0.072 A 
ENDROOT
TORSDOF 0
ENDMDL
