MODEL 1
REMARK minimizedAffinity 15.3333187
REMARK minimizedRMSD -1
REMARK  0 active torsions:
REMARK  status: ('A' for Active; 'I' for Inactive)
ROOT
ATOM      1  C1  DEN d   1      -3.943   0.926   4.033  0.00  0.00     0.130 A 
ATOM      2  C2  DEN d   1      -2.942   0.954   5.096  0.00  0.00    -0.031 A 
ATOM      3  C3  DEN d   1      -1.717   0.305   4.588  0.00  0.00     0.027 A 
ATOM      4  C4  DEN d   1      -1.274  -0.733   2.268  0.00  0.00     0.027 A 
ATOM      5  C5  DEN d   1      -1.827  -1.006   1.036  0.00  0.00    -0.003 A 
ATOM      6  C6  DEN d   1      -3.123  -0.687   0.731  0.00  0.00     0.001 A 
ATOM      7  C7  DEN d   1      -3.898  -0.035   1.654  0.00  0.00     0.017 A 
ATOM      8  C8  DEN d   1      -3.350   0.236   2.901  0.00  0.00    -0.094 A 
ATOM      9  C9  DEN d   1      -2.033  -0.083   3.186  0.00  0.00    -0.072 A 
ENDROOT
TORSDOF 0
ENDMDL
