MODEL 1
REMARK minimizedAffinity 13.7984514
REMARK minimizedRMSD -1
REMARK  0 active torsions:
REMARK  status: ('A' for Active; 'I' for Inactive)
ROOT
ATOM      1  C1  DEN d   1       4.551   2.308  -2.943  0.00  0.00     0.130 A 
ATOM      2  C2  DEN d   1       4.571   3.150  -4.136  0.00  0.00    -0.031 A 
ATOM      3  C3  DEN d   1       3.176   3.503  -4.469  0.00  0.00     0.027 A 
ATOM      4  C4  DEN d   1       1.000   2.834  -3.257  0.00  0.00     0.027 A 
ATOM      5  C5  DEN d   1       0.476   2.119  -2.202  0.00  0.00    -0.003 A 
ATOM      6  C6  DEN d   1       1.265   1.395  -1.348  0.00  0.00     0.001 A 
ATOM      7  C7  DEN d   1       2.626   1.407  -1.506  0.00  0.00     0.017 A 
ATOM      8  C8  DEN d   1       3.160   2.119  -2.571  0.00  0.00    -0.094 A 
ATOM      9  C9  DEN d   1       2.347   2.855  -3.417  0.00  0.00    -0.072 A 
ENDROOT
TORSDOF 0
ENDMDL
