MODEL 1
REMARK minimizedAffinity 8.12801361
REMARK minimizedRMSD -1
REMARK  0 active torsions:
REMARK  status: ('A' for Active; 'I' for Inactive)
ROOT
ATOM      1  C1  DEN d   1       1.998   2.869   0.384  0.00  0.00     0.130 A 
ATOM      2  C2  DEN d   1       2.768   1.632   0.487  0.00  0.00    -0.031 A 
ATOM      3  C3  DEN d   1       3.163   1.225  -0.876  0.00  0.00     0.027 A 
ATOM      4  C4  DEN d   1       2.664   2.386  -3.125  0.00  0.00     0.027 A 
ATOM      5  C5  DEN d   1       2.035   3.457  -3.720  0.00  0.00    -0.003 A 
ATOM      6  C6  DEN d   1       1.327   4.381  -2.998  0.00  0.00     0.001 A 
ATOM      7  C7  DEN d   1       1.268   4.276  -1.633  0.00  0.00     0.017 A 
ATOM      8  C8  DEN d   1       1.893   3.195  -1.027  0.00  0.00    -0.094 A 
ATOM      9  C9  DEN d   1       2.615   2.278  -1.773  0.00  0.00    -0.072 A 
ENDROOT
TORSDOF 0
ENDMDL
