MODEL 1
REMARK minimizedAffinity 17.527132
REMARK minimizedRMSD -1
REMARK  0 active torsions:
REMARK  status: ('A' for Active; 'I' for Inactive)
ROOT
ATOM      1  C1  DEN d   1      -4.723  -1.683  -0.710  0.00  0.00     0.130 A 
ATOM      2  C2  DEN d   1      -3.848  -0.517  -0.632  0.00  0.00    -0.031 A 
ATOM      3  C3  DEN d   1      -2.758  -0.826   0.315  0.00  0.00     0.027 A 
ATOM      4  C4  DEN d   1      -2.340  -2.988   1.658  0.00  0.00     0.027 A 
ATOM      5  C5  DEN d   1      -2.819  -4.250   1.931  0.00  0.00    -0.003 A 
ATOM      6  C6  DEN d   1      -3.975  -4.729   1.374  0.00  0.00     0.001 A 
ATOM      7  C7  DEN d   1      -4.668  -3.956   0.479  0.00  0.00     0.017 A 
ATOM      8  C8  DEN d   1      -4.195  -2.680   0.204  0.00  0.00    -0.094 A 
ATOM      9  C9  DEN d   1      -3.018  -2.219   0.768  0.00  0.00    -0.072 A 
ENDROOT
TORSDOF 0
ENDMDL
