MODEL 1
REMARK minimizedAffinity 8.10349083
REMARK minimizedRMSD -1
REMARK  0 active torsions:
REMARK  status: ('A' for Active; 'I' for Inactive)
ROOT
ATOM      1  C1  DEN d   1       3.614   1.326  -0.863  0.00  0.00     0.130 A 
ATOM      2  C2  DEN d   1       2.386   0.937  -0.175  0.00  0.00    -0.031 A 
ATOM      3  C3  DEN d   1       2.341   1.652   1.117  0.00  0.00     0.027 A 
ATOM      4  C4  DEN d   1       4.041   3.318   2.109  0.00  0.00     0.027 A 
ATOM      5  C5  DEN d   1       5.245   3.953   1.898  0.00  0.00    -0.003 A 
ATOM      6  C6  DEN d   1       6.000   3.732   0.777  0.00  0.00     0.001 A 
ATOM      7  C7  DEN d   1       5.537   2.889  -0.198  0.00  0.00     0.017 A 
ATOM      8  C8  DEN d   1       4.327   2.240   0.011  0.00  0.00    -0.094 A 
ATOM      9  C9  DEN d   1       3.573   2.485   1.145  0.00  0.00    -0.072 A 
ENDROOT
TORSDOF 0
ENDMDL
