MODEL 1
REMARK minimizedAffinity 15.0402346
REMARK minimizedRMSD -1
REMARK  0 active torsions:
REMARK  status: ('A' for Active; 'I' for Inactive)
ROOT
ATOM      1  C1  DEN d   1       2.500   2.408  -3.381  0.00  0.00     0.130 A 
ATOM      2  C2  DEN d   1       2.018   2.770  -2.051  0.00  0.00    -0.031 A 
ATOM      3  C3  DEN d   1       2.986   3.714  -1.456  0.00  0.00     0.027 A 
ATOM      4  C4  DEN d   1       5.169   4.649  -2.462  0.00  0.00     0.027 A 
ATOM      5  C5  DEN d   1       6.000   4.623  -3.560  0.00  0.00    -0.003 A 
ATOM      6  C6  DEN d   1       5.743   3.838  -4.652  0.00  0.00     0.001 A 
ATOM      7  C7  DEN d   1       4.602   3.079  -4.690  0.00  0.00     0.017 A 
ATOM      8  C8  DEN d   1       3.763   3.095  -3.583  0.00  0.00    -0.094 A 
ATOM      9  C9  DEN d   1       4.034   3.905  -2.494  0.00  0.00    -0.072 A 
ENDROOT
TORSDOF 0
ENDMDL
