MODEL 1
REMARK minimizedAffinity -3.28962255
REMARK minimizedRMSD -1
REMARK  0 active torsions:
REMARK  status: ('A' for Active; 'I' for Inactive)
ROOT
ATOM      1  C   UNL d   1      -0.012  -1.246  -0.200  0.00  0.00     0.172 C 
ATOM      2  N   UNL d   1       0.073   0.183  -0.010  0.00  0.00    -0.070 N 
ATOM      3  C1  UNL d   1       1.225   0.893   0.201  0.00  0.00    -0.004 A 
ATOM      4  C2  UNL d   1       0.883   2.222   0.333  0.00  0.00    -0.047 A 
ATOM      5  C3  UNL d   1      -0.522   2.313   0.197  0.00  0.00    -0.047 A 
ATOM      6  C4  UNL d   1      -0.999   1.037  -0.015  0.00  0.00    -0.004 A 
ENDROOT
TORSDOF 0
ENDMDL
