MODEL 1
REMARK minimizedAffinity -2.03522062
REMARK minimizedRMSD -1
REMARK  0 active torsions:
REMARK  status: ('A' for Active; 'I' for Inactive)
ROOT
ATOM      1  C   UNL d   1       2.150   2.867   0.721  0.00  0.00     0.172 C 
ATOM      2  N   UNL d   1       1.164   1.815   0.626  0.00  0.00    -0.070 N 
ATOM      3  C1  UNL d   1       1.432   0.485   0.446  0.00  0.00    -0.004 A 
ATOM      4  C2  UNL d   1       0.229  -0.187   0.409  0.00  0.00    -0.047 A 
ATOM      5  C3  UNL d   1      -0.797   0.774   0.572  0.00  0.00    -0.047 A 
ATOM      6  C4  UNL d   1      -0.190   2.005   0.704  0.00  0.00    -0.004 A 
ENDROOT
TORSDOF 0
ENDMDL
