MODEL 1
REMARK minimizedAffinity -0.489906281
REMARK minimizedRMSD -1
REMARK  0 active torsions:
REMARK  status: ('A' for Active; 'I' for Inactive)
ROOT
ATOM      1  C   UNL d   1       0.072  -0.718   0.378  0.00  0.00     0.172 C 
ATOM      2  N   UNL d   1      -0.243  -1.846  -0.467  0.00  0.00    -0.070 N 
ATOM      3  C1  UNL d   1       0.177  -2.018  -1.758  0.00  0.00    -0.004 A 
ATOM      4  C2  UNL d   1      -0.334  -3.214  -2.213  0.00  0.00    -0.047 A 
ATOM      5  C3  UNL d   1      -1.090  -3.780  -1.158  0.00  0.00    -0.047 A 
ATOM      6  C4  UNL d   1      -1.016  -2.912  -0.089  0.00  0.00    -0.004 A 
ENDROOT
TORSDOF 0
ENDMDL
