MODEL 1
REMARK minimizedAffinity -3.69304061
REMARK minimizedRMSD -1
REMARK  0 active torsions:
REMARK  status: ('A' for Active; 'I' for Inactive)
ROOT
ATOM      1  C   UNL d   1       0.189  -1.240  -0.343  0.00  0.00     0.172 C 
ATOM      2  N   UNL d   1       0.465   0.095   0.132  0.00  0.00    -0.070 N 
ATOM      3  C1  UNL d   1       1.702   0.590   0.449  0.00  0.00    -0.004 A 
ATOM      4  C2  UNL d   1       1.542   1.896   0.859  0.00  0.00    -0.047 A 
ATOM      5  C3  UNL d   1       0.161   2.196   0.787  0.00  0.00    -0.047 A 
ATOM      6  C4  UNL d   1      -0.482   1.064   0.334  0.00  0.00    -0.004 A 
ENDROOT
TORSDOF 0
ENDMDL
