MODEL 1
REMARK minimizedAffinity -4.0476222
REMARK minimizedRMSD -1
REMARK  0 active torsions:
REMARK  status: ('A' for Active; 'I' for Inactive)
ROOT
ATOM      1  C   UNL d   1      -0.007  -0.666   0.389  0.00  0.00     0.172 C 
ATOM      2  N   UNL d   1       0.391   0.716   0.256  0.00  0.00    -0.070 N 
ATOM      3  C1  UNL d   1       1.674   1.187   0.328  0.00  0.00    -0.004 A 
ATOM      4  C2  UNL d   1       1.632   2.553   0.152  0.00  0.00    -0.047 A 
ATOM      5  C3  UNL d   1       0.277   2.915  -0.031  0.00  0.00    -0.047 A 
ATOM      6  C4  UNL d   1      -0.470   1.758   0.038  0.00  0.00    -0.004 A 
ENDROOT
TORSDOF 0
ENDMDL
