MODEL 1
REMARK minimizedAffinity -1.2657963
REMARK minimizedRMSD -1
REMARK  0 active torsions:
REMARK  status: ('A' for Active; 'I' for Inactive)
ROOT
ATOM      1  C   UNL d   1      -1.104  -2.318  -1.662  0.00  0.00     0.172 C 
ATOM      2  N   UNL d   1      -0.432  -1.282  -0.914  0.00  0.00    -0.070 N 
ATOM      3  C1  UNL d   1       0.755  -0.690  -1.257  0.00  0.00    -0.004 A 
ATOM      4  C2  UNL d   1       1.056   0.245  -0.291  0.00  0.00    -0.047 A 
ATOM      5  C3  UNL d   1       0.015   0.214   0.667  0.00  0.00    -0.047 A 
ATOM      6  C4  UNL d   1      -0.893  -0.740   0.257  0.00  0.00    -0.004 A 
ENDROOT
TORSDOF 0
ENDMDL
