MODEL 1
REMARK minimizedAffinity -4.00945997
REMARK minimizedRMSD -1
REMARK  0 active torsions:
REMARK  status: ('A' for Active; 'I' for Inactive)
ROOT
ATOM      1  C   UNL d   1       0.045  -0.466   0.507  0.00  0.00     0.172 C 
ATOM      2  N   UNL d   1       0.639   0.842   0.360  0.00  0.00    -0.070 N 
ATOM      3  C1  UNL d   1      -0.010   2.036   0.527  0.00  0.00    -0.004 A 
ATOM      4  C2  UNL d   1       0.900   3.046   0.299  0.00  0.00    -0.047 A 
ATOM      5  C3  UNL d   1       2.138   2.438  -0.016  0.00  0.00    -0.047 A 
ATOM      6  C4  UNL d   1       1.948   1.073   0.029  0.00  0.00    -0.004 A 
ENDROOT
TORSDOF 0
ENDMDL
