MODEL 1
REMARK minimizedAffinity -3.72413087
REMARK minimizedRMSD -1
REMARK  0 active torsions:
REMARK  status: ('A' for Active; 'I' for Inactive)
ROOT
ATOM      1  C   UNL d   1      -0.235   2.569   0.020  0.00  0.00     0.172 C 
ATOM      2  N   UNL d   1      -0.290   1.143   0.237  0.00  0.00    -0.070 N 
ATOM      3  C1  UNL d   1       0.760   0.273   0.101  0.00  0.00    -0.004 A 
ATOM      4  C2  UNL d   1       0.300  -0.992   0.396  0.00  0.00    -0.047 A 
ATOM      5  C3  UNL d   1      -1.073  -0.879   0.720  0.00  0.00    -0.047 A 
ATOM      6  C4  UNL d   1      -1.412   0.453   0.614  0.00  0.00    -0.004 A 
ENDROOT
TORSDOF 0
ENDMDL
