MODEL 1
REMARK minimizedAffinity -3.52450728
REMARK minimizedRMSD -1
REMARK  0 active torsions:
REMARK  status: ('A' for Active; 'I' for Inactive)
ROOT
ATOM      1  C   UNL d   1      -0.080   0.445  -0.309  0.00  0.00     0.172 C 
ATOM      2  N   UNL d   1       0.557   1.703   0.001  0.00  0.00    -0.070 N 
ATOM      3  C1  UNL d   1       0.000   2.721   0.728  0.00  0.00    -0.004 A 
ATOM      4  C2  UNL d   1       0.924   3.742   0.801  0.00  0.00    -0.047 A 
ATOM      5  C3  UNL d   1       2.075   3.322   0.091  0.00  0.00    -0.047 A 
ATOM      6  C4  UNL d   1       1.820   2.057  -0.393  0.00  0.00    -0.004 A 
ENDROOT
TORSDOF 0
ENDMDL
