MODEL 1
REMARK minimizedAffinity -4.03626251
REMARK minimizedRMSD -1
REMARK  0 active torsions:
REMARK  status: ('A' for Active; 'I' for Inactive)
ROOT
ATOM      1  C   UNL d   1       0.183  -1.025  -0.084  0.00  0.00     0.172 C 
ATOM      2  N   UNL d   1       0.275   0.412   0.030  0.00  0.00    -0.070 N 
ATOM      3  C1  UNL d   1       1.426   1.125   0.230  0.00  0.00    -0.004 A 
ATOM      4  C2  UNL d   1       1.091   2.461   0.280  0.00  0.00    -0.047 A 
ATOM      5  C3  UNL d   1      -0.310   2.554   0.104  0.00  0.00    -0.047 A 
ATOM      6  C4  UNL d   1      -0.790   1.270  -0.049  0.00  0.00    -0.004 A 
ENDROOT
TORSDOF 0
ENDMDL
