MODEL 1
REMARK minimizedAffinity -3.20425534
REMARK minimizedRMSD -1
REMARK  0 active torsions:
REMARK  status: ('A' for Active; 'I' for Inactive)
ROOT
ATOM      1  C   UNL d   1       2.728   2.802   1.483  0.00  0.00     0.172 C 
ATOM      2  N   UNL d   1       1.505   2.201   1.004  0.00  0.00    -0.070 N 
ATOM      3  C1  UNL d   1       0.316   2.853   0.814  0.00  0.00    -0.004 A 
ATOM      4  C2  UNL d   1      -0.600   1.934   0.350  0.00  0.00    -0.047 A 
ATOM      5  C3  UNL d   1       0.062   0.686   0.259  0.00  0.00    -0.047 A 
ATOM      6  C4  UNL d   1       1.364   0.880   0.670  0.00  0.00    -0.004 A 
ENDROOT
TORSDOF 0
ENDMDL
