MODEL 1
REMARK minimizedAffinity -2.39306211
REMARK minimizedRMSD -1
REMARK  0 active torsions:
REMARK  status: ('A' for Active; 'I' for Inactive)
ROOT
ATOM      1  C   UNL d   1      -1.271   2.414   0.576  0.00  0.00     0.172 C 
ATOM      2  N   UNL d   1      -0.872   1.030   0.480  0.00  0.00    -0.070 N 
ATOM      3  C1  UNL d   1      -1.606  -0.044   0.908  0.00  0.00    -0.004 A 
ATOM      4  C2  UNL d   1      -0.881  -1.185   0.639  0.00  0.00    -0.047 A 
ATOM      5  C3  UNL d   1       0.330  -0.783   0.028  0.00  0.00    -0.047 A 
ATOM      6  C4  UNL d   1       0.310   0.593  -0.057  0.00  0.00    -0.004 A 
ENDROOT
TORSDOF 0
ENDMDL
