MODEL 1
REMARK minimizedAffinity -2.99496603
REMARK minimizedRMSD -1
REMARK  0 active torsions:
REMARK  status: ('A' for Active; 'I' for Inactive)
ROOT
ATOM      1  C   UNL d   1      -1.100   2.315   0.521  0.00  0.00     0.172 C 
ATOM      2  N   UNL d   1      -0.653   0.941   0.521  0.00  0.00    -0.070 N 
ATOM      3  C1  UNL d   1       0.592   0.507   0.152  0.00  0.00    -0.004 A 
ATOM      4  C2  UNL d   1       0.619  -0.864   0.292  0.00  0.00    -0.047 A 
ATOM      5  C3  UNL d   1      -0.654  -1.267   0.760  0.00  0.00    -0.047 A 
ATOM      6  C4  UNL d   1      -1.422  -0.130   0.893  0.00  0.00    -0.004 A 
ENDROOT
TORSDOF 0
ENDMDL
