MODEL 1
REMARK minimizedAffinity -3.92680454
REMARK minimizedRMSD -1
REMARK  0 active torsions:
REMARK  status: ('A' for Active; 'I' for Inactive)
ROOT
ATOM      1  C   UNL d   1       0.026  -0.462  -0.163  0.00  0.00     0.172 C 
ATOM      2  N   UNL d   1       0.270   0.961  -0.193  0.00  0.00    -0.070 N 
ATOM      3  C1  UNL d   1      -0.689   1.936  -0.123  0.00  0.00    -0.004 A 
ATOM      4  C2  UNL d   1      -0.053   3.157  -0.183  0.00  0.00    -0.047 A 
ATOM      5  C3  UNL d   1       1.336   2.907  -0.295  0.00  0.00    -0.047 A 
ATOM      6  C4  UNL d   1       1.507   1.539  -0.299  0.00  0.00    -0.004 A 
ENDROOT
TORSDOF 0
ENDMDL
