MODEL 1
REMARK minimizedAffinity -2.84740186
REMARK minimizedRMSD -1
REMARK  0 active torsions:
REMARK  status: ('A' for Active; 'I' for Inactive)
ROOT
ATOM      1  C   UNL d   1      -3.133  -4.138  -0.730  0.00  0.00     0.172 C 
ATOM      2  N   UNL d   1      -1.872  -3.547  -1.109  0.00  0.00    -0.070 N 
ATOM      3  C1  UNL d   1      -0.955  -4.100  -1.963  0.00  0.00    -0.004 A 
ATOM      4  C2  UNL d   1       0.108  -3.228  -2.063  0.00  0.00    -0.047 A 
ATOM      5  C3  UNL d   1      -0.180  -2.113  -1.241  0.00  0.00    -0.047 A 
ATOM      6  C4  UNL d   1      -1.411  -2.337  -0.662  0.00  0.00    -0.004 A 
ENDROOT
TORSDOF 0
ENDMDL
