MODEL 1
REMARK minimizedAffinity -4.95851469
REMARK minimizedRMSD -1
REMARK  0 active torsions:
REMARK  status: ('A' for Active; 'I' for Inactive)
ROOT
ATOM      1  O1  BZF d   1      -0.724  -0.891   1.473  0.00  0.00    -0.204 OA
ATOM      2  C2  BZF d   1      -0.627  -2.245   1.215  0.00  0.00     0.174 A 
ATOM      3  C3  BZF d   1      -0.045  -2.463   0.018  0.00  0.00    -0.012 A 
ATOM      4  C3A BZF d   1       0.325  -1.167  -0.463  0.00  0.00    -0.107 A 
ATOM      5  C4  BZF d   1       0.955  -0.730  -1.593  0.00  0.00     0.055 A 
ATOM      6  C5  BZF d   1       1.097   0.607  -1.794  0.00  0.00    -0.016 A 
ATOM      7  C6  BZF d   1       0.618   1.532  -0.890  0.00  0.00     0.022 A 
ATOM      8  C7  BZF d   1      -0.009   1.146   0.248  0.00  0.00     0.029 A 
ATOM      9  C7A BZF d   1      -0.125  -0.204   0.470  0.00  0.00     0.058 A 
ENDROOT
TORSDOF 0
ENDMDL
