MODEL 1
REMARK minimizedAffinity -5.43853951
REMARK minimizedRMSD -1
REMARK  0 active torsions:
REMARK  status: ('A' for Active; 'I' for Inactive)
ROOT
ATOM      1  O1  BZF d   1       0.659   1.332  -1.555  0.00  0.00    -0.204 OA
ATOM      2  C2  BZF d   1       1.210   0.526  -2.534  0.00  0.00     0.174 A 
ATOM      3  C3  BZF d   1       1.181  -0.769  -2.159  0.00  0.00    -0.012 A 
ATOM      4  C3A BZF d   1       0.491  -0.783  -0.906  0.00  0.00    -0.107 A 
ATOM      5  C4  BZF d   1       0.134  -1.779  -0.042  0.00  0.00     0.055 A 
ATOM      6  C5  BZF d   1      -0.467  -1.451   1.132  0.00  0.00    -0.016 A 
ATOM      7  C6  BZF d   1      -0.722  -0.139   1.475  0.00  0.00     0.022 A 
ATOM      8  C7  BZF d   1      -0.391   0.882   0.648  0.00  0.00     0.029 A 
ATOM      9  C7A BZF d   1       0.187   0.552  -0.553  0.00  0.00     0.058 A 
ENDROOT
TORSDOF 0
ENDMDL
