MODEL 1
REMARK minimizedAffinity -3.78315711
REMARK minimizedRMSD -1
REMARK  0 active torsions:
REMARK  status: ('A' for Active; 'I' for Inactive)
ROOT
ATOM      1  O1  BZF d   1      -0.915  -1.057   1.382  0.00  0.00    -0.204 OA
ATOM      2  C2  BZF d   1      -1.087  -2.405   1.132  0.00  0.00     0.174 A 
ATOM      3  C3  BZF d   1      -0.665  -2.719  -0.110  0.00  0.00    -0.012 A 
ATOM      4  C3A BZF d   1      -0.115  -1.508  -0.638  0.00  0.00    -0.107 A 
ATOM      5  C4  BZF d   1       0.476  -1.185  -1.826  0.00  0.00     0.055 A 
ATOM      6  C5  BZF d   1       0.837   0.105  -2.055  0.00  0.00    -0.016 A 
ATOM      7  C6  BZF d   1       0.616   1.097  -1.122  0.00  0.00     0.022 A 
ATOM      8  C7  BZF d   1       0.038   0.824   0.073  0.00  0.00     0.029 A 
ATOM      9  C7A BZF d   1      -0.298  -0.484   0.320  0.00  0.00     0.058 A 
ENDROOT
TORSDOF 0
ENDMDL
