MODEL 1
REMARK minimizedAffinity -4.44370747
REMARK minimizedRMSD -1
REMARK  0 active torsions:
REMARK  status: ('A' for Active; 'I' for Inactive)
ROOT
ATOM      1  O1  BZF d   1      -0.014   0.531  -1.216  0.00  0.00    -0.204 OA
ATOM      2  C2  BZF d   1       0.799  -0.024  -2.185  0.00  0.00     0.174 A 
ATOM      3  C3  BZF d   1       2.021   0.547  -2.169  0.00  0.00    -0.012 A 
ATOM      4  C3A BZF d   1       1.997   1.456  -1.064  0.00  0.00    -0.107 A 
ATOM      5  C4  BZF d   1       2.922   2.304  -0.526  0.00  0.00     0.055 A 
ATOM      6  C5  BZF d   1       2.559   3.108   0.508  0.00  0.00    -0.016 A 
ATOM      7  C6  BZF d   1       1.280   3.092   1.025  0.00  0.00     0.022 A 
ATOM      8  C7  BZF d   1       0.329   2.264   0.528  0.00  0.00     0.029 A 
ATOM      9  C7A BZF d   1       0.703   1.427  -0.495  0.00  0.00     0.058 A 
ENDROOT
TORSDOF 0
ENDMDL
