MODEL 1
REMARK minimizedAffinity 8.96009731
REMARK minimizedRMSD -1
REMARK  0 active torsions:
REMARK  status: ('A' for Active; 'I' for Inactive)
ROOT
ATOM      1  O1  BZF d   1       2.716   4.193   2.351  0.00  0.00    -0.204 OA
ATOM      2  C2  BZF d   1       3.148   3.559   1.202  0.00  0.00     0.174 A 
ATOM      3  C3  BZF d   1       2.104   3.238   0.411  0.00  0.00    -0.012 A 
ATOM      4  C3A BZF d   1       0.954   3.783   1.066  0.00  0.00    -0.107 A 
ATOM      5  C4  BZF d   1      -0.377   3.806   0.762  0.00  0.00     0.055 A 
ATOM      6  C5  BZF d   1      -1.248   4.355   1.649  0.00  0.00    -0.016 A 
ATOM      7  C6  BZF d   1      -0.823   4.885   2.849  0.00  0.00     0.022 A 
ATOM      8  C7  BZF d   1       0.488   4.890   3.193  0.00  0.00     0.029 A 
ATOM      9  C7A BZF d   1       1.374   4.365   2.284  0.00  0.00     0.058 A 
ENDROOT
TORSDOF 0
ENDMDL
