MODEL 1
REMARK minimizedAffinity 1.14076579
REMARK minimizedRMSD -1
REMARK  0 active torsions:
REMARK  status: ('A' for Active; 'I' for Inactive)
ROOT
ATOM      1  O1  BZF d   1      -0.742   0.391  -0.883  0.00  0.00    -0.204 OA
ATOM      2  C2  BZF d   1      -0.702   0.870   0.412  0.00  0.00     0.174 A 
ATOM      3  C3  BZF d   1       0.545   1.269   0.737  0.00  0.00    -0.012 A 
ATOM      4  C3A BZF d   1       1.314   1.109  -0.458  0.00  0.00    -0.107 A 
ATOM      5  C4  BZF d   1       2.620   1.352  -0.774  0.00  0.00     0.055 A 
ATOM      6  C5  BZF d   1       3.075   1.019  -2.010  0.00  0.00    -0.016 A 
ATOM      7  C6  BZF d   1       2.253   0.437  -2.953  0.00  0.00     0.022 A 
ATOM      8  C7  BZF d   1       0.948   0.181  -2.688  0.00  0.00     0.029 A 
ATOM      9  C7A BZF d   1       0.478   0.547  -1.451  0.00  0.00     0.058 A 
ENDROOT
TORSDOF 0
ENDMDL
