MODEL 1
REMARK minimizedAffinity -0.102835134
REMARK minimizedRMSD -1
REMARK  0 active torsions:
REMARK  status: ('A' for Active; 'I' for Inactive)
ROOT
ATOM      1  O1  BZF d   1       2.663   0.980  -0.903  0.00  0.00    -0.204 OA
ATOM      2  C2  BZF d   1       4.023   1.181  -1.043  0.00  0.00     0.174 A 
ATOM      3  C3  BZF d   1       4.445   2.178  -0.238  0.00  0.00    -0.012 A 
ATOM      4  C3A BZF d   1       3.292   2.566   0.516  0.00  0.00    -0.107 A 
ATOM      5  C4  BZF d   1       3.078   3.498   1.491  0.00  0.00     0.055 A 
ATOM      6  C5  BZF d   1       1.819   3.677   1.969  0.00  0.00    -0.016 A 
ATOM      7  C6  BZF d   1       0.750   2.947   1.491  0.00  0.00     0.022 A 
ATOM      8  C7  BZF d   1       0.914   2.008   0.527  0.00  0.00     0.029 A 
ATOM      9  C7A BZF d   1       2.191   1.802   0.065  0.00  0.00     0.058 A 
ENDROOT
TORSDOF 0
ENDMDL
