MODEL 1
REMARK minimizedAffinity -4.81715488
REMARK minimizedRMSD -1
REMARK  0 active torsions:
REMARK  status: ('A' for Active; 'I' for Inactive)
ROOT
ATOM      1  O1  BZF d   1      -0.755   1.102   0.519  0.00  0.00    -0.204 OA
ATOM      2  C2  BZF d   1      -1.321   0.798   1.742  0.00  0.00     0.174 A 
ATOM      3  C3  BZF d   1      -1.314  -0.534   1.955  0.00  0.00    -0.012 A 
ATOM      4  C3A BZF d   1      -0.622  -1.090   0.833  0.00  0.00    -0.107 A 
ATOM      5  C4  BZF d   1      -0.280  -2.364   0.479  0.00  0.00     0.055 A 
ATOM      6  C5  BZF d   1       0.330  -2.576  -0.717  0.00  0.00    -0.016 A 
ATOM      7  C6  BZF d   1       0.608  -1.539  -1.584  0.00  0.00     0.022 A 
ATOM      8  C7  BZF d   1       0.292  -0.258  -1.274  0.00  0.00     0.029 A 
ATOM      9  C7A BZF d   1      -0.294  -0.037  -0.051  0.00  0.00     0.058 A 
ENDROOT
TORSDOF 0
ENDMDL
