MODEL 1
REMARK minimizedAffinity -0.430381805
REMARK minimizedRMSD -1
REMARK  0 active torsions:
REMARK  status: ('A' for Active; 'I' for Inactive)
ROOT
ATOM      1  O1  BZF d   1       0.027  -0.175   0.189  0.00  0.00    -0.204 OA
ATOM      2  C2  BZF d   1      -1.042   0.225   0.968  0.00  0.00     0.174 A 
ATOM      3  C3  BZF d   1      -0.798   1.423   1.537  0.00  0.00    -0.012 A 
ATOM      4  C3A BZF d   1       0.467   1.838   1.012  0.00  0.00    -0.107 A 
ATOM      5  C4  BZF d   1       1.237   2.952   1.190  0.00  0.00     0.055 A 
ATOM      6  C5  BZF d   1       2.454   3.015   0.589  0.00  0.00    -0.016 A 
ATOM      7  C6  BZF d   1       2.934   1.983  -0.191  0.00  0.00     0.022 A 
ATOM      8  C7  BZF d   1       2.204   0.861  -0.400  0.00  0.00     0.029 A 
ATOM      9  C7A BZF d   1       0.960   0.807   0.179  0.00  0.00     0.058 A 
ENDROOT
TORSDOF 0
ENDMDL
