MODEL 1
REMARK minimizedAffinity 7.91889715
REMARK minimizedRMSD -1
REMARK  0 active torsions:
REMARK  status: ('A' for Active; 'I' for Inactive)
ROOT
ATOM      1  O1  BZF d   1       1.035   0.674   0.115  0.00  0.00    -0.204 OA
ATOM      2  C2  BZF d   1      -0.280   0.554   0.519  0.00  0.00     0.174 A 
ATOM      3  C3  BZF d   1      -0.596   1.515   1.411  0.00  0.00    -0.012 A 
ATOM      4  C3A BZF d   1       0.569   2.340   1.504  0.00  0.00    -0.107 A 
ATOM      5  C4  BZF d   1       0.867   3.467   2.216  0.00  0.00     0.055 A 
ATOM      6  C5  BZF d   1       2.121   3.985   2.137  0.00  0.00    -0.016 A 
ATOM      7  C6  BZF d   1       3.101   3.401   1.362  0.00  0.00     0.022 A 
ATOM      8  C7  BZF d   1       2.851   2.285   0.634  0.00  0.00     0.029 A 
ATOM      9  C7A BZF d   1       1.576   1.778   0.685  0.00  0.00     0.058 A 
ENDROOT
TORSDOF 0
ENDMDL
