MODEL 1
REMARK minimizedAffinity -4.58246374
REMARK minimizedRMSD -1
REMARK  0 active torsions:
REMARK  status: ('A' for Active; 'I' for Inactive)
ROOT
ATOM      1  O1  BZF d   1       1.490   2.430   1.150  0.00  0.00    -0.204 OA
ATOM      2  C2  BZF d   1       2.562   3.196   0.734  0.00  0.00     0.174 A 
ATOM      3  C3  BZF d   1       2.951   2.841  -0.508  0.00  0.00    -0.012 A 
ATOM      4  C3A BZF d   1       2.009   1.850  -0.928  0.00  0.00    -0.107 A 
ATOM      5  C4  BZF d   1       1.857   1.127  -2.077  0.00  0.00     0.055 A 
ATOM      6  C5  BZF d   1       0.877   0.187  -2.140  0.00  0.00    -0.016 A 
ATOM      7  C6  BZF d   1       0.037  -0.059  -1.075  0.00  0.00     0.022 A 
ATOM      8  C7  BZF d   1       0.146   0.637   0.083  0.00  0.00     0.029 A 
ATOM      9  C7A BZF d   1       1.113   1.610   0.139  0.00  0.00     0.058 A 
ENDROOT
TORSDOF 0
ENDMDL
