MODEL 1
REMARK minimizedAffinity -0.147592098
REMARK minimizedRMSD -1
REMARK  0 active torsions:
REMARK  status: ('A' for Active; 'I' for Inactive)
ROOT
ATOM      1  O1  BZF d   1      -1.487  -0.273   2.365  0.00  0.00    -0.204 OA
ATOM      2  C2  BZF d   1      -2.120   0.835   2.896  0.00  0.00     0.174 A 
ATOM      3  C3  BZF d   1      -1.986   1.899   2.079  0.00  0.00    -0.012 A 
ATOM      4  C3A BZF d   1      -1.301   1.404   0.925  0.00  0.00    -0.107 A 
ATOM      5  C4  BZF d   1      -0.892   1.981  -0.244  0.00  0.00     0.055 A 
ATOM      6  C5  BZF d   1      -0.183   1.239  -1.134  0.00  0.00    -0.016 A 
ATOM      7  C6  BZF d   1       0.138  -0.080  -0.887  0.00  0.00     0.022 A 
ATOM      8  C7  BZF d   1      -0.250  -0.697   0.256  0.00  0.00     0.029 A 
ATOM      9  C7A BZF d   1      -0.995   0.041   1.143  0.00  0.00     0.058 A 
ENDROOT
TORSDOF 0
ENDMDL
