MODEL 1
REMARK minimizedAffinity 5.56061697
REMARK minimizedRMSD -1
REMARK  0 active torsions:
REMARK  status: ('A' for Active; 'I' for Inactive)
ROOT
ATOM      1  O1  BZF d   1      -0.687  -3.453   1.553  0.00  0.00    -0.204 OA
ATOM      2  C2  BZF d   1      -1.570  -3.714   0.523  0.00  0.00     0.174 A 
ATOM      3  C3  BZF d   1      -2.153  -2.577   0.093  0.00  0.00    -0.012 A 
ATOM      4  C3A BZF d   1      -1.532  -1.529   0.842  0.00  0.00    -0.107 A 
ATOM      5  C4  BZF d   1      -1.676  -0.171   0.854  0.00  0.00     0.055 A 
ATOM      6  C5  BZF d   1      -0.972   0.560   1.757  0.00  0.00    -0.016 A 
ATOM      7  C6  BZF d   1      -0.120  -0.033   2.666  0.00  0.00     0.022 A 
ATOM      8  C7  BZF d   1       0.060  -1.376   2.689  0.00  0.00     0.029 A 
ATOM      9  C7A BZF d   1      -0.626  -2.115   1.756  0.00  0.00     0.058 A 
ENDROOT
TORSDOF 0
ENDMDL
