MODEL 1
REMARK minimizedAffinity 0.287650585
REMARK minimizedRMSD -1
REMARK  0 active torsions:
REMARK  status: ('A' for Active; 'I' for Inactive)
ROOT
ATOM      1  O1  BZF d   1      -0.821  -1.407  -0.889  0.00  0.00    -0.204 OA
ATOM      2  C2  BZF d   1      -0.994  -2.570  -0.164  0.00  0.00     0.174 A 
ATOM      3  C3  BZF d   1      -1.112  -2.300   1.152  0.00  0.00    -0.012 A 
ATOM      4  C3A BZF d   1      -1.098  -0.873   1.247  0.00  0.00    -0.107 A 
ATOM      5  C4  BZF d   1      -1.196   0.000   2.292  0.00  0.00     0.055 A 
ATOM      6  C5  BZF d   1      -1.074   1.333   2.054  0.00  0.00    -0.016 A 
ATOM      7  C6  BZF d   1      -0.848   1.826   0.786  0.00  0.00     0.022 A 
ATOM      8  C7  BZF d   1      -0.748   0.999  -0.284  0.00  0.00     0.029 A 
ATOM      9  C7A BZF d   1      -0.905  -0.345  -0.051  0.00  0.00     0.058 A 
ENDROOT
TORSDOF 0
ENDMDL
