MODEL 1
REMARK minimizedAffinity -4.3178463
REMARK minimizedRMSD -1
REMARK  0 active torsions:
REMARK  status: ('A' for Active; 'I' for Inactive)
ROOT
ATOM      1  O1  BZF d   1       0.432   0.925   1.228  0.00  0.00    -0.204 OA
ATOM      2  C2  BZF d   1       0.959   1.441   0.060  0.00  0.00     0.174 A 
ATOM      3  C3  BZF d   1       0.762   0.592  -0.969  0.00  0.00    -0.012 A 
ATOM      4  C3A BZF d   1      -0.012  -0.483  -0.427  0.00  0.00    -0.107 A 
ATOM      5  C4  BZF d   1      -0.536  -1.625  -0.962  0.00  0.00     0.055 A 
ATOM      6  C5  BZF d   1      -1.180  -2.501  -0.147  0.00  0.00    -0.016 A 
ATOM      7  C6  BZF d   1      -1.313  -2.270   1.207  0.00  0.00     0.022 A 
ATOM      8  C7  BZF d   1      -0.814  -1.149   1.782  0.00  0.00     0.029 A 
ATOM      9  C7A BZF d   1      -0.192  -0.246   0.955  0.00  0.00     0.058 A 
ENDROOT
TORSDOF 0
ENDMDL
