MODEL 1
REMARK minimizedAffinity 2.85559058
REMARK minimizedRMSD -1
REMARK  0 active torsions:
REMARK  status: ('A' for Active; 'I' for Inactive)
ROOT
ATOM      1  O1  BZF d   1       0.097   0.991  -0.366  0.00  0.00    -0.204 OA
ATOM      2  C2  BZF d   1       0.108   2.226   0.254  0.00  0.00     0.174 A 
ATOM      3  C3  BZF d   1      -0.443   2.150   1.483  0.00  0.00    -0.012 A 
ATOM      4  C3A BZF d   1      -0.739   0.763   1.677  0.00  0.00    -0.107 A 
ATOM      5  C4  BZF d   1      -1.283   0.056   2.710  0.00  0.00     0.055 A 
ATOM      6  C5  BZF d   1      -1.505  -1.276   2.554  0.00  0.00    -0.016 A 
ATOM      7  C6  BZF d   1      -1.199  -1.930   1.379  0.00  0.00     0.022 A 
ATOM      8  C7  BZF d   1      -0.652  -1.271   0.328  0.00  0.00     0.029 A 
ATOM      9  C7A BZF d   1      -0.397   0.068   0.494  0.00  0.00     0.058 A 
ENDROOT
TORSDOF 0
ENDMDL
