MODEL 1
REMARK minimizedAffinity -2.47098064
REMARK minimizedRMSD -1
REMARK  1 active torsions:
REMARK  status: ('A' for Active; 'I' for Inactive)
REMARK    1  A    between atoms: C1_2  and  C2_3 
ROOT
ATOM      1  C2  UNL d   1       0.789   0.149   0.816  0.00  0.00    -0.076 A 
ATOM      2  C3  UNL d   1       2.148   0.415   0.576  0.00  0.00     0.004 A 
ATOM      3  C4  UNL d   1       2.549   1.598  -0.044  0.00  0.00    -0.003 A 
ATOM      4  C5  UNL d   1       1.597   2.534  -0.432  0.00  0.00     0.000 A 
ATOM      5  C6  UNL d   1       0.246   2.295  -0.185  0.00  0.00     0.000 A 
ATOM      6  C7  UNL d   1      -0.174   1.115   0.453  0.00  0.00    -0.073 A 
ATOM      7  C8  UNL d   1      -1.645   0.906   0.689  0.00  0.00     0.078 C 
ENDROOT
BRANCH   1   8
ATOM      8  C1  UNL d   1       0.412  -1.162   1.467  0.00  0.00     0.053 C 
ATOM      9  C   UNL d   1       1.365  -1.553   2.586  0.00  0.00     0.018 C 
ENDBRANCH   1   8
TORSDOF 1
ENDMDL
