MODEL 1
REMARK minimizedAffinity 1.27635145
REMARK minimizedRMSD -1
REMARK  1 active torsions:
REMARK  status: ('A' for Active; 'I' for Inactive)
REMARK    1  A    between atoms: C1_2  and  C2_3 
ROOT
ATOM      1  C2  UNL d   1       0.993  -1.455   3.111  0.00  0.00    -0.076 A 
ATOM      2  C3  UNL d   1       0.870  -1.943   1.798  0.00  0.00     0.004 A 
ATOM      3  C4  UNL d   1       1.052  -1.103   0.701  0.00  0.00    -0.003 A 
ATOM      4  C5  UNL d   1       1.361   0.238   0.898  0.00  0.00     0.000 A 
ATOM      5  C6  UNL d   1       1.505   0.735   2.192  0.00  0.00     0.000 A 
ATOM      6  C7  UNL d   1       1.341  -0.101   3.310  0.00  0.00    -0.073 A 
ATOM      7  C8  UNL d   1       1.501   0.489   4.684  0.00  0.00     0.078 C 
ENDROOT
BRANCH   1   8
ATOM      8  C1  UNL d   1       0.758  -2.406   4.262  0.00  0.00     0.053 C 
ATOM      9  C   UNL d   1       2.050  -2.996   4.804  0.00  0.00     0.018 C 
ENDBRANCH   1   8
TORSDOF 1
ENDMDL
