MODEL 1
REMARK minimizedAffinity 4.43277168
REMARK minimizedRMSD -1
REMARK  1 active torsions:
REMARK  status: ('A' for Active; 'I' for Inactive)
REMARK    1  A    between atoms: C1_2  and  C2_3 
ROOT
ATOM      1  C2  UNL d   1      -4.950   2.211  -0.932  0.00  0.00    -0.076 A 
ATOM      2  C3  UNL d   1      -5.793   1.438  -0.114  0.00  0.00     0.004 A 
ATOM      3  C4  UNL d   1      -5.590   1.370   1.263  0.00  0.00    -0.003 A 
ATOM      4  C5  UNL d   1      -4.542   2.075   1.845  0.00  0.00     0.000 A 
ATOM      5  C6  UNL d   1      -3.707   2.860   1.052  0.00  0.00     0.000 A 
ATOM      6  C7  UNL d   1      -3.908   2.953  -0.336  0.00  0.00    -0.073 A 
ATOM      7  C8  UNL d   1      -2.973   3.811  -1.145  0.00  0.00     0.078 C 
ENDROOT
BRANCH   1   8
ATOM      8  C1  UNL d   1      -5.202   2.225  -2.423  0.00  0.00     0.053 C 
ATOM      9  C   UNL d   1      -3.962   1.865  -3.226  0.00  0.00     0.018 C 
ENDBRANCH   1   8
TORSDOF 1
ENDMDL
