MODEL 1
REMARK minimizedAffinity 6.94661236
REMARK minimizedRMSD -1
REMARK  1 active torsions:
REMARK  status: ('A' for Active; 'I' for Inactive)
REMARK    1  A    between atoms: C1_2  and  C2_3 
ROOT
ATOM      1  C2  UNL d   1      -5.625   1.843  -0.328  0.00  0.00    -0.076 A 
ATOM      2  C3  UNL d   1      -6.000   3.145  -0.702  0.00  0.00     0.004 A 
ATOM      3  C4  UNL d   1      -6.000   4.186   0.224  0.00  0.00    -0.003 A 
ATOM      4  C5  UNL d   1      -5.624   3.942   1.541  0.00  0.00     0.000 A 
ATOM      5  C6  UNL d   1      -5.232   2.661   1.926  0.00  0.00     0.000 A 
ATOM      6  C7  UNL d   1      -5.211   1.603   1.000  0.00  0.00    -0.073 A 
ATOM      7  C8  UNL d   1      -4.786   0.239   1.471  0.00  0.00     0.078 C 
ENDROOT
BRANCH   1   8
ATOM      8  C1  UNL d   1      -5.671   0.748  -1.370  0.00  0.00     0.053 C 
ATOM      9  C   UNL d   1      -4.875   1.098  -2.618  0.00  0.00     0.018 C 
ENDBRANCH   1   8
TORSDOF 1
ENDMDL
