MODEL 1
REMARK minimizedAffinity -0.236424834
REMARK minimizedRMSD -1
REMARK  1 active torsions:
REMARK  status: ('A' for Active; 'I' for Inactive)
REMARK    1  A    between atoms: C1_2  and  C2_3 
ROOT
ATOM      1  C2  UNL d   1      -3.869   3.062  -0.854  0.00  0.00    -0.076 A 
ATOM      2  C3  UNL d   1      -5.117   3.672  -1.069  0.00  0.00     0.004 A 
ATOM      3  C4  UNL d   1      -6.000   3.893  -0.014  0.00  0.00    -0.003 A 
ATOM      4  C5  UNL d   1      -5.648   3.508   1.276  0.00  0.00     0.000 A 
ATOM      5  C6  UNL d   1      -4.407   2.918   1.511  0.00  0.00     0.000 A 
ATOM      6  C7  UNL d   1      -3.499   2.703   0.460  0.00  0.00    -0.073 A 
ATOM      7  C8  UNL d   1      -2.176   2.057   0.770  0.00  0.00     0.078 C 
ENDROOT
BRANCH   1   8
ATOM      8  C1  UNL d   1      -2.964   2.824  -2.042  0.00  0.00     0.053 C 
ATOM      9  C   UNL d   1      -3.622   1.966  -3.112  0.00  0.00     0.018 C 
ENDBRANCH   1   8
TORSDOF 1
ENDMDL
