MODEL 1
REMARK minimizedAffinity 3.39847183
REMARK minimizedRMSD -1
REMARK  1 active torsions:
REMARK  status: ('A' for Active; 'I' for Inactive)
REMARK    1  A    between atoms: C1_2  and  C2_3 
ROOT
ATOM      1  C2  UNL d   1      -4.588   3.496   0.594  0.00  0.00    -0.076 A 
ATOM      2  C3  UNL d   1      -3.527   2.856  -0.071  0.00  0.00     0.004 A 
ATOM      3  C4  UNL d   1      -2.229   2.905   0.435  0.00  0.00    -0.003 A 
ATOM      4  C5  UNL d   1      -1.971   3.595   1.614  0.00  0.00     0.000 A 
ATOM      5  C6  UNL d   1      -3.014   4.221   2.296  0.00  0.00     0.000 A 
ATOM      6  C7  UNL d   1      -4.331   4.167   1.809  0.00  0.00    -0.073 A 
ATOM      7  C8  UNL d   1      -5.416   4.865   2.582  0.00  0.00     0.078 C 
ENDROOT
BRANCH   1   8
ATOM      8  C1  UNL d   1      -5.969   3.431  -0.016  0.00  0.00     0.053 C 
ATOM      9  C   UNL d   1      -5.998   2.631  -1.309  0.00  0.00     0.018 C 
ENDBRANCH   1   8
TORSDOF 1
ENDMDL
