MODEL 1
REMARK minimizedAffinity -0.781732559
REMARK minimizedRMSD -1
REMARK  1 active torsions:
REMARK  status: ('A' for Active; 'I' for Inactive)
REMARK    1  A    between atoms: C1_2  and  C2_3 
ROOT
ATOM      1  C2  UNL d   1       3.789  -5.495  -4.765  0.00  0.00    -0.076 A 
ATOM      2  C3  UNL d   1       3.136  -5.118  -3.578  0.00  0.00     0.004 A 
ATOM      3  C4  UNL d   1       3.853  -4.894  -2.404  0.00  0.00    -0.003 A 
ATOM      4  C5  UNL d   1       5.236  -5.042  -2.398  0.00  0.00     0.000 A 
ATOM      5  C6  UNL d   1       5.902  -5.398  -3.570  0.00  0.00     0.000 A 
ATOM      6  C7  UNL d   1       5.195  -5.612  -4.766  0.00  0.00    -0.073 A 
ATOM      7  C8  UNL d   1       5.964  -6.000  -6.000  0.00  0.00     0.078 C 
ENDROOT
BRANCH   1   8
ATOM      8  C1  UNL d   1       2.955  -5.751  -6.000  0.00  0.00     0.053 C 
ATOM      9  C   UNL d   1       1.491  -6.000  -5.674  0.00  0.00     0.018 C 
ENDBRANCH   1   8
TORSDOF 1
ENDMDL
