MODEL 1
REMARK minimizedAffinity 7.64954567
REMARK minimizedRMSD -1
REMARK  1 active torsions:
REMARK  status: ('A' for Active; 'I' for Inactive)
REMARK    1  A    between atoms: C1_2  and  C2_3 
ROOT
ATOM      1  C2  UNL d   1       3.287  -5.345  -4.844  0.00  0.00    -0.076 A 
ATOM      2  C3  UNL d   1       4.109  -5.682  -5.934  0.00  0.00     0.004 A 
ATOM      3  C4  UNL d   1       5.453  -6.000  -5.748  0.00  0.00    -0.003 A 
ATOM      4  C5  UNL d   1       5.998  -5.986  -4.468  0.00  0.00     0.000 A 
ATOM      5  C6  UNL d   1       5.193  -5.671  -3.374  0.00  0.00     0.000 A 
ATOM      6  C7  UNL d   1       3.832  -5.365  -3.542  0.00  0.00    -0.073 A 
ATOM      7  C8  UNL d   1       3.013  -5.027  -2.327  0.00  0.00     0.078 C 
ENDROOT
BRANCH   1   8
ATOM      8  C1  UNL d   1       1.844  -4.983  -5.110  0.00  0.00     0.053 C 
ATOM      9  C   UNL d   1       1.143  -5.999  -6.000  0.00  0.00     0.018 C 
ENDBRANCH   1   8
TORSDOF 1
ENDMDL
