MODEL 1
REMARK minimizedAffinity 4.5034647
REMARK minimizedRMSD -1
REMARK  1 active torsions:
REMARK  status: ('A' for Active; 'I' for Inactive)
REMARK    1  A    between atoms: C1_2  and  C2_3 
ROOT
ATOM      1  C2  UNL d   1       3.447  -5.624  -4.612  0.00  0.00    -0.076 A 
ATOM      2  C3  UNL d   1       2.614  -5.517  -3.484  0.00  0.00     0.004 A 
ATOM      3  C4  UNL d   1       3.135  -5.619  -2.195  0.00  0.00    -0.003 A 
ATOM      4  C5  UNL d   1       4.497  -5.830  -2.013  0.00  0.00     0.000 A 
ATOM      5  C6  UNL d   1       5.341  -5.921  -3.119  0.00  0.00     0.000 A 
ATOM      6  C7  UNL d   1       4.834  -5.804  -4.425  0.00  0.00    -0.073 A 
ATOM      7  C8  UNL d   1       5.789  -5.916  -5.582  0.00  0.00     0.078 C 
ENDROOT
BRANCH   1   8
ATOM      8  C1  UNL d   1       2.822  -5.532  -5.985  0.00  0.00     0.053 C 
ATOM      9  C   UNL d   1       1.374  -5.998  -5.999  0.00  0.00     0.018 C 
ENDBRANCH   1   8
TORSDOF 1
ENDMDL
