MODEL 1
REMARK minimizedAffinity -2.10943651
REMARK minimizedRMSD -1
REMARK  1 active torsions:
REMARK  status: ('A' for Active; 'I' for Inactive)
REMARK    1  A    between atoms: C1_2  and  C2_3 
ROOT
ATOM      1  C2  UNL d   1       3.234  -5.509  -4.816  0.00  0.00    -0.076 A 
ATOM      2  C3  UNL d   1       3.994  -5.490  -5.999  0.00  0.00     0.004 A 
ATOM      3  C4  UNL d   1       5.354  -5.187  -5.972  0.00  0.00    -0.003 A 
ATOM      4  C5  UNL d   1       5.977  -4.898  -4.763  0.00  0.00     0.000 A 
ATOM      5  C6  UNL d   1       5.242  -4.929  -3.578  0.00  0.00     0.000 A 
ATOM      6  C7  UNL d   1       3.873  -5.249  -3.585  0.00  0.00    -0.073 A 
ATOM      7  C8  UNL d   1       3.128  -5.262  -2.279  0.00  0.00     0.078 C 
ENDROOT
BRANCH   1   8
ATOM      8  C1  UNL d   1       1.757  -5.818  -4.910  0.00  0.00     0.053 C 
ATOM      9  C   UNL d   1       1.061  -5.015  -5.999  0.00  0.00     0.018 C 
ENDBRANCH   1   8
TORSDOF 1
ENDMDL
