MODEL 1
REMARK minimizedAffinity 6.20024824
REMARK minimizedRMSD -1
REMARK  1 active torsions:
REMARK  status: ('A' for Active; 'I' for Inactive)
REMARK    1  A    between atoms: C1_2  and  C2_3 
ROOT
ATOM      1  C2  UNL d   1       0.872   2.704   1.501  0.00  0.00    -0.076 A 
ATOM      2  C3  UNL d   1       1.943   3.477   1.984  0.00  0.00     0.004 A 
ATOM      3  C4  UNL d   1       3.262   3.137   1.692  0.00  0.00    -0.003 A 
ATOM      4  C5  UNL d   1       3.533   2.018   0.911  0.00  0.00     0.000 A 
ATOM      5  C6  UNL d   1       2.483   1.250   0.410  0.00  0.00     0.000 A 
ATOM      6  C7  UNL d   1       1.147   1.588   0.681  0.00  0.00    -0.073 A 
ATOM      7  C8  UNL d   1       0.054   0.721   0.119  0.00  0.00     0.078 C 
ENDROOT
BRANCH   1   8
ATOM      8  C1  UNL d   1      -0.537   3.106   1.873  0.00  0.00     0.053 C 
ATOM      9  C   UNL d   1      -1.446   3.231   0.661  0.00  0.00     0.018 C 
ENDBRANCH   1   8
TORSDOF 1
ENDMDL
