MODEL 1
REMARK minimizedAffinity 1.62185323
REMARK minimizedRMSD -1
REMARK  1 active torsions:
REMARK  status: ('A' for Active; 'I' for Inactive)
REMARK    1  A    between atoms: C1_2  and  C2_3 
ROOT
ATOM      1  C2  UNL d   1       3.589  -5.866  -3.314  0.00  0.00    -0.076 A 
ATOM      2  C3  UNL d   1       2.656  -6.000  -4.356  0.00  0.00     0.004 A 
ATOM      3  C4  UNL d   1       3.042  -5.861  -5.688  0.00  0.00    -0.003 A 
ATOM      4  C5  UNL d   1       4.369  -5.587  -6.000  0.00  0.00     0.000 A 
ATOM      5  C6  UNL d   1       5.312  -5.468  -4.979  0.00  0.00     0.000 A 
ATOM      6  C7  UNL d   1       4.942  -5.621  -3.632  0.00  0.00    -0.073 A 
ATOM      7  C8  UNL d   1       6.000  -5.477  -2.572  0.00  0.00     0.078 C 
ENDROOT
BRANCH   1   8
ATOM      8  C1  UNL d   1       3.107  -5.999  -1.887  0.00  0.00     0.053 C 
ATOM      9  C   UNL d   1       3.182  -4.688  -1.121  0.00  0.00     0.018 C 
ENDBRANCH   1   8
TORSDOF 1
ENDMDL
