MODEL 1
REMARK minimizedAffinity 5.44408226
REMARK minimizedRMSD -1
REMARK  1 active torsions:
REMARK  status: ('A' for Active; 'I' for Inactive)
REMARK    1  A    between atoms: C1_2  and  C2_3 
ROOT
ATOM      1  C2  UNL d   1       3.545  -5.530  -3.511  0.00  0.00    -0.076 A 
ATOM      2  C3  UNL d   1       2.640  -5.089  -4.492  0.00  0.00     0.004 A 
ATOM      3  C4  UNL d   1       3.090  -4.622  -5.726  0.00  0.00    -0.003 A 
ATOM      4  C5  UNL d   1       4.453  -4.591  -5.999  0.00  0.00     0.000 A 
ATOM      5  C6  UNL d   1       5.364  -5.041  -5.045  0.00  0.00     0.000 A 
ATOM      6  C7  UNL d   1       4.926  -5.529  -3.802  0.00  0.00    -0.073 A 
ATOM      7  C8  UNL d   1       5.953  -5.997  -2.807  0.00  0.00     0.078 C 
ENDROOT
BRANCH   1   8
ATOM      8  C1  UNL d   1       3.000  -5.999  -2.181  0.00  0.00     0.053 C 
ATOM      9  C   UNL d   1       1.728  -5.268  -1.782  0.00  0.00     0.018 C 
ENDBRANCH   1   8
TORSDOF 1
ENDMDL
