MODEL 1
REMARK minimizedAffinity 3.19524336
REMARK minimizedRMSD -1
REMARK  1 active torsions:
REMARK  status: ('A' for Active; 'I' for Inactive)
REMARK    1  A    between atoms: C1_2  and  C2_3 
ROOT
ATOM      1  C2  UNL d   1       4.521  -5.087  -3.843  0.00  0.00    -0.076 A 
ATOM      2  C3  UNL d   1       3.341  -5.505  -3.204  0.00  0.00     0.004 A 
ATOM      3  C4  UNL d   1       2.163  -5.695  -3.925  0.00  0.00    -0.003 A 
ATOM      4  C5  UNL d   1       2.147  -5.471  -5.297  0.00  0.00     0.000 A 
ATOM      5  C6  UNL d   1       3.313  -5.073  -5.950  0.00  0.00     0.000 A 
ATOM      6  C7  UNL d   1       4.512  -4.892  -5.240  0.00  0.00    -0.073 A 
ATOM      7  C8  UNL d   1       5.739  -4.456  -5.994  0.00  0.00     0.078 C 
ENDROOT
BRANCH   1   8
ATOM      8  C1  UNL d   1       5.761  -4.871  -3.004  0.00  0.00     0.053 C 
ATOM      9  C   UNL d   1       5.995  -5.997  -2.010  0.00  0.00     0.018 C 
ENDBRANCH   1   8
TORSDOF 1
ENDMDL
