MODEL 1
REMARK minimizedAffinity -0.956791461
REMARK minimizedRMSD -1
REMARK  1 active torsions:
REMARK  status: ('A' for Active; 'I' for Inactive)
REMARK    1  A    between atoms: C1_2  and  C2_3 
ROOT
ATOM      1  C2  UNL d   1       3.214  -5.740  -4.681  0.00  0.00    -0.076 A 
ATOM      2  C3  UNL d   1       3.841  -5.509  -5.918  0.00  0.00     0.004 A 
ATOM      3  C4  UNL d   1       5.206  -5.242  -5.992  0.00  0.00    -0.003 A 
ATOM      4  C5  UNL d   1       5.969  -5.202  -4.830  0.00  0.00     0.000 A 
ATOM      5  C6  UNL d   1       5.367  -5.446  -3.596  0.00  0.00     0.000 A 
ATOM      6  C7  UNL d   1       3.994  -5.733  -3.505  0.00  0.00    -0.073 A 
ATOM      7  C8  UNL d   1       3.397  -5.982  -2.148  0.00  0.00     0.078 C 
ENDROOT
BRANCH   1   8
ATOM      8  C1  UNL d   1       1.724  -5.998  -4.661  0.00  0.00     0.053 C 
ATOM      9  C   UNL d   1       1.061  -5.689  -5.994  0.00  0.00     0.018 C 
ENDBRANCH   1   8
TORSDOF 1
ENDMDL
