MODEL 1
REMARK minimizedAffinity 2.64103246
REMARK minimizedRMSD -1
REMARK  1 active torsions:
REMARK  status: ('A' for Active; 'I' for Inactive)
REMARK    1  A    between atoms: C1_2  and  C2_3 
ROOT
ATOM      1  C2  UNL d   1      -3.244   3.512  -5.535  0.00  0.00    -0.076 A 
ATOM      2  C3  UNL d   1      -3.743   2.201  -5.438  0.00  0.00     0.004 A 
ATOM      3  C4  UNL d   1      -5.101   1.936  -5.606  0.00  0.00    -0.003 A 
ATOM      4  C5  UNL d   1      -5.983   2.978  -5.876  0.00  0.00     0.000 A 
ATOM      5  C6  UNL d   1      -5.502   4.282  -5.993  0.00  0.00     0.000 A 
ATOM      6  C7  UNL d   1      -4.134   4.564  -5.841  0.00  0.00    -0.073 A 
ATOM      7  C8  UNL d   1      -3.672   5.989  -5.972  0.00  0.00     0.078 C 
ENDROOT
BRANCH   1   8
ATOM      8  C1  UNL d   1      -1.766   3.742  -5.315  0.00  0.00     0.053 C 
ATOM      9  C   UNL d   1      -1.355   3.547  -3.864  0.00  0.00     0.018 C 
ENDBRANCH   1   8
TORSDOF 1
ENDMDL
