MODEL 1
REMARK minimizedAffinity 1.16819608
REMARK minimizedRMSD -1
REMARK  1 active torsions:
REMARK  status: ('A' for Active; 'I' for Inactive)
REMARK    1  A    between atoms: C1_2  and  C2_3 
ROOT
ATOM      1  C2  UNL d   1       0.277   2.607   1.408  0.00  0.00    -0.076 A 
ATOM      2  C3  UNL d   1       1.423   3.333   1.779  0.00  0.00     0.004 A 
ATOM      3  C4  UNL d   1       2.699   2.861   1.477  0.00  0.00    -0.003 A 
ATOM      4  C5  UNL d   1       2.851   1.657   0.799  0.00  0.00     0.000 A 
ATOM      5  C6  UNL d   1       1.725   0.933   0.408  0.00  0.00     0.000 A 
ATOM      6  C7  UNL d   1       0.431   1.402   0.690  0.00  0.00    -0.073 A 
ATOM      7  C8  UNL d   1      -0.748   0.577   0.251  0.00  0.00     0.078 C 
ENDROOT
BRANCH   1   8
ATOM      8  C1  UNL d   1      -1.080   3.155   1.787  0.00  0.00     0.053 C 
ATOM      9  C   UNL d   1      -1.244   3.320   3.290  0.00  0.00     0.018 C 
ENDBRANCH   1   8
TORSDOF 1
ENDMDL
