MODEL 1
REMARK minimizedAffinity -0.391077965
REMARK minimizedRMSD -1
REMARK  1 active torsions:
REMARK  status: ('A' for Active; 'I' for Inactive)
REMARK    1  A    between atoms: C1_2  and  C2_3 
ROOT
ATOM      1  C2  UNL d   1       3.539  -5.466  -3.311  0.00  0.00    -0.076 A 
ATOM      2  C3  UNL d   1       2.572  -5.715  -4.299  0.00  0.00     0.004 A 
ATOM      3  C4  UNL d   1       2.943  -5.979  -5.617  0.00  0.00    -0.003 A 
ATOM      4  C5  UNL d   1       4.288  -5.998  -5.967  0.00  0.00     0.000 A 
ATOM      5  C6  UNL d   1       5.263  -5.770  -4.996  0.00  0.00     0.000 A 
ATOM      6  C7  UNL d   1       4.906  -5.519  -3.660  0.00  0.00    -0.073 A 
ATOM      7  C8  UNL d   1       5.998  -5.274  -2.654  0.00  0.00     0.078 C 
ENDROOT
BRANCH   1   8
ATOM      8  C1  UNL d   1       3.076  -5.159  -1.905  0.00  0.00     0.053 C 
ATOM      9  C   UNL d   1       1.562  -5.207  -1.766  0.00  0.00     0.018 C 
ENDBRANCH   1   8
TORSDOF 1
ENDMDL
