MODEL 1
REMARK minimizedAffinity -2.1984086
REMARK minimizedRMSD -1
REMARK  1 active torsions:
REMARK  status: ('A' for Active; 'I' for Inactive)
REMARK    1  A    between atoms: C1_2  and  C2_3 
ROOT
ATOM      1  C2  UNL d   1       3.818  -5.703  -3.582  0.00  0.00    -0.076 A 
ATOM      2  C3  UNL d   1       3.165  -5.878  -4.814  0.00  0.00     0.004 A 
ATOM      3  C4  UNL d   1       3.888  -5.999  -5.999  0.00  0.00    -0.003 A 
ATOM      4  C5  UNL d   1       5.277  -5.946  -5.972  0.00  0.00     0.000 A 
ATOM      5  C6  UNL d   1       5.943  -5.790  -4.756  0.00  0.00     0.000 A 
ATOM      6  C7  UNL d   1       5.229  -5.683  -3.550  0.00  0.00    -0.073 A 
ATOM      7  C8  UNL d   1       5.998  -5.510  -2.269  0.00  0.00     0.078 C 
ENDROOT
BRANCH   1   8
ATOM      8  C1  UNL d   1       2.980  -5.550  -2.333  0.00  0.00     0.053 C 
ATOM      9  C   UNL d   1       1.531  -5.207  -2.642  0.00  0.00     0.018 C 
ENDBRANCH   1   8
TORSDOF 1
ENDMDL
