MODEL 1
REMARK minimizedAffinity 2.59187341
REMARK minimizedRMSD -1
REMARK  1 active torsions:
REMARK  status: ('A' for Active; 'I' for Inactive)
REMARK    1  A    between atoms: C1_2  and  C2_3 
ROOT
ATOM      1  C2  UNL d   1       2.614   3.047   1.423  0.00  0.00    -0.076 A 
ATOM      2  C3  UNL d   1       3.463   2.222   0.665  0.00  0.00     0.004 A 
ATOM      3  C4  UNL d   1       2.960   1.133  -0.044  0.00  0.00    -0.003 A 
ATOM      4  C5  UNL d   1       1.598   0.851  -0.007  0.00  0.00     0.000 A 
ATOM      5  C6  UNL d   1       0.739   1.669   0.726  0.00  0.00     0.000 A 
ATOM      6  C7  UNL d   1       1.228   2.781   1.434  0.00  0.00    -0.073 A 
ATOM      7  C8  UNL d   1       0.257   3.625   2.213  0.00  0.00     0.078 C 
ENDROOT
BRANCH   1   8
ATOM      8  C1  UNL d   1       3.221   4.198   2.194  0.00  0.00     0.053 C 
ATOM      9  C   UNL d   1       3.608   5.361   1.294  0.00  0.00     0.018 C 
ENDBRANCH   1   8
TORSDOF 1
ENDMDL
