MODEL 1
REMARK minimizedAffinity -0.311418831
REMARK minimizedRMSD -1
REMARK  1 active torsions:
REMARK  status: ('A' for Active; 'I' for Inactive)
REMARK    1  A    between atoms: C1_2  and  C2_3 
ROOT
ATOM      1  C2  UNL d   1      -0.773   2.596  -5.087  0.00  0.00    -0.076 A 
ATOM      2  C3  UNL d   1       0.202   2.155  -5.999  0.00  0.00     0.004 A 
ATOM      3  C4  UNL d   1       1.467   1.766  -5.565  0.00  0.00    -0.003 A 
ATOM      4  C5  UNL d   1       1.779   1.811  -4.210  0.00  0.00     0.000 A 
ATOM      5  C6  UNL d   1       0.819   2.228  -3.289  0.00  0.00     0.000 A 
ATOM      6  C7  UNL d   1      -0.467   2.608  -3.709  0.00  0.00    -0.073 A 
ATOM      7  C8  UNL d   1      -1.462   3.056  -2.673  0.00  0.00     0.078 C 
ENDROOT
BRANCH   1   8
ATOM      8  C1  UNL d   1      -2.119   3.031  -5.619  0.00  0.00     0.053 C 
ATOM      9  C   UNL d   1      -3.189   1.965  -5.441  0.00  0.00     0.018 C 
ENDBRANCH   1   8
TORSDOF 1
ENDMDL
