MODEL 1
REMARK minimizedAffinity 17.079813
REMARK minimizedRMSD -1
REMARK  0 active torsions:
REMARK  status: ('A' for Active; 'I' for Inactive)
ROOT
ATOM      1  C   UNL d   1       0.812   4.431  -1.835  0.00  0.00     0.020 A 
ATOM      2  C1  UNL d   1       0.043   3.760  -2.784  0.00  0.00     0.020 A 
ATOM      3  C2  UNL d   1      -0.821   2.737  -2.387  0.00  0.00     0.034 A 
ATOM      4  C3  UNL d   1      -0.918   2.383  -1.036  0.00  0.00     0.017 A 
ATOM      5  C4  UNL d   1      -0.146   3.058  -0.084  0.00  0.00     0.017 A 
ATOM      6  C5  UNL d   1       0.717   4.081  -0.487  0.00  0.00     0.034 A 
ATOM      7 Cl   UNL d   1      -0.212   2.678   1.601  0.00  0.00    -0.070 Cl
ATOM      8 Cl1  UNL d   1      -2.007   1.109  -0.616  0.00  0.00    -0.070 Cl
ENDROOT
TORSDOF 0
ENDMDL
