MODEL 1
REMARK minimizedAffinity 19.5344238
REMARK minimizedRMSD -1
REMARK  0 active torsions:
REMARK  status: ('A' for Active; 'I' for Inactive)
ROOT
ATOM      1  C   UNL d   1       0.914   3.743  -1.397  0.00  0.00     0.020 A 
ATOM      2  C1  UNL d   1       0.407   3.021  -2.476  0.00  0.00     0.020 A 
ATOM      3  C2  UNL d   1      -0.669   2.150  -2.290  0.00  0.00     0.034 A 
ATOM      4  C3  UNL d   1      -1.241   1.999  -1.021  0.00  0.00     0.017 A 
ATOM      5  C4  UNL d   1      -0.731   2.725   0.061  0.00  0.00     0.017 A 
ATOM      6  C5  UNL d   1       0.346   3.595  -0.131  0.00  0.00     0.034 A 
ATOM      7 Cl   UNL d   1      -1.384   2.592   1.656  0.00  0.00    -0.070 Cl
ATOM      8 Cl1  UNL d   1      -2.569   0.905  -0.864  0.00  0.00    -0.070 Cl
ENDROOT
TORSDOF 0
ENDMDL
