MODEL 1
REMARK minimizedAffinity 4.93624401
REMARK minimizedRMSD -1
REMARK  0 active torsions:
REMARK  status: ('A' for Active; 'I' for Inactive)
ROOT
ATOM      1  C   UNL d   1      -3.994   0.693  -2.506  0.00  0.00     0.020 A 
ATOM      2  C1  UNL d   1      -3.526   0.219  -1.281  0.00  0.00     0.020 A 
ATOM      3  C2  UNL d   1      -2.440   0.840  -0.661  0.00  0.00     0.034 A 
ATOM      4  C3  UNL d   1      -1.818   1.939  -1.266  0.00  0.00     0.017 A 
ATOM      5  C4  UNL d   1      -2.288   2.413  -2.496  0.00  0.00     0.017 A 
ATOM      6  C5  UNL d   1      -3.376   1.787  -3.112  0.00  0.00     0.034 A 
ATOM      7 Cl   UNL d   1      -1.572   3.763  -3.303  0.00  0.00    -0.070 Cl
ATOM      8 Cl1  UNL d   1      -0.480   2.658  -0.443  0.00  0.00    -0.070 Cl
ENDROOT
TORSDOF 0
ENDMDL
