MODEL 1
REMARK minimizedAffinity 5.67193651
REMARK minimizedRMSD -1
REMARK  0 active torsions:
REMARK  status: ('A' for Active; 'I' for Inactive)
ROOT
ATOM      1  C   UNL d   1       1.041   0.893   2.584  0.00  0.00     0.020 A 
ATOM      2  C1  UNL d   1       1.255   1.822   1.567  0.00  0.00     0.020 A 
ATOM      3  C2  UNL d   1       0.184   2.563   1.062  0.00  0.00     0.034 A 
ATOM      4  C3  UNL d   1      -1.105   2.375   1.574  0.00  0.00     0.017 A 
ATOM      5  C4  UNL d   1      -1.319   1.442   2.595  0.00  0.00     0.017 A 
ATOM      6  C5  UNL d   1      -0.243   0.704   3.097  0.00  0.00     0.034 A 
ATOM      7 Cl   UNL d   1      -2.881   1.156   3.277  0.00  0.00    -0.070 Cl
ATOM      8 Cl1  UNL d   1      -2.382   3.326   0.902  0.00  0.00    -0.070 Cl
ENDROOT
TORSDOF 0
ENDMDL
