MODEL 1
REMARK minimizedAffinity 3.21013355
REMARK minimizedRMSD -1
REMARK  0 active torsions:
REMARK  status: ('A' for Active; 'I' for Inactive)
ROOT
ATOM      1  C   UNL d   1       0.955   4.011  -0.539  0.00  0.00     0.020 A 
ATOM      2  C1  UNL d   1       0.561   2.833  -1.173  0.00  0.00     0.020 A 
ATOM      3  C2  UNL d   1       0.434   1.653  -0.437  0.00  0.00     0.034 A 
ATOM      4  C3  UNL d   1       0.702   1.648   0.937  0.00  0.00     0.017 A 
ATOM      5  C4  UNL d   1       1.098   2.831   1.572  0.00  0.00     0.017 A 
ATOM      6  C5  UNL d   1       1.223   4.010   0.831  0.00  0.00     0.034 A 
ATOM      7 Cl   UNL d   1       1.445   2.902   3.264  0.00  0.00    -0.070 Cl
ATOM      8 Cl1  UNL d   1       0.525   0.153   1.784  0.00  0.00    -0.070 Cl
ENDROOT
TORSDOF 0
ENDMDL
