MODEL 1
REMARK minimizedAffinity -0.954203129
REMARK minimizedRMSD -1
REMARK  0 active torsions:
REMARK  status: ('A' for Active; 'I' for Inactive)
ROOT
ATOM      1  C   UNL d   1       5.340  -3.514  -2.463  0.00  0.00     0.020 A 
ATOM      2  C1  UNL d   1       4.900  -4.798  -2.780  0.00  0.00     0.020 A 
ATOM      3  C2  UNL d   1       3.581  -5.170  -2.511  0.00  0.00     0.034 A 
ATOM      4  C3  UNL d   1       2.698  -4.256  -1.924  0.00  0.00     0.017 A 
ATOM      5  C4  UNL d   1       3.141  -2.967  -1.606  0.00  0.00     0.017 A 
ATOM      6  C5  UNL d   1       4.463  -2.600  -1.877  0.00  0.00     0.034 A 
ATOM      7 Cl   UNL d   1       2.110  -1.785  -0.880  0.00  0.00    -0.070 Cl
ATOM      8 Cl1  UNL d   1       1.081  -4.784  -1.621  0.00  0.00    -0.070 Cl
ENDROOT
TORSDOF 0
ENDMDL
