MODEL 1
REMARK minimizedAffinity 1.08628035
REMARK minimizedRMSD -1
REMARK  0 active torsions:
REMARK  status: ('A' for Active; 'I' for Inactive)
ROOT
ATOM      1  C   UNL d   1       0.238  -0.216   2.402  0.00  0.00     0.020 A 
ATOM      2  C1  UNL d   1       0.168   1.061   2.957  0.00  0.00     0.020 A 
ATOM      3  C2  UNL d   1       0.333   2.185   2.144  0.00  0.00     0.034 A 
ATOM      4  C3  UNL d   1       0.570   2.034   0.773  0.00  0.00     0.017 A 
ATOM      5  C4  UNL d   1       0.640   0.751   0.218  0.00  0.00     0.017 A 
ATOM      6  C5  UNL d   1       0.473  -0.371   1.036  0.00  0.00     0.034 A 
ATOM      7 Cl   UNL d   1       0.928   0.484  -1.465  0.00  0.00    -0.070 Cl
ATOM      8 Cl1  UNL d   1       0.764   3.467  -0.172  0.00  0.00    -0.070 Cl
ENDROOT
TORSDOF 0
ENDMDL
