MODEL 1
REMARK minimizedAffinity -2.4561429
REMARK minimizedRMSD -1
REMARK  0 active torsions:
REMARK  status: ('A' for Active; 'I' for Inactive)
ROOT
ATOM      1  C   UNL d   1      -0.318   1.653   2.397  0.00  0.00     0.020 A 
ATOM      2  C1  UNL d   1      -0.067   0.329   2.042  0.00  0.00     0.020 A 
ATOM      3  C2  UNL d   1       0.306   0.016   0.733  0.00  0.00     0.034 A 
ATOM      4  C3  UNL d   1       0.428   1.028  -0.225  0.00  0.00     0.017 A 
ATOM      5  C4  UNL d   1       0.175   2.358   0.132  0.00  0.00     0.017 A 
ATOM      6  C5  UNL d   1      -0.198   2.665   1.444  0.00  0.00     0.034 A 
ATOM      7 Cl   UNL d   1       0.305   3.661  -0.995  0.00  0.00    -0.070 Cl
ATOM      8 Cl1  UNL d   1       0.893   0.569  -1.825  0.00  0.00    -0.070 Cl
ENDROOT
TORSDOF 0
ENDMDL
