MODEL 1
REMARK minimizedAffinity 11.002759
REMARK minimizedRMSD -1
REMARK  0 active torsions:
REMARK  status: ('A' for Active; 'I' for Inactive)
ROOT
ATOM      1  C   UNL d   1      -1.003   2.646   2.665  0.00  0.00     0.020 A 
ATOM      2  C1  UNL d   1      -1.412   3.042   1.393  0.00  0.00     0.020 A 
ATOM      3  C2  UNL d   1      -0.502   3.643   0.521  0.00  0.00     0.034 A 
ATOM      4  C3  UNL d   1       0.824   3.850   0.921  0.00  0.00     0.017 A 
ATOM      5  C4  UNL d   1       1.234   3.453   2.199  0.00  0.00     0.017 A 
ATOM      6  C5  UNL d   1       0.318   2.852   3.068  0.00  0.00     0.034 A 
ATOM      7 Cl   UNL d   1       2.852   3.676   2.764  0.00  0.00    -0.070 Cl
ATOM      8 Cl1  UNL d   1       1.896   4.599  -0.208  0.00  0.00    -0.070 Cl
ENDROOT
TORSDOF 0
ENDMDL
