MODEL 1
REMARK minimizedAffinity 18.0394173
REMARK minimizedRMSD -1
REMARK  0 active torsions:
REMARK  status: ('A' for Active; 'I' for Inactive)
ROOT
ATOM      1  C   UNL d   1      -5.052   1.115  -3.703  0.00  0.00     0.020 A 
ATOM      2  C1  UNL d   1      -4.608   1.424  -2.418  0.00  0.00     0.020 A 
ATOM      3  C2  UNL d   1      -3.716   2.480  -2.222  0.00  0.00     0.034 A 
ATOM      4  C3  UNL d   1      -3.264   3.231  -3.314  0.00  0.00     0.017 A 
ATOM      5  C4  UNL d   1      -3.710   2.920  -4.603  0.00  0.00     0.017 A 
ATOM      6  C5  UNL d   1      -4.604   1.861  -4.793  0.00  0.00     0.034 A 
ATOM      7 Cl   UNL d   1      -3.197   3.801  -5.999  0.00  0.00    -0.070 Cl
ATOM      8 Cl1  UNL d   1      -2.161   4.523  -2.999  0.00  0.00    -0.070 Cl
ENDROOT
TORSDOF 0
ENDMDL
