MODEL 1
REMARK minimizedAffinity 16.0410709
REMARK minimizedRMSD -1
REMARK  0 active torsions:
REMARK  status: ('A' for Active; 'I' for Inactive)
ROOT
ATOM      1  C   UNL d   1      -3.734   3.274  -2.447  0.00  0.00     0.020 A 
ATOM      2  C1  UNL d   1      -4.659   2.253  -2.233  0.00  0.00     0.020 A 
ATOM      3  C2  UNL d   1      -4.402   1.269  -1.275  0.00  0.00     0.034 A 
ATOM      4  C3  UNL d   1      -3.218   1.305  -0.529  0.00  0.00     0.017 A 
ATOM      5  C4  UNL d   1      -2.291   2.331  -0.745  0.00  0.00     0.017 A 
ATOM      6  C5  UNL d   1      -2.553   3.313  -1.705  0.00  0.00     0.034 A 
ATOM      7 Cl   UNL d   1      -0.809   2.441   0.136  0.00  0.00    -0.070 Cl
ATOM      8 Cl1  UNL d   1      -2.967   0.056   0.638  0.00  0.00    -0.070 Cl
ENDROOT
TORSDOF 0
ENDMDL
