MODEL 1
REMARK minimizedAffinity 16.3849277
REMARK minimizedRMSD -1
REMARK  0 active torsions:
REMARK  status: ('A' for Active; 'I' for Inactive)
ROOT
ATOM      1  C   UNL d   1      -0.213   2.302   3.066  0.00  0.00     0.020 A 
ATOM      2  C1  UNL d   1       1.134   2.315   2.705  0.00  0.00     0.020 A 
ATOM      3  C2  UNL d   1       1.511   2.747   1.432  0.00  0.00     0.034 A 
ATOM      4  C3  UNL d   1       0.541   3.167   0.515  0.00  0.00     0.017 A 
ATOM      5  C4  UNL d   1      -0.810   3.153   0.878  0.00  0.00     0.017 A 
ATOM      6  C5  UNL d   1      -1.183   2.720   2.154  0.00  0.00     0.034 A 
ATOM      7 Cl   UNL d   1      -2.065   3.657  -0.199  0.00  0.00    -0.070 Cl
ATOM      8 Cl1  UNL d   1       1.080   3.688  -1.042  0.00  0.00    -0.070 Cl
ENDROOT
TORSDOF 0
ENDMDL
