MODEL 1
REMARK minimizedAffinity 9.9664917
REMARK minimizedRMSD -1
REMARK  3 active torsions:
REMARK  status: ('A' for Active; 'I' for Inactive)
REMARK    1  A    between atoms: C3'_2  and  C2'_3 
REMARK    2  A    between atoms: C2'_3  and  C1'_4 
REMARK    3  A    between atoms: C1'_4  and  C1_5 
ROOT
ATOM      1  C1  N4B d   1       2.650   1.132   0.008  0.00  0.00    -0.075 A 
ATOM      2  C2  N4B d   1       3.753   1.995   0.190  0.00  0.00     0.002 A 
ATOM      3  C3  N4B d   1       4.063   2.925  -0.773  0.00  0.00     0.002 A 
ATOM      4  C4  N4B d   1       3.299   2.997  -1.928  0.00  0.00    -0.004 A 
ATOM      5  C5  N4B d   1       2.220   2.177  -2.084  0.00  0.00     0.002 A 
ATOM      6  C6  N4B d   1       1.894   1.240  -1.124  0.00  0.00     0.002 A 
ENDROOT
BRANCH   1   7
ATOM      7  C1' N4B d   1       2.324   0.042   0.992  0.00  0.00     0.057 C 
BRANCH   7   8
ATOM      8  C2' N4B d   1       3.571  -0.801   1.237  0.00  0.00     0.009 C 
BRANCH   8   9
ATOM      9  C3' N4B d   1       4.794   0.058   1.508  0.00  0.00     0.004 C 
ATOM     10  C4' N4B d   1       6.000  -0.750   1.885  0.00  0.00     0.003 C 
ENDBRANCH   8   9
ENDBRANCH   7   8
ENDBRANCH   1   7
TORSDOF 3
ENDMDL
