MODEL 1
REMARK minimizedAffinity 10.0365334
REMARK minimizedRMSD -1
REMARK  3 active torsions:
REMARK  status: ('A' for Active; 'I' for Inactive)
REMARK    1  A    between atoms: C3'_2  and  C2'_3 
REMARK    2  A    between atoms: C2'_3  and  C1'_4 
REMARK    3  A    between atoms: C1'_4  and  C1_5 
ROOT
ATOM      1  C1  N4B d   1       2.979  -0.025   0.125  0.00  0.00    -0.075 A 
ATOM      2  C2  N4B d   1       2.977  -0.915   1.222  0.00  0.00     0.002 A 
ATOM      3  C3  N4B d   1       2.369  -2.141   1.108  0.00  0.00     0.002 A 
ATOM      4  C4  N4B d   1       1.743  -2.490  -0.079  0.00  0.00    -0.004 A 
ATOM      5  C5  N4B d   1       1.772  -1.634  -1.142  0.00  0.00     0.002 A 
ATOM      6  C6  N4B d   1       2.383  -0.400  -1.044  0.00  0.00     0.002 A 
ENDROOT
BRANCH   1   7
ATOM      7  C1' N4B d   1       3.556   1.361   0.229  0.00  0.00     0.057 C 
BRANCH   7   8
ATOM      8  C2' N4B d   1       3.230   2.136  -1.044  0.00  0.00     0.009 C 
BRANCH   8   9
ATOM      9  C3' N4B d   1       4.472   2.421  -1.871  0.00  0.00     0.004 C 
ATOM     10  C4' N4B d   1       4.695   1.406  -2.952  0.00  0.00     0.003 C 
ENDBRANCH   8   9
ENDBRANCH   7   8
ENDBRANCH   1   7
TORSDOF 3
ENDMDL
