MODEL 1
REMARK minimizedAffinity 6.54332113
REMARK minimizedRMSD -1
REMARK  3 active torsions:
REMARK  status: ('A' for Active; 'I' for Inactive)
REMARK    1  A    between atoms: C3'_2  and  C2'_3 
REMARK    2  A    between atoms: C2'_3  and  C1'_4 
REMARK    3  A    between atoms: C1'_4  and  C1_5 
ROOT
ATOM      1  C1  N4B d   1      -4.475   0.357  -1.847  0.00  0.00    -0.075 A 
ATOM      2  C2  N4B d   1      -3.414   0.254  -2.775  0.00  0.00     0.002 A 
ATOM      3  C3  N4B d   1      -3.673   0.315  -4.122  0.00  0.00     0.002 A 
ATOM      4  C4  N4B d   1      -4.979   0.460  -4.564  0.00  0.00    -0.004 A 
ATOM      5  C5  N4B d   1      -5.994   0.585  -3.662  0.00  0.00     0.002 A 
ATOM      6  C6  N4B d   1      -5.749   0.529  -2.305  0.00  0.00     0.002 A 
ENDROOT
BRANCH   1   7
ATOM      7  C1' N4B d   1      -4.252   0.209  -0.367  0.00  0.00     0.057 C 
BRANCH   7   8
ATOM      8  C2' N4B d   1      -5.030   1.296   0.367  0.00  0.00     0.009 C 
BRANCH   8   9
ATOM      9  C3' N4B d   1      -4.231   2.582   0.492  0.00  0.00     0.004 C 
ATOM     10  C4' N4B d   1      -4.432   3.266   1.811  0.00  0.00     0.003 C 
ENDBRANCH   8   9
ENDBRANCH   7   8
ENDBRANCH   1   7
TORSDOF 3
ENDMDL
