MODEL 1
REMARK minimizedAffinity 8.84183407
REMARK minimizedRMSD -1
REMARK  3 active torsions:
REMARK  status: ('A' for Active; 'I' for Inactive)
REMARK    1  A    between atoms: C3'_2  and  C2'_3 
REMARK    2  A    between atoms: C2'_3  and  C1'_4 
REMARK    3  A    between atoms: C1'_4  and  C1_5 
ROOT
ATOM      1  C1  N4B d   1      -0.432  -3.821   4.291  0.00  0.00    -0.075 A 
ATOM      2  C2  N4B d   1      -1.430  -4.820   4.286  0.00  0.00     0.002 A 
ATOM      3  C3  N4B d   1      -1.329  -5.894   5.136  0.00  0.00     0.002 A 
ATOM      4  C4  N4B d   1      -0.235  -6.000   5.982  0.00  0.00    -0.004 A 
ATOM      5  C5  N4B d   1       0.711  -5.017   5.998  0.00  0.00     0.002 A 
ATOM      6  C6  N4B d   1       0.621  -3.930   5.152  0.00  0.00     0.002 A 
ENDROOT
BRANCH   1   7
ATOM      7  C1' N4B d   1      -0.455  -2.672   3.320  0.00  0.00     0.057 C 
BRANCH   7   8
ATOM      8  C2' N4B d   1       0.977  -2.220   3.045  0.00  0.00     0.009 C 
BRANCH   8   9
ATOM      9  C3' N4B d   1       1.446  -2.631   1.660  0.00  0.00     0.004 C 
ATOM     10  C4' N4B d   1       2.633  -1.843   1.192  0.00  0.00     0.003 C 
ENDBRANCH   8   9
ENDBRANCH   7   8
ENDBRANCH   1   7
TORSDOF 3
ENDMDL
