MODEL 1
REMARK minimizedAffinity 4.32971191
REMARK minimizedRMSD -1
REMARK  1 active torsions:
REMARK  status: ('A' for Active; 'I' for Inactive)
REMARK    1  A    between atoms: C3_4  and  O_7 
ROOT
ATOM      1  C   UNL d   1      -3.269  -2.277   5.334  0.00  0.00    -0.033 A 
ATOM      2  C1  UNL d   1      -2.863  -3.435   4.668  0.00  0.00     0.039 A 
ATOM      3  C2  UNL d   1      -3.682  -4.566   4.668  0.00  0.00    -0.080 A 
ATOM      4  C3  UNL d   1      -4.903  -4.526   5.336  0.00  0.00     0.150 A 
ATOM      5  C4  UNL d   1      -5.315  -3.374   5.998  0.00  0.00    -0.007 A 
ATOM      6  C5  UNL d   1      -4.496  -2.246   5.998  0.00  0.00     0.039 A 
ENDROOT
BRANCH   4   7
ATOM      7  O   UNL d   1      -5.733  -5.606   5.368  0.00  0.00    -0.526 OA
ATOM      8  H5  UNL d   1      -5.305  -6.338   4.893  0.00  0.00     0.418 HD
ENDBRANCH   4   7
TORSDOF 1
ENDMDL
