MODEL 1
REMARK minimizedAffinity 2.07799077
REMARK minimizedRMSD -1
REMARK  1 active torsions:
REMARK  status: ('A' for Active; 'I' for Inactive)
REMARK    1  A    between atoms: C3_4  and  O_7 
ROOT
ATOM      1  C   UNL d   1      -2.233   2.156   2.188  0.00  0.00    -0.033 A 
ATOM      2  C1  UNL d   1      -2.737   2.483   0.927  0.00  0.00     0.039 A 
ATOM      3  C2  UNL d   1      -1.866   2.658  -0.150  0.00  0.00    -0.080 A 
ATOM      4  C3  UNL d   1      -0.497   2.502   0.045  0.00  0.00     0.150 A 
ATOM      5  C4  UNL d   1       0.011   2.173   1.298  0.00  0.00    -0.007 A 
ATOM      6  C5  UNL d   1      -0.859   2.000   2.373  0.00  0.00     0.039 A 
ENDROOT
BRANCH   4   7
ATOM      7  O   UNL d   1       0.392   2.667  -0.975  0.00  0.00    -0.526 OA
ATOM      8  H5  UNL d   1      -0.100   2.921  -1.774  0.00  0.00     0.418 HD
ENDBRANCH   4   7
TORSDOF 1
ENDMDL
