MODEL 1
REMARK minimizedAffinity 5.90436792
REMARK minimizedRMSD -1
REMARK  1 active torsions:
REMARK  status: ('A' for Active; 'I' for Inactive)
REMARK    1  A    between atoms: C3_4  and  O_7 
ROOT
ATOM      1  C   UNL d   1      -2.095  -2.569   3.991  0.00  0.00    -0.033 A 
ATOM      2  C1  UNL d   1      -2.350  -2.961   5.307  0.00  0.00     0.039 A 
ATOM      3  C2  UNL d   1      -1.417  -3.735   5.999  0.00  0.00    -0.080 A 
ATOM      4  C3  UNL d   1      -0.235  -4.110   5.366  0.00  0.00     0.150 A 
ATOM      5  C4  UNL d   1       0.027  -3.720   4.057  0.00  0.00    -0.007 A 
ATOM      6  C5  UNL d   1      -0.906  -2.947   3.367  0.00  0.00     0.039 A 
ENDROOT
BRANCH   4   7
ATOM      7  O   UNL d   1       0.703  -4.869   6.000  0.00  0.00    -0.526 OA
ATOM      8  H5  UNL d   1       0.374  -5.088   6.888  0.00  0.00     0.418 HD
ENDBRANCH   4   7
TORSDOF 1
ENDMDL
