MODEL 1
REMARK minimizedAffinity 7.40871239
REMARK minimizedRMSD -1
REMARK  1 active torsions:
REMARK  status: ('A' for Active; 'I' for Inactive)
REMARK    1  A    between atoms: C3_4  and  O_7 
ROOT
ATOM      1  C   UNL d   1      -2.662   2.259   2.096  0.00  0.00    -0.033 A 
ATOM      2  C1  UNL d   1      -1.337   1.924   2.384  0.00  0.00     0.039 A 
ATOM      3  C2  UNL d   1      -0.395   1.849   1.357  0.00  0.00    -0.080 A 
ATOM      4  C3  UNL d   1      -0.789   2.111   0.048  0.00  0.00     0.150 A 
ATOM      5  C4  UNL d   1      -2.105   2.449  -0.246  0.00  0.00    -0.007 A 
ATOM      6  C5  UNL d   1      -3.045   2.523   0.781  0.00  0.00     0.039 A 
ENDROOT
BRANCH   4   7
ATOM      7  O   UNL d   1       0.095   2.046  -0.989  0.00  0.00    -0.526 OA
ATOM      8  H5  UNL d   1       0.959   1.773  -0.639  0.00  0.00     0.418 HD
ENDBRANCH   4   7
TORSDOF 1
ENDMDL
