MODEL 1
REMARK minimizedAffinity 8.6774683
REMARK minimizedRMSD -1
REMARK  1 active torsions:
REMARK  status: ('A' for Active; 'I' for Inactive)
REMARK    1  A    between atoms: C3_4  and  O_7 
ROOT
ATOM      1  C   UNL d   1      -2.912   2.272   1.864  0.00  0.00    -0.033 A 
ATOM      2  C1  UNL d   1      -1.595   2.018   2.253  0.00  0.00     0.039 A 
ATOM      3  C2  UNL d   1      -0.583   1.948   1.294  0.00  0.00    -0.080 A 
ATOM      4  C3  UNL d   1      -0.900   2.134  -0.048  0.00  0.00     0.150 A 
ATOM      5  C4  UNL d   1      -2.209   2.391  -0.443  0.00  0.00    -0.007 A 
ATOM      6  C5  UNL d   1      -3.218   2.459   0.516  0.00  0.00     0.039 A 
ENDROOT
BRANCH   4   7
ATOM      7  O   UNL d   1       0.053   2.071  -1.021  0.00  0.00    -0.526 OA
ATOM      8  H5  UNL d   1       0.905   1.858  -0.604  0.00  0.00     0.418 HD
ENDBRANCH   4   7
TORSDOF 1
ENDMDL
