MODEL 1
REMARK minimizedAffinity 5.88076162
REMARK minimizedRMSD -1
REMARK  1 active torsions:
REMARK  status: ('A' for Active; 'I' for Inactive)
REMARK    1  A    between atoms: C3_4  and  O_7 
ROOT
ATOM      1  C   UNL d   1      -0.127   1.721   1.649  0.00  0.00    -0.033 A 
ATOM      2  C1  UNL d   1      -0.903   0.986   2.547  0.00  0.00     0.039 A 
ATOM      3  C2  UNL d   1      -2.294   0.981   2.429  0.00  0.00    -0.080 A 
ATOM      4  C3  UNL d   1      -2.896   1.712   1.408  0.00  0.00     0.150 A 
ATOM      5  C4  UNL d   1      -2.128   2.443   0.507  0.00  0.00    -0.007 A 
ATOM      6  C5  UNL d   1      -0.739   2.448   0.628  0.00  0.00     0.039 A 
ENDROOT
BRANCH   4   7
ATOM      7  O   UNL d   1      -4.250   1.742   1.255  0.00  0.00    -0.526 OA
ATOM      8  H5  UNL d   1      -4.652   1.215   1.966  0.00  0.00     0.418 HD
ENDBRANCH   4   7
TORSDOF 1
ENDMDL
