MODEL 1
REMARK minimizedAffinity 5.98940516
REMARK minimizedRMSD -1
REMARK  1 active torsions:
REMARK  status: ('A' for Active; 'I' for Inactive)
REMARK    1  A    between atoms: C3_4  and  O_7 
ROOT
ATOM      1  C   UNL d   1       0.750   0.940  -1.542  0.00  0.00    -0.033 A 
ATOM      2  C1  UNL d   1      -0.305   1.853  -1.488  0.00  0.00     0.039 A 
ATOM      3  C2  UNL d   1      -1.543   1.526  -2.045  0.00  0.00    -0.080 A 
ATOM      4  C3  UNL d   1      -1.713   0.284  -2.651  0.00  0.00     0.150 A 
ATOM      5  C4  UNL d   1      -0.667  -0.632  -2.704  0.00  0.00    -0.007 A 
ATOM      6  C5  UNL d   1       0.568  -0.303  -2.149  0.00  0.00     0.039 A 
ENDROOT
BRANCH   4   7
ATOM      7  O   UNL d   1      -2.901  -0.079  -3.212  0.00  0.00    -0.526 OA
ATOM      8  H5  UNL d   1      -3.522   0.664  -3.126  0.00  0.00     0.418 HD
ENDBRANCH   4   7
TORSDOF 1
ENDMDL
