MODEL 1
REMARK minimizedAffinity 2.90433455
REMARK minimizedRMSD -1
REMARK  1 active torsions:
REMARK  status: ('A' for Active; 'I' for Inactive)
REMARK    1  A    between atoms: C3_4  and  O_7 
ROOT
ATOM      1  C   UNL d   1       5.123  -1.125  -0.000  0.00  0.00    -0.033 A 
ATOM      2  C1  UNL d   1       3.769  -1.468   0.000  0.00  0.00     0.039 A 
ATOM      3  C2  UNL d   1       3.289  -2.425  -0.897  0.00  0.00    -0.080 A 
ATOM      4  C3  UNL d   1       4.172  -3.031  -1.786  0.00  0.00     0.150 A 
ATOM      5  C4  UNL d   1       5.523  -2.697  -1.789  0.00  0.00    -0.007 A 
ATOM      6  C5  UNL d   1       6.000  -1.740  -0.894  0.00  0.00     0.039 A 
ENDROOT
BRANCH   4   7
ATOM      7  O   UNL d   1       3.750  -3.966  -2.683  0.00  0.00    -0.526 OA
ATOM      8  H5  UNL d   1       2.789  -4.075  -2.585  0.00  0.00     0.418 HD
ENDBRANCH   4   7
TORSDOF 1
ENDMDL
