MODEL 1
REMARK minimizedAffinity 3.28274632
REMARK minimizedRMSD -1
REMARK  1 active torsions:
REMARK  status: ('A' for Active; 'I' for Inactive)
REMARK    1  A    between atoms: C3_4  and  O_7 
ROOT
ATOM      1  C   UNL d   1       0.593   0.680   3.828  0.00  0.00    -0.033 A 
ATOM      2  C1  UNL d   1       0.565   2.076   3.838  0.00  0.00     0.039 A 
ATOM      3  C2  UNL d   1      -0.394   2.762   3.090  0.00  0.00    -0.080 A 
ATOM      4  C3  UNL d   1      -1.318   2.041   2.338  0.00  0.00     0.150 A 
ATOM      5  C4  UNL d   1      -1.298   0.651   2.327  0.00  0.00    -0.007 A 
ATOM      6  C5  UNL d   1      -0.340  -0.033   3.074  0.00  0.00     0.039 A 
ENDROOT
BRANCH   4   7
ATOM      7  O   UNL d   1      -2.269   2.667   1.588  0.00  0.00    -0.526 OA
ATOM      8  H5  UNL d   1      -2.143   3.627   1.670  0.00  0.00     0.418 HD
ENDBRANCH   4   7
TORSDOF 1
ENDMDL
