MODEL 1
REMARK minimizedAffinity 3.58118248
REMARK minimizedRMSD -1
REMARK  1 active torsions:
REMARK  status: ('A' for Active; 'I' for Inactive)
REMARK    1  A    between atoms: C3_4  and  O_7 
ROOT
ATOM      1  C   UNL d   1       0.443   0.306  -3.769  0.00  0.00    -0.033 A 
ATOM      2  C1  UNL d   1       1.113   1.460  -3.360  0.00  0.00     0.039 A 
ATOM      3  C2  UNL d   1       0.845   2.019  -2.109  0.00  0.00    -0.080 A 
ATOM      4  C3  UNL d   1      -0.093   1.414  -1.277  0.00  0.00     0.150 A 
ATOM      5  C4  UNL d   1      -0.761   0.261  -1.676  0.00  0.00    -0.007 A 
ATOM      6  C5  UNL d   1      -0.494  -0.295  -2.926  0.00  0.00     0.039 A 
ENDROOT
BRANCH   4   7
ATOM      7  O   UNL d   1      -0.391   1.925  -0.049  0.00  0.00    -0.526 OA
ATOM      8  H5  UNL d   1       0.126   2.738   0.080  0.00  0.00     0.418 HD
ENDBRANCH   4   7
TORSDOF 1
ENDMDL
