MODEL 1
REMARK minimizedAffinity -3.40904212
REMARK minimizedRMSD -1
REMARK  1 active torsions:
REMARK  status: ('A' for Active; 'I' for Inactive)
REMARK    1  A    between atoms: C3_4  and  O_7 
ROOT
ATOM      1  C   UNL d   1      -0.670   1.293  -1.186  0.00  0.00    -0.033 A 
ATOM      2  C1  UNL d   1      -0.982   0.434  -2.241  0.00  0.00     0.039 A 
ATOM      3  C2  UNL d   1      -0.540  -0.891  -2.220  0.00  0.00    -0.080 A 
ATOM      4  C3  UNL d   1       0.210  -1.343  -1.138  0.00  0.00     0.150 A 
ATOM      5  C4  UNL d   1       0.521  -0.493  -0.081  0.00  0.00    -0.007 A 
ATOM      6  C5  UNL d   1       0.080   0.829  -0.105  0.00  0.00     0.039 A 
ENDROOT
BRANCH   4   7
ATOM      7  O   UNL d   1       0.667  -2.626  -1.074  0.00  0.00    -0.526 OA
ATOM      8  H5  UNL d   1       0.401  -3.088  -1.886  0.00  0.00     0.418 HD
ENDBRANCH   4   7
TORSDOF 1
ENDMDL
