MODEL 1
REMARK minimizedAffinity 0.857155144
REMARK minimizedRMSD -1
REMARK  1 active torsions:
REMARK  status: ('A' for Active; 'I' for Inactive)
REMARK    1  A    between atoms: C3_4  and  O_7 
ROOT
ATOM      1  C   UNL d   1       5.023  -1.741   0.395  0.00  0.00    -0.033 A 
ATOM      2  C1  UNL d   1       5.999  -2.172  -0.506  0.00  0.00     0.039 A 
ATOM      3  C2  UNL d   1       5.630  -2.873  -1.655  0.00  0.00    -0.080 A 
ATOM      4  C3  UNL d   1       4.284  -3.135  -1.893  0.00  0.00     0.150 A 
ATOM      5  C4  UNL d   1       3.306  -2.705  -1.003  0.00  0.00    -0.007 A 
ATOM      6  C5  UNL d   1       3.676  -2.006   0.145  0.00  0.00     0.039 A 
ENDROOT
BRANCH   4   7
ATOM      7  O   UNL d   1       3.876  -3.820  -2.999  0.00  0.00    -0.526 OA
ATOM      8  H5  UNL d   1       4.662  -4.079  -3.508  0.00  0.00     0.418 HD
ENDBRANCH   4   7
TORSDOF 1
ENDMDL
