MODEL 1
REMARK minimizedAffinity 8.72277451
REMARK minimizedRMSD -1
REMARK  1 active torsions:
REMARK  status: ('A' for Active; 'I' for Inactive)
REMARK    1  A    between atoms: C3_4  and  O_7 
ROOT
ATOM      1  C   UNL d   1       0.065   2.384   1.370  0.00  0.00    -0.033 A 
ATOM      2  C1  UNL d   1       0.840   3.304   0.662  0.00  0.00     0.039 A 
ATOM      3  C2  UNL d   1       0.391   3.801  -0.563  0.00  0.00    -0.080 A 
ATOM      4  C3  UNL d   1      -0.833   3.371  -1.068  0.00  0.00     0.150 A 
ATOM      5  C4  UNL d   1      -1.612   2.457  -0.366  0.00  0.00    -0.007 A 
ATOM      6  C5  UNL d   1      -1.162   1.962   0.857  0.00  0.00     0.039 A 
ENDROOT
BRANCH   4   7
ATOM      7  O   UNL d   1      -1.310   3.824  -2.262  0.00  0.00    -0.526 OA
ATOM      8  H5  UNL d   1      -0.653   4.426  -2.647  0.00  0.00     0.418 HD
ENDBRANCH   4   7
TORSDOF 1
ENDMDL
