MODEL 1
REMARK minimizedAffinity 5.17779398
REMARK minimizedRMSD -1
REMARK  0 active torsions:
REMARK  status: ('A' for Active; 'I' for Inactive)
ROOT
ATOM      1  C   UNL d   1       3.971  -5.457   0.943  0.00  0.00     0.020 A 
ATOM      2  C1  UNL d   1       4.529  -4.684  -0.074  0.00  0.00     0.020 A 
ATOM      3  C2  UNL d   1       3.894  -3.511  -0.488  0.00  0.00     0.034 A 
ATOM      4  C3  UNL d   1       2.697  -3.108   0.115  0.00  0.00     0.017 A 
ATOM      5  C4  UNL d   1       2.137  -3.885   1.136  0.00  0.00     0.017 A 
ATOM      6  C5  UNL d   1       2.777  -5.059   1.547  0.00  0.00     0.034 A 
ATOM      7 Cl   UNL d   1       0.663  -3.452   1.928  0.00  0.00    -0.070 Cl
ATOM      8 Cl1  UNL d   1       1.967  -1.647  -0.447  0.00  0.00    -0.070 Cl
ENDROOT
TORSDOF 0
ENDMDL
