MODEL 1
REMARK minimizedAffinity 0.956168175
REMARK minimizedRMSD -1
REMARK  0 active torsions:
REMARK  status: ('A' for Active; 'I' for Inactive)
ROOT
ATOM      1  C   UNL d   1      -2.133  -0.011   1.594  0.00  0.00     0.020 A 
ATOM      2  C1  UNL d   1      -2.048  -0.943   2.628  0.00  0.00     0.020 A 
ATOM      3  C2  UNL d   1      -0.990  -1.854   2.661  0.00  0.00     0.034 A 
ATOM      4  C3  UNL d   1      -0.014  -1.835   1.658  0.00  0.00     0.017 A 
ATOM      5  C4  UNL d   1      -0.100  -0.899   0.621  0.00  0.00     0.017 A 
ATOM      6  C5  UNL d   1      -1.161   0.011   0.593  0.00  0.00     0.034 A 
ATOM      7 Cl   UNL d   1       1.067  -0.815  -0.651  0.00  0.00    -0.070 Cl
ATOM      8 Cl1  UNL d   1       1.266  -2.991   1.762  0.00  0.00    -0.070 Cl
ENDROOT
TORSDOF 0
ENDMDL
