MODEL 1
REMARK minimizedAffinity -2.74339294
REMARK minimizedRMSD -1
REMARK  0 active torsions:
REMARK  status: ('A' for Active; 'I' for Inactive)
ROOT
ATOM      1  C   UNL d   1       2.028  -4.025   1.925  0.00  0.00     0.020 A 
ATOM      2  C1  UNL d   1       2.779  -3.848   0.764  0.00  0.00     0.020 A 
ATOM      3  C2  UNL d   1       2.580  -2.717  -0.031  0.00  0.00     0.034 A 
ATOM      4  C3  UNL d   1       1.627  -1.759   0.334  0.00  0.00     0.017 A 
ATOM      5  C4  UNL d   1       0.873  -1.938   1.499  0.00  0.00     0.017 A 
ATOM      6  C5  UNL d   1       1.076  -3.072   2.292  0.00  0.00     0.034 A 
ATOM      7 Cl   UNL d   1      -0.322  -0.800   2.014  0.00  0.00    -0.070 Cl
ATOM      8 Cl1  UNL d   1       1.433  -0.386  -0.697  0.00  0.00    -0.070 Cl
ENDROOT
TORSDOF 0
ENDMDL
