MODEL 1
REMARK minimizedAffinity -2.54409933
REMARK minimizedRMSD -1
REMARK  0 active torsions:
REMARK  status: ('A' for Active; 'I' for Inactive)
ROOT
ATOM      1  C   UNL d   1       0.911  -0.901  -0.955  0.00  0.00     0.020 A 
ATOM      2  C1  UNL d   1      -0.226  -0.396  -1.585  0.00  0.00     0.020 A 
ATOM      3  C2  UNL d   1      -1.414  -0.248  -0.867  0.00  0.00     0.034 A 
ATOM      4  C3  UNL d   1      -1.469  -0.606   0.485  0.00  0.00     0.017 A 
ATOM      5  C4  UNL d   1      -0.328  -1.113   1.117  0.00  0.00     0.017 A 
ATOM      6  C5  UNL d   1       0.860  -1.259   0.393  0.00  0.00     0.034 A 
ATOM      7 Cl   UNL d   1      -0.318  -1.576   2.782  0.00  0.00    -0.070 Cl
ATOM      8 Cl1  UNL d   1      -2.972  -0.396   1.312  0.00  0.00    -0.070 Cl
ENDROOT
TORSDOF 0
ENDMDL
