MODEL 1
REMARK minimizedAffinity 0.215451822
REMARK minimizedRMSD -1
REMARK  0 active torsions:
REMARK  status: ('A' for Active; 'I' for Inactive)
ROOT
ATOM      1  C   UNL d   1      -0.521  -0.182   0.283  0.00  0.00     0.020 A 
ATOM      2  C1  UNL d   1       0.604  -0.568  -0.444  0.00  0.00     0.020 A 
ATOM      3  C2  UNL d   1       1.339  -1.689  -0.052  0.00  0.00     0.034 A 
ATOM      4  C3  UNL d   1       0.949  -2.429   1.070  0.00  0.00     0.017 A 
ATOM      5  C4  UNL d   1      -0.181  -2.041   1.799  0.00  0.00     0.017 A 
ATOM      6  C5  UNL d   1      -0.913  -0.918   1.402  0.00  0.00     0.034 A 
ATOM      7 Cl   UNL d   1      -0.725  -2.904   3.194  0.00  0.00    -0.070 Cl
ATOM      8 Cl1  UNL d   1       1.903  -3.804   1.497  0.00  0.00    -0.070 Cl
ENDROOT
TORSDOF 0
ENDMDL
