MODEL 1
REMARK minimizedAffinity 3.94290972
REMARK minimizedRMSD -1
REMARK  0 active torsions:
REMARK  status: ('A' for Active; 'I' for Inactive)
ROOT
ATOM      1  C   UNL d   1       1.985  -3.896   1.288  0.00  0.00     0.020 A 
ATOM      2  C1  UNL d   1       2.990  -3.512   0.401  0.00  0.00     0.020 A 
ATOM      3  C2  UNL d   1       2.942  -2.255  -0.205  0.00  0.00     0.034 A 
ATOM      4  C3  UNL d   1       1.888  -1.378   0.075  0.00  0.00     0.017 A 
ATOM      5  C4  UNL d   1       0.880  -1.764   0.965  0.00  0.00     0.017 A 
ATOM      6  C5  UNL d   1       0.932  -3.024   1.570  0.00  0.00     0.034 A 
ATOM      7 Cl   UNL d   1      -0.452  -0.737   1.360  0.00  0.00    -0.070 Cl
ATOM      8 Cl1  UNL d   1       1.893   0.161  -0.711  0.00  0.00    -0.070 Cl
ENDROOT
TORSDOF 0
ENDMDL
