MODEL 1
REMARK minimizedAffinity 5.15705633
REMARK minimizedRMSD -1
REMARK  0 active torsions:
REMARK  status: ('A' for Active; 'I' for Inactive)
ROOT
ATOM      1  C   UNL d   1      -1.420  -0.758   0.162  0.00  0.00     0.020 A 
ATOM      2  C1  UNL d   1      -0.773  -0.155   1.240  0.00  0.00     0.020 A 
ATOM      3  C2  UNL d   1      -1.519   0.390   2.287  0.00  0.00     0.034 A 
ATOM      4  C3  UNL d   1      -2.917   0.333   2.259  0.00  0.00     0.017 A 
ATOM      5  C4  UNL d   1      -3.566  -0.272   1.177  0.00  0.00     0.017 A 
ATOM      6  C5  UNL d   1      -2.814  -0.816   0.131  0.00  0.00     0.034 A 
ATOM      7 Cl   UNL d   1      -5.288  -0.381   1.072  0.00  0.00    -0.070 Cl
ATOM      8 Cl1  UNL d   1      -3.776   1.027   3.588  0.00  0.00    -0.070 Cl
ENDROOT
TORSDOF 0
ENDMDL
