MODEL 1
REMARK minimizedAffinity 11.232728
REMARK minimizedRMSD -1
REMARK  0 active torsions:
REMARK  status: ('A' for Active; 'I' for Inactive)
ROOT
ATOM      1  N1  IND d   1      -1.443  -3.914  -1.317  0.00  0.00    -0.196 N 
ATOM      2  C2  IND d   1      -0.499  -3.786  -0.337  0.00  0.00     0.054 A 
ATOM      3  C3  IND d   1      -0.744  -2.688   0.412  0.00  0.00    -0.031 A 
ATOM      4  C4  IND d   1      -2.695  -1.014   0.272  0.00  0.00     0.051 A 
ATOM      5  C5  IND d   1      -3.788  -0.695  -0.484  0.00  0.00    -0.031 A 
ATOM      6  C6  IND d   1      -4.165  -1.449  -1.577  0.00  0.00     0.015 A 
ATOM      7  C7  IND d   1      -3.465  -2.562  -1.949  0.00  0.00    -0.016 A 
ATOM      8  C8  IND d   1      -2.351  -2.885  -1.188  0.00  0.00    -0.047 A 
ATOM      9  C9  IND d   1      -1.939  -2.099  -0.104  0.00  0.00    -0.096 A 
ATOM     10  HN1 IND d   1      -1.467  -4.533  -1.913  0.00  0.00     0.298 HD
ENDROOT
TORSDOF 0
ENDMDL
