MODEL 1
REMARK minimizedAffinity 0.753657639
REMARK minimizedRMSD -1
REMARK  0 active torsions:
REMARK  status: ('A' for Active; 'I' for Inactive)
ROOT
ATOM      1  N1  IND d   1      -2.393  -2.670  -0.320  0.00  0.00    -0.196 N 
ATOM      2  C2  IND d   1      -1.238  -1.978  -0.083  0.00  0.00     0.054 A 
ATOM      3  C3  IND d   1      -0.169  -2.690  -0.506  0.00  0.00    -0.031 A 
ATOM      4  C4  IND d   1      -0.091  -4.966  -1.707  0.00  0.00     0.051 A 
ATOM      5  C5  IND d   1      -0.889  -5.999  -2.110  0.00  0.00    -0.031 A 
ATOM      6  C6  IND d   1      -2.257  -5.974  -1.935  0.00  0.00     0.015 A 
ATOM      7  C7  IND d   1      -2.883  -4.904  -1.359  0.00  0.00    -0.016 A 
ATOM      8  C8  IND d   1      -2.074  -3.856  -0.943  0.00  0.00    -0.047 A 
ATOM      9  C9  IND d   1      -0.681  -3.895  -1.078  0.00  0.00    -0.096 A 
ATOM     10  HN1 IND d   1      -3.186  -2.408  -0.114  0.00  0.00     0.298 HD
ENDROOT
TORSDOF 0
ENDMDL
