MODEL 1
REMARK minimizedAffinity 6.03967762
REMARK minimizedRMSD -1
REMARK  0 active torsions:
REMARK  status: ('A' for Active; 'I' for Inactive)
ROOT
ATOM      1  N1  IND d   1       3.599   1.063   1.175  0.00  0.00    -0.196 N 
ATOM      2  C2  IND d   1       2.251   0.897   1.014  0.00  0.00     0.054 A 
ATOM      3  C3  IND d   1       1.579   1.910   1.604  0.00  0.00    -0.031 A 
ATOM      4  C4  IND d   1       2.489   3.999   2.802  0.00  0.00     0.051 A 
ATOM      5  C5  IND d   1       3.653   4.574   3.230  0.00  0.00    -0.031 A 
ATOM      6  C6  IND d   1       4.883   3.997   2.988  0.00  0.00     0.015 A 
ATOM      7  C7  IND d   1       4.996   2.825   2.296  0.00  0.00    -0.016 A 
ATOM      8  C8  IND d   1       3.816   2.235   1.866  0.00  0.00    -0.047 A 
ATOM      9  C9  IND d   1       2.562   2.794   2.145  0.00  0.00    -0.096 A 
ATOM     10  HN1 IND d   1       4.208   0.526   0.893  0.00  0.00     0.298 HD
ENDROOT
TORSDOF 0
ENDMDL
