MODEL 1
REMARK minimizedAffinity 10.7736263
REMARK minimizedRMSD -1
REMARK  0 active torsions:
REMARK  status: ('A' for Active; 'I' for Inactive)
ROOT
ATOM      1  N1  IND d   1       2.969  -0.045   0.497  0.00  0.00    -0.196 N 
ATOM      2  C2  IND d   1       1.611  -0.074   0.343  0.00  0.00     0.054 A 
ATOM      3  C3  IND d   1       1.044   0.987   0.960  0.00  0.00    -0.031 A 
ATOM      4  C4  IND d   1       2.163   2.948   2.197  0.00  0.00     0.051 A 
ATOM      5  C5  IND d   1       3.380   3.395   2.629  0.00  0.00    -0.031 A 
ATOM      6  C6  IND d   1       4.546   2.706   2.366  0.00  0.00     0.015 A 
ATOM      7  C7  IND d   1       4.539   1.545   1.646  0.00  0.00    -0.016 A 
ATOM      8  C8  IND d   1       3.305   1.084   1.212  0.00  0.00    -0.047 A 
ATOM      9  C9  IND d   1       2.113   1.757   1.513  0.00  0.00    -0.096 A 
ATOM     10  HN1 IND d   1       3.520  -0.633   0.198  0.00  0.00     0.298 HD
ENDROOT
TORSDOF 0
ENDMDL
