MODEL 1
REMARK minimizedAffinity 7.83635044
REMARK minimizedRMSD -1
REMARK  0 active torsions:
REMARK  status: ('A' for Active; 'I' for Inactive)
ROOT
ATOM      1  N1  IND d   1       1.014  -1.386  -0.130  0.00  0.00    -0.196 N 
ATOM      2  C2  IND d   1       2.191  -1.730  -0.735  0.00  0.00     0.054 A 
ATOM      3  C3  IND d   1       3.172  -0.873  -0.374  0.00  0.00    -0.031 A 
ATOM      4  C4  IND d   1       3.095   1.102   1.275  0.00  0.00     0.051 A 
ATOM      5  C5  IND d   1       2.231   1.827   2.048  0.00  0.00    -0.031 A 
ATOM      6  C6  IND d   1       0.892   1.510   2.138  0.00  0.00     0.015 A 
ATOM      7  C7  IND d   1       0.365   0.444   1.465  0.00  0.00    -0.016 A 
ATOM      8  C8  IND d   1       1.237  -0.290   0.674  0.00  0.00    -0.047 A 
ATOM      9  C9  IND d   1       2.589   0.053   0.545  0.00  0.00    -0.096 A 
ATOM     10  HN1 IND d   1       0.260  -1.788  -0.234  0.00  0.00     0.298 HD
ENDROOT
TORSDOF 0
ENDMDL
