MODEL 1
REMARK minimizedAffinity 6.31519938
REMARK minimizedRMSD -1
REMARK  0 active torsions:
REMARK  status: ('A' for Active; 'I' for Inactive)
ROOT
ATOM      1  N1  IND d   1      -1.570  -1.483   1.689  0.00  0.00    -0.196 N 
ATOM      2  C2  IND d   1      -2.925  -1.381   1.840  0.00  0.00     0.054 A 
ATOM      3  C3  IND d   1      -3.560  -2.135   0.915  0.00  0.00    -0.031 A 
ATOM      4  C4  IND d   1      -2.575  -3.696  -0.879  0.00  0.00     0.051 A 
ATOM      5  C5  IND d   1      -1.387  -4.092  -1.428  0.00  0.00    -0.031 A 
ATOM      6  C6  IND d   1      -0.176  -3.632  -0.955  0.00  0.00     0.015 A 
ATOM      7  C7  IND d   1      -0.106  -2.763   0.097  0.00  0.00    -0.016 A 
ATOM      8  C8  IND d   1      -1.309  -2.353   0.652  0.00  0.00    -0.047 A 
ATOM      9  C9  IND d   1      -2.544  -2.784   0.149  0.00  0.00    -0.096 A 
ATOM     10  HN1 IND d   1      -0.980  -1.074   2.161  0.00  0.00     0.298 HD
ENDROOT
TORSDOF 0
ENDMDL
