MODEL 1
REMARK minimizedAffinity 15.0261545
REMARK minimizedRMSD -1
REMARK  0 active torsions:
REMARK  status: ('A' for Active; 'I' for Inactive)
ROOT
ATOM      1  N1  IND d   1      -2.618   0.909   1.281  0.00  0.00    -0.196 N 
ATOM      2  C2  IND d   1      -2.583  -0.458   1.258  0.00  0.00     0.054 A 
ATOM      3  C3  IND d   1      -3.544  -0.939   0.439  0.00  0.00    -0.031 A 
ATOM      4  C4  IND d   1      -5.219   0.336  -1.044  0.00  0.00     0.051 A 
ATOM      5  C5  IND d   1      -5.658   1.597  -1.333  0.00  0.00    -0.031 A 
ATOM      6  C6  IND d   1      -5.093   2.716  -0.757  0.00  0.00     0.015 A 
ATOM      7  C7  IND d   1      -4.055   2.616   0.126  0.00  0.00    -0.016 A 
ATOM      8  C8  IND d   1      -3.612   1.336   0.428  0.00  0.00    -0.047 A 
ATOM      9  C9  IND d   1      -4.209   0.194  -0.121  0.00  0.00    -0.096 A 
ATOM     10  HN1 IND d   1      -2.105   1.416   1.749  0.00  0.00     0.298 HD
ENDROOT
TORSDOF 0
ENDMDL
