MODEL 1
REMARK minimizedAffinity 14.3890457
REMARK minimizedRMSD -1
REMARK  0 active torsions:
REMARK  status: ('A' for Active; 'I' for Inactive)
ROOT
ATOM      1  N1  IND d   1      -2.213  -2.203   0.183  0.00  0.00    -0.196 N 
ATOM      2  C2  IND d   1      -0.913  -1.807   0.326  0.00  0.00     0.054 A 
ATOM      3  C3  IND d   1      -0.075  -2.814  -0.007  0.00  0.00    -0.031 A 
ATOM      4  C4  IND d   1      -0.619  -5.163  -0.911  0.00  0.00     0.051 A 
ATOM      5  C5  IND d   1      -1.667  -5.998  -1.177  0.00  0.00    -0.031 A 
ATOM      6  C6  IND d   1      -2.978  -5.603  -1.003  0.00  0.00     0.015 A 
ATOM      7  C7  IND d   1      -3.290  -4.347  -0.565  0.00  0.00    -0.016 A 
ATOM      8  C8  IND d   1      -2.228  -3.498  -0.287  0.00  0.00    -0.047 A 
ATOM      9  C9  IND d   1      -0.896  -3.908  -0.421  0.00  0.00    -0.096 A 
ATOM     10  HN1 IND d   1      -2.906  -1.724   0.356  0.00  0.00     0.298 HD
ENDROOT
TORSDOF 0
ENDMDL
