MODEL 1
REMARK minimizedAffinity 14.5718584
REMARK minimizedRMSD -1
REMARK  0 active torsions:
REMARK  status: ('A' for Active; 'I' for Inactive)
ROOT
ATOM      1  N1  IND d   1       2.772  -0.046   1.105  0.00  0.00    -0.196 N 
ATOM      2  C2  IND d   1       1.418   0.043   0.940  0.00  0.00     0.054 A 
ATOM      3  C3  IND d   1       0.970   1.243   1.371  0.00  0.00    -0.031 A 
ATOM      4  C4  IND d   1       2.294   3.250   2.290  0.00  0.00     0.051 A 
ATOM      5  C5  IND d   1       3.553   3.631   2.660  0.00  0.00    -0.031 A 
ATOM      6  C6  IND d   1       4.639   2.790   2.525  0.00  0.00     0.015 A 
ATOM      7  C7  IND d   1       4.507   1.534   2.003  0.00  0.00    -0.016 A 
ATOM      8  C8  IND d   1       3.228   1.142   1.632  0.00  0.00    -0.047 A 
ATOM      9  C9  IND d   1       2.116   1.975   1.806  0.00  0.00    -0.096 A 
ATOM     10  HN1 IND d   1       3.257  -0.730   0.912  0.00  0.00     0.298 HD
ENDROOT
TORSDOF 0
ENDMDL
