MODEL 1
REMARK minimizedAffinity 11.8813524
REMARK minimizedRMSD -1
REMARK  0 active torsions:
REMARK  status: ('A' for Active; 'I' for Inactive)
ROOT
ATOM      1  N1  IND d   1       2.398   5.014   3.547  0.00  0.00    -0.196 N 
ATOM      2  C2  IND d   1       3.486   5.764   3.897  0.00  0.00     0.054 A 
ATOM      3  C3  IND d   1       4.628   5.121   3.564  0.00  0.00    -0.031 A 
ATOM      4  C4  IND d   1       4.944   2.876   2.345  0.00  0.00     0.051 A 
ATOM      5  C5  IND d   1       4.246   1.807   1.857  0.00  0.00    -0.031 A 
ATOM      6  C6  IND d   1       2.868   1.753   1.906  0.00  0.00     0.015 A 
ATOM      7  C7  IND d   1       2.133   2.775   2.437  0.00  0.00    -0.016 A 
ATOM      8  C8  IND d   1       2.839   3.859   2.940  0.00  0.00    -0.047 A 
ATOM      9  C9  IND d   1       4.240   3.901   2.931  0.00  0.00    -0.096 A 
ATOM     10  HN1 IND d   1       1.577   5.228   3.683  0.00  0.00     0.298 HD
ENDROOT
TORSDOF 0
ENDMDL
