MODEL 1
REMARK minimizedAffinity 8.84840202
REMARK minimizedRMSD -1
REMARK  0 active torsions:
REMARK  status: ('A' for Active; 'I' for Inactive)
ROOT
ATOM      1  N1  IND d   1      -4.491  -3.144   4.024  0.00  0.00    -0.196 N 
ATOM      2  C2  IND d   1      -5.782  -3.164   3.574  0.00  0.00     0.054 A 
ATOM      3  C3  IND d   1      -5.939  -2.286   2.558  0.00  0.00    -0.031 A 
ATOM      4  C4  IND d   1      -4.192  -0.787   1.406  0.00  0.00     0.051 A 
ATOM      5  C5  IND d   1      -2.885  -0.395   1.491  0.00  0.00    -0.031 A 
ATOM      6  C6  IND d   1      -2.029  -0.912   2.441  0.00  0.00     0.015 A 
ATOM      7  C7  IND d   1      -2.447  -1.853   3.340  0.00  0.00    -0.016 A 
ATOM      8  C8  IND d   1      -3.775  -2.248   3.262  0.00  0.00    -0.047 A 
ATOM      9  C9  IND d   1      -4.659  -1.695   2.326  0.00  0.00    -0.096 A 
ATOM     10  HN1 IND d   1      -4.179  -3.612   4.674  0.00  0.00     0.298 HD
ENDROOT
TORSDOF 0
ENDMDL
