MODEL 1
REMARK minimizedAffinity 12.5174732
REMARK minimizedRMSD -1
REMARK  0 active torsions:
REMARK  status: ('A' for Active; 'I' for Inactive)
ROOT
ATOM      1  N1  IND d   1      -1.125  -5.582  -2.643  0.00  0.00    -0.196 N 
ATOM      2  C2  IND d   1       0.118  -6.000  -2.256  0.00  0.00     0.054 A 
ATOM      3  C3  IND d   1       0.597  -5.204  -1.274  0.00  0.00    -0.031 A 
ATOM      4  C4  IND d   1      -0.530  -3.221  -0.080  0.00  0.00     0.051 A 
ATOM      5  C5  IND d   1      -1.652  -2.441  -0.111  0.00  0.00    -0.031 A 
ATOM      6  C6  IND d   1      -2.677  -2.674  -1.004  0.00  0.00     0.015 A 
ATOM      7  C7  IND d   1      -2.624  -3.708  -1.896  0.00  0.00    -0.016 A 
ATOM      8  C8  IND d   1      -1.483  -4.498  -1.872  0.00  0.00    -0.047 A 
ATOM      9  C9  IND d   1      -0.420  -4.240  -0.996  0.00  0.00    -0.096 A 
ATOM     10  HN1 IND d   1      -1.603  -5.936  -3.264  0.00  0.00     0.298 HD
ENDROOT
TORSDOF 0
ENDMDL
