MODEL 1
REMARK minimizedAffinity 2.23032236
REMARK minimizedRMSD -1
REMARK  0 active torsions:
REMARK  status: ('A' for Active; 'I' for Inactive)
ROOT
ATOM      1  N1  IND d   1       2.509  -3.232  -0.627  0.00  0.00    -0.196 N 
ATOM      2  C2  IND d   1       1.919  -2.166  -0.005  0.00  0.00     0.054 A 
ATOM      3  C3  IND d   1       0.577  -2.322   0.023  0.00  0.00    -0.031 A 
ATOM      4  C4  IND d   1      -0.858  -4.295  -0.800  0.00  0.00     0.051 A 
ATOM      5  C5  IND d   1      -0.773  -5.483  -1.471  0.00  0.00    -0.031 A 
ATOM      6  C6  IND d   1       0.435  -5.993  -1.900  0.00  0.00     0.015 A 
ATOM      7  C7  IND d   1       1.610  -5.336  -1.664  0.00  0.00    -0.016 A 
ATOM      8  C8  IND d   1       1.526  -4.126  -0.990  0.00  0.00    -0.047 A 
ATOM      9  C9  IND d   1       0.299  -3.583  -0.589  0.00  0.00    -0.096 A 
ATOM     10  HN1 IND d   1       3.352  -3.327  -0.767  0.00  0.00     0.298 HD
ENDROOT
TORSDOF 0
ENDMDL
