MODEL 1
REMARK minimizedAffinity 14.2983818
REMARK minimizedRMSD -1
REMARK  0 active torsions:
REMARK  status: ('A' for Active; 'I' for Inactive)
ROOT
ATOM      1  N1  IND d   1       4.901   5.639   2.740  0.00  0.00    -0.196 N 
ATOM      2  C2  IND d   1       5.836   5.185   3.627  0.00  0.00     0.054 A 
ATOM      3  C3  IND d   1       5.640   3.873   3.887  0.00  0.00    -0.031 A 
ATOM      4  C4  IND d   1       3.908   2.250   2.890  0.00  0.00     0.051 A 
ATOM      5  C5  IND d   1       2.819   2.210   2.066  0.00  0.00    -0.031 A 
ATOM      6  C6  IND d   1       2.360   3.333   1.409  0.00  0.00     0.015 A 
ATOM      7  C7  IND d   1       2.984   4.541   1.543  0.00  0.00    -0.016 A 
ATOM      8  C8  IND d   1       4.086   4.587   2.385  0.00  0.00    -0.047 A 
ATOM      9  C9  IND d   1       4.530   3.460   3.088  0.00  0.00    -0.096 A 
ATOM     10  HN1 IND d   1       4.834   6.447   2.451  0.00  0.00     0.298 HD
ENDROOT
TORSDOF 0
ENDMDL
