MODEL 1
REMARK minimizedAffinity 11.4640179
REMARK minimizedRMSD -1
REMARK  0 active torsions:
REMARK  status: ('A' for Active; 'I' for Inactive)
ROOT
ATOM      1  N1  IND d   1       4.007   1.178   1.834  0.00  0.00    -0.196 N 
ATOM      2  C2  IND d   1       5.328   1.528   1.839  0.00  0.00     0.054 A 
ATOM      3  C3  IND d   1       5.473   2.810   2.245  0.00  0.00    -0.031 A 
ATOM      4  C4  IND d   1       3.689   4.483   3.047  0.00  0.00     0.051 A 
ATOM      5  C5  IND d   1       2.338   4.634   3.184  0.00  0.00    -0.031 A 
ATOM      6  C6  IND d   1       1.456   3.618   2.875  0.00  0.00     0.015 A 
ATOM      7  C7  IND d   1       1.896   2.405   2.426  0.00  0.00    -0.016 A 
ATOM      8  C8  IND d   1       3.267   2.251   2.278  0.00  0.00    -0.047 A 
ATOM      9  C9  IND d   1       4.164   3.293   2.550  0.00  0.00    -0.096 A 
ATOM     10  HN1 IND d   1       3.692   0.415   1.594  0.00  0.00     0.298 HD
ENDROOT
TORSDOF 0
ENDMDL
