MODEL 1
REMARK minimizedAffinity 1.097211
REMARK minimizedRMSD -1
REMARK  0 active torsions:
REMARK  status: ('A' for Active; 'I' for Inactive)
ROOT
ATOM      1  N1  IND d   1      -2.167  -3.540  -1.686  0.00  0.00    -0.196 N 
ATOM      2  C2  IND d   1      -2.644  -4.779  -2.014  0.00  0.00     0.054 A 
ATOM      3  C3  IND d   1      -2.018  -5.731  -1.287  0.00  0.00    -0.031 A 
ATOM      4  C4  IND d   1      -0.251  -5.476   0.567  0.00  0.00     0.051 A 
ATOM      5  C5  IND d   1       0.526  -4.542   1.194  0.00  0.00    -0.031 A 
ATOM      6  C6  IND d   1       0.442  -3.199   0.888  0.00  0.00     0.015 A 
ATOM      7  C7  IND d   1      -0.435  -2.737  -0.052  0.00  0.00    -0.016 A 
ATOM      8  C8  IND d   1      -1.221  -3.683  -0.695  0.00  0.00    -0.047 A 
ATOM      9  C9  IND d   1      -1.109  -5.052  -0.419  0.00  0.00    -0.096 A 
ATOM     10  HN1 IND d   1      -2.416  -2.797  -2.040  0.00  0.00     0.298 HD
ENDROOT
TORSDOF 0
ENDMDL
