MODEL 1
REMARK minimizedAffinity 8.8077631
REMARK minimizedRMSD -1
REMARK  0 active torsions:
REMARK  status: ('A' for Active; 'I' for Inactive)
ROOT
ATOM      1  N1  IND d   1      -1.111  -5.473  -1.623  0.00  0.00    -0.196 N 
ATOM      2  C2  IND d   1       0.044  -5.519  -0.893  0.00  0.00     0.054 A 
ATOM      3  C3  IND d   1       0.130  -4.441  -0.082  0.00  0.00    -0.031 A 
ATOM      4  C4  IND d   1      -1.556  -2.531   0.286  0.00  0.00     0.051 A 
ATOM      5  C5  IND d   1      -2.742  -2.036  -0.180  0.00  0.00    -0.031 A 
ATOM      6  C6  IND d   1      -3.460  -2.676  -1.169  0.00  0.00     0.015 A 
ATOM      7  C7  IND d   1      -3.024  -3.846  -1.723  0.00  0.00    -0.016 A 
ATOM      8  C8  IND d   1      -1.817  -4.348  -1.258  0.00  0.00    -0.047 A 
ATOM      9  C9  IND d   1      -1.062  -3.680  -0.284  0.00  0.00    -0.096 A 
ATOM     10  HN1 IND d   1      -1.356  -6.050  -2.212  0.00  0.00     0.298 HD
ENDROOT
TORSDOF 0
ENDMDL
