MODEL 1
REMARK minimizedAffinity 4.83812094
REMARK minimizedRMSD -1
REMARK  0 active torsions:
REMARK  status: ('A' for Active; 'I' for Inactive)
ROOT
ATOM      1  N1  IND d   1       1.821  -3.019  -0.458  0.00  0.00    -0.196 N 
ATOM      2  C2  IND d   1       2.261  -1.887   0.170  0.00  0.00     0.054 A 
ATOM      3  C3  IND d   1       1.212  -1.138   0.577  0.00  0.00    -0.031 A 
ATOM      4  C4  IND d   1      -1.311  -1.625   0.407  0.00  0.00     0.051 A 
ATOM      5  C5  IND d   1      -2.202  -2.517  -0.119  0.00  0.00    -0.031 A 
ATOM      6  C6  IND d   1      -1.790  -3.647  -0.795  0.00  0.00     0.015 A 
ATOM      7  C7  IND d   1      -0.465  -3.933  -0.963  0.00  0.00    -0.016 A 
ATOM      8  C8  IND d   1       0.444  -3.025  -0.437  0.00  0.00    -0.047 A 
ATOM      9  C9  IND d   1       0.031  -1.855   0.214  0.00  0.00    -0.096 A 
ATOM     10  HN1 IND d   1       2.321  -3.625  -0.809  0.00  0.00     0.298 HD
ENDROOT
TORSDOF 0
ENDMDL
