MODEL 1
REMARK minimizedAffinity 4.4963069
REMARK minimizedRMSD -1
REMARK  0 active torsions:
REMARK  status: ('A' for Active; 'I' for Inactive)
ROOT
ATOM      1  C   UNL d   1       1.087   0.981  -3.644  0.00  0.00     0.124 A 
ATOM      2  C1  UNL d   1       1.196  -0.394  -3.487  0.00  0.00     0.062 A 
ATOM      3  C2  UNL d   1       0.324  -1.246  -4.157  0.00  0.00     0.162 A 
ATOM      4  C3  UNL d   1      -0.665  -0.726  -4.993  0.00  0.00    -0.034 A 
ATOM      5  C4  UNL d   1      -0.769   0.658  -5.145  0.00  0.00     0.162 A 
ATOM      6  C5  UNL d   1       0.105   1.505  -4.472  0.00  0.00     0.062 A 
ATOM      7  F   UNL d   1      -0.002   2.833  -4.625  0.00  0.00    -0.097 F 
ATOM      8  F1  UNL d   1      -1.708   1.191  -5.940  0.00  0.00    -0.096 F 
ATOM      9  I   UNL d   1      -1.971  -1.997  -5.998  0.00  0.00    -0.060 I 
ATOM     10  F2  UNL d   1       0.452  -2.570  -3.987  0.00  0.00    -0.096 F 
ATOM     11  F3  UNL d   1       2.143  -0.902  -2.686  0.00  0.00    -0.097 F 
ATOM     12  F4  UNL d   1       1.927   1.799  -2.996  0.00  0.00    -0.092 F 
ENDROOT
TORSDOF 0
ENDMDL
