MODEL 1
REMARK minimizedAffinity 1.90949428
REMARK minimizedRMSD -1
REMARK  0 active torsions:
REMARK  status: ('A' for Active; 'I' for Inactive)
ROOT
ATOM      1  C   UNL d   1      -1.823   0.657   1.252  0.00  0.00     0.124 A 
ATOM      2  C1  UNL d   1      -1.941   0.381  -0.103  0.00  0.00     0.062 A 
ATOM      3  C2  UNL d   1      -0.870  -0.172  -0.800  0.00  0.00     0.162 A 
ATOM      4  C3  UNL d   1       0.327  -0.454  -0.143  0.00  0.00    -0.034 A 
ATOM      5  C4  UNL d   1       0.438  -0.173   1.220  0.00  0.00     0.162 A 
ATOM      6  C5  UNL d   1      -0.634   0.380   1.912  0.00  0.00     0.062 A 
ATOM      7  F   UNL d   1      -0.519   0.646   3.222  0.00  0.00    -0.097 F 
ATOM      8  F1  UNL d   1       1.575  -0.431   1.883  0.00  0.00    -0.096 F 
ATOM      9  I   UNL d   1       1.930  -1.280  -1.181  0.00  0.00    -0.060 I 
ATOM     10  F2  UNL d   1      -1.012  -0.429  -2.109  0.00  0.00    -0.096 F 
ATOM     11  F3  UNL d   1      -3.088   0.648  -0.743  0.00  0.00    -0.097 F 
ATOM     12  F4  UNL d   1      -2.854   1.189   1.920  0.00  0.00    -0.092 F 
ENDROOT
TORSDOF 0
ENDMDL
