MODEL 1
REMARK minimizedAffinity -0.253343225
REMARK minimizedRMSD -1
REMARK  0 active torsions:
REMARK  status: ('A' for Active; 'I' for Inactive)
ROOT
ATOM      1  C   UNL d   1       0.936   0.267  -3.717  0.00  0.00     0.124 A 
ATOM      2  C1  UNL d   1      -0.066  -0.622  -3.354  0.00  0.00     0.062 A 
ATOM      3  C2  UNL d   1      -0.456  -0.731  -2.022  0.00  0.00     0.162 A 
ATOM      4  C3  UNL d   1       0.156   0.052  -1.043  0.00  0.00    -0.034 A 
ATOM      5  C4  UNL d   1       1.164   0.943  -1.416  0.00  0.00     0.162 A 
ATOM      6  C5  UNL d   1       1.550   1.048  -2.748  0.00  0.00     0.062 A 
ATOM      7  F   UNL d   1       2.519   1.908  -3.098  0.00  0.00    -0.097 F 
ATOM      8  F1  UNL d   1       1.773   1.711  -0.501  0.00  0.00    -0.096 F 
ATOM      9  I   UNL d   1      -0.425  -0.108   0.949  0.00  0.00    -0.060 I 
ATOM     10  F2  UNL d   1      -1.428  -1.598  -1.700  0.00  0.00    -0.096 F 
ATOM     11  F3  UNL d   1      -0.660  -1.378  -4.288  0.00  0.00    -0.097 F 
ATOM     12  F4  UNL d   1       1.310   0.369  -4.999  0.00  0.00    -0.092 F 
ENDROOT
TORSDOF 0
ENDMDL
