MODEL 1
REMARK minimizedAffinity -0.814195693
REMARK minimizedRMSD -1
REMARK  0 active torsions:
REMARK  status: ('A' for Active; 'I' for Inactive)
ROOT
ATOM      1  C   UNL d   1      -0.407   0.147   1.769  0.00  0.00     0.124 A 
ATOM      2  C1  UNL d   1       0.809  -0.398   1.381  0.00  0.00     0.062 A 
ATOM      3  C2  UNL d   1       1.107  -0.554   0.030  0.00  0.00     0.162 A 
ATOM      4  C3  UNL d   1       0.188  -0.164  -0.943  0.00  0.00    -0.034 A 
ATOM      5  C4  UNL d   1      -1.034   0.383  -0.545  0.00  0.00     0.162 A 
ATOM      6  C5  UNL d   1      -1.327   0.537   0.806  0.00  0.00     0.062 A 
ATOM      7  F   UNL d   1      -2.502   1.064   1.179  0.00  0.00    -0.097 F 
ATOM      8  F1  UNL d   1      -1.941   0.768  -1.455  0.00  0.00    -0.096 F 
ATOM      9  I   UNL d   1       0.629  -0.396  -2.964  0.00  0.00    -0.060 I 
ATOM     10  F2  UNL d   1       2.290  -1.084  -0.316  0.00  0.00    -0.096 F 
ATOM     11  F3  UNL d   1       1.700  -0.776   2.309  0.00  0.00    -0.097 F 
ATOM     12  F4  UNL d   1      -0.691   0.295   3.069  0.00  0.00    -0.092 F 
ENDROOT
TORSDOF 0
ENDMDL
