MODEL 1
REMARK minimizedAffinity -0.668448687
REMARK minimizedRMSD -1
REMARK  0 active torsions:
REMARK  status: ('A' for Active; 'I' for Inactive)
ROOT
ATOM      1  C   UNL d   1      -0.088   0.231   2.315  0.00  0.00     0.124 A 
ATOM      2  C1  UNL d   1       1.106  -0.299   1.845  0.00  0.00     0.062 A 
ATOM      3  C2  UNL d   1       1.302  -0.480   0.479  0.00  0.00     0.162 A 
ATOM      4  C3  UNL d   1       0.302  -0.130  -0.428  0.00  0.00    -0.034 A 
ATOM      5  C4  UNL d   1      -0.897   0.402   0.052  0.00  0.00     0.162 A 
ATOM      6  C5  UNL d   1      -1.088   0.581   1.418  0.00  0.00     0.062 A 
ATOM      7  F   UNL d   1      -2.242   1.093   1.870  0.00  0.00    -0.097 F 
ATOM      8  F1  UNL d   1      -1.879   0.749  -0.793  0.00  0.00    -0.096 F 
ATOM      9  I   UNL d   1       0.591  -0.400  -2.471  0.00  0.00    -0.060 I 
ATOM     10  F2  UNL d   1       2.465  -0.994   0.054  0.00  0.00    -0.096 F 
ATOM     11  F3  UNL d   1       2.073  -0.638   2.710  0.00  0.00    -0.097 F 
ATOM     12  F4  UNL d   1      -0.275   0.404   3.630  0.00  0.00    -0.092 F 
ENDROOT
TORSDOF 0
ENDMDL
