MODEL 1
REMARK minimizedAffinity -2.53922701
REMARK minimizedRMSD -1
REMARK  0 active torsions:
REMARK  status: ('A' for Active; 'I' for Inactive)
ROOT
ATOM      1  C   UNL d   1      -0.055   0.155   2.717  0.00  0.00     0.124 A 
ATOM      2  C1  UNL d   1      -1.107   0.483   1.873  0.00  0.00     0.062 A 
ATOM      3  C2  UNL d   1      -0.996   0.272   0.501  0.00  0.00     0.162 A 
ATOM      4  C3  UNL d   1       0.171  -0.271  -0.035  0.00  0.00    -0.034 A 
ATOM      5  C4  UNL d   1       1.226  -0.597   0.820  0.00  0.00     0.162 A 
ATOM      6  C5  UNL d   1       1.110  -0.385   2.190  0.00  0.00     0.062 A 
ATOM      7  F   UNL d   1       2.127  -0.702   3.003  0.00  0.00    -0.097 F 
ATOM      8  F1  UNL d   1       2.362  -1.121   0.337  0.00  0.00    -0.096 F 
ATOM      9  I   UNL d   1       0.341  -0.587  -2.085  0.00  0.00    -0.060 I 
ATOM     10  F2  UNL d   1      -2.029   0.598  -0.290  0.00  0.00    -0.096 F 
ATOM     11  F3  UNL d   1      -2.233   1.005   2.379  0.00  0.00    -0.097 F 
ATOM     12  F4  UNL d   1      -0.164   0.359   4.036  0.00  0.00    -0.092 F 
ENDROOT
TORSDOF 0
ENDMDL
