MODEL 1
REMARK minimizedAffinity -1.44565594
REMARK minimizedRMSD -1
REMARK  0 active torsions:
REMARK  status: ('A' for Active; 'I' for Inactive)
ROOT
ATOM      1  C   UNL d   1      -0.546   0.298   2.068  0.00  0.00     0.124 A 
ATOM      2  C1  UNL d   1      -1.621   0.647   1.263  0.00  0.00     0.062 A 
ATOM      3  C2  UNL d   1      -1.559   0.448  -0.113  0.00  0.00     0.162 A 
ATOM      4  C3  UNL d   1      -0.416  -0.104  -0.693  0.00  0.00    -0.034 A 
ATOM      5  C4  UNL d   1       0.662  -0.451   0.123  0.00  0.00     0.162 A 
ATOM      6  C5  UNL d   1       0.594  -0.251   1.498  0.00  0.00     0.062 A 
ATOM      7  F   UNL d   1       1.634  -0.588   2.274  0.00  0.00    -0.097 F 
ATOM      8  F1  UNL d   1       1.775  -0.984  -0.402  0.00  0.00    -0.096 F 
ATOM      9  I   UNL d   1      -0.319  -0.402  -2.751  0.00  0.00    -0.060 I 
ATOM     10  F2  UNL d   1      -2.613   0.794  -0.867  0.00  0.00    -0.096 F 
ATOM     11  F3  UNL d   1      -2.723   1.177   1.812  0.00  0.00    -0.097 F 
ATOM     12  F4  UNL d   1      -0.608   0.491   3.392  0.00  0.00    -0.092 F 
ENDROOT
TORSDOF 0
ENDMDL
