MODEL 1
REMARK minimizedAffinity 1.1768117
REMARK minimizedRMSD -1
REMARK  0 active torsions:
REMARK  status: ('A' for Active; 'I' for Inactive)
ROOT
ATOM      1  C   UNL d   1       0.181   0.091   3.314  0.00  0.00     0.124 A 
ATOM      2  C1  UNL d   1      -0.781   0.589   2.446  0.00  0.00     0.062 A 
ATOM      3  C2  UNL d   1      -0.597   0.494   1.069  0.00  0.00     0.162 A 
ATOM      4  C3  UNL d   1       0.553  -0.101   0.552  0.00  0.00    -0.034 A 
ATOM      5  C4  UNL d   1       1.517  -0.598   1.431  0.00  0.00     0.162 A 
ATOM      6  C5  UNL d   1       1.328  -0.501   2.806  0.00  0.00     0.062 A 
ATOM      7  F   UNL d   1       2.259  -0.982   3.643  0.00  0.00    -0.097 F 
ATOM      8  F1  UNL d   1       2.634  -1.176   0.968  0.00  0.00    -0.096 F 
ATOM      9  I   UNL d   1       0.832  -0.244  -1.506  0.00  0.00    -0.060 I 
ATOM     10  F2  UNL d   1      -1.543   0.983   0.254  0.00  0.00    -0.096 F 
ATOM     11  F3  UNL d   1      -1.890   1.162   2.934  0.00  0.00    -0.097 F 
ATOM     12  F4  UNL d   1       0.002   0.184   4.638  0.00  0.00    -0.092 F 
ENDROOT
TORSDOF 0
ENDMDL
