MODEL 1
REMARK minimizedAffinity -0.0281602256
REMARK minimizedRMSD -1
REMARK  0 active torsions:
REMARK  status: ('A' for Active; 'I' for Inactive)
ROOT
ATOM      1  C   UNL d   1      -0.005  -0.083   1.939  0.00  0.00     0.124 A 
ATOM      2  C1  UNL d   1       1.177  -0.452   1.313  0.00  0.00     0.062 A 
ATOM      3  C2  UNL d   1       1.240  -0.524  -0.076  0.00  0.00     0.162 A 
ATOM      4  C3  UNL d   1       0.117  -0.227  -0.848  0.00  0.00    -0.034 A 
ATOM      5  C4  UNL d   1      -1.069   0.142  -0.210  0.00  0.00     0.162 A 
ATOM      6  C5  UNL d   1      -1.127   0.213   1.178  0.00  0.00     0.062 A 
ATOM      7  F   UNL d   1      -2.270   0.569   1.781  0.00  0.00    -0.097 F 
ATOM      8  F1  UNL d   1      -2.167   0.435  -0.922  0.00  0.00    -0.096 F 
ATOM      9  I   UNL d   1       0.207  -0.334  -2.924  0.00  0.00    -0.060 I 
ATOM     10  F2  UNL d   1       2.396  -0.883  -0.655  0.00  0.00    -0.096 F 
ATOM     11  F3  UNL d   1       2.262  -0.740   2.046  0.00  0.00    -0.097 F 
ATOM     12  F4  UNL d   1      -0.063  -0.015   3.276  0.00  0.00    -0.092 F 
ENDROOT
TORSDOF 0
ENDMDL
