MODEL 1
REMARK minimizedAffinity -1.17043638
REMARK minimizedRMSD -1
REMARK  0 active torsions:
REMARK  status: ('A' for Active; 'I' for Inactive)
ROOT
ATOM      1  C   UNL d   1      -0.030  -0.141   2.993  0.00  0.00     0.124 A 
ATOM      2  C1  UNL d   1       1.210  -0.294   2.389  0.00  0.00     0.062 A 
ATOM      3  C2  UNL d   1       1.302  -0.440   1.008  0.00  0.00     0.162 A 
ATOM      4  C3  UNL d   1       0.150  -0.434   0.221  0.00  0.00    -0.034 A 
ATOM      5  C4  UNL d   1      -1.093  -0.280   0.836  0.00  0.00     0.162 A 
ATOM      6  C5  UNL d   1      -1.180  -0.134   2.217  0.00  0.00     0.062 A 
ATOM      7  F   UNL d   1      -2.379   0.013   2.799  0.00  0.00    -0.097 F 
ATOM      8  F1  UNL d   1      -2.221  -0.270   0.110  0.00  0.00    -0.096 F 
ATOM      9  I   UNL d   1       0.284  -0.653  -1.845  0.00  0.00    -0.060 I 
ATOM     10  F2  UNL d   1       2.514  -0.586   0.450  0.00  0.00    -0.096 F 
ATOM     11  F3  UNL d   1       2.323  -0.301   3.137  0.00  0.00    -0.097 F 
ATOM     12  F4  UNL d   1      -0.116  -0.001   4.322  0.00  0.00    -0.092 F 
ENDROOT
TORSDOF 0
ENDMDL
