MODEL 1
REMARK minimizedAffinity 1.75112629
REMARK minimizedRMSD -1
REMARK  0 active torsions:
REMARK  status: ('A' for Active; 'I' for Inactive)
ROOT
ATOM      1  C   UNL d   1       1.319   0.519  -3.831  0.00  0.00     0.124 A 
ATOM      2  C1  UNL d   1       1.627   1.499  -2.897  0.00  0.00     0.062 A 
ATOM      3  C2  UNL d   1       1.247   1.344  -1.568  0.00  0.00     0.162 A 
ATOM      4  C3  UNL d   1       0.553   0.203  -1.162  0.00  0.00    -0.034 A 
ATOM      5  C4  UNL d   1       0.246  -0.777  -2.107  0.00  0.00     0.162 A 
ATOM      6  C5  UNL d   1       0.628  -0.618  -3.435  0.00  0.00     0.062 A 
ATOM      7  F   UNL d   1       0.329  -1.566  -4.335  0.00  0.00    -0.097 F 
ATOM      8  F1  UNL d   1      -0.420  -1.886  -1.751  0.00  0.00    -0.096 F 
ATOM      9  I   UNL d   1      -0.018  -0.032   0.825  0.00  0.00    -0.060 I 
ATOM     10  F2  UNL d   1       1.558   2.307  -0.688  0.00  0.00    -0.096 F 
ATOM     11  F3  UNL d   1       2.294   2.599  -3.278  0.00  0.00    -0.097 F 
ATOM     12  F4  UNL d   1       1.685   0.671  -5.110  0.00  0.00    -0.092 F 
ENDROOT
TORSDOF 0
ENDMDL
