MODEL 1
REMARK minimizedAffinity 11.2808943
REMARK minimizedRMSD -1
REMARK  0 active torsions:
REMARK  status: ('A' for Active; 'I' for Inactive)
ROOT
ATOM      1  C   UNL d   1       4.037   0.032   2.896  0.00  0.00     0.124 A 
ATOM      2  C1  UNL d   1       4.727  -0.415   4.014  0.00  0.00     0.062 A 
ATOM      3  C2  UNL d   1       5.289   0.498   4.902  0.00  0.00     0.162 A 
ATOM      4  C3  UNL d   1       5.162   1.869   4.675  0.00  0.00    -0.034 A 
ATOM      5  C4  UNL d   1       4.467   2.311   3.548  0.00  0.00     0.162 A 
ATOM      6  C5  UNL d   1       3.908   1.394   2.664  0.00  0.00     0.062 A 
ATOM      7  F   UNL d   1       3.242   1.827   1.584  0.00  0.00    -0.097 F 
ATOM      8  F1  UNL d   1       4.326   3.621   3.300  0.00  0.00    -0.096 F 
ATOM      9  I   UNL d   1       6.000   3.238   6.000  0.00  0.00    -0.060 I 
ATOM     10  F2  UNL d   1       5.950   0.038   5.974  0.00  0.00    -0.096 F 
ATOM     11  F3  UNL d   1       4.855  -1.731   4.240  0.00  0.00    -0.097 F 
ATOM     12  F4  UNL d   1       3.499  -0.849   2.043  0.00  0.00    -0.092 F 
ENDROOT
TORSDOF 0
ENDMDL
