MODEL 1
REMARK minimizedAffinity -3.29387116
REMARK minimizedRMSD -1
REMARK  0 active torsions:
REMARK  status: ('A' for Active; 'I' for Inactive)
ROOT
ATOM      1  O1  BZF d   1       2.180  -0.957   1.269  0.00  0.00    -0.204 OA
ATOM      2  C2  BZF d   1       3.122   0.019   1.527  0.00  0.00     0.174 A 
ATOM      3  C3  BZF d   1       2.712   1.215   1.057  0.00  0.00    -0.012 A 
ATOM      4  C3A BZF d   1       1.393   0.989   0.551  0.00  0.00    -0.107 A 
ATOM      5  C4  BZF d   1       0.459   1.798  -0.030  0.00  0.00     0.055 A 
ATOM      6  C5  BZF d   1      -0.701   1.251  -0.478  0.00  0.00    -0.016 A 
ATOM      7  C6  BZF d   1      -0.958  -0.100  -0.367  0.00  0.00     0.022 A 
ATOM      8  C7  BZF d   1      -0.064  -0.941   0.207  0.00  0.00     0.029 A 
ATOM      9  C7A BZF d   1       1.096  -0.386   0.691  0.00  0.00     0.058 A 
ENDROOT
TORSDOF 0
ENDMDL
