MODEL 1
REMARK minimizedAffinity -3.67913914
REMARK minimizedRMSD -1
REMARK  0 active torsions:
REMARK  status: ('A' for Active; 'I' for Inactive)
ROOT
ATOM      1  O1  BZF d   1      -0.594  -0.789   0.409  0.00  0.00    -0.204 OA
ATOM      2  C2  BZF d   1      -0.434   0.322  -0.396  0.00  0.00     0.174 A 
ATOM      3  C3  BZF d   1       0.670   1.013  -0.044  0.00  0.00    -0.012 A 
ATOM      4  C3A BZF d   1       1.286   0.238   0.989  0.00  0.00    -0.107 A 
ATOM      5  C4  BZF d   1       2.422   0.395   1.729  0.00  0.00     0.055 A 
ATOM      6  C5  BZF d   1       2.702  -0.505   2.709  0.00  0.00    -0.016 A 
ATOM      7  C6  BZF d   1       1.865  -1.568   2.978  0.00  0.00     0.022 A 
ATOM      8  C7  BZF d   1       0.729  -1.768   2.267  0.00  0.00     0.029 A 
ATOM      9  C7A BZF d   1       0.461  -0.880   1.254  0.00  0.00     0.058 A 
ENDROOT
TORSDOF 0
ENDMDL
