MODEL 1
REMARK minimizedAffinity -3.46509266
REMARK minimizedRMSD -1
REMARK  0 active torsions:
REMARK  status: ('A' for Active; 'I' for Inactive)
ROOT
ATOM      1  O1  BZF d   1      -1.149   0.424  -3.495  0.00  0.00    -0.204 OA
ATOM      2  C2  BZF d   1      -2.428  -0.097  -3.456  0.00  0.00     0.174 A 
ATOM      3  C3  BZF d   1      -2.784  -0.399  -2.191  0.00  0.00    -0.012 A 
ATOM      4  C3A BZF d   1      -1.691   0.040  -1.378  0.00  0.00    -0.107 A 
ATOM      5  C4  BZF d   1      -1.458   0.028  -0.032  0.00  0.00     0.055 A 
ATOM      6  C5  BZF d   1      -0.259   0.466   0.434  0.00  0.00    -0.016 A 
ATOM      7  C6  BZF d   1       0.729   0.917  -0.415  0.00  0.00     0.022 A 
ATOM      8  C7  BZF d   1       0.543   0.952  -1.757  0.00  0.00     0.029 A 
ATOM      9  C7A BZF d   1      -0.680   0.541  -2.229  0.00  0.00     0.058 A 
ENDROOT
TORSDOF 0
ENDMDL
