MODEL 1
REMARK minimizedAffinity -2.90420723
REMARK minimizedRMSD -1
REMARK  0 active torsions:
REMARK  status: ('A' for Active; 'I' for Inactive)
ROOT
ATOM      1  O1  BZF d   1      -0.540  -1.570  -0.579  0.00  0.00    -0.204 OA
ATOM      2  C2  BZF d   1      -0.122  -0.708   0.417  0.00  0.00     0.174 A 
ATOM      3  C3  BZF d   1      -0.673   0.512   0.256  0.00  0.00    -0.012 A 
ATOM      4  C3A BZF d   1      -1.559   0.381  -0.860  0.00  0.00    -0.107 A 
ATOM      5  C4  BZF d   1      -2.404   1.246  -1.495  0.00  0.00     0.055 A 
ATOM      6  C5  BZF d   1      -3.073   0.824  -2.600  0.00  0.00    -0.016 A 
ATOM      7  C6  BZF d   1      -2.917  -0.452  -3.100  0.00  0.00     0.022 A 
ATOM      8  C7  BZF d   1      -2.094  -1.347  -2.501  0.00  0.00     0.029 A 
ATOM      9  C7A BZF d   1      -1.442  -0.935  -1.365  0.00  0.00     0.058 A 
ENDROOT
TORSDOF 0
ENDMDL
