MODEL 1
REMARK minimizedAffinity -4.51462984
REMARK minimizedRMSD -1
REMARK  0 active torsions:
REMARK  status: ('A' for Active; 'I' for Inactive)
ROOT
ATOM      1  O1  BZF d   1       2.261  -0.931   1.683  0.00  0.00    -0.204 OA
ATOM      2  C2  BZF d   1       3.099   0.153   1.508  0.00  0.00     0.174 A 
ATOM      3  C3  BZF d   1       2.497   1.109   0.771  0.00  0.00    -0.012 A 
ATOM      4  C3A BZF d   1       1.168   0.628   0.545  0.00  0.00    -0.107 A 
ATOM      5  C4  BZF d   1       0.084   1.139  -0.110  0.00  0.00     0.055 A 
ATOM      6  C5  BZF d   1      -1.042   0.385  -0.209  0.00  0.00    -0.016 A 
ATOM      7  C6  BZF d   1      -1.118  -0.883   0.329  0.00  0.00     0.022 A 
ATOM      8  C7  BZF d   1      -0.070  -1.430   0.992  0.00  0.00     0.029 A 
ATOM      9  C7A BZF d   1       1.059  -0.658   1.123  0.00  0.00     0.058 A 
ENDROOT
TORSDOF 0
ENDMDL
