MODEL 1
REMARK minimizedAffinity 2.67806053
REMARK minimizedRMSD -1
REMARK  0 active torsions:
REMARK  status: ('A' for Active; 'I' for Inactive)
ROOT
ATOM      1  O1  BZF d   1       2.290  -1.322   2.971  0.00  0.00    -0.204 OA
ATOM      2  C2  BZF d   1       1.418  -2.385   3.102  0.00  0.00     0.174 A 
ATOM      3  C3  BZF d   1       0.379  -2.260   2.251  0.00  0.00    -0.012 A 
ATOM      4  C3A BZF d   1       0.666  -1.090   1.478  0.00  0.00    -0.107 A 
ATOM      5  C4  BZF d   1       0.016  -0.457   0.457  0.00  0.00     0.055 A 
ATOM      6  C5  BZF d   1       0.525   0.705  -0.030  0.00  0.00    -0.016 A 
ATOM      7  C6  BZF d   1       1.678   1.263   0.482  0.00  0.00     0.022 A 
ATOM      8  C7  BZF d   1       2.361   0.669   1.490  0.00  0.00     0.029 A 
ATOM      9  C7A BZF d   1       1.866  -0.522   1.963  0.00  0.00     0.058 A 
ENDROOT
TORSDOF 0
ENDMDL
