MODEL 1
REMARK minimizedAffinity -6.22900915
REMARK minimizedRMSD -1
REMARK  0 active torsions:
REMARK  status: ('A' for Active; 'I' for Inactive)
ROOT
ATOM      1  O1  BZF d   1      -0.107  -0.507   0.268  0.00  0.00    -0.204 OA
ATOM      2  C2  BZF d   1      -0.132   0.697  -0.409  0.00  0.00     0.174 A 
ATOM      3  C3  BZF d   1       1.059   1.323  -0.316  0.00  0.00    -0.012 A 
ATOM      4  C3A BZF d   1       1.908   0.414   0.390  0.00  0.00    -0.107 A 
ATOM      5  C4  BZF d   1       3.217   0.460   0.778  0.00  0.00     0.055 A 
ATOM      6  C5  BZF d   1       3.723  -0.562   1.516  0.00  0.00    -0.016 A 
ATOM      7  C6  BZF d   1       2.949  -1.642   1.889  0.00  0.00     0.022 A 
ATOM      8  C7  BZF d   1       1.647  -1.735   1.523  0.00  0.00     0.029 A 
ATOM      9  C7A BZF d   1       1.142  -0.719   0.749  0.00  0.00     0.058 A 
ENDROOT
TORSDOF 0
ENDMDL
