MODEL 1
REMARK minimizedAffinity 3.11973929
REMARK minimizedRMSD -1
REMARK  0 active torsions:
REMARK  status: ('A' for Active; 'I' for Inactive)
ROOT
ATOM      1  C   UNL d   1       1.797  -1.057   3.271  0.00  0.00     0.172 C 
ATOM      2  N   UNL d   1       0.379  -0.794   3.195  0.00  0.00    -0.070 N 
ATOM      3  C1  UNL d   1      -0.614  -1.646   3.597  0.00  0.00    -0.004 A 
ATOM      4  C2  UNL d   1      -1.823  -1.028   3.360  0.00  0.00    -0.047 A 
ATOM      5  C3  UNL d   1      -1.546   0.240   2.796  0.00  0.00    -0.047 A 
ATOM      6  C4  UNL d   1      -0.176   0.359   2.705  0.00  0.00    -0.004 A 
ENDROOT
TORSDOF 0
ENDMDL
