MODEL 1
REMARK minimizedAffinity -3.65294838
REMARK minimizedRMSD -1
REMARK  0 active torsions:
REMARK  status: ('A' for Active; 'I' for Inactive)
ROOT
ATOM      1  C   UNL d   1       0.033  -0.020  -1.292  0.00  0.00     0.172 C 
ATOM      2  N   UNL d   1      -0.010  -0.052   0.151  0.00  0.00    -0.070 N 
ATOM      3  C1  UNL d   1      -1.053  -0.515   0.908  0.00  0.00    -0.004 A 
ATOM      4  C2  UNL d   1      -0.705  -0.375   2.235  0.00  0.00    -0.047 A 
ATOM      5  C3  UNL d   1       0.591   0.192   2.275  0.00  0.00    -0.047 A 
ATOM      6  C4  UNL d   1       0.997   0.382   0.971  0.00  0.00    -0.004 A 
ENDROOT
TORSDOF 0
ENDMDL
