MODEL 1
REMARK minimizedAffinity -1.92544878
REMARK minimizedRMSD -1
REMARK  0 active torsions:
REMARK  status: ('A' for Active; 'I' for Inactive)
ROOT
ATOM      1  C   UNL d   1       0.046   0.066  -1.543  0.00  0.00     0.172 C 
ATOM      2  N   UNL d   1      -0.219  -0.065  -0.130  0.00  0.00    -0.070 N 
ATOM      3  C1  UNL d   1       0.620   0.327   0.879  0.00  0.00    -0.004 A 
ATOM      4  C2  UNL d   1       0.005   0.032   2.077  0.00  0.00    -0.047 A 
ATOM      5  C3  UNL d   1      -1.246  -0.558   1.778  0.00  0.00    -0.047 A 
ATOM      6  C4  UNL d   1      -1.359  -0.606   0.404  0.00  0.00    -0.004 A 
ENDROOT
TORSDOF 0
ENDMDL
