MODEL 1
REMARK minimizedAffinity 3.42015576
REMARK minimizedRMSD -1
REMARK  0 active torsions:
REMARK  status: ('A' for Active; 'I' for Inactive)
ROOT
ATOM      1  C   UNL d   1      -1.923   0.038   1.743  0.00  0.00     0.172 C 
ATOM      2  N   UNL d   1      -2.191   0.252   0.340  0.00  0.00    -0.070 N 
ATOM      3  C1  UNL d   1      -3.405   0.585  -0.199  0.00  0.00    -0.004 A 
ATOM      4  C2  UNL d   1      -3.245   0.698  -1.563  0.00  0.00    -0.047 A 
ATOM      5  C3  UNL d   1      -1.887   0.423  -1.854  0.00  0.00    -0.047 A 
ATOM      6  C4  UNL d   1      -1.258   0.150  -0.658  0.00  0.00    -0.004 A 
ENDROOT
TORSDOF 0
ENDMDL
