MODEL 1
REMARK minimizedAffinity 2.33327031
REMARK minimizedRMSD -1
REMARK  0 active torsions:
REMARK  status: ('A' for Active; 'I' for Inactive)
ROOT
ATOM      1  C   UNL d   1      -4.867   1.095   0.499  0.00  0.00     0.172 C 
ATOM      2  N   UNL d   1      -3.679   0.620   1.168  0.00  0.00    -0.070 N 
ATOM      3  C1  UNL d   1      -3.654  -0.159   2.294  0.00  0.00    -0.004 A 
ATOM      4  C2  UNL d   1      -2.335  -0.395   2.615  0.00  0.00    -0.047 A 
ATOM      5  C3  UNL d   1      -1.539   0.265   1.648  0.00  0.00    -0.047 A 
ATOM      6  C4  UNL d   1      -2.397   0.885   0.765  0.00  0.00    -0.004 A 
ENDROOT
TORSDOF 0
ENDMDL
