MODEL 1
REMARK minimizedAffinity 1.63351595
REMARK minimizedRMSD -1
REMARK  0 active torsions:
REMARK  status: ('A' for Active; 'I' for Inactive)
ROOT
ATOM      1  C   UNL d   1      -1.928   0.300  -0.466  0.00  0.00     0.172 C 
ATOM      2  N   UNL d   1      -2.539   0.442   0.835  0.00  0.00    -0.070 N 
ATOM      3  C1  UNL d   1      -1.881   0.394   2.035  0.00  0.00    -0.004 A 
ATOM      4  C2  UNL d   1      -2.813   0.571   3.034  0.00  0.00    -0.047 A 
ATOM      5  C3  UNL d   1      -4.075   0.729   2.414  0.00  0.00    -0.047 A 
ATOM      6  C4  UNL d   1      -3.876   0.645   1.052  0.00  0.00    -0.004 A 
ENDROOT
TORSDOF 0
ENDMDL
