MODEL 1
REMARK minimizedAffinity 1.02073419
REMARK minimizedRMSD -1
REMARK  0 active torsions:
REMARK  status: ('A' for Active; 'I' for Inactive)
ROOT
ATOM      1  C   UNL d   1       1.846   2.507   0.465  0.00  0.00     0.172 C 
ATOM      2  N   UNL d   1       1.375   1.952   1.712  0.00  0.00    -0.070 N 
ATOM      3  C1  UNL d   1       1.509   2.533   2.945  0.00  0.00    -0.004 A 
ATOM      4  C2  UNL d   1       0.931   1.692   3.872  0.00  0.00    -0.047 A 
ATOM      5  C3  UNL d   1       0.433   0.568   3.172  0.00  0.00    -0.047 A 
ATOM      6  C4  UNL d   1       0.721   0.755   1.836  0.00  0.00    -0.004 A 
ENDROOT
TORSDOF 0
ENDMDL
