MODEL 1
REMARK minimizedAffinity 1.88886678
REMARK minimizedRMSD -1
REMARK  0 active torsions:
REMARK  status: ('A' for Active; 'I' for Inactive)
ROOT
ATOM      1  C   UNL d   1      -1.008  -0.766   2.891  0.00  0.00     0.172 C 
ATOM      2  N   UNL d   1      -2.171  -0.245   2.212  0.00  0.00    -0.070 N 
ATOM      3  C1  UNL d   1      -3.238   0.368   2.812  0.00  0.00    -0.004 A 
ATOM      4  C2  UNL d   1      -4.134   0.719   1.825  0.00  0.00    -0.047 A 
ATOM      5  C3  UNL d   1      -3.586   0.301   0.589  0.00  0.00    -0.047 A 
ATOM      6  C4  UNL d   1      -2.371  -0.292   0.857  0.00  0.00    -0.004 A 
ENDROOT
TORSDOF 0
ENDMDL
