MODEL 1
REMARK minimizedAffinity 3.19562411
REMARK minimizedRMSD -1
REMARK  0 active torsions:
REMARK  status: ('A' for Active; 'I' for Inactive)
ROOT
ATOM      1  C   UNL d   1      -0.381   0.030   2.867  0.00  0.00     0.172 C 
ATOM      2  N   UNL d   1      -1.680   0.132   2.244  0.00  0.00    -0.070 N 
ATOM      3  C1  UNL d   1      -1.960  -0.149   0.933  0.00  0.00    -0.004 A 
ATOM      4  C2  UNL d   1      -3.306   0.071   0.733  0.00  0.00    -0.047 A 
ATOM      5  C3  UNL d   1      -3.853   0.499   1.966  0.00  0.00    -0.047 A 
ATOM      6  C4  UNL d   1      -2.824   0.528   2.884  0.00  0.00    -0.004 A 
ENDROOT
TORSDOF 0
ENDMDL
