MODEL 1
REMARK minimizedAffinity -2.6420188
REMARK minimizedRMSD -1
REMARK  0 active torsions:
REMARK  status: ('A' for Active; 'I' for Inactive)
ROOT
ATOM      1  C   UNL d   1       0.620   0.160  -2.747  0.00  0.00     0.172 C 
ATOM      2  N   UNL d   1       0.667   0.267  -1.308  0.00  0.00    -0.070 N 
ATOM      3  C1  UNL d   1      -0.340   0.741  -0.509  0.00  0.00    -0.004 A 
ATOM      4  C2  UNL d   1       0.094   0.682   0.797  0.00  0.00    -0.047 A 
ATOM      5  C3  UNL d   1       1.408   0.155   0.784  0.00  0.00    -0.047 A 
ATOM      6  C4  UNL d   1       1.737  -0.093  -0.532  0.00  0.00    -0.004 A 
ENDROOT
TORSDOF 0
ENDMDL
