MODEL 1
REMARK minimizedAffinity -2.39774537
REMARK minimizedRMSD -1
REMARK  0 active torsions:
REMARK  status: ('A' for Active; 'I' for Inactive)
ROOT
ATOM      1  C   UNL d   1       0.935   1.252   1.146  0.00  0.00     0.172 C 
ATOM      2  N   UNL d   1      -0.176   0.795   1.948  0.00  0.00    -0.070 N 
ATOM      3  C1  UNL d   1      -1.424   0.485   1.479  0.00  0.00    -0.004 A 
ATOM      4  C2  UNL d   1      -2.193   0.091   2.553  0.00  0.00    -0.047 A 
ATOM      5  C3  UNL d   1      -1.378   0.167   3.707  0.00  0.00    -0.047 A 
ATOM      6  C4  UNL d   1      -0.134   0.605   3.304  0.00  0.00    -0.004 A 
ENDROOT
TORSDOF 0
ENDMDL
