MODEL 1
REMARK minimizedAffinity -1.52571857
REMARK minimizedRMSD -1
REMARK  0 active torsions:
REMARK  status: ('A' for Active; 'I' for Inactive)
ROOT
ATOM      1  C   UNL d   1       0.584  -0.017   0.304  0.00  0.00     0.172 C 
ATOM      2  N   UNL d   1       0.115   0.366   1.615  0.00  0.00    -0.070 N 
ATOM      3  C1  UNL d   1      -1.196   0.480   1.992  0.00  0.00    -0.004 A 
ATOM      4  C2  UNL d   1      -1.223   0.865   3.315  0.00  0.00    -0.047 A 
ATOM      5  C3  UNL d   1       0.119   0.989   3.747  0.00  0.00    -0.047 A 
ATOM      6  C4  UNL d   1       0.926   0.674   2.675  0.00  0.00    -0.004 A 
ENDROOT
TORSDOF 0
ENDMDL
