MODEL 1
REMARK minimizedAffinity 0.268802196
REMARK minimizedRMSD -1
REMARK  0 active torsions:
REMARK  status: ('A' for Active; 'I' for Inactive)
ROOT
ATOM      1  C   UNL d   1      -0.753   0.350  -0.155  0.00  0.00     0.172 C 
ATOM      2  N   UNL d   1       0.560   0.546   0.414  0.00  0.00    -0.070 N 
ATOM      3  C1  UNL d   1       1.115  -0.202   1.418  0.00  0.00    -0.004 A 
ATOM      4  C2  UNL d   1       2.372   0.301   1.674  0.00  0.00    -0.047 A 
ATOM      5  C3  UNL d   1       2.580   1.389   0.793  0.00  0.00    -0.047 A 
ATOM      6  C4  UNL d   1       1.443   1.519   0.025  0.00  0.00    -0.004 A 
ENDROOT
TORSDOF 0
ENDMDL
