MODEL 1
REMARK minimizedAffinity -1.53168392
REMARK minimizedRMSD -1
REMARK  0 active torsions:
REMARK  status: ('A' for Active; 'I' for Inactive)
ROOT
ATOM      1  C   UNL d   1       0.353   0.350   2.957  0.00  0.00     0.172 C 
ATOM      2  N   UNL d   1       0.442   0.370   1.516  0.00  0.00    -0.070 N 
ATOM      3  C1  UNL d   1      -0.613   0.507   0.653  0.00  0.00    -0.004 A 
ATOM      4  C2  UNL d   1      -0.114   0.479  -0.632  0.00  0.00    -0.047 A 
ATOM      5  C3  UNL d   1       1.289   0.318  -0.537  0.00  0.00    -0.047 A 
ATOM      6  C4  UNL d   1       1.606   0.253   0.803  0.00  0.00    -0.004 A 
ENDROOT
TORSDOF 0
ENDMDL
