MODEL 1
REMARK minimizedAffinity -3.31228447
REMARK minimizedRMSD -1
REMARK  0 active torsions:
REMARK  status: ('A' for Active; 'I' for Inactive)
ROOT
ATOM      1  C   UNL d   1       0.186  -0.854  -1.000  0.00  0.00     0.172 C 
ATOM      2  N   UNL d   1       0.002  -0.668   0.421  0.00  0.00    -0.070 N 
ATOM      3  C1  UNL d   1      -0.789  -1.438   1.231  0.00  0.00    -0.004 A 
ATOM      4  C2  UNL d   1      -0.693  -0.939   2.512  0.00  0.00    -0.047 A 
ATOM      5  C3  UNL d   1       0.185   0.170   2.470  0.00  0.00    -0.047 A 
ATOM      6  C4  UNL d   1       0.600   0.316   1.163  0.00  0.00    -0.004 A 
ENDROOT
TORSDOF 0
ENDMDL
