MODEL 1
REMARK minimizedAffinity -3.31906557
REMARK minimizedRMSD -1
REMARK  0 active torsions:
REMARK  status: ('A' for Active; 'I' for Inactive)
ROOT
ATOM      1  C   UNL d   1      -0.082   0.204  -1.127  0.00  0.00     0.172 C 
ATOM      2  N   UNL d   1      -0.347   0.025   0.281  0.00  0.00    -0.070 N 
ATOM      3  C1  UNL d   1       0.564   0.181   1.291  0.00  0.00    -0.004 A 
ATOM      4  C2  UNL d   1      -0.078  -0.078   2.483  0.00  0.00    -0.047 A 
ATOM      5  C3  UNL d   1      -1.422  -0.401   2.178  0.00  0.00    -0.047 A 
ATOM      6  C4  UNL d   1      -1.561  -0.329   0.808  0.00  0.00    -0.004 A 
ENDROOT
TORSDOF 0
ENDMDL
