MODEL 1
REMARK minimizedAffinity -2.22923708
REMARK minimizedRMSD -1
REMARK  0 active torsions:
REMARK  status: ('A' for Active; 'I' for Inactive)
ROOT
ATOM      1  C   UNL d   1      -0.610  -1.016   3.194  0.00  0.00     0.172 C 
ATOM      2  N   UNL d   1      -0.155  -0.374   1.983  0.00  0.00    -0.070 N 
ATOM      3  C1  UNL d   1      -0.815  -0.374   0.784  0.00  0.00    -0.004 A 
ATOM      4  C2  UNL d   1      -0.056   0.344  -0.115  0.00  0.00    -0.047 A 
ATOM      5  C3  UNL d   1       1.100   0.790   0.567  0.00  0.00    -0.047 A 
ATOM      6  C4  UNL d   1       1.014   0.331   1.865  0.00  0.00    -0.004 A 
ENDROOT
TORSDOF 0
ENDMDL
