MODEL 1
REMARK minimizedAffinity -3.01325822
REMARK minimizedRMSD -1
REMARK  0 active torsions:
REMARK  status: ('A' for Active; 'I' for Inactive)
ROOT
ATOM      1  C   UNL d   1       0.444  -0.585   2.359  0.00  0.00     0.172 C 
ATOM      2  N   UNL d   1      -0.014  -0.198   1.045  0.00  0.00    -0.070 N 
ATOM      3  C1  UNL d   1       0.752  -0.165  -0.089  0.00  0.00    -0.004 A 
ATOM      4  C2  UNL d   1      -0.050   0.255  -1.128  0.00  0.00    -0.047 A 
ATOM      5  C3  UNL d   1      -1.343   0.483  -0.599  0.00  0.00    -0.047 A 
ATOM      6  C4  UNL d   1      -1.292   0.195   0.748  0.00  0.00    -0.004 A 
ENDROOT
TORSDOF 0
ENDMDL
