MODEL 1
REMARK minimizedAffinity -1.70703721
REMARK minimizedRMSD -1
REMARK  0 active torsions:
REMARK  status: ('A' for Active; 'I' for Inactive)
ROOT
ATOM      1  C   UNL d   1      -1.271  -0.125   0.064  0.00  0.00     0.172 C 
ATOM      2  N   UNL d   1       0.108  -0.185   0.488  0.00  0.00    -0.070 N 
ATOM      3  C1  UNL d   1       0.546  -0.179   1.786  0.00  0.00    -0.004 A 
ATOM      4  C2  UNL d   1       1.922  -0.248   1.768  0.00  0.00    -0.047 A 
ATOM      5  C3  UNL d   1       2.326  -0.296   0.412  0.00  0.00    -0.047 A 
ATOM      6  C4  UNL d   1       1.183  -0.255  -0.358  0.00  0.00    -0.004 A 
ENDROOT
TORSDOF 0
ENDMDL
