MODEL 1
REMARK minimizedAffinity -1.7965219
REMARK minimizedRMSD -1
REMARK  0 active torsions:
REMARK  status: ('A' for Active; 'I' for Inactive)
ROOT
ATOM      1  C   UNL d   1      -1.104   0.438  -1.810  0.00  0.00     0.172 C 
ATOM      2  N   UNL d   1       0.033   0.103  -0.985  0.00  0.00    -0.070 N 
ATOM      3  C1  UNL d   1       1.243  -0.351  -1.439  0.00  0.00    -0.004 A 
ATOM      4  C2  UNL d   1       2.056  -0.552  -0.344  0.00  0.00    -0.047 A 
ATOM      5  C3  UNL d   1       1.308  -0.209   0.807  0.00  0.00    -0.047 A 
ATOM      6  C4  UNL d   1       0.060   0.194   0.382  0.00  0.00    -0.004 A 
ENDROOT
TORSDOF 0
ENDMDL
