MODEL 1
REMARK minimizedAffinity -2.85020018
REMARK minimizedRMSD -1
REMARK  0 active torsions:
REMARK  status: ('A' for Active; 'I' for Inactive)
ROOT
ATOM      1  C   UNL d   1      -0.570   0.498  -1.848  0.00  0.00     0.172 C 
ATOM      2  N   UNL d   1       0.290   0.168  -0.736  0.00  0.00    -0.070 N 
ATOM      3  C1  UNL d   1       0.027   0.431   0.582  0.00  0.00    -0.004 A 
ATOM      4  C2  UNL d   1       1.089  -0.038   1.325  0.00  0.00    -0.047 A 
ATOM      5  C3  UNL d   1       2.022  -0.601   0.423  0.00  0.00    -0.047 A 
ATOM      6  C4  UNL d   1       1.503  -0.460  -0.846  0.00  0.00    -0.004 A 
ENDROOT
TORSDOF 0
ENDMDL
