MODEL 1
REMARK minimizedAffinity -2.11150503
REMARK minimizedRMSD -1
REMARK  0 active torsions:
REMARK  status: ('A' for Active; 'I' for Inactive)
ROOT
ATOM      1  C   UNL d   1      -0.696   1.128  -1.844  0.00  0.00     0.172 C 
ATOM      2  N   UNL d   1      -0.336   0.475  -0.608  0.00  0.00    -0.070 N 
ATOM      3  C1  UNL d   1       0.928   0.391  -0.087  0.00  0.00    -0.004 A 
ATOM      4  C2  UNL d   1       0.851  -0.307   1.098  0.00  0.00    -0.047 A 
ATOM      5  C3  UNL d   1      -0.506  -0.656   1.297  0.00  0.00    -0.047 A 
ATOM      6  C4  UNL d   1      -1.219  -0.160   0.226  0.00  0.00    -0.004 A 
ENDROOT
TORSDOF 0
ENDMDL
