MODEL 1
REMARK minimizedAffinity -0.537788749
REMARK minimizedRMSD -1
REMARK  0 active torsions:
REMARK  status: ('A' for Active; 'I' for Inactive)
ROOT
ATOM      1  C   UNL d   1       1.801  -1.529  -1.041  0.00  0.00     0.172 C 
ATOM      2  N   UNL d   1       1.687  -1.409   0.393  0.00  0.00    -0.070 N 
ATOM      3  C1  UNL d   1       2.709  -1.105   1.253  0.00  0.00    -0.004 A 
ATOM      4  C2  UNL d   1       2.193  -1.085   2.531  0.00  0.00    -0.047 A 
ATOM      5  C3  UNL d   1       0.815  -1.390   2.436  0.00  0.00    -0.047 A 
ATOM      6  C4  UNL d   1       0.528  -1.586   1.102  0.00  0.00    -0.004 A 
ENDROOT
TORSDOF 0
ENDMDL
