MODEL 1
REMARK minimizedAffinity -1.5947715
REMARK minimizedRMSD -1
REMARK  0 active torsions:
REMARK  status: ('A' for Active; 'I' for Inactive)
ROOT
ATOM      1  C   UNL d   1      -0.259  -1.191   2.303  0.00  0.00     0.172 C 
ATOM      2  N   UNL d   1      -0.135  -0.795   0.920  0.00  0.00    -0.070 N 
ATOM      3  C1  UNL d   1      -1.012   0.004   0.237  0.00  0.00    -0.004 A 
ATOM      4  C2  UNL d   1      -0.540   0.145  -1.051  0.00  0.00    -0.047 A 
ATOM      5  C3  UNL d   1       0.662  -0.597  -1.144  0.00  0.00    -0.047 A 
ATOM      6  C4  UNL d   1       0.889  -1.168   0.090  0.00  0.00    -0.004 A 
ENDROOT
TORSDOF 0
ENDMDL
