MODEL 1
REMARK minimizedAffinity -0.369359195
REMARK minimizedRMSD -1
REMARK  1 active torsions:
REMARK  status: ('A' for Active; 'I' for Inactive)
REMARK    1  A    between atoms: C1_2  and  C2_3 
ROOT
ATOM      1  C2  UNL d   1      -0.017  -1.311  -2.829  0.00  0.00    -0.073 A 
ATOM      2  C3  UNL d   1      -0.851  -1.556  -3.926  0.00  0.00    -0.002 A 
ATOM      3  C4  UNL d   1      -1.332  -2.843  -4.172  0.00  0.00     0.004 A 
ATOM      4  C5  UNL d   1      -0.990  -3.895  -3.322  0.00  0.00    -0.004 A 
ATOM      5  C6  UNL d   1      -0.168  -3.668  -2.214  0.00  0.00    -0.075 A 
ATOM      6  C7  UNL d   1       0.210  -4.789  -1.291  0.00  0.00     0.076 C 
ATOM      7  C8  UNL d   1       0.313  -2.373  -1.974  0.00  0.00     0.001 A 
ENDROOT
BRANCH   1   8
ATOM      8  C1  UNL d   1       0.500   0.077  -2.555  0.00  0.00     0.053 C 
ATOM      9  C   UNL d   1       1.527   0.093  -1.434  0.00  0.00     0.018 C 
ENDBRANCH   1   8
TORSDOF 1
ENDMDL
