MODEL 1
REMARK minimizedAffinity 3.69079518
REMARK minimizedRMSD -1
REMARK  1 active torsions:
REMARK  status: ('A' for Active; 'I' for Inactive)
REMARK    1  A    between atoms: C1_2  and  C2_3 
ROOT
ATOM      1  C2  UNL d   1       4.661  -5.388  -0.986  0.00  0.00    -0.073 A 
ATOM      2  C3  UNL d   1       5.672  -4.432  -1.131  0.00  0.00    -0.002 A 
ATOM      3  C4  UNL d   1       5.935  -3.868  -2.380  0.00  0.00     0.004 A 
ATOM      4  C5  UNL d   1       5.186  -4.248  -3.494  0.00  0.00    -0.004 A 
ATOM      5  C6  UNL d   1       4.163  -5.193  -3.366  0.00  0.00    -0.075 A 
ATOM      6  C7  UNL d   1       3.349  -5.615  -4.555  0.00  0.00     0.076 C 
ATOM      7  C8  UNL d   1       3.907  -5.757  -2.109  0.00  0.00     0.001 A 
ENDROOT
BRANCH   1   8
ATOM      8  C1  UNL d   1       4.369  -5.995   0.362  0.00  0.00     0.053 C 
ATOM      9  C   UNL d   1       5.594  -5.997   1.263  0.00  0.00     0.018 C 
ENDBRANCH   1   8
TORSDOF 1
ENDMDL
