MODEL 1
REMARK minimizedAffinity 4.82341957
REMARK minimizedRMSD -1
REMARK  1 active torsions:
REMARK  status: ('A' for Active; 'I' for Inactive)
REMARK    1  A    between atoms: C1_2  and  C2_3 
ROOT
ATOM      1  C2  UNL d   1       1.051   0.439  -1.319  0.00  0.00    -0.073 A 
ATOM      2  C3  UNL d   1       0.437   0.393  -2.575  0.00  0.00    -0.002 A 
ATOM      3  C4  UNL d   1      -0.551   1.320  -2.911  0.00  0.00     0.004 A 
ATOM      4  C5  UNL d   1      -0.930   2.304  -1.999  0.00  0.00    -0.004 A 
ATOM      5  C6  UNL d   1      -0.320   2.374  -0.742  0.00  0.00    -0.075 A 
ATOM      6  C7  UNL d   1      -0.718   3.425   0.252  0.00  0.00     0.076 C 
ATOM      7  C8  UNL d   1       0.670   1.438  -0.411  0.00  0.00     0.001 A 
ENDROOT
BRANCH   1   8
ATOM      8  C1  UNL d   1       2.123  -0.555  -0.954  0.00  0.00     0.053 C 
ATOM      9  C   UNL d   1       2.130  -0.865   0.535  0.00  0.00     0.018 C 
ENDBRANCH   1   8
TORSDOF 1
ENDMDL
