MODEL 1
REMARK minimizedAffinity 6.29363394
REMARK minimizedRMSD -1
REMARK  1 active torsions:
REMARK  status: ('A' for Active; 'I' for Inactive)
REMARK    1  A    between atoms: C1_2  and  C2_3 
ROOT
ATOM      1  C2  UNL d   1       1.531   5.183  -1.106  0.00  0.00    -0.073 A 
ATOM      2  C3  UNL d   1       0.204   5.629  -1.118  0.00  0.00    -0.002 A 
ATOM      3  C4  UNL d   1      -0.800   4.872  -0.513  0.00  0.00     0.004 A 
ATOM      4  C5  UNL d   1      -0.488   3.666   0.115  0.00  0.00    -0.004 A 
ATOM      5  C6  UNL d   1       0.834   3.209   0.148  0.00  0.00    -0.075 A 
ATOM      6  C7  UNL d   1       1.185   1.914   0.818  0.00  0.00     0.076 C 
ATOM      7  C8  UNL d   1       1.836   3.974  -0.464  0.00  0.00     0.001 A 
ENDROOT
BRANCH   1   8
ATOM      8  C1  UNL d   1       2.619   6.000  -1.753  0.00  0.00     0.053 C 
ATOM      9  C   UNL d   1       2.508   6.000  -3.269  0.00  0.00     0.018 C 
ENDBRANCH   1   8
TORSDOF 1
ENDMDL
