MODEL 1
REMARK minimizedAffinity 10.0277214
REMARK minimizedRMSD -1
REMARK  1 active torsions:
REMARK  status: ('A' for Active; 'I' for Inactive)
REMARK    1  A    between atoms: C1_2  and  C2_3 
ROOT
ATOM      1  C2  UNL d   1       4.852  -4.472   0.231  0.00  0.00    -0.073 A 
ATOM      2  C3  UNL d   1       5.995  -3.950  -0.385  0.00  0.00    -0.002 A 
ATOM      3  C4  UNL d   1       5.997  -2.643  -0.876  0.00  0.00     0.004 A 
ATOM      4  C5  UNL d   1       4.860  -1.844  -0.749  0.00  0.00    -0.004 A 
ATOM      5  C6  UNL d   1       3.713  -2.344  -0.126  0.00  0.00    -0.075 A 
ATOM      6  C7  UNL d   1       2.481  -1.498   0.016  0.00  0.00     0.076 C 
ATOM      7  C8  UNL d   1       3.717  -3.658   0.362  0.00  0.00     0.001 A 
ENDROOT
BRANCH   1   8
ATOM      8  C1  UNL d   1       4.847  -5.880   0.768  0.00  0.00     0.053 C 
ATOM      9  C   UNL d   1       5.625  -5.996   2.069  0.00  0.00     0.018 C 
ENDBRANCH   1   8
TORSDOF 1
ENDMDL
