MODEL 1
REMARK minimizedAffinity 1.40387142
REMARK minimizedRMSD -1
REMARK  1 active torsions:
REMARK  status: ('A' for Active; 'I' for Inactive)
REMARK    1  A    between atoms: C1_2  and  C2_3 
ROOT
ATOM      1  C2  UNL d   1      -4.853  -4.994  -3.319  0.00  0.00    -0.073 A 
ATOM      2  C3  UNL d   1      -5.512  -5.999  -4.036  0.00  0.00    -0.002 A 
ATOM      3  C4  UNL d   1      -5.871  -5.794  -5.369  0.00  0.00     0.004 A 
ATOM      4  C5  UNL d   1      -5.568  -4.587  -5.999  0.00  0.00    -0.004 A 
ATOM      5  C6  UNL d   1      -4.900  -3.575  -5.303  0.00  0.00    -0.075 A 
ATOM      6  C7  UNL d   1      -4.569  -2.270  -5.966  0.00  0.00     0.076 C 
ATOM      7  C8  UNL d   1      -4.545  -3.788  -3.964  0.00  0.00     0.001 A 
ENDROOT
BRANCH   1   8
ATOM      8  C1  UNL d   1      -4.458  -5.214  -1.881  0.00  0.00     0.053 C 
ATOM      9  C   UNL d   1      -4.549  -3.935  -1.063  0.00  0.00     0.018 C 
ENDBRANCH   1   8
TORSDOF 1
ENDMDL
