MODEL 1
REMARK minimizedAffinity 6.54235935
REMARK minimizedRMSD -1
REMARK  1 active torsions:
REMARK  status: ('A' for Active; 'I' for Inactive)
REMARK    1  A    between atoms: C1_2  and  C2_3 
ROOT
ATOM      1  C2  UNL d   1       0.460  -2.958   1.841  0.00  0.00    -0.073 A 
ATOM      2  C3  UNL d   1       1.128  -2.024   1.041  0.00  0.00    -0.002 A 
ATOM      3  C4  UNL d   1       1.829  -0.968   1.626  0.00  0.00     0.004 A 
ATOM      4  C5  UNL d   1       1.874  -0.839   3.014  0.00  0.00    -0.004 A 
ATOM      5  C6  UNL d   1       1.223  -1.769   3.831  0.00  0.00    -0.075 A 
ATOM      6  C7  UNL d   1       1.261  -1.643   5.325  0.00  0.00     0.076 C 
ATOM      7  C8  UNL d   1       0.520  -2.825   3.236  0.00  0.00     0.001 A 
ENDROOT
BRANCH   1   8
ATOM      8  C1  UNL d   1      -0.292  -4.103   1.215  0.00  0.00     0.053 C 
ATOM      9  C   UNL d   1       0.437  -4.672   0.008  0.00  0.00     0.018 C 
ENDBRANCH   1   8
TORSDOF 1
ENDMDL
