MODEL 1
REMARK minimizedAffinity 0.223040715
REMARK minimizedRMSD -1
REMARK  1 active torsions:
REMARK  status: ('A' for Active; 'I' for Inactive)
REMARK    1  A    between atoms: C1_2  and  C2_3 
ROOT
ATOM      1  C2  UNL d   1       3.083  -1.216   2.550  0.00  0.00    -0.073 A 
ATOM      2  C3  UNL d   1       1.783  -1.690   2.335  0.00  0.00    -0.002 A 
ATOM      3  C4  UNL d   1       1.158  -2.491   3.292  0.00  0.00     0.004 A 
ATOM      4  C5  UNL d   1       1.822  -2.821   4.473  0.00  0.00    -0.004 A 
ATOM      5  C6  UNL d   1       3.117  -2.348   4.711  0.00  0.00    -0.075 A 
ATOM      6  C7  UNL d   1       3.845  -2.696   5.976  0.00  0.00     0.076 C 
ATOM      7  C8  UNL d   1       3.738  -1.546   3.744  0.00  0.00     0.001 A 
ENDROOT
BRANCH   1   8
ATOM      8  C1  UNL d   1       3.759  -0.345   1.523  0.00  0.00     0.053 C 
ATOM      9  C   UNL d   1       3.233   1.082   1.550  0.00  0.00     0.018 C 
ENDBRANCH   1   8
TORSDOF 1
ENDMDL
