MODEL 1
REMARK minimizedAffinity 4.05564165
REMARK minimizedRMSD -1
REMARK  1 active torsions:
REMARK  status: ('A' for Active; 'I' for Inactive)
REMARK    1  A    between atoms: C1_2  and  C2_3 
ROOT
ATOM      1  C2  UNL d   1       3.453  -3.278   4.273  0.00  0.00    -0.073 A 
ATOM      2  C3  UNL d   1       2.611  -4.298   4.729  0.00  0.00    -0.002 A 
ATOM      3  C4  UNL d   1       1.279  -4.350   4.317  0.00  0.00     0.004 A 
ATOM      4  C5  UNL d   1       0.778  -3.387   3.440  0.00  0.00    -0.004 A 
ATOM      5  C6  UNL d   1       1.607  -2.367   2.964  0.00  0.00    -0.075 A 
ATOM      6  C7  UNL d   1       1.083  -1.323   2.023  0.00  0.00     0.076 C 
ATOM      7  C8  UNL d   1       2.943  -2.320   3.385  0.00  0.00     0.001 A 
ENDROOT
BRANCH   1   8
ATOM      8  C1  UNL d   1       4.894  -3.222   4.711  0.00  0.00     0.053 C 
ATOM      9  C   UNL d   1       5.844  -3.091   3.531  0.00  0.00     0.018 C 
ENDBRANCH   1   8
TORSDOF 1
ENDMDL
