MODEL 1
REMARK minimizedAffinity 5.1789813
REMARK minimizedRMSD -1
REMARK  1 active torsions:
REMARK  status: ('A' for Active; 'I' for Inactive)
REMARK    1  A    between atoms: C1_2  and  C2_3 
ROOT
ATOM      1  C2  UNL d   1      -5.254  -4.186  -4.294  0.00  0.00    -0.073 A 
ATOM      2  C3  UNL d   1      -5.637  -5.297  -3.535  0.00  0.00    -0.002 A 
ATOM      3  C4  UNL d   1      -6.000  -5.146  -2.196  0.00  0.00     0.004 A 
ATOM      4  C5  UNL d   1      -5.991  -3.882  -1.605  0.00  0.00    -0.004 A 
ATOM      5  C6  UNL d   1      -5.622  -2.758  -2.351  0.00  0.00    -0.075 A 
ATOM      6  C7  UNL d   1      -5.605  -1.392  -1.729  0.00  0.00     0.076 C 
ATOM      7  C8  UNL d   1      -5.257  -2.918  -3.694  0.00  0.00     0.001 A 
ENDROOT
BRANCH   1   8
ATOM      8  C1  UNL d   1      -4.868  -4.344  -5.742  0.00  0.00     0.053 C 
ATOM      9  C   UNL d   1      -4.149  -5.658  -6.000  0.00  0.00     0.018 C 
ENDBRANCH   1   8
TORSDOF 1
ENDMDL
