MODEL 1
REMARK minimizedAffinity 1.62817872
REMARK minimizedRMSD -1
REMARK  1 active torsions:
REMARK  status: ('A' for Active; 'I' for Inactive)
REMARK    1  A    between atoms: C1_2  and  C2_3 
ROOT
ATOM      1  C2  UNL d   1      -5.669  -3.745  -2.199  0.00  0.00    -0.073 A 
ATOM      2  C3  UNL d   1      -5.214  -4.993  -1.758  0.00  0.00    -0.002 A 
ATOM      3  C4  UNL d   1      -4.914  -5.999  -2.677  0.00  0.00     0.004 A 
ATOM      4  C5  UNL d   1      -5.057  -5.766  -4.044  0.00  0.00    -0.004 A 
ATOM      5  C6  UNL d   1      -5.499  -4.521  -4.506  0.00  0.00    -0.075 A 
ATOM      6  C7  UNL d   1      -5.661  -4.255  -5.973  0.00  0.00     0.076 C 
ATOM      7  C8  UNL d   1      -5.801  -3.517  -3.576  0.00  0.00     0.001 A 
ENDROOT
BRANCH   1   8
ATOM      8  C1  UNL d   1      -5.988  -2.654  -1.210  0.00  0.00     0.053 C 
ATOM      9  C   UNL d   1      -5.950  -1.275  -1.851  0.00  0.00     0.018 C 
ENDBRANCH   1   8
TORSDOF 1
ENDMDL
