MODEL 1
REMARK minimizedAffinity -3.91874695
REMARK minimizedRMSD -1
REMARK  1 active torsions:
REMARK  status: ('A' for Active; 'I' for Inactive)
REMARK    1  A    between atoms: C1_2  and  C2_3 
ROOT
ATOM      1  C2  UNL d   1       4.564   2.338  -5.605  0.00  0.00    -0.073 A 
ATOM      2  C3  UNL d   1       5.751   1.709  -6.000  0.00  0.00    -0.002 A 
ATOM      3  C4  UNL d   1       6.000   0.385  -5.639  0.00  0.00     0.004 A 
ATOM      4  C5  UNL d   1       5.064  -0.326  -4.888  0.00  0.00    -0.004 A 
ATOM      5  C6  UNL d   1       3.868   0.281  -4.494  0.00  0.00    -0.075 A 
ATOM      6  C7  UNL d   1       2.852  -0.469  -3.684  0.00  0.00     0.076 C 
ATOM      7  C8  UNL d   1       3.626   1.612  -4.858  0.00  0.00     0.001 A 
ENDROOT
BRANCH   1   8
ATOM      8  C1  UNL d   1       4.288   3.766  -5.998  0.00  0.00     0.053 C 
ATOM      9  C   UNL d   1       5.529   4.638  -5.889  0.00  0.00     0.018 C 
ENDBRANCH   1   8
TORSDOF 1
ENDMDL
