MODEL 1
REMARK minimizedAffinity -1.71440089
REMARK minimizedRMSD -1
REMARK  1 active torsions:
REMARK  status: ('A' for Active; 'I' for Inactive)
REMARK    1  A    between atoms: C1_2  and  C2_3 
ROOT
ATOM      1  C2  UNL d   1       3.238  -3.004   3.777  0.00  0.00    -0.073 A 
ATOM      2  C3  UNL d   1       2.262  -3.932   4.160  0.00  0.00    -0.002 A 
ATOM      3  C4  UNL d   1       0.970  -3.852   3.639  0.00  0.00     0.004 A 
ATOM      4  C5  UNL d   1       0.642  -2.850   2.726  0.00  0.00    -0.004 A 
ATOM      5  C6  UNL d   1       1.606  -1.921   2.322  0.00  0.00    -0.075 A 
ATOM      6  C7  UNL d   1       1.268  -0.836   1.342  0.00  0.00     0.076 C 
ATOM      7  C8  UNL d   1       2.901  -2.006   2.852  0.00  0.00     0.001 A 
ENDROOT
BRANCH   1   8
ATOM      8  C1  UNL d   1       4.636  -3.090   4.332  0.00  0.00     0.053 C 
ATOM      9  C   UNL d   1       5.690  -2.936   3.247  0.00  0.00     0.018 C 
ENDBRANCH   1   8
TORSDOF 1
ENDMDL
