MODEL 1
REMARK minimizedAffinity 6.6334753
REMARK minimizedRMSD -1
REMARK  0 active torsions:
REMARK  status: ('A' for Active; 'I' for Inactive)
ROOT
ATOM      1  C2' OXE d   1       3.640  -2.867  -3.341  0.00  0.00     0.078 C 
ATOM      2  C1' OXE d   1       2.021  -3.062  -1.057  0.00  0.00     0.078 C 
ATOM      3  C1  OXE d   1       2.888  -1.837  -1.202  0.00  0.00    -0.078 A 
ATOM      4  C2  OXE d   1       3.712  -1.771  -2.299  0.00  0.00    -0.078 A 
ATOM      5  C3  OXE d   1       4.491  -0.637  -2.510  0.00  0.00     0.003 A 
ATOM      6  C4  OXE d   1       4.559   0.367  -1.536  0.00  0.00    -0.002 A 
ATOM      7  C5  OXE d   1       3.757   0.301  -0.391  0.00  0.00    -0.002 A 
ATOM      8  C6  OXE d   1       2.887  -0.771  -0.230  0.00  0.00     0.003 A 
ENDROOT
TORSDOF 0
ENDMDL
