MODEL 1
REMARK minimizedAffinity 2.78715682
REMARK minimizedRMSD -1
REMARK  0 active torsions:
REMARK  status: ('A' for Active; 'I' for Inactive)
ROOT
ATOM      1  C2' OXE d   1       4.586   1.489  -0.742  0.00  0.00     0.078 C 
ATOM      2  C1' OXE d   1       5.639   2.289   1.735  0.00  0.00     0.078 C 
ATOM      3  C1  OXE d   1       5.571   3.317   0.634  0.00  0.00    -0.078 A 
ATOM      4  C2  OXE d   1       5.098   2.905  -0.589  0.00  0.00    -0.078 A 
ATOM      5  C3  OXE d   1       4.963   3.827  -1.623  0.00  0.00     0.003 A 
ATOM      6  C4  OXE d   1       5.448   5.132  -1.476  0.00  0.00    -0.002 A 
ATOM      7  C5  OXE d   1       5.971   5.562  -0.252  0.00  0.00    -0.002 A 
ATOM      8  C6  OXE d   1       6.000   4.681   0.824  0.00  0.00     0.003 A 
ENDROOT
TORSDOF 0
ENDMDL
