MODEL 1
REMARK minimizedAffinity 5.53657913
REMARK minimizedRMSD -1
REMARK  0 active torsions:
REMARK  status: ('A' for Active; 'I' for Inactive)
ROOT
ATOM      1  C2' OXE d   1       3.380  -2.255   0.025  0.00  0.00     0.078 C 
ATOM      2  C1' OXE d   1       5.999  -1.815   0.936  0.00  0.00     0.078 C 
ATOM      3  C1  OXE d   1       5.341  -0.722   0.131  0.00  0.00    -0.078 A 
ATOM      4  C2  OXE d   1       4.077  -0.965  -0.350  0.00  0.00    -0.078 A 
ATOM      5  C3  OXE d   1       3.403   0.031  -1.050  0.00  0.00     0.003 A 
ATOM      6  C4  OXE d   1       4.058   1.218  -1.401  0.00  0.00    -0.002 A 
ATOM      7  C5  OXE d   1       5.360   1.469  -0.955  0.00  0.00    -0.002 A 
ATOM      8  C6  OXE d   1       5.999   0.529  -0.154  0.00  0.00     0.003 A 
ENDROOT
TORSDOF 0
ENDMDL
