MODEL 1
REMARK minimizedAffinity 17.3573742
REMARK minimizedRMSD -1
REMARK  0 active torsions:
REMARK  status: ('A' for Active; 'I' for Inactive)
ROOT
ATOM      1  C2' OXE d   1      -3.111  -5.999  -5.558  0.00  0.00     0.078 C 
ATOM      2  C1' OXE d   1      -0.314  -6.000  -5.789  0.00  0.00     0.078 C 
ATOM      3  C1  OXE d   1      -0.913  -5.501  -4.498  0.00  0.00    -0.078 A 
ATOM      4  C2  OXE d   1      -2.283  -5.461  -4.411  0.00  0.00    -0.078 A 
ATOM      5  C3  OXE d   1      -2.887  -5.061  -3.222  0.00  0.00     0.003 A 
ATOM      6  C4  OXE d   1      -2.115  -4.555  -2.170  0.00  0.00    -0.002 A 
ATOM      7  C5  OXE d   1      -0.718  -4.551  -2.253  0.00  0.00    -0.002 A 
ATOM      8  C6  OXE d   1      -0.102  -5.059  -3.391  0.00  0.00     0.003 A 
ENDROOT
TORSDOF 0
ENDMDL
