MODEL 1
REMARK minimizedAffinity 11.1323767
REMARK minimizedRMSD -1
REMARK  0 active torsions:
REMARK  status: ('A' for Active; 'I' for Inactive)
ROOT
ATOM      1  C2' OXE d   1       0.625   4.264   2.624  0.00  0.00     0.078 C 
ATOM      2  C1' OXE d   1       1.490   1.611   2.933  0.00  0.00     0.078 C 
ATOM      3  C1  OXE d   1       0.266   1.858   2.088  0.00  0.00    -0.078 A 
ATOM      4  C2  OXE d   1      -0.178   3.154   1.980  0.00  0.00    -0.078 A 
ATOM      5  C3  OXE d   1      -1.271   3.443   1.168  0.00  0.00     0.003 A 
ATOM      6  C4  OXE d   1      -2.014   2.410   0.584  0.00  0.00    -0.002 A 
ATOM      7  C5  OXE d   1      -1.602   1.079   0.714  0.00  0.00    -0.002 A 
ATOM      8  C6  OXE d   1      -0.443   0.790   1.425  0.00  0.00     0.003 A 
ENDROOT
TORSDOF 0
ENDMDL
