MODEL 1
REMARK minimizedAffinity 13.2131453
REMARK minimizedRMSD -1
REMARK  0 active torsions:
REMARK  status: ('A' for Active; 'I' for Inactive)
ROOT
ATOM      1  C2' OXE d   1      -3.432  -0.829  -2.398  0.00  0.00     0.078 C 
ATOM      2  C1' OXE d   1      -0.863   0.288  -2.575  0.00  0.00     0.078 C 
ATOM      3  C1  OXE d   1      -1.853   0.625  -3.662  0.00  0.00    -0.078 A 
ATOM      4  C2  OXE d   1      -3.093   0.036  -3.592  0.00  0.00    -0.078 A 
ATOM      5  C3  OXE d   1      -4.061   0.356  -4.540  0.00  0.00     0.003 A 
ATOM      6  C4  OXE d   1      -3.736   1.149  -5.646  0.00  0.00    -0.002 A 
ATOM      7  C5  OXE d   1      -2.467   1.726  -5.758  0.00  0.00    -0.002 A 
ATOM      8  C6  OXE d   1      -1.529   1.509  -4.754  0.00  0.00     0.003 A 
ENDROOT
TORSDOF 0
ENDMDL
