MODEL 1
REMARK minimizedAffinity 9.09974194
REMARK minimizedRMSD -1
REMARK  0 active torsions:
REMARK  status: ('A' for Active; 'I' for Inactive)
ROOT
ATOM      1  C2' OXE d   1      -0.368  -3.301  -1.179  0.00  0.00     0.078 C 
ATOM      2  C1' OXE d   1       1.814  -2.757   0.501  0.00  0.00     0.078 C 
ATOM      3  C1  OXE d   1       1.034  -1.585  -0.042  0.00  0.00    -0.078 A 
ATOM      4  C2  OXE d   1      -0.003  -1.859  -0.900  0.00  0.00    -0.078 A 
ATOM      5  C3  OXE d   1      -0.789  -0.818  -1.387  0.00  0.00     0.003 A 
ATOM      6  C4  OXE d   1      -0.439   0.513  -1.132  0.00  0.00    -0.002 A 
ATOM      7  C5  OXE d   1       0.638   0.815  -0.292  0.00  0.00    -0.002 A 
ATOM      8  C6  OXE d   1       1.357  -0.221   0.294  0.00  0.00     0.003 A 
ENDROOT
TORSDOF 0
ENDMDL
