MODEL 1
REMARK minimizedAffinity -6.28770113
REMARK minimizedRMSD -1
REMARK  3 active torsions:
REMARK  status: ('A' for Active; 'I' for Inactive)
REMARK    1  A    between atoms: C3'_2  and  C2'_3 
REMARK    2  A    between atoms: C2'_3  and  C1'_4 
REMARK    3  A    between atoms: C1'_4  and  C1_5 
ROOT
ATOM      1  C1  N4B d   1       0.046   0.313   0.442  0.00  0.00    -0.075 A 
ATOM      2  C2  N4B d   1       0.566   1.078   1.509  0.00  0.00     0.002 A 
ATOM      3  C3  N4B d   1      -0.246   1.439   2.556  0.00  0.00     0.002 A 
ATOM      4  C4  N4B d   1      -1.581   1.065   2.548  0.00  0.00    -0.004 A 
ATOM      5  C5  N4B d   1      -2.070   0.305   1.527  0.00  0.00     0.002 A 
ATOM      6  C6  N4B d   1      -1.264  -0.069   0.470  0.00  0.00     0.002 A 
ENDROOT
BRANCH   1   7
ATOM      7  C1' N4B d   1       0.873  -0.032  -0.765  0.00  0.00     0.057 C 
BRANCH   7   8
ATOM      8  C2' N4B d   1      -0.032  -0.098  -1.991  0.00  0.00     0.009 C 
BRANCH   8   9
ATOM      9  C3' N4B d   1       0.589   0.591  -3.194  0.00  0.00     0.004 C 
ATOM     10  C4' N4B d   1       0.491  -0.228  -4.447  0.00  0.00     0.003 C 
ENDBRANCH   8   9
ENDBRANCH   7   8
ENDBRANCH   1   7
TORSDOF 3
ENDMDL
