MODEL 1
REMARK minimizedAffinity -2.93463016
REMARK minimizedRMSD -1
REMARK  0 active torsions:
REMARK  status: ('A' for Active; 'I' for Inactive)
ROOT
ATOM      1  C1  DEN d   1       3.769   0.493  -0.289  0.00  0.00     0.130 A 
ATOM      2  C2  DEN d   1       3.355   1.893  -0.236  0.00  0.00    -0.031 A 
ATOM      3  C3  DEN d   1       1.882   1.930  -0.137  0.00  0.00     0.027 A 
ATOM      4  C4  DEN d   1       0.212  -0.034  -0.059  0.00  0.00     0.027 A 
ATOM      5  C5  DEN d   1       0.090  -1.406  -0.087  0.00  0.00    -0.003 A 
ATOM      6  C6  DEN d   1       1.174  -2.233  -0.218  0.00  0.00     0.001 A 
ATOM      7  C7  DEN d   1       2.433  -1.697  -0.280  0.00  0.00     0.017 A 
ATOM      8  C8  DEN d   1       2.563  -0.314  -0.260  0.00  0.00    -0.094 A 
ATOM      9  C9  DEN d   1       1.456   0.504  -0.114  0.00  0.00    -0.072 A 
ENDROOT
TORSDOF 0
ENDMDL
