MODEL 1
REMARK minimizedAffinity -4.53115797
REMARK minimizedRMSD -1
REMARK  0 active torsions:
REMARK  status: ('A' for Active; 'I' for Inactive)
ROOT
ATOM      1  C1  DEN d   1       0.187   1.222   0.201  0.00  0.00     0.130 A 
ATOM      2  C2  DEN d   1      -0.899   0.260   0.037  0.00  0.00    -0.031 A 
ATOM      3  C3  DEN d   1      -0.313  -1.096   0.038  0.00  0.00     0.027 A 
ATOM      4  C4  DEN d   1       2.157  -1.795   0.283  0.00  0.00     0.027 A 
ATOM      5  C5  DEN d   1       3.446  -1.331   0.435  0.00  0.00    -0.003 A 
ATOM      6  C6  DEN d   1       3.739   0.006   0.485  0.00  0.00     0.001 A 
ATOM      7  C7  DEN d   1       2.726   0.926   0.428  0.00  0.00     0.017 A 
ATOM      8  C8  DEN d   1       1.425   0.466   0.267  0.00  0.00    -0.094 A 
ATOM      9  C9  DEN d   1       1.148  -0.890   0.230  0.00  0.00    -0.072 A 
ENDROOT
TORSDOF 0
ENDMDL
