MODEL 1
REMARK minimizedAffinity -4.18412495
REMARK minimizedRMSD -1
REMARK  0 active torsions:
REMARK  status: ('A' for Active; 'I' for Inactive)
ROOT
ATOM      1  C1  DEN d   1       2.256   1.833   0.340  0.00  0.00     0.130 A 
ATOM      2  C2  DEN d   1       1.157   2.594  -0.249  0.00  0.00    -0.031 A 
ATOM      3  C3  DEN d   1       0.119   1.636  -0.681  0.00  0.00     0.027 A 
ATOM      4  C4  DEN d   1       0.105  -0.936  -0.493  0.00  0.00     0.027 A 
ATOM      5  C5  DEN d   1       0.823  -2.035  -0.076  0.00  0.00    -0.003 A 
ATOM      6  C6  DEN d   1       2.073  -1.925   0.473  0.00  0.00     0.001 A 
ATOM      7  C7  DEN d   1       2.625  -0.685   0.662  0.00  0.00     0.017 A 
ATOM      8  C8  DEN d   1       1.910   0.427   0.237  0.00  0.00    -0.094 A 
ATOM      9  C9  DEN d   1       0.643   0.296  -0.305  0.00  0.00    -0.072 A 
ENDROOT
TORSDOF 0
ENDMDL
