MODEL 1
REMARK minimizedAffinity -4.29045153
REMARK minimizedRMSD -1
REMARK  0 active torsions:
REMARK  status: ('A' for Active; 'I' for Inactive)
ROOT
ATOM      1  C1  DEN d   1      -0.519   0.846   0.382  0.00  0.00     0.130 A 
ATOM      2  C2  DEN d   1      -0.917   0.518  -0.984  0.00  0.00    -0.031 A 
ATOM      3  C3  DEN d   1       0.038  -0.477  -1.512  0.00  0.00     0.027 A 
ATOM      4  C4  DEN d   1       2.082  -1.538  -0.351  0.00  0.00     0.027 A 
ATOM      5  C5  DEN d   1       2.827  -1.564   0.807  0.00  0.00    -0.003 A 
ATOM      6  C6  DEN d   1       2.532  -0.770   1.884  0.00  0.00     0.001 A 
ATOM      7  C7  DEN d   1       1.437   0.052   1.841  0.00  0.00     0.017 A 
ATOM      8  C8  DEN d   1       0.685   0.089   0.674  0.00  0.00    -0.094 A 
ATOM      9  C9  DEN d   1       0.992  -0.731  -0.399  0.00  0.00    -0.072 A 
ENDROOT
TORSDOF 0
ENDMDL
