MODEL 1
REMARK minimizedAffinity -5.14144182
REMARK minimizedRMSD -1
REMARK  0 active torsions:
REMARK  status: ('A' for Active; 'I' for Inactive)
ROOT
ATOM      1  C1  DEN d   1       0.306   1.702  -0.393  0.00  0.00     0.130 A 
ATOM      2  C2  DEN d   1       1.236   2.639   0.232  0.00  0.00    -0.031 A 
ATOM      3  C3  DEN d   1       2.314   1.856   0.869  0.00  0.00     0.027 A 
ATOM      4  C4  DEN d   1       2.635  -0.702   0.943  0.00  0.00     0.027 A 
ATOM      5  C5  DEN d   1       2.098  -1.912   0.563  0.00  0.00    -0.003 A 
ATOM      6  C6  DEN d   1       0.918  -2.003  -0.127  0.00  0.00     0.001 A 
ATOM      7  C7  DEN d   1       0.259  -0.861  -0.498  0.00  0.00     0.017 A 
ATOM      8  C8  DEN d   1       0.790   0.363  -0.113  0.00  0.00    -0.094 A 
ATOM      9  C9  DEN d   1       1.990   0.434   0.574  0.00  0.00    -0.072 A 
ENDROOT
TORSDOF 0
ENDMDL
