MODEL 1
REMARK minimizedAffinity 3.84283733
REMARK minimizedRMSD -1
REMARK  0 active torsions:
REMARK  status: ('A' for Active; 'I' for Inactive)
ROOT
ATOM      1  N1  IND d   1       2.264  -1.131   1.534  0.00  0.00    -0.196 N 
ATOM      2  C2  IND d   1       3.447  -0.525   1.211  0.00  0.00     0.054 A 
ATOM      3  C3  IND d   1       3.297   0.240   0.107  0.00  0.00    -0.031 A 
ATOM      4  C4  IND d   1       1.178   0.725  -1.272  0.00  0.00     0.051 A 
ATOM      5  C5  IND d   1      -0.137   0.371  -1.387  0.00  0.00    -0.031 A 
ATOM      6  C6  IND d   1      -0.732  -0.518  -0.514  0.00  0.00     0.015 A 
ATOM      7  C7  IND d   1      -0.033  -1.079   0.517  0.00  0.00    -0.016 A 
ATOM      8  C8  IND d   1       1.305  -0.727   0.632  0.00  0.00    -0.047 A 
ATOM      9  C9  IND d   1       1.924   0.141  -0.276  0.00  0.00    -0.096 A 
ATOM     10  HN1 IND d   1       2.141  -1.673   2.190  0.00  0.00     0.298 HD
ENDROOT
TORSDOF 0
ENDMDL
