MODEL 1
REMARK minimizedAffinity 1.03892899
REMARK minimizedRMSD -1
REMARK  0 active torsions:
REMARK  status: ('A' for Active; 'I' for Inactive)
ROOT
ATOM      1  N1  IND d   1      -2.597   1.852   3.392  0.00  0.00    -0.196 N 
ATOM      2  C2  IND d   1      -1.917   1.069   4.283  0.00  0.00     0.054 A 
ATOM      3  C3  IND d   1      -1.380  -0.000   3.654  0.00  0.00    -0.031 A 
ATOM      4  C4  IND d   1      -1.405  -0.611   1.154  0.00  0.00     0.051 A 
ATOM      5  C5  IND d   1      -1.931  -0.220  -0.046  0.00  0.00    -0.031 A 
ATOM      6  C6  IND d   1      -2.721   0.906  -0.163  0.00  0.00     0.015 A 
ATOM      7  C7  IND d   1      -3.005   1.692   0.918  0.00  0.00    -0.016 A 
ATOM      8  C8  IND d   1      -2.477   1.295   2.138  0.00  0.00    -0.047 A 
ATOM      9  C9  IND d   1      -1.711   0.129   2.271  0.00  0.00    -0.096 A 
ATOM     10  HN1 IND d   1      -3.028   2.571   3.583  0.00  0.00     0.298 HD
ENDROOT
TORSDOF 0
ENDMDL
