MODEL 1
REMARK minimizedAffinity 1.95726979
REMARK minimizedRMSD -1
REMARK  0 active torsions:
REMARK  status: ('A' for Active; 'I' for Inactive)
ROOT
ATOM      1  N1  IND d   1       1.197  -1.448   0.170  0.00  0.00    -0.196 N 
ATOM      2  C2  IND d   1       2.251  -1.125   0.979  0.00  0.00     0.054 A 
ATOM      3  C3  IND d   1       1.838  -0.340   1.999  0.00  0.00    -0.031 A 
ATOM      4  C4  IND d   1      -0.538   0.453   2.594  0.00  0.00     0.051 A 
ATOM      5  C5  IND d   1      -1.824   0.443   2.133  0.00  0.00    -0.031 A 
ATOM      6  C6  IND d   1      -2.177  -0.213   0.971  0.00  0.00     0.015 A 
ATOM      7  C7  IND d   1      -1.254  -0.896   0.231  0.00  0.00    -0.016 A 
ATOM      8  C8  IND d   1       0.055  -0.883   0.693  0.00  0.00    -0.047 A 
ATOM      9  C9  IND d   1       0.426  -0.183   1.848  0.00  0.00    -0.096 A 
ATOM     10  HN1 IND d   1       1.241  -1.924  -0.544  0.00  0.00     0.298 HD
ENDROOT
TORSDOF 0
ENDMDL
