MODEL 1
REMARK minimizedAffinity 3.63080311
REMARK minimizedRMSD -1
REMARK  0 active torsions:
REMARK  status: ('A' for Active; 'I' for Inactive)
ROOT
ATOM      1  N1  IND d   1       0.053  -0.997   0.118  0.00  0.00    -0.196 N 
ATOM      2  C2  IND d   1       1.381  -0.938   0.439  0.00  0.00     0.054 A 
ATOM      3  C3  IND d   1       1.572  -0.125   1.502  0.00  0.00    -0.031 A 
ATOM      4  C4  IND d   1      -0.161   1.131   2.933  0.00  0.00     0.051 A 
ATOM      5  C5  IND d   1      -1.496   1.414   3.005  0.00  0.00    -0.031 A 
ATOM      6  C6  IND d   1      -2.402   0.895   2.103  0.00  0.00     0.015 A 
ATOM      7  C7  IND d   1      -2.005   0.061   1.096  0.00  0.00    -0.016 A 
ATOM      8  C8  IND d   1      -0.649  -0.223   1.015  0.00  0.00    -0.047 A 
ATOM      9  C9  IND d   1       0.280   0.335   1.902  0.00  0.00    -0.096 A 
ATOM     10  HN1 IND d   1      -0.286  -1.442  -0.535  0.00  0.00     0.298 HD
ENDROOT
TORSDOF 0
ENDMDL
