MODEL 1
REMARK minimizedAffinity 2.46959329
REMARK minimizedRMSD -1
REMARK  0 active torsions:
REMARK  status: ('A' for Active; 'I' for Inactive)
ROOT
ATOM      1  N1  IND d   1      -2.173   1.919   1.556  0.00  0.00    -0.196 N 
ATOM      2  C2  IND d   1      -1.318   1.483   2.530  0.00  0.00     0.054 A 
ATOM      3  C3  IND d   1      -1.103   0.154   2.405  0.00  0.00    -0.031 A 
ATOM      4  C4  IND d   1      -1.967  -1.483   0.616  0.00  0.00     0.051 A 
ATOM      5  C5  IND d   1      -2.808  -1.557  -0.459  0.00  0.00    -0.031 A 
ATOM      6  C6  IND d   1      -3.491  -0.454  -0.929  0.00  0.00     0.015 A 
ATOM      7  C7  IND d   1      -3.350   0.773  -0.345  0.00  0.00    -0.016 A 
ATOM      8  C8  IND d   1      -2.503   0.851   0.752  0.00  0.00    -0.047 A 
ATOM      9  C9  IND d   1      -1.840  -0.274   1.259  0.00  0.00    -0.096 A 
ATOM     10  HN1 IND d   1      -2.456   2.726   1.462  0.00  0.00     0.298 HD
ENDROOT
TORSDOF 0
ENDMDL
