MODEL 1
REMARK minimizedAffinity 3.15340328
REMARK minimizedRMSD -1
REMARK  0 active torsions:
REMARK  status: ('A' for Active; 'I' for Inactive)
ROOT
ATOM      1  N1  IND d   1       0.513  -1.678  -4.968  0.00  0.00    -0.196 N 
ATOM      2  C2  IND d   1      -0.106  -0.806  -4.116  0.00  0.00     0.054 A 
ATOM      3  C3  IND d   1      -1.195  -1.383  -3.561  0.00  0.00    -0.031 A 
ATOM      4  C4  IND d   1      -2.089  -3.782  -3.829  0.00  0.00     0.051 A 
ATOM      5  C5  IND d   1      -1.882  -4.937  -4.530  0.00  0.00    -0.031 A 
ATOM      6  C6  IND d   1      -0.843  -5.068  -5.428  0.00  0.00     0.015 A 
ATOM      7  C7  IND d   1       0.038  -4.048  -5.652  0.00  0.00    -0.016 A 
ATOM      8  C8  IND d   1      -0.174  -2.872  -4.948  0.00  0.00    -0.047 A 
ATOM      9  C9  IND d   1      -1.251  -2.718  -4.066  0.00  0.00    -0.096 A 
ATOM     10  HN1 IND d   1       1.213  -1.509  -5.437  0.00  0.00     0.298 HD
ENDROOT
TORSDOF 0
ENDMDL
