MODEL 1
REMARK minimizedAffinity -5.60768223
REMARK minimizedRMSD -1
REMARK  2 active torsions:
REMARK  status: ('A' for Active; 'I' for Inactive)
REMARK    1  A    between atoms: C2'_3  and  C1'_4 
REMARK    2  A    between atoms: C1'_4  and  C1_5 
ROOT
ATOM      1  C1  I4B d   1       0.205  -0.517   0.640  0.00  0.00    -0.075 A 
ATOM      2  C2  I4B d   1      -0.757   0.023  -0.178  0.00  0.00     0.003 A 
ATOM      3  C3  I4B d   1      -2.092  -0.444  -0.112  0.00  0.00     0.002 A 
ATOM      4  C4  I4B d   1      -2.408  -1.480   0.743  0.00  0.00    -0.004 A 
ATOM      5  C5  I4B d   1      -1.437  -2.011   1.587  0.00  0.00     0.002 A 
ATOM      6  C6  I4B d   1      -0.125  -1.518   1.544  0.00  0.00     0.003 A 
ENDROOT
BRANCH   1   7
ATOM      7  C1' I4B d   1       1.611  -0.022   0.521  0.00  0.00     0.060 C 
BRANCH   7   8
ATOM      8  C2' I4B d   1       1.668   1.371   1.116  0.00  0.00    -0.013 C 
ATOM      9  C4' I4B d   1       1.754   1.319   2.618  0.00  0.00     0.013 C 
ATOM     10  C3' I4B d   1       2.855   2.076   0.530  0.00  0.00     0.013 C 
ENDBRANCH   7   8
ENDBRANCH   1   7
TORSDOF 2
ENDMDL
