MODEL 1
REMARK minimizedAffinity -4.39138269
REMARK minimizedRMSD -1
REMARK  2 active torsions:
REMARK  status: ('A' for Active; 'I' for Inactive)
REMARK    1  A    between atoms: C2'_3  and  C1'_4 
REMARK    2  A    between atoms: C1'_4  and  C1_5 
ROOT
ATOM      1  C1  I4B d   1       0.729   0.219   0.907  0.00  0.00    -0.075 A 
ATOM      2  C2  I4B d   1       1.696   0.922   0.232  0.00  0.00     0.003 A 
ATOM      3  C3  I4B d   1       2.494   1.871   0.916  0.00  0.00     0.002 A 
ATOM      4  C4  I4B d   1       2.260   2.119   2.253  0.00  0.00    -0.004 A 
ATOM      5  C5  I4B d   1       1.295   1.389   2.940  0.00  0.00     0.002 A 
ATOM      6  C6  I4B d   1       0.533   0.423   2.266  0.00  0.00     0.003 A 
ENDROOT
BRANCH   1   7
ATOM      7  C1' I4B d   1      -0.118  -0.752   0.147  0.00  0.00     0.060 C 
BRANCH   7   8
ATOM      8  C2' I4B d   1      -1.045   0.041  -0.751  0.00  0.00    -0.013 C 
ATOM      9  C4' I4B d   1      -0.882  -0.359  -2.194  0.00  0.00     0.013 C 
ATOM     10  C3' I4B d   1      -2.451  -0.187  -0.281  0.00  0.00     0.013 C 
ENDBRANCH   7   8
ENDBRANCH   1   7
TORSDOF 2
ENDMDL
