MODEL 1
REMARK minimizedAffinity -2.99460936
REMARK minimizedRMSD -1
REMARK  2 active torsions:
REMARK  status: ('A' for Active; 'I' for Inactive)
REMARK    1  A    between atoms: C2'_3  and  C1'_4 
REMARK    2  A    between atoms: C1'_4  and  C1_5 
ROOT
ATOM      1  C1  I4B d   1       1.119   0.835  -0.613  0.00  0.00    -0.075 A 
ATOM      2  C2  I4B d   1       0.152   1.069  -1.558  0.00  0.00     0.003 A 
ATOM      3  C3  I4B d   1      -1.022   0.278  -1.588  0.00  0.00     0.002 A 
ATOM      4  C4  I4B d   1      -1.164  -0.761  -0.691  0.00  0.00    -0.004 A 
ATOM      5  C5  I4B d   1      -0.193  -0.983   0.281  0.00  0.00     0.002 A 
ATOM      6  C6  I4B d   1       0.950  -0.172   0.328  0.00  0.00     0.003 A 
ENDROOT
BRANCH   1   7
ATOM      7  C1' I4B d   1       2.362   1.667  -0.632  0.00  0.00     0.060 C 
BRANCH   7   8
ATOM      8  C2' I4B d   1       2.053   2.983   0.053  0.00  0.00    -0.013 C 
ATOM      9  C4' I4B d   1       2.793   3.104   1.360  0.00  0.00     0.013 C 
ATOM     10  C3' I4B d   1       2.424   4.092  -0.885  0.00  0.00     0.013 C 
ENDBRANCH   7   8
ENDBRANCH   1   7
TORSDOF 2
ENDMDL
