MODEL 1
REMARK minimizedAffinity -1.63657415
REMARK minimizedRMSD -1
REMARK  2 active torsions:
REMARK  status: ('A' for Active; 'I' for Inactive)
REMARK    1  A    between atoms: C2'_3  and  C1'_4 
REMARK    2  A    between atoms: C1'_4  and  C1_5 
ROOT
ATOM      1  C1  I4B d   1       0.504   0.509  -0.025  0.00  0.00    -0.075 A 
ATOM      2  C2  I4B d   1      -0.224  -0.484   0.581  0.00  0.00     0.003 A 
ATOM      3  C3  I4B d   1      -1.387  -0.997  -0.043  0.00  0.00     0.002 A 
ATOM      4  C4  I4B d   1      -1.810  -0.457  -1.240  0.00  0.00    -0.004 A 
ATOM      5  C5  I4B d   1      -1.058   0.533  -1.864  0.00  0.00     0.002 A 
ATOM      6  C6  I4B d   1       0.114   1.011  -1.259  0.00  0.00     0.003 A 
ENDROOT
BRANCH   1   7
ATOM      7  C1' I4B d   1       1.709   1.050   0.678  0.00  0.00     0.060 C 
BRANCH   7   8
ATOM      8  C2' I4B d   1       2.004   2.422   0.107  0.00  0.00    -0.013 C 
ATOM      9  C4' I4B d   1       1.756   3.502   1.127  0.00  0.00     0.013 C 
ATOM     10  C3' I4B d   1       3.430   2.434  -0.357  0.00  0.00     0.013 C 
ENDBRANCH   7   8
ENDBRANCH   1   7
TORSDOF 2
ENDMDL
