MODEL 1
REMARK minimizedAffinity 0.692277074
REMARK minimizedRMSD -1
REMARK  2 active torsions:
REMARK  status: ('A' for Active; 'I' for Inactive)
REMARK    1  A    between atoms: C2'_3  and  C1'_4 
REMARK    2  A    between atoms: C1'_4  and  C1_5 
ROOT
ATOM      1  C1  I4B d   1       0.959   0.848   0.230  0.00  0.00    -0.075 A 
ATOM      2  C2  I4B d   1       2.176   0.955  -0.394  0.00  0.00     0.003 A 
ATOM      3  C3  I4B d   1       3.015   2.066  -0.135  0.00  0.00     0.002 A 
ATOM      4  C4  I4B d   1       2.578   3.065   0.712  0.00  0.00    -0.004 A 
ATOM      5  C5  I4B d   1       1.353   2.943   1.362  0.00  0.00     0.002 A 
ATOM      6  C6  I4B d   1       0.544   1.822   1.129  0.00  0.00     0.003 A 
ENDROOT
BRANCH   1   7
ATOM      7  C1' I4B d   1       0.084  -0.322  -0.092  0.00  0.00     0.060 C 
BRANCH   7   8
ATOM      8  C2' I4B d   1      -0.931   0.125  -1.124  0.00  0.00    -0.013 C 
ATOM      9  C4' I4B d   1      -0.306   0.243  -2.489  0.00  0.00     0.013 C 
ATOM     10  C3' I4B d   1      -2.055  -0.868  -1.128  0.00  0.00     0.013 C 
ENDBRANCH   7   8
ENDBRANCH   1   7
TORSDOF 2
ENDMDL
