MODEL 1
REMARK minimizedAffinity -4.71156311
REMARK minimizedRMSD -1
REMARK  2 active torsions:
REMARK  status: ('A' for Active; 'I' for Inactive)
REMARK    1  A    between atoms: C2'_3  and  C1'_4 
REMARK    2  A    between atoms: C1'_4  and  C1_5 
ROOT
ATOM      1  C1  I4B d   1      -1.516  -0.691  -0.227  0.00  0.00    -0.075 A 
ATOM      2  C2  I4B d   1      -0.757  -1.178   0.808  0.00  0.00     0.003 A 
ATOM      3  C3  I4B d   1      -1.118  -2.387   1.449  0.00  0.00     0.002 A 
ATOM      4  C4  I4B d   1      -2.267  -3.045   1.061  0.00  0.00    -0.004 A 
ATOM      5  C5  I4B d   1      -3.024  -2.562  -0.002  0.00  0.00     0.002 A 
ATOM      6  C6  I4B d   1      -2.639  -1.384  -0.659  0.00  0.00     0.003 A 
ENDROOT
BRANCH   1   7
ATOM      7  C1' I4B d   1      -1.124   0.606  -0.860  0.00  0.00     0.060 C 
BRANCH   7   8
ATOM      8  C2' I4B d   1       0.137   0.369  -1.666  0.00  0.00    -0.013 C 
ATOM      9  C4' I4B d   1       0.115   1.149  -2.955  0.00  0.00     0.013 C 
ATOM     10  C3' I4B d   1       1.309   0.761  -0.817  0.00  0.00     0.013 C 
ENDBRANCH   7   8
ENDBRANCH   1   7
TORSDOF 2
ENDMDL
