MODEL 1
REMARK minimizedAffinity -4.62214708
REMARK minimizedRMSD -1
REMARK  2 active torsions:
REMARK  status: ('A' for Active; 'I' for Inactive)
REMARK    1  A    between atoms: C2'_3  and  C1'_4 
REMARK    2  A    between atoms: C1'_4  and  C1_5 
ROOT
ATOM      1  C1  I4B d   1       0.043  -0.332   0.301  0.00  0.00    -0.075 A 
ATOM      2  C2  I4B d   1      -1.188  -0.007  -0.211  0.00  0.00     0.003 A 
ATOM      3  C3  I4B d   1      -2.314  -0.818   0.072  0.00  0.00     0.002 A 
ATOM      4  C4  I4B d   1      -2.155  -1.964   0.823  0.00  0.00    -0.004 A 
ATOM      5  C5  I4B d   1      -0.910  -2.280   1.360  0.00  0.00     0.002 A 
ATOM      6  C6  I4B d   1       0.194  -1.452   1.108  0.00  0.00     0.003 A 
ENDROOT
BRANCH   1   7
ATOM      7  C1' I4B d   1       1.217   0.529  -0.044  0.00  0.00     0.060 C 
BRANCH   7   8
ATOM      8  C2' I4B d   1       1.177   1.753   0.848  0.00  0.00    -0.013 C 
ATOM      9  C4' I4B d   1       1.100   1.366   2.301  0.00  0.00     0.013 C 
ATOM     10  C3' I4B d   1       2.404   2.569   0.569  0.00  0.00     0.013 C 
ENDBRANCH   7   8
ENDBRANCH   1   7
TORSDOF 2
ENDMDL
