MODEL 1
REMARK minimizedAffinity -3.26260161
REMARK minimizedRMSD -1
REMARK  2 active torsions:
REMARK  status: ('A' for Active; 'I' for Inactive)
REMARK    1  A    between atoms: C2'_3  and  C1'_4 
REMARK    2  A    between atoms: C1'_4  and  C1_5 
ROOT
ATOM      1  C1  I4B d   1       1.861   0.640   1.209  0.00  0.00    -0.075 A 
ATOM      2  C2  I4B d   1       2.476   0.976   0.028  0.00  0.00     0.003 A 
ATOM      3  C3  I4B d   1       2.863   2.316  -0.218  0.00  0.00     0.002 A 
ATOM      4  C4  I4B d   1       2.573   3.289   0.716  0.00  0.00    -0.004 A 
ATOM      5  C5  I4B d   1       1.971   2.943   1.922  0.00  0.00     0.002 A 
ATOM      6  C6  I4B d   1       1.624   1.608   2.176  0.00  0.00     0.003 A 
ENDROOT
BRANCH   1   7
ATOM      7  C1' I4B d   1       1.436  -0.778   1.422  0.00  0.00     0.060 C 
BRANCH   7   8
ATOM      8  C2' I4B d   1      -0.070  -0.842   1.268  0.00  0.00    -0.013 C 
ATOM      9  C4' I4B d   1      -0.492  -0.471  -0.130  0.00  0.00     0.013 C 
ATOM     10  C3' I4B d   1      -0.513  -2.231   1.616  0.00  0.00     0.013 C 
ENDBRANCH   7   8
ENDBRANCH   1   7
TORSDOF 2
ENDMDL
