MODEL 1
REMARK minimizedAffinity 3.4684329
REMARK minimizedRMSD -1
REMARK  2 active torsions:
REMARK  status: ('A' for Active; 'I' for Inactive)
REMARK    1  A    between atoms: C2'_3  and  C1'_4 
REMARK    2  A    between atoms: C1'_4  and  C1_5 
ROOT
ATOM      1  C1  I4B d   1      -0.642  -1.244  -0.300  0.00  0.00    -0.075 A 
ATOM      2  C2  I4B d   1      -1.803  -1.092  -1.016  0.00  0.00     0.003 A 
ATOM      3  C3  I4B d   1      -1.893  -0.101  -2.024  0.00  0.00     0.002 A 
ATOM      4  C4  I4B d   1      -0.824   0.742  -2.246  0.00  0.00    -0.004 A 
ATOM      5  C5  I4B d   1       0.360   0.571  -1.534  0.00  0.00     0.002 A 
ATOM      6  C6  I4B d   1       0.456  -0.436  -0.563  0.00  0.00     0.003 A 
ENDROOT
BRANCH   1   7
ATOM      7  C1' I4B d   1      -0.593  -2.278   0.780  0.00  0.00     0.060 C 
BRANCH   7   8
ATOM      8  C2' I4B d   1       0.466  -1.859   1.779  0.00  0.00    -0.013 C 
ATOM      9  C4' I4B d   1       0.009  -0.680   2.596  0.00  0.00     0.013 C 
ATOM     10  C3' I4B d   1       0.770  -3.039   2.654  0.00  0.00     0.013 C 
ENDBRANCH   7   8
ENDBRANCH   1   7
TORSDOF 2
ENDMDL
