MODEL 1
REMARK minimizedAffinity 13.7644739
REMARK minimizedRMSD -1
REMARK  2 active torsions:
REMARK  status: ('A' for Active; 'I' for Inactive)
REMARK    1  A    between atoms: C1_2  and  C2_3 
REMARK    2  A    between atoms: C2_3  and  C3_4 
ROOT
ATOM      1  C3  UNL d   1       2.560   0.808  -0.436  0.00  0.00    -0.075 A 
ATOM      2  C4  UNL d   1       2.289   1.718  -1.468  0.00  0.00     0.002 A 
ATOM      3  C5  UNL d   1       1.606   1.306  -2.613  0.00  0.00     0.002 A 
ATOM      4  C6  UNL d   1       1.197  -0.019  -2.745  0.00  0.00    -0.004 A 
ATOM      5  C7  UNL d   1       1.476  -0.935  -1.733  0.00  0.00     0.002 A 
ATOM      6  C8  UNL d   1       2.155  -0.524  -0.584  0.00  0.00     0.002 A 
ENDROOT
BRANCH   1   7
ATOM      7  C2  UNL d   1       3.273   1.254   0.819  0.00  0.00     0.056 C 
BRANCH   7   8
ATOM      8  C1  UNL d   1       2.369   1.970   1.829  0.00  0.00     0.007 C 
ATOM      9  C   UNL d   1       2.754   3.426   2.052  0.00  0.00     0.009 C 
ENDBRANCH   7   8
ENDBRANCH   1   7
TORSDOF 2
ENDMDL
