MODEL 1
REMARK minimizedAffinity 10.9616308
REMARK minimizedRMSD -1
REMARK  2 active torsions:
REMARK  status: ('A' for Active; 'I' for Inactive)
REMARK    1  A    between atoms: C1_2  and  C2_3 
REMARK    2  A    between atoms: C2_3  and  C3_4 
ROOT
ATOM      1  C3  UNL d   1       2.229  -1.142  -1.146  0.00  0.00    -0.075 A 
ATOM      2  C4  UNL d   1       1.034  -1.584  -1.732  0.00  0.00     0.002 A 
ATOM      3  C5  UNL d   1       0.762  -2.948  -1.843  0.00  0.00     0.002 A 
ATOM      4  C6  UNL d   1       1.683  -3.885  -1.381  0.00  0.00    -0.004 A 
ATOM      5  C7  UNL d   1       2.881  -3.457  -0.812  0.00  0.00     0.002 A 
ATOM      6  C8  UNL d   1       3.153  -2.093  -0.695  0.00  0.00     0.002 A 
ENDROOT
BRANCH   1   7
ATOM      7  C2  UNL d   1       2.516   0.333  -0.995  0.00  0.00     0.056 C 
BRANCH   7   8
ATOM      8  C1  UNL d   1       3.822   0.642  -0.256  0.00  0.00     0.007 C 
ATOM      9  C   UNL d   1       4.262   2.093  -0.397  0.00  0.00     0.009 C 
ENDBRANCH   7   8
ENDBRANCH   1   7
TORSDOF 2
ENDMDL
