MODEL 1
REMARK minimizedAffinity 12.3498459
REMARK minimizedRMSD -1
REMARK  2 active torsions:
REMARK  status: ('A' for Active; 'I' for Inactive)
REMARK    1  A    between atoms: C1_2  and  C2_3 
REMARK    2  A    between atoms: C2_3  and  C3_4 
ROOT
ATOM      1  C3  UNL d   1       1.570   1.490  -2.134  0.00  0.00    -0.075 A 
ATOM      2  C4  UNL d   1       1.297   0.115  -2.118  0.00  0.00     0.002 A 
ATOM      3  C5  UNL d   1       2.041  -0.746  -1.310  0.00  0.00     0.002 A 
ATOM      4  C6  UNL d   1       3.072  -0.245  -0.518  0.00  0.00    -0.004 A 
ATOM      5  C7  UNL d   1       3.363   1.117  -0.539  0.00  0.00     0.002 A 
ATOM      6  C8  UNL d   1       2.618   1.981  -1.343  0.00  0.00     0.002 A 
ENDROOT
BRANCH   1   7
ATOM      7  C2  UNL d   1       0.750   2.431  -2.984  0.00  0.00     0.056 C 
BRANCH   7   8
ATOM      8  C1  UNL d   1      -0.088   1.730  -4.059  0.00  0.00     0.007 C 
ATOM      9  C   UNL d   1      -1.477   2.332  -4.225  0.00  0.00     0.009 C 
ENDBRANCH   7   8
ENDBRANCH   1   7
TORSDOF 2
ENDMDL
