MODEL 1
REMARK minimizedAffinity 7.09220266
REMARK minimizedRMSD -1
REMARK  2 active torsions:
REMARK  status: ('A' for Active; 'I' for Inactive)
REMARK    1  A    between atoms: C1_2  and  C2_3 
REMARK    2  A    between atoms: C2_3  and  C3_4 
ROOT
ATOM      1  C3  UNL d   1       2.999   1.351   0.795  0.00  0.00    -0.075 A 
ATOM      2  C4  UNL d   1       2.118   1.458  -0.290  0.00  0.00     0.002 A 
ATOM      3  C5  UNL d   1       1.968   0.399  -1.187  0.00  0.00     0.002 A 
ATOM      4  C6  UNL d   1       2.702  -0.772  -1.016  0.00  0.00    -0.004 A 
ATOM      5  C7  UNL d   1       3.593  -0.882   0.050  0.00  0.00     0.002 A 
ATOM      6  C8  UNL d   1       3.742   0.173   0.951  0.00  0.00     0.002 A 
ENDROOT
BRANCH   1   7
ATOM      7  C2  UNL d   1       3.145   2.482   1.786  0.00  0.00     0.056 C 
BRANCH   7   8
ATOM      8  C1  UNL d   1       4.356   3.384   1.529  0.00  0.00     0.007 C 
ATOM      9  C   UNL d   1       4.132   4.827   1.962  0.00  0.00     0.009 C 
ENDBRANCH   7   8
ENDBRANCH   1   7
TORSDOF 2
ENDMDL
