MODEL 1
REMARK minimizedAffinity 6.34765196
REMARK minimizedRMSD -1
REMARK  2 active torsions:
REMARK  status: ('A' for Active; 'I' for Inactive)
REMARK    1  A    between atoms: C1_2  and  C2_3 
REMARK    2  A    between atoms: C2_3  and  C3_4 
ROOT
ATOM      1  C3  UNL d   1       0.975   1.896   1.729  0.00  0.00    -0.075 A 
ATOM      2  C4  UNL d   1       0.338   0.658   1.900  0.00  0.00     0.002 A 
ATOM      3  C5  UNL d   1      -1.000   0.598   2.292  0.00  0.00     0.002 A 
ATOM      4  C6  UNL d   1      -1.713   1.771   2.528  0.00  0.00    -0.004 A 
ATOM      5  C7  UNL d   1      -1.085   3.006   2.378  0.00  0.00     0.002 A 
ATOM      6  C8  UNL d   1       0.252   3.069   1.981  0.00  0.00     0.002 A 
ENDROOT
BRANCH   1   7
ATOM      7  C2  UNL d   1       2.414   1.969   1.276  0.00  0.00     0.056 C 
BRANCH   7   8
ATOM      8  C1  UNL d   1       2.818   0.857   0.302  0.00  0.00     0.007 C 
ATOM      9  C   UNL d   1       3.735   1.340  -0.813  0.00  0.00     0.009 C 
ENDBRANCH   7   8
ENDBRANCH   1   7
TORSDOF 2
ENDMDL
