MODEL 1
REMARK minimizedAffinity 1.81419754
REMARK minimizedRMSD -1
REMARK  2 active torsions:
REMARK  status: ('A' for Active; 'I' for Inactive)
REMARK    1  A    between atoms: C1_2  and  C2_3 
REMARK    2  A    between atoms: C2_3  and  C3_4 
ROOT
ATOM      1  C3  UNL d   1       2.356   1.828   2.890  0.00  0.00    -0.075 A 
ATOM      2  C4  UNL d   1       2.790   2.634   3.952  0.00  0.00     0.002 A 
ATOM      3  C5  UNL d   1       2.554   2.254   5.273  0.00  0.00     0.002 A 
ATOM      4  C6  UNL d   1       1.873   1.070   5.549  0.00  0.00    -0.004 A 
ATOM      5  C7  UNL d   1       1.423   0.269   4.502  0.00  0.00     0.002 A 
ATOM      6  C8  UNL d   1       1.662   0.645   3.179  0.00  0.00     0.002 A 
ENDROOT
BRANCH   1   7
ATOM      7  C2  UNL d   1       2.635   2.219   1.459  0.00  0.00     0.056 C 
BRANCH   7   8
ATOM      8  C1  UNL d   1       3.166   1.073   0.591  0.00  0.00     0.007 C 
ATOM      9  C   UNL d   1       4.325   1.486  -0.306  0.00  0.00     0.009 C 
ENDBRANCH   7   8
ENDBRANCH   1   7
TORSDOF 2
ENDMDL
