MODEL 1
REMARK minimizedAffinity 8.87483692
REMARK minimizedRMSD -1
REMARK  2 active torsions:
REMARK  status: ('A' for Active; 'I' for Inactive)
REMARK    1  A    between atoms: C1_2  and  C2_3 
REMARK    2  A    between atoms: C2_3  and  C3_4 
ROOT
ATOM      1  C3  UNL d   1       1.227  -1.634  -2.096  0.00  0.00    -0.075 A 
ATOM      2  C4  UNL d   1       0.272  -2.091  -3.015  0.00  0.00     0.002 A 
ATOM      3  C5  UNL d   1      -0.310  -3.350  -2.865  0.00  0.00     0.002 A 
ATOM      4  C6  UNL d   1       0.062  -4.170  -1.803  0.00  0.00    -0.004 A 
ATOM      5  C7  UNL d   1       1.022  -3.733  -0.892  0.00  0.00     0.002 A 
ATOM      6  C8  UNL d   1       1.603  -2.472  -1.037  0.00  0.00     0.002 A 
ENDROOT
BRANCH   1   7
ATOM      7  C2  UNL d   1       1.839  -0.260  -2.236  0.00  0.00     0.056 C 
BRANCH   7   8
ATOM      8  C1  UNL d   1       1.210   0.593  -3.343  0.00  0.00     0.007 C 
ATOM      9  C   UNL d   1       1.138   2.073  -2.992  0.00  0.00     0.009 C 
ENDBRANCH   7   8
ENDBRANCH   1   7
TORSDOF 2
ENDMDL
