MODEL 1
REMARK minimizedAffinity 13.6334305
REMARK minimizedRMSD -1
REMARK  2 active torsions:
REMARK  status: ('A' for Active; 'I' for Inactive)
REMARK    1  A    between atoms: C1_2  and  C2_3 
REMARK    2  A    between atoms: C2_3  and  C3_4 
ROOT
ATOM      1  C3  UNL d   1      -1.431  -3.801  -2.163  0.00  0.00    -0.075 A 
ATOM      2  C4  UNL d   1      -2.583  -3.309  -2.795  0.00  0.00     0.002 A 
ATOM      3  C5  UNL d   1      -2.812  -1.935  -2.880  0.00  0.00     0.002 A 
ATOM      4  C6  UNL d   1      -1.902  -1.038  -2.326  0.00  0.00    -0.004 A 
ATOM      5  C7  UNL d   1      -0.763  -1.516  -1.681  0.00  0.00     0.002 A 
ATOM      6  C8  UNL d   1      -0.529  -2.890  -1.599  0.00  0.00     0.002 A 
ENDROOT
BRANCH   1   7
ATOM      7  C2  UNL d   1      -1.162  -5.285  -2.094  0.00  0.00     0.056 C 
BRANCH   7   8
ATOM      8  C1  UNL d   1      -1.897  -6.000  -0.955  0.00  0.00     0.007 C 
ATOM      9  C   UNL d   1      -3.056  -5.190  -0.387  0.00  0.00     0.009 C 
ENDBRANCH   7   8
ENDBRANCH   1   7
TORSDOF 2
ENDMDL
