MODEL 1
REMARK minimizedAffinity 5.36405182
REMARK minimizedRMSD -1
REMARK  2 active torsions:
REMARK  status: ('A' for Active; 'I' for Inactive)
REMARK    1  A    between atoms: C1_2  and  C2_3 
REMARK    2  A    between atoms: C2_3  and  C3_4 
ROOT
ATOM      1  C3  UNL d   1       0.937  -1.170  -2.192  0.00  0.00    -0.075 A 
ATOM      2  C4  UNL d   1      -0.035  -2.097  -2.594  0.00  0.00     0.002 A 
ATOM      3  C5  UNL d   1      -0.255  -3.259  -1.854  0.00  0.00     0.002 A 
ATOM      4  C6  UNL d   1       0.499  -3.514  -0.711  0.00  0.00    -0.004 A 
ATOM      5  C7  UNL d   1       1.479  -2.608  -0.311  0.00  0.00     0.002 A 
ATOM      6  C8  UNL d   1       1.698  -1.442  -1.047  0.00  0.00     0.002 A 
ENDROOT
BRANCH   1   7
ATOM      7  C2  UNL d   1       1.160   0.104  -2.971  0.00  0.00     0.056 C 
BRANCH   7   8
ATOM      8  C1  UNL d   1       1.655   1.278  -2.120  0.00  0.00     0.007 C 
ATOM      9  C   UNL d   1       1.170   2.631  -2.624  0.00  0.00     0.009 C 
ENDBRANCH   7   8
ENDBRANCH   1   7
TORSDOF 2
ENDMDL
