MODEL 1
REMARK minimizedAffinity 2.20862937
REMARK minimizedRMSD -1
REMARK  2 active torsions:
REMARK  status: ('A' for Active; 'I' for Inactive)
REMARK    1  A    between atoms: C1_2  and  C2_3 
REMARK    2  A    between atoms: C2_3  and  C3_4 
ROOT
ATOM      1  C3  UNL d   1       0.101  -2.769  -2.121  0.00  0.00    -0.075 A 
ATOM      2  C4  UNL d   1       0.739  -2.659  -0.877  0.00  0.00     0.002 A 
ATOM      3  C5  UNL d   1       1.863  -1.847  -0.727  0.00  0.00     0.002 A 
ATOM      4  C6  UNL d   1       2.369  -1.144  -1.818  0.00  0.00    -0.004 A 
ATOM      5  C7  UNL d   1       1.753  -1.258  -3.062  0.00  0.00     0.002 A 
ATOM      6  C8  UNL d   1       0.625  -2.067  -3.214  0.00  0.00     0.002 A 
ENDROOT
BRANCH   1   7
ATOM      7  C2  UNL d   1      -1.134  -3.623  -2.283  0.00  0.00     0.056 C 
BRANCH   7   8
ATOM      8  C1  UNL d   1      -2.392  -2.835  -2.661  0.00  0.00     0.007 C 
ATOM      9  C   UNL d   1      -2.228  -1.329  -2.502  0.00  0.00     0.009 C 
ENDBRANCH   7   8
ENDBRANCH   1   7
TORSDOF 2
ENDMDL
