MODEL 1
REMARK minimizedAffinity 11.4656925
REMARK minimizedRMSD -1
REMARK  2 active torsions:
REMARK  status: ('A' for Active; 'I' for Inactive)
REMARK    1  A    between atoms: C1_2  and  C2_3 
REMARK    2  A    between atoms: C2_3  and  C3_4 
ROOT
ATOM      1  C3  UNL d   1       1.406  -0.301  -2.345  0.00  0.00    -0.075 A 
ATOM      2  C4  UNL d   1       2.270  -0.081  -1.262  0.00  0.00     0.002 A 
ATOM      3  C5  UNL d   1       2.649   1.214  -0.910  0.00  0.00     0.002 A 
ATOM      4  C6  UNL d   1       2.179   2.304  -1.640  0.00  0.00    -0.004 A 
ATOM      5  C7  UNL d   1       1.334   2.096  -2.728  0.00  0.00     0.002 A 
ATOM      6  C8  UNL d   1       0.949   0.801  -3.080  0.00  0.00     0.002 A 
ENDROOT
BRANCH   1   7
ATOM      7  C2  UNL d   1       0.969  -1.698  -2.714  0.00  0.00     0.056 C 
BRANCH   7   8
ATOM      8  C1  UNL d   1       0.176  -2.414  -1.615  0.00  0.00     0.007 C 
ATOM      9  C   UNL d   1      -0.807  -3.443  -2.157  0.00  0.00     0.009 C 
ENDBRANCH   7   8
ENDBRANCH   1   7
TORSDOF 2
ENDMDL
