MODEL 1
REMARK minimizedAffinity 7.43749666
REMARK minimizedRMSD -1
REMARK  2 active torsions:
REMARK  status: ('A' for Active; 'I' for Inactive)
REMARK    1  A    between atoms: C1_2  and  C2_3 
REMARK    2  A    between atoms: C2_3  and  C3_4 
ROOT
ATOM      1  C3  UNL d   1       2.604   2.475   1.839  0.00  0.00    -0.075 A 
ATOM      2  C4  UNL d   1       3.690   2.062   1.055  0.00  0.00     0.002 A 
ATOM      3  C5  UNL d   1       3.648   0.848   0.370  0.00  0.00     0.002 A 
ATOM      4  C6  UNL d   1       2.526   0.028   0.468  0.00  0.00    -0.004 A 
ATOM      5  C7  UNL d   1       1.448   0.420   1.257  0.00  0.00     0.002 A 
ATOM      6  C8  UNL d   1       1.485   1.637   1.940  0.00  0.00     0.002 A 
ENDROOT
BRANCH   1   7
ATOM      7  C2  UNL d   1       2.631   3.802   2.559  0.00  0.00     0.056 C 
BRANCH   7   8
ATOM      8  C1  UNL d   1       2.619   5.018   1.627  0.00  0.00     0.007 C 
ATOM      9  C   UNL d   1       3.750   5.999   1.904  0.00  0.00     0.009 C 
ENDBRANCH   7   8
ENDBRANCH   1   7
TORSDOF 2
ENDMDL
