MODEL 1
REMARK minimizedAffinity 4.14361763
REMARK minimizedRMSD -1
REMARK  2 active torsions:
REMARK  status: ('A' for Active; 'I' for Inactive)
REMARK    1  A    between atoms: C1_2  and  C2_3 
REMARK    2  A    between atoms: C2_3  and  C3_4 
ROOT
ATOM      1  C3  UNL d   1       3.198  -2.863   2.097  0.00  0.00    -0.075 A 
ATOM      2  C4  UNL d   1       2.404  -1.708   2.140  0.00  0.00     0.002 A 
ATOM      3  C5  UNL d   1       1.255  -1.608   1.355  0.00  0.00     0.002 A 
ATOM      4  C6  UNL d   1       0.892  -2.656   0.511  0.00  0.00    -0.004 A 
ATOM      5  C7  UNL d   1       1.682  -3.801   0.448  0.00  0.00     0.002 A 
ATOM      6  C8  UNL d   1       2.830  -3.905   1.236  0.00  0.00     0.002 A 
ENDROOT
BRANCH   1   7
ATOM      7  C2  UNL d   1       4.426  -2.988   2.967  0.00  0.00     0.056 C 
BRANCH   7   8
ATOM      8  C1  UNL d   1       4.372  -2.149   4.247  0.00  0.00     0.007 C 
ATOM      9  C   UNL d   1       5.576  -2.361   5.155  0.00  0.00     0.009 C 
ENDBRANCH   7   8
ENDBRANCH   1   7
TORSDOF 2
ENDMDL
