MODEL 1
REMARK minimizedAffinity 1.28934586
REMARK minimizedRMSD -1
REMARK  2 active torsions:
REMARK  status: ('A' for Active; 'I' for Inactive)
REMARK    1  A    between atoms: C1_2  and  C2_3 
REMARK    2  A    between atoms: C2_3  and  C3_4 
ROOT
ATOM      1  C3  UNL d   1      -0.914   5.231  -5.174  0.00  0.00    -0.075 A 
ATOM      2  C4  UNL d   1      -2.085   6.000  -5.251  0.00  0.00     0.002 A 
ATOM      3  C5  UNL d   1      -3.206   5.661  -4.493  0.00  0.00     0.002 A 
ATOM      4  C6  UNL d   1      -3.175   4.546  -3.658  0.00  0.00    -0.004 A 
ATOM      5  C7  UNL d   1      -2.024   3.766  -3.586  0.00  0.00     0.002 A 
ATOM      6  C8  UNL d   1      -0.899   4.105  -4.340  0.00  0.00     0.002 A 
ENDROOT
BRANCH   1   7
ATOM      7  C2  UNL d   1       0.312   5.610  -5.969  0.00  0.00     0.056 C 
BRANCH   7   8
ATOM      8  C1  UNL d   1       1.603   5.646  -5.144  0.00  0.00     0.007 C 
ATOM      9  C   UNL d   1       2.863   5.626  -6.000  0.00  0.00     0.009 C 
ENDBRANCH   7   8
ENDBRANCH   1   7
TORSDOF 2
ENDMDL
