MODEL 1
REMARK minimizedAffinity 14.7758636
REMARK minimizedRMSD -1
REMARK  2 active torsions:
REMARK  status: ('A' for Active; 'I' for Inactive)
REMARK    1  A    between atoms: C1_2  and  C2_3 
REMARK    2  A    between atoms: C2_3  and  C3_4 
ROOT
ATOM      1  C3  UNL d   1      -4.522  -0.383  -2.449  0.00  0.00    -0.075 A 
ATOM      2  C4  UNL d   1      -5.265   0.137  -3.519  0.00  0.00     0.002 A 
ATOM      3  C5  UNL d   1      -6.000  -0.710  -4.349  0.00  0.00     0.002 A 
ATOM      4  C6  UNL d   1      -5.994  -2.085  -4.128  0.00  0.00    -0.004 A 
ATOM      5  C7  UNL d   1      -5.246  -2.614  -3.078  0.00  0.00     0.002 A 
ATOM      6  C8  UNL d   1      -4.513  -1.769  -2.243  0.00  0.00     0.002 A 
ENDROOT
BRANCH   1   7
ATOM      7  C2  UNL d   1      -3.749   0.531  -1.529  0.00  0.00     0.056 C 
BRANCH   7   8
ATOM      8  C1  UNL d   1      -2.372   0.936  -2.066  0.00  0.00     0.007 C 
ATOM      9  C   UNL d   1      -2.389   2.252  -2.831  0.00  0.00     0.009 C 
ENDBRANCH   7   8
ENDBRANCH   1   7
TORSDOF 2
ENDMDL
