MODEL 1
REMARK minimizedAffinity 7.89598703
REMARK minimizedRMSD -1
REMARK  2 active torsions:
REMARK  status: ('A' for Active; 'I' for Inactive)
REMARK    1  A    between atoms: C1_2  and  C2_3 
REMARK    2  A    between atoms: C2_3  and  C3_4 
ROOT
ATOM      1  C3  UNL d   1      -2.661   1.614  -2.844  0.00  0.00    -0.075 A 
ATOM      2  C4  UNL d   1      -3.721   1.665  -1.927  0.00  0.00     0.002 A 
ATOM      3  C5  UNL d   1      -4.003   0.571  -1.109  0.00  0.00     0.002 A 
ATOM      4  C6  UNL d   1      -3.237  -0.589  -1.203  0.00  0.00    -0.004 A 
ATOM      5  C7  UNL d   1      -2.193  -0.657  -2.122  0.00  0.00     0.002 A 
ATOM      6  C8  UNL d   1      -1.905   0.437  -2.939  0.00  0.00     0.002 A 
ENDROOT
BRANCH   1   7
ATOM      7  C2  UNL d   1      -2.331   2.805  -3.713  0.00  0.00     0.056 C 
BRANCH   7   8
ATOM      8  C1  UNL d   1      -0.907   3.338  -3.526  0.00  0.00     0.007 C 
ATOM      9  C   UNL d   1      -0.177   3.573  -4.841  0.00  0.00     0.009 C 
ENDBRANCH   7   8
ENDBRANCH   1   7
TORSDOF 2
ENDMDL
