MODEL 1
REMARK minimizedAffinity 13.6260338
REMARK minimizedRMSD -1
REMARK  2 active torsions:
REMARK  status: ('A' for Active; 'I' for Inactive)
REMARK    1  A    between atoms: C1_2  and  C2_3 
REMARK    2  A    between atoms: C2_3  and  C3_4 
ROOT
ATOM      1  C3  UNL d   1       3.620  -1.564   0.117  0.00  0.00    -0.075 A 
ATOM      2  C4  UNL d   1       2.480  -0.754   0.006  0.00  0.00     0.002 A 
ATOM      3  C5  UNL d   1       1.242  -1.208   0.462  0.00  0.00     0.002 A 
ATOM      4  C6  UNL d   1       1.125  -2.477   1.024  0.00  0.00    -0.004 A 
ATOM      5  C7  UNL d   1       2.248  -3.297   1.124  0.00  0.00     0.002 A 
ATOM      6  C8  UNL d   1       3.489  -2.844   0.673  0.00  0.00     0.002 A 
ENDROOT
BRANCH   1   7
ATOM      7  C2  UNL d   1       4.968  -1.068  -0.347  0.00  0.00     0.056 C 
BRANCH   7   8
ATOM      8  C1  UNL d   1       4.896   0.087  -1.352  0.00  0.00     0.007 C 
ATOM      9  C   UNL d   1       5.999   0.041  -2.401  0.00  0.00     0.009 C 
ENDBRANCH   7   8
ENDBRANCH   1   7
TORSDOF 2
ENDMDL
