MODEL 1
REMARK minimizedAffinity 10.1768417
REMARK minimizedRMSD -1
REMARK  2 active torsions:
REMARK  status: ('A' for Active; 'I' for Inactive)
REMARK    1  A    between atoms: C1_2  and  C2_3 
REMARK    2  A    between atoms: C2_3  and  C3_4 
ROOT
ATOM      1  C3  UNL d   1      -2.469   2.442  -3.355  0.00  0.00    -0.075 A 
ATOM      2  C4  UNL d   1      -1.776   1.899  -2.263  0.00  0.00     0.002 A 
ATOM      3  C5  UNL d   1      -0.435   1.532  -2.387  0.00  0.00     0.002 A 
ATOM      4  C6  UNL d   1       0.225   1.694  -3.603  0.00  0.00    -0.004 A 
ATOM      5  C7  UNL d   1      -0.459   2.217  -4.699  0.00  0.00     0.002 A 
ATOM      6  C8  UNL d   1      -1.799   2.589  -4.576  0.00  0.00     0.002 A 
ENDROOT
BRANCH   1   7
ATOM      7  C2  UNL d   1      -3.911   2.868  -3.219  0.00  0.00     0.056 C 
BRANCH   7   8
ATOM      8  C1  UNL d   1      -4.449   3.642  -4.428  0.00  0.00     0.007 C 
ATOM      9  C   UNL d   1      -5.665   2.986  -5.068  0.00  0.00     0.009 C 
ENDBRANCH   7   8
ENDBRANCH   1   7
TORSDOF 2
ENDMDL
