MODEL 1
REMARK minimizedAffinity 10.2495356
REMARK minimizedRMSD -1
REMARK  2 active torsions:
REMARK  status: ('A' for Active; 'I' for Inactive)
REMARK    1  A    between atoms: C1_2  and  C2_3 
REMARK    2  A    between atoms: C2_3  and  C3_4 
ROOT
ATOM      1  C3  UNL d   1      -2.924   0.790   3.203  0.00  0.00    -0.075 A 
ATOM      2  C4  UNL d   1      -3.578   0.563   1.983  0.00  0.00     0.002 A 
ATOM      3  C5  UNL d   1      -4.841   1.106   1.744  0.00  0.00     0.002 A 
ATOM      4  C6  UNL d   1      -5.469   1.874   2.723  0.00  0.00    -0.004 A 
ATOM      5  C7  UNL d   1      -4.836   2.092   3.944  0.00  0.00     0.002 A 
ATOM      6  C8  UNL d   1      -3.571   1.553   4.185  0.00  0.00     0.002 A 
ENDROOT
BRANCH   1   7
ATOM      7  C2  UNL d   1      -1.546   0.229   3.457  0.00  0.00     0.056 C 
BRANCH   7   8
ATOM      8  C1  UNL d   1      -1.280  -1.112   2.764  0.00  0.00     0.007 C 
ATOM      9  C   UNL d   1       0.142  -1.245   2.238  0.00  0.00     0.009 C 
ENDBRANCH   7   8
ENDBRANCH   1   7
TORSDOF 2
ENDMDL
