MODEL 1
REMARK minimizedAffinity -5.32262421
REMARK minimizedRMSD -1
REMARK  0 active torsions:
REMARK  status: ('A' for Active; 'I' for Inactive)
ROOT
ATOM      1  C2' OXE d   1      -1.145  -0.422   1.591  0.00  0.00     0.078 C 
ATOM      2  C1' OXE d   1      -0.001  -0.145  -0.958  0.00  0.00     0.078 C 
ATOM      3  C1  OXE d   1      -0.493   1.103  -0.268  0.00  0.00    -0.078 A 
ATOM      4  C2  OXE d   1      -1.094   0.952   0.959  0.00  0.00    -0.078 A 
ATOM      5  C3  OXE d   1      -1.516   2.077   1.662  0.00  0.00     0.003 A 
ATOM      6  C4  OXE d   1      -1.473   3.343   1.067  0.00  0.00    -0.002 A 
ATOM      7  C5  OXE d   1      -0.901   3.513  -0.199  0.00  0.00    -0.002 A 
ATOM      8  C6  OXE d   1      -0.369   2.412  -0.860  0.00  0.00     0.003 A 
ENDROOT
TORSDOF 0
ENDMDL
