MODEL 1
REMARK minimizedAffinity -2.8071115
REMARK minimizedRMSD -1
REMARK  0 active torsions:
REMARK  status: ('A' for Active; 'I' for Inactive)
ROOT
ATOM      1  C2' OXE d   1      -0.253   0.812  -1.118  0.00  0.00     0.078 C 
ATOM      2  C1' OXE d   1       1.315  -0.704   0.649  0.00  0.00     0.078 C 
ATOM      3  C1  OXE d   1       0.886  -1.352  -0.644  0.00  0.00    -0.078 A 
ATOM      4  C2  OXE d   1       0.080  -0.619  -1.481  0.00  0.00    -0.078 A 
ATOM      5  C3  OXE d   1      -0.299  -1.149  -2.711  0.00  0.00     0.003 A 
ATOM      6  C4  OXE d   1       0.005  -2.476  -3.035  0.00  0.00    -0.002 A 
ATOM      7  C5  OXE d   1       0.791  -3.254  -2.179  0.00  0.00    -0.002 A 
ATOM      8  C6  OXE d   1       1.275  -2.694  -1.002  0.00  0.00     0.003 A 
ENDROOT
TORSDOF 0
ENDMDL
