MODEL 1
REMARK minimizedAffinity -4.86944675
REMARK minimizedRMSD -1
REMARK  0 active torsions:
REMARK  status: ('A' for Active; 'I' for Inactive)
ROOT
ATOM      1  C2' OXE d   1       1.046  -0.658  -0.646  0.00  0.00     0.078 C 
ATOM      2  C1' OXE d   1       0.273   1.927  -1.422  0.00  0.00     0.078 C 
ATOM      3  C1  OXE d   1      -0.413   1.317  -0.224  0.00  0.00    -0.078 A 
ATOM      4  C2  OXE d   1      -0.061   0.034   0.120  0.00  0.00    -0.078 A 
ATOM      5  C3  OXE d   1      -0.623  -0.556   1.249  0.00  0.00     0.003 A 
ATOM      6  C4  OXE d   1      -1.654   0.087   1.945  0.00  0.00    -0.002 A 
ATOM      7  C5  OXE d   1      -2.055   1.378   1.587  0.00  0.00    -0.002 A 
ATOM      8  C6  OXE d   1      -1.416   2.023   0.534  0.00  0.00     0.003 A 
ENDROOT
TORSDOF 0
ENDMDL
