MODEL 1
REMARK minimizedAffinity -5.20231438
REMARK minimizedRMSD -1
REMARK  0 active torsions:
REMARK  status: ('A' for Active; 'I' for Inactive)
ROOT
ATOM      1  C2' OXE d   1       0.526  -0.970   2.231  0.00  0.00     0.078 C 
ATOM      2  C1' OXE d   1       0.268  -0.916  -0.564  0.00  0.00     0.078 C 
ATOM      3  C1  OXE d   1      -0.503   0.107   0.234  0.00  0.00    -0.078 A 
ATOM      4  C2  OXE d   1      -0.407   0.043   1.603  0.00  0.00    -0.078 A 
ATOM      5  C3  OXE d   1      -1.054   0.996   2.384  0.00  0.00     0.003 A 
ATOM      6  C4  OXE d   1      -1.923   1.924   1.796  0.00  0.00    -0.002 A 
ATOM      7  C5  OXE d   1      -2.065   1.980   0.406  0.00  0.00    -0.002 A 
ATOM      8  C6  OXE d   1      -1.331   1.108  -0.391  0.00  0.00     0.003 A 
ENDROOT
TORSDOF 0
ENDMDL
