MODEL 1
REMARK minimizedAffinity -2.85779452
REMARK minimizedRMSD -1
REMARK  0 active torsions:
REMARK  status: ('A' for Active; 'I' for Inactive)
ROOT
ATOM      1  C2' OXE d   1      -0.573  -1.042   1.849  0.00  0.00     0.078 C 
ATOM      2  C1' OXE d   1      -1.352   1.654   1.819  0.00  0.00     0.078 C 
ATOM      3  C1  OXE d   1      -0.510   1.152   0.672  0.00  0.00    -0.078 A 
ATOM      4  C2  OXE d   1      -0.094  -0.157   0.719  0.00  0.00    -0.078 A 
ATOM      5  C3  OXE d   1       0.638  -0.686  -0.340  0.00  0.00     0.003 A 
ATOM      6  C4  OXE d   1       1.085   0.142  -1.376  0.00  0.00    -0.002 A 
ATOM      7  C5  OXE d   1       0.707   1.488  -1.423  0.00  0.00    -0.002 A 
ATOM      8  C6  OXE d   1      -0.124   1.997  -0.431  0.00  0.00     0.003 A 
ENDROOT
TORSDOF 0
ENDMDL
