MODEL 1
REMARK minimizedAffinity -3.53599477
REMARK minimizedRMSD -1
REMARK  0 active torsions:
REMARK  status: ('A' for Active; 'I' for Inactive)
ROOT
ATOM      1  C2' OXE d   1      -0.440  -0.792   2.357  0.00  0.00     0.078 C 
ATOM      2  C1' OXE d   1      -1.312   1.874   2.246  0.00  0.00     0.078 C 
ATOM      3  C1  OXE d   1      -0.519   1.344   1.078  0.00  0.00    -0.078 A 
ATOM      4  C2  OXE d   1      -0.056   0.052   1.161  0.00  0.00    -0.078 A 
ATOM      5  C3  OXE d   1       0.633  -0.504   0.087  0.00  0.00     0.003 A 
ATOM      6  C4  OXE d   1       0.993   0.288  -1.010  0.00  0.00    -0.002 A 
ATOM      7  C5  OXE d   1       0.566   1.617  -1.098  0.00  0.00    -0.002 A 
ATOM      8  C6  OXE d   1      -0.225   2.146  -0.084  0.00  0.00     0.003 A 
ENDROOT
TORSDOF 0
ENDMDL
