MODEL 1
REMARK minimizedAffinity -4.11780834
REMARK minimizedRMSD -1
REMARK  0 active torsions:
REMARK  status: ('A' for Active; 'I' for Inactive)
ROOT
ATOM      1  C2' OXE d   1       1.285  -2.326  -4.797  0.00  0.00     0.078 C 
ATOM      2  C1' OXE d   1      -0.538  -3.550  -3.047  0.00  0.00     0.078 C 
ATOM      3  C1  OXE d   1       0.482  -2.609  -2.455  0.00  0.00    -0.078 A 
ATOM      4  C2  OXE d   1       1.399  -2.050  -3.313  0.00  0.00    -0.078 A 
ATOM      5  C3  OXE d   1       2.326  -1.132  -2.828  0.00  0.00     0.003 A 
ATOM      6  C4  OXE d   1       2.431  -0.891  -1.453  0.00  0.00    -0.002 A 
ATOM      7  C5  OXE d   1       1.532  -1.480  -0.557  0.00  0.00    -0.002 A 
ATOM      8  C6  OXE d   1       0.527  -2.306  -1.046  0.00  0.00     0.003 A 
ENDROOT
TORSDOF 0
ENDMDL
