MODEL 1
REMARK minimizedAffinity -4.33084393
REMARK minimizedRMSD -1
REMARK  0 active torsions:
REMARK  status: ('A' for Active; 'I' for Inactive)
ROOT
ATOM      1  C2' OXE d   1      -2.477   2.174   1.165  0.00  0.00     0.078 C 
ATOM      2  C1' OXE d   1      -1.372   0.517   3.143  0.00  0.00     0.078 C 
ATOM      3  C1  OXE d   1      -0.837   0.389   1.738  0.00  0.00    -0.078 A 
ATOM      4  C2  OXE d   1      -1.416   1.171   0.768  0.00  0.00    -0.078 A 
ATOM      5  C3  OXE d   1      -0.923   1.132  -0.534  0.00  0.00     0.003 A 
ATOM      6  C4  OXE d   1       0.052   0.195  -0.895  0.00  0.00    -0.002 A 
ATOM      7  C5  OXE d   1       0.627  -0.639   0.070  0.00  0.00    -0.002 A 
ATOM      8  C6  OXE d   1       0.225  -0.525   1.396  0.00  0.00     0.003 A 
ENDROOT
TORSDOF 0
ENDMDL
