MODEL 1
REMARK minimizedAffinity -4.76129913
REMARK minimizedRMSD -1
REMARK  0 active torsions:
REMARK  status: ('A' for Active; 'I' for Inactive)
ROOT
ATOM      1  C2' OXE d   1      -0.032   2.303  -1.677  0.00  0.00     0.078 C 
ATOM      2  C1' OXE d   1       0.828  -0.255  -0.905  0.00  0.00     0.078 C 
ATOM      3  C1  OXE d   1      -0.102   0.484   0.024  0.00  0.00    -0.078 A 
ATOM      4  C2  OXE d   1      -0.480   1.754  -0.340  0.00  0.00    -0.078 A 
ATOM      5  C3  OXE d   1      -1.380   2.459   0.454  0.00  0.00     0.003 A 
ATOM      6  C4  OXE d   1      -1.783   1.949   1.694  0.00  0.00    -0.002 A 
ATOM      7  C5  OXE d   1      -1.377   0.674   2.102  0.00  0.00    -0.002 A 
ATOM      8  C6  OXE d   1      -0.573  -0.087   1.261  0.00  0.00     0.003 A 
ENDROOT
TORSDOF 0
ENDMDL
