MODEL 1
REMARK minimizedAffinity -3.85587716
REMARK minimizedRMSD -1
REMARK  0 active torsions:
REMARK  status: ('A' for Active; 'I' for Inactive)
ROOT
ATOM      1  C2' OXE d   1      -1.612   2.231   0.921  0.00  0.00     0.078 C 
ATOM      2  C1' OXE d   1      -0.142   2.503  -1.455  0.00  0.00     0.078 C 
ATOM      3  C1  OXE d   1       0.029   1.230  -0.664  0.00  0.00    -0.078 A 
ATOM      4  C2  OXE d   1      -0.659   1.125   0.521  0.00  0.00    -0.078 A 
ATOM      5  C3  OXE d   1      -0.580  -0.051   1.262  0.00  0.00     0.003 A 
ATOM      6  C4  OXE d   1       0.312  -1.065   0.890  0.00  0.00    -0.002 A 
ATOM      7  C5  OXE d   1       1.051  -0.961  -0.293  0.00  0.00    -0.002 A 
ATOM      8  C6  OXE d   1       0.890   0.159  -1.102  0.00  0.00     0.003 A 
ENDROOT
TORSDOF 0
ENDMDL
