MODEL 1
REMARK minimizedAffinity -0.715998232
REMARK minimizedRMSD -1
REMARK  0 active torsions:
REMARK  status: ('A' for Active; 'I' for Inactive)
ROOT
ATOM      1  C2' OXE d   1       1.132  -1.233  -0.778  0.00  0.00     0.078 C 
ATOM      2  C1' OXE d   1       0.797   1.437  -1.577  0.00  0.00     0.078 C 
ATOM      3  C1  OXE d   1       0.092   0.984  -0.322  0.00  0.00    -0.078 A 
ATOM      4  C2  OXE d   1       0.224  -0.336   0.035  0.00  0.00    -0.078 A 
ATOM      5  C3  OXE d   1      -0.360  -0.793   1.213  0.00  0.00     0.003 A 
ATOM      6  C4  OXE d   1      -1.206   0.041   1.954  0.00  0.00    -0.002 A 
ATOM      7  C5  OXE d   1      -1.386   1.379   1.586  0.00  0.00    -0.002 A 
ATOM      8  C6  OXE d   1      -0.712   1.876   0.476  0.00  0.00     0.003 A 
ENDROOT
TORSDOF 0
ENDMDL
