MODEL 1
REMARK minimizedAffinity -5.10977221
REMARK minimizedRMSD -1
REMARK  0 active torsions:
REMARK  status: ('A' for Active; 'I' for Inactive)
ROOT
ATOM      1  C2' OXE d   1      -0.665  -1.509   2.332  0.00  0.00     0.078 C 
ATOM      2  C1' OXE d   1      -1.539   1.135   1.979  0.00  0.00     0.078 C 
ATOM      3  C1  OXE d   1      -0.576   0.571   0.964  0.00  0.00    -0.078 A 
ATOM      4  C2  OXE d   1      -0.117  -0.707   1.171  0.00  0.00    -0.078 A 
ATOM      5  C3  OXE d   1       0.730  -1.295   0.236  0.00  0.00     0.003 A 
ATOM      6  C4  OXE d   1       1.240  -0.544  -0.830  0.00  0.00    -0.002 A 
ATOM      7  C5  OXE d   1       0.816   0.774  -1.036  0.00  0.00    -0.002 A 
ATOM      8  C6  OXE d   1      -0.122   1.331  -0.174  0.00  0.00     0.003 A 
ENDROOT
TORSDOF 0
ENDMDL
