MODEL 1
REMARK minimizedAffinity -2.55160642
REMARK minimizedRMSD -1
REMARK  0 active torsions:
REMARK  status: ('A' for Active; 'I' for Inactive)
ROOT
ATOM      1  C2' OXE d   1      -0.883   2.150  -1.201  0.00  0.00     0.078 C 
ATOM      2  C1' OXE d   1      -2.193   1.776   1.253  0.00  0.00     0.078 C 
ATOM      3  C1  OXE d   1      -1.076   0.827   0.901  0.00  0.00    -0.078 A 
ATOM      4  C2  OXE d   1      -0.471   0.988  -0.323  0.00  0.00    -0.078 A 
ATOM      5  C3  OXE d   1       0.602   0.174  -0.674  0.00  0.00     0.003 A 
ATOM      6  C4  OXE d   1       0.970  -0.904   0.139  0.00  0.00    -0.002 A 
ATOM      7  C5  OXE d   1       0.341  -1.111   1.371  0.00  0.00    -0.002 A 
ATOM      8  C6  OXE d   1      -0.653  -0.231   1.785  0.00  0.00     0.003 A 
ENDROOT
TORSDOF 0
ENDMDL
