MODEL 1
REMARK minimizedAffinity -5.41331387
REMARK minimizedRMSD -1
REMARK  0 active torsions:
REMARK  status: ('A' for Active; 'I' for Inactive)
ROOT
ATOM      1  C2' OXE d   1      -1.007  -0.989   1.905  0.00  0.00     0.078 C 
ATOM      2  C1' OXE d   1      -2.152   1.478   1.212  0.00  0.00     0.078 C 
ATOM      3  C1  OXE d   1      -0.991   0.985   0.386  0.00  0.00    -0.078 A 
ATOM      4  C2  OXE d   1      -0.407  -0.201   0.761  0.00  0.00    -0.078 A 
ATOM      5  C3  OXE d   1       0.632  -0.729  -0.000  0.00  0.00     0.003 A 
ATOM      6  C4  OXE d   1       1.188   0.011  -1.051  0.00  0.00    -0.002 A 
ATOM      7  C5  OXE d   1       0.633   1.240  -1.425  0.00  0.00    -0.002 A 
ATOM      8  C6  OXE d   1      -0.481   1.720  -0.745  0.00  0.00     0.003 A 
ENDROOT
TORSDOF 0
ENDMDL
