MODEL 1
REMARK minimizedAffinity -5.40594149
REMARK minimizedRMSD -1
REMARK  0 active torsions:
REMARK  status: ('A' for Active; 'I' for Inactive)
ROOT
ATOM      1  C2' OXE d   1       0.686  -0.852   1.797  0.00  0.00     0.078 C 
ATOM      2  C1' OXE d   1       1.146   0.277  -0.731  0.00  0.00     0.078 C 
ATOM      3  C1  OXE d   1      -0.035   0.781   0.060  0.00  0.00    -0.078 A 
ATOM      4  C2  OXE d   1      -0.280   0.190   1.276  0.00  0.00    -0.078 A 
ATOM      5  C3  OXE d   1      -1.324   0.655   2.071  0.00  0.00     0.003 A 
ATOM      6  C4  OXE d   1      -2.218   1.612   1.577  0.00  0.00    -0.002 A 
ATOM      7  C5  OXE d   1      -2.010   2.199   0.324  0.00  0.00    -0.002 A 
ATOM      8  C6  OXE d   1      -0.901   1.826  -0.427  0.00  0.00     0.003 A 
ENDROOT
TORSDOF 0
ENDMDL
