MODEL 1
REMARK minimizedAffinity -4.09591484
REMARK minimizedRMSD -1
REMARK  0 active torsions:
REMARK  status: ('A' for Active; 'I' for Inactive)
ROOT
ATOM      1  C2' OXE d   1      -0.565   2.800  -1.122  0.00  0.00     0.078 C 
ATOM      2  C1' OXE d   1      -2.114   2.191   1.138  0.00  0.00     0.078 C 
ATOM      3  C1  OXE d   1      -1.043   1.209   0.734  0.00  0.00    -0.078 A 
ATOM      4  C2  OXE d   1      -0.321   1.493  -0.400  0.00  0.00    -0.078 A 
ATOM      5  C3  OXE d   1       0.715   0.648  -0.787  0.00  0.00     0.003 A 
ATOM      6  C4  OXE d   1       0.927  -0.565  -0.120  0.00  0.00    -0.002 A 
ATOM      7  C5  OXE d   1       0.177  -0.892   1.015  0.00  0.00    -0.002 A 
ATOM      8  C6  OXE d   1      -0.782   0.002   1.479  0.00  0.00     0.003 A 
ENDROOT
TORSDOF 0
ENDMDL
