MODEL 1
REMARK minimizedAffinity -4.26175117
REMARK minimizedRMSD -1
REMARK  0 active torsions:
REMARK  status: ('A' for Active; 'I' for Inactive)
ROOT
ATOM      1  C2' OXE d   1       0.189  -1.132   1.478  0.00  0.00     0.078 C 
ATOM      2  C1' OXE d   1       0.569  -0.367  -1.196  0.00  0.00     0.078 C 
ATOM      3  C1  OXE d   1      -0.291   0.516  -0.327  0.00  0.00    -0.078 A 
ATOM      4  C2  OXE d   1      -0.509   0.110   0.968  0.00  0.00    -0.078 A 
ATOM      5  C3  OXE d   1      -1.249   0.916   1.828  0.00  0.00     0.003 A 
ATOM      6  C4  OXE d   1      -1.900   2.058   1.344  0.00  0.00    -0.002 A 
ATOM      7  C5  OXE d   1      -1.724   2.468   0.019  0.00  0.00    -0.002 A 
ATOM      8  C6  OXE d   1      -0.889   1.733  -0.817  0.00  0.00     0.003 A 
ENDROOT
TORSDOF 0
ENDMDL
