MODEL 1
REMARK minimizedAffinity -4.88386917
REMARK minimizedRMSD -1
REMARK  0 active torsions:
REMARK  status: ('A' for Active; 'I' for Inactive)
ROOT
ATOM      1  C   UNL d   1      -0.470   1.297  -0.334  0.00  0.00     0.077 C 
ATOM      2  C1  UNL d   1      -1.053   1.893  -1.581  0.00  0.00    -0.074 A 
ATOM      3  C2  UNL d   1      -2.429   1.844  -1.825  0.00  0.00    -0.005 A 
ATOM      4  C3  UNL d   1      -2.958   2.411  -2.985  0.00  0.00     0.006 A 
ATOM      5  C4  UNL d   1      -2.117   3.031  -3.910  0.00  0.00    -0.005 A 
ATOM      6  C5  UNL d   1      -0.739   3.090  -3.682  0.00  0.00    -0.074 A 
ATOM      7  C6  UNL d   1       0.178   3.761  -4.662  0.00  0.00     0.077 C 
ATOM      8  C7  UNL d   1      -0.216   2.524  -2.511  0.00  0.00    -0.001 A 
ENDROOT
TORSDOF 0
ENDMDL
