MODEL 1
REMARK minimizedAffinity -4.01075602
REMARK minimizedRMSD -1
REMARK  0 active torsions:
REMARK  status: ('A' for Active; 'I' for Inactive)
ROOT
ATOM      1  C   UNL d   1      -1.271   1.223   0.214  0.00  0.00     0.077 C 
ATOM      2  C1  UNL d   1      -0.122   0.308   0.519  0.00  0.00    -0.074 A 
ATOM      3  C2  UNL d   1       1.082   0.406  -0.185  0.00  0.00    -0.005 A 
ATOM      4  C3  UNL d   1       2.145  -0.445   0.117  0.00  0.00     0.006 A 
ATOM      5  C4  UNL d   1       2.015  -1.402   1.125  0.00  0.00    -0.005 A 
ATOM      6  C5  UNL d   1       0.818  -1.514   1.840  0.00  0.00    -0.074 A 
ATOM      7  C6  UNL d   1       0.665  -2.530   2.933  0.00  0.00     0.077 C 
ATOM      8  C7  UNL d   1      -0.243  -0.650   1.536  0.00  0.00    -0.001 A 
ENDROOT
TORSDOF 0
ENDMDL
