MODEL 1
REMARK minimizedAffinity -4.70524168
REMARK minimizedRMSD -1
REMARK  0 active torsions:
REMARK  status: ('A' for Active; 'I' for Inactive)
ROOT
ATOM      1  C   UNL d   1       1.245   0.421  -0.594  0.00  0.00     0.077 C 
ATOM      2  C1  UNL d   1       0.961  -0.450   0.593  0.00  0.00    -0.074 A 
ATOM      3  C2  UNL d   1       1.816  -1.504   0.932  0.00  0.00    -0.005 A 
ATOM      4  C3  UNL d   1       1.545  -2.299   2.045  0.00  0.00     0.006 A 
ATOM      5  C4  UNL d   1       0.418  -2.050   2.829  0.00  0.00    -0.005 A 
ATOM      6  C5  UNL d   1      -0.448  -1.001   2.506  0.00  0.00    -0.074 A 
ATOM      7  C6  UNL d   1      -1.659  -0.713   3.343  0.00  0.00     0.077 C 
ATOM      8  C7  UNL d   1      -0.165  -0.201   1.390  0.00  0.00    -0.001 A 
ENDROOT
TORSDOF 0
ENDMDL
