MODEL 1
REMARK minimizedAffinity -6.56826925
REMARK minimizedRMSD -1
REMARK  0 active torsions:
REMARK  status: ('A' for Active; 'I' for Inactive)
ROOT
ATOM      1  C   UNL d   1      -1.495  -1.360   3.104  0.00  0.00     0.077 C 
ATOM      2  C1  UNL d   1      -0.362  -1.459   2.126  0.00  0.00    -0.074 A 
ATOM      3  C2  UNL d   1       0.471  -2.582   2.102  0.00  0.00    -0.005 A 
ATOM      4  C3  UNL d   1       1.514  -2.664   1.180  0.00  0.00     0.006 A 
ATOM      5  C4  UNL d   1       1.736  -1.625   0.275  0.00  0.00    -0.005 A 
ATOM      6  C5  UNL d   1       0.913  -0.494   0.284  0.00  0.00    -0.074 A 
ATOM      7  C6  UNL d   1       1.131   0.627  -0.688  0.00  0.00     0.077 C 
ATOM      8  C7  UNL d   1      -0.138  -0.423   1.209  0.00  0.00    -0.001 A 
ENDROOT
TORSDOF 0
ENDMDL
