MODEL 1
REMARK minimizedAffinity -5.23541355
REMARK minimizedRMSD -1
REMARK  0 active torsions:
REMARK  status: ('A' for Active; 'I' for Inactive)
ROOT
ATOM      1  C   UNL d   1      -1.714  -1.426   2.508  0.00  0.00     0.077 C 
ATOM      2  C1  UNL d   1      -0.722  -0.950   1.489  0.00  0.00    -0.074 A 
ATOM      3  C2  UNL d   1       0.464  -1.653   1.256  0.00  0.00    -0.005 A 
ATOM      4  C3  UNL d   1       1.372  -1.204   0.298  0.00  0.00     0.006 A 
ATOM      5  C4  UNL d   1       1.105  -0.048  -0.436  0.00  0.00    -0.005 A 
ATOM      6  C5  UNL d   1      -0.077   0.669  -0.218  0.00  0.00    -0.074 A 
ATOM      7  C6  UNL d   1      -0.384   1.908  -1.005  0.00  0.00     0.077 C 
ATOM      8  C7  UNL d   1      -0.988   0.207   0.741  0.00  0.00    -0.001 A 
ENDROOT
TORSDOF 0
ENDMDL
