MODEL 1
REMARK minimizedAffinity -4.30924749
REMARK minimizedRMSD -1
REMARK  0 active torsions:
REMARK  status: ('A' for Active; 'I' for Inactive)
ROOT
ATOM      1  C   UNL d   1      -1.625  -1.940   2.938  0.00  0.00     0.077 C 
ATOM      2  C1  UNL d   1      -0.419  -1.549   2.137  0.00  0.00    -0.074 A 
ATOM      3  C2  UNL d   1       0.808  -2.194   2.324  0.00  0.00    -0.005 A 
ATOM      4  C3  UNL d   1       1.919  -1.826   1.565  0.00  0.00     0.006 A 
ATOM      5  C4  UNL d   1       1.814  -0.811   0.613  0.00  0.00    -0.005 A 
ATOM      6  C5  UNL d   1       0.596  -0.155   0.412  0.00  0.00    -0.074 A 
ATOM      7  C6  UNL d   1       0.464   0.931  -0.614  0.00  0.00     0.077 C 
ATOM      8  C7  UNL d   1      -0.518  -0.536   1.173  0.00  0.00    -0.001 A 
ENDROOT
TORSDOF 0
ENDMDL
