MODEL 1
REMARK minimizedAffinity -4.58770752
REMARK minimizedRMSD -1
REMARK  0 active torsions:
REMARK  status: ('A' for Active; 'I' for Inactive)
ROOT
ATOM      1  C   UNL d   1       0.246  -2.732   1.800  0.00  0.00     0.077 C 
ATOM      2  C1  UNL d   1       0.633  -1.656   0.829  0.00  0.00    -0.074 A 
ATOM      3  C2  UNL d   1       1.915  -1.620   0.271  0.00  0.00    -0.005 A 
ATOM      4  C3  UNL d   1       2.258  -0.619  -0.638  0.00  0.00     0.006 A 
ATOM      5  C4  UNL d   1       1.324   0.354  -0.997  0.00  0.00    -0.005 A 
ATOM      6  C5  UNL d   1       0.037   0.333  -0.450  0.00  0.00    -0.074 A 
ATOM      7  C6  UNL d   1      -0.982   1.365  -0.833  0.00  0.00     0.077 C 
ATOM      8  C7  UNL d   1      -0.302  -0.680   0.457  0.00  0.00    -0.001 A 
ENDROOT
TORSDOF 0
ENDMDL
