MODEL 1
REMARK minimizedAffinity -3.64133549
REMARK minimizedRMSD -1
REMARK  0 active torsions:
REMARK  status: ('A' for Active; 'I' for Inactive)
ROOT
ATOM      1  C   UNL d   1       0.094   0.755  -0.997  0.00  0.00     0.077 C 
ATOM      2  C1  UNL d   1       0.347  -0.312   0.026  0.00  0.00    -0.074 A 
ATOM      3  C2  UNL d   1       1.509  -1.090  -0.020  0.00  0.00    -0.005 A 
ATOM      4  C3  UNL d   1       1.736  -2.073   0.944  0.00  0.00     0.006 A 
ATOM      5  C4  UNL d   1       0.804  -2.287   1.961  0.00  0.00    -0.005 A 
ATOM      6  C5  UNL d   1      -0.362  -1.519   2.023  0.00  0.00    -0.074 A 
ATOM      7  C6  UNL d   1      -1.369  -1.730   3.115  0.00  0.00     0.077 C 
ATOM      8  C7  UNL d   1      -0.580  -0.529   1.055  0.00  0.00    -0.001 A 
ENDROOT
TORSDOF 0
ENDMDL
