MODEL 1
REMARK minimizedAffinity -4.92722893
REMARK minimizedRMSD -1
REMARK  0 active torsions:
REMARK  status: ('A' for Active; 'I' for Inactive)
ROOT
ATOM      1  C   UNL d   1      -1.550  -1.744   2.680  0.00  0.00     0.077 C 
ATOM      2  C1  UNL d   1      -0.252  -1.509   1.966  0.00  0.00    -0.074 A 
ATOM      3  C2  UNL d   1       0.919  -2.156   2.372  0.00  0.00    -0.005 A 
ATOM      4  C3  UNL d   1       2.117  -1.935   1.693  0.00  0.00     0.006 A 
ATOM      5  C4  UNL d   1       2.156  -1.066   0.601  0.00  0.00    -0.005 A 
ATOM      6  C5  UNL d   1       0.994  -0.411   0.180  0.00  0.00    -0.074 A 
ATOM      7  C6  UNL d   1       1.016   0.518  -0.997  0.00  0.00     0.077 C 
ATOM      8  C7  UNL d   1      -0.207  -0.644   0.864  0.00  0.00    -0.001 A 
ENDROOT
TORSDOF 0
ENDMDL
