MODEL 1
REMARK minimizedAffinity -3.48177958
REMARK minimizedRMSD -1
REMARK  0 active torsions:
REMARK  status: ('A' for Active; 'I' for Inactive)
ROOT
ATOM      1  C   UNL d   1       1.257  -2.766   0.720  0.00  0.00     0.077 C 
ATOM      2  C1  UNL d   1       1.130  -1.350   0.243  0.00  0.00    -0.074 A 
ATOM      3  C2  UNL d   1       2.200  -0.704  -0.384  0.00  0.00    -0.005 A 
ATOM      4  C3  UNL d   1       2.064   0.611  -0.831  0.00  0.00     0.006 A 
ATOM      5  C4  UNL d   1       0.859   1.291  -0.656  0.00  0.00    -0.005 A 
ATOM      6  C5  UNL d   1      -0.223   0.661  -0.032  0.00  0.00    -0.074 A 
ATOM      7  C6  UNL d   1      -1.528   1.375   0.155  0.00  0.00     0.077 C 
ATOM      8  C7  UNL d   1      -0.080  -0.662   0.408  0.00  0.00    -0.001 A 
ENDROOT
TORSDOF 0
ENDMDL
