MODEL 1
REMARK minimizedAffinity -3.79369235
REMARK minimizedRMSD -1
REMARK  0 active torsions:
REMARK  status: ('A' for Active; 'I' for Inactive)
ROOT
ATOM      1  C   UNL d   1       1.121  -3.196   1.491  0.00  0.00     0.077 C 
ATOM      2  C1  UNL d   1       1.131  -1.942   0.669  0.00  0.00    -0.074 A 
ATOM      3  C2  UNL d   1       2.251  -1.589  -0.090  0.00  0.00    -0.005 A 
ATOM      4  C3  UNL d   1       2.242  -0.424  -0.858  0.00  0.00     0.006 A 
ATOM      5  C4  UNL d   1       1.114   0.397  -0.875  0.00  0.00    -0.005 A 
ATOM      6  C5  UNL d   1      -0.016   0.060  -0.123  0.00  0.00    -0.074 A 
ATOM      7  C6  UNL d   1      -1.240   0.927  -0.137  0.00  0.00     0.077 C 
ATOM      8  C7  UNL d   1      -0.001  -1.115   0.641  0.00  0.00    -0.001 A 
ENDROOT
TORSDOF 0
ENDMDL
