MODEL 1
REMARK minimizedAffinity -5.07345629
REMARK minimizedRMSD -1
REMARK  0 active torsions:
REMARK  status: ('A' for Active; 'I' for Inactive)
ROOT
ATOM      1  C   UNL d   1      -1.983   0.339   2.006  0.00  0.00     0.077 C 
ATOM      2  C1  UNL d   1      -0.758   0.051   1.189  0.00  0.00    -0.074 A 
ATOM      3  C2  UNL d   1      -0.203   1.029   0.358  0.00  0.00    -0.005 A 
ATOM      4  C3  UNL d   1       0.942   0.750  -0.388  0.00  0.00     0.006 A 
ATOM      5  C4  UNL d   1       1.541  -0.508  -0.312  0.00  0.00    -0.005 A 
ATOM      6  C5  UNL d   1       1.000  -1.498   0.514  0.00  0.00    -0.074 A 
ATOM      7  C6  UNL d   1       1.638  -2.852   0.616  0.00  0.00     0.077 C 
ATOM      8  C7  UNL d   1      -0.146  -1.207   1.267  0.00  0.00    -0.001 A 
ENDROOT
TORSDOF 0
ENDMDL
