MODEL 1
REMARK minimizedAffinity -2.8668294
REMARK minimizedRMSD -1
REMARK  0 active torsions:
REMARK  status: ('A' for Active; 'I' for Inactive)
ROOT
ATOM      1  C   UNL d   1      -1.304   2.255  -1.605  0.00  0.00     0.077 C 
ATOM      2  C1  UNL d   1      -0.808   1.173  -0.693  0.00  0.00    -0.074 A 
ATOM      3  C2  UNL d   1       0.479   0.646  -0.837  0.00  0.00    -0.005 A 
ATOM      4  C3  UNL d   1       0.930  -0.354   0.025  0.00  0.00     0.006 A 
ATOM      5  C4  UNL d   1       0.099  -0.836   1.037  0.00  0.00    -0.005 A 
ATOM      6  C5  UNL d   1      -1.191  -0.320   1.197  0.00  0.00    -0.074 A 
ATOM      7  C6  UNL d   1      -2.092  -0.820   2.286  0.00  0.00     0.077 C 
ATOM      8  C7  UNL d   1      -1.634   0.689   0.331  0.00  0.00    -0.001 A 
ENDROOT
TORSDOF 0
ENDMDL
