MODEL 1
REMARK minimizedAffinity -4.04702902
REMARK minimizedRMSD -1
REMARK  0 active torsions:
REMARK  status: ('A' for Active; 'I' for Inactive)
ROOT
ATOM      1  C   UNL d   1       1.834  -3.083   1.347  0.00  0.00     0.077 C 
ATOM      2  C1  UNL d   1       0.694  -2.108   1.374  0.00  0.00    -0.074 A 
ATOM      3  C2  UNL d   1      -0.236  -2.119   2.418  0.00  0.00    -0.005 A 
ATOM      4  C3  UNL d   1      -1.286  -1.200   2.435  0.00  0.00     0.006 A 
ATOM      5  C4  UNL d   1      -1.416  -0.263   1.409  0.00  0.00    -0.005 A 
ATOM      6  C5  UNL d   1      -0.495  -0.237   0.357  0.00  0.00    -0.074 A 
ATOM      7  C6  UNL d   1      -0.614   0.770  -0.748  0.00  0.00     0.077 C 
ATOM      8  C7  UNL d   1       0.561  -1.159   0.351  0.00  0.00    -0.001 A 
ENDROOT
TORSDOF 0
ENDMDL
