MODEL 1
REMARK minimizedAffinity -6.13499022
REMARK minimizedRMSD -1
REMARK  0 active torsions:
REMARK  status: ('A' for Active; 'I' for Inactive)
ROOT
ATOM      1  C   UNL d   1       1.281  -0.029  -0.644  0.00  0.00     0.077 C 
ATOM      2  C1  UNL d   1       0.963  -1.036   0.421  0.00  0.00    -0.074 A 
ATOM      3  C2  UNL d   1       1.840  -2.090   0.698  0.00  0.00    -0.005 A 
ATOM      4  C3  UNL d   1       1.536  -3.014   1.698  0.00  0.00     0.006 A 
ATOM      5  C4  UNL d   1       0.355  -2.893   2.431  0.00  0.00    -0.005 A 
ATOM      6  C5  UNL d   1      -0.534  -1.845   2.169  0.00  0.00    -0.074 A 
ATOM      7  C6  UNL d   1      -1.803  -1.695   2.953  0.00  0.00     0.077 C 
ATOM      8  C7  UNL d   1      -0.218  -0.917   1.167  0.00  0.00    -0.001 A 
ENDROOT
TORSDOF 0
ENDMDL
