MODEL 1
REMARK minimizedAffinity 17.5182285
REMARK minimizedRMSD -1
REMARK  2 active torsions:
REMARK  status: ('A' for Active; 'I' for Inactive)
REMARK    1  A    between atoms: C2'_3  and  C1'_4 
REMARK    2  A    between atoms: C1'_4  and  C1_5 
ROOT
ATOM      1  C1  I4B d   1       3.111   3.756   5.122  0.00  0.00    -0.075 A 
ATOM      2  C2  I4B d   1       3.897   4.468   5.994  0.00  0.00     0.003 A 
ATOM      3  C3  I4B d   1       5.001   5.213   5.513  0.00  0.00     0.002 A 
ATOM      4  C4  I4B d   1       5.310   5.179   4.169  0.00  0.00    -0.004 A 
ATOM      5  C5  I4B d   1       4.499   4.476   3.283  0.00  0.00     0.002 A 
ATOM      6  C6  I4B d   1       3.385   3.770   3.761  0.00  0.00     0.003 A 
ENDROOT
BRANCH   1   7
ATOM      7  C1' I4B d   1       1.973   2.954   5.669  0.00  0.00     0.060 C 
BRANCH   7   8
ATOM      8  C2' I4B d   1       1.441   2.078   4.552  0.00  0.00    -0.013 C 
ATOM      9  C4' I4B d   1       1.638   0.618   4.863  0.00  0.00     0.013 C 
ATOM     10  C3' I4B d   1      -0.011   2.401   4.363  0.00  0.00     0.013 C 
ENDBRANCH   7   8
ENDBRANCH   1   7
TORSDOF 2
ENDMDL
