MODEL 1
REMARK minimizedAffinity 16.430315
REMARK minimizedRMSD -1
REMARK  2 active torsions:
REMARK  status: ('A' for Active; 'I' for Inactive)
REMARK    1  A    between atoms: C2'_3  and  C1'_4 
REMARK    2  A    between atoms: C1'_4  and  C1_5 
ROOT
ATOM      1  C1  I4B d   1      -0.718   2.897   3.367  0.00  0.00    -0.075 A 
ATOM      2  C2  I4B d   1      -1.827   3.627   3.018  0.00  0.00     0.003 A 
ATOM      3  C3  I4B d   1      -1.960   4.138   1.704  0.00  0.00     0.002 A 
ATOM      4  C4  I4B d   1      -0.944   3.939   0.792  0.00  0.00    -0.004 A 
ATOM      5  C5  I4B d   1       0.169   3.180   1.140  0.00  0.00     0.002 A 
ATOM      6  C6  I4B d   1       0.278   2.645   2.432  0.00  0.00     0.003 A 
ENDROOT
BRANCH   1   7
ATOM      7  C1' I4B d   1      -0.595   2.401   4.773  0.00  0.00     0.060 C 
BRANCH   7   8
ATOM      8  C2' I4B d   1       0.620   1.497   4.844  0.00  0.00    -0.013 C 
ATOM      9  C4' I4B d   1       1.572   1.948   5.920  0.00  0.00     0.013 C 
ATOM     10  C3' I4B d   1       0.142   0.098   5.094  0.00  0.00     0.013 C 
ENDBRANCH   7   8
ENDBRANCH   1   7
TORSDOF 2
ENDMDL
