MODEL 1
REMARK minimizedAffinity 10.4309044
REMARK minimizedRMSD -1
REMARK  2 active torsions:
REMARK  status: ('A' for Active; 'I' for Inactive)
REMARK    1  A    between atoms: C2'_3  and  C1'_4 
REMARK    2  A    between atoms: C1'_4  and  C1_5 
ROOT
ATOM      1  C1  I4B d   1       3.577   0.276  -1.308  0.00  0.00    -0.075 A 
ATOM      2  C2  I4B d   1       3.769   0.140  -2.660  0.00  0.00     0.003 A 
ATOM      3  C3  I4B d   1       4.881   0.753  -3.287  0.00  0.00     0.002 A 
ATOM      4  C4  I4B d   1       5.742   1.528  -2.538  0.00  0.00    -0.004 A 
ATOM      5  C5  I4B d   1       5.559   1.645  -1.163  0.00  0.00     0.002 A 
ATOM      6  C6  I4B d   1       4.477   1.005  -0.541  0.00  0.00     0.003 A 
ENDROOT
BRANCH   1   7
ATOM      7  C1' I4B d   1       2.374  -0.357  -0.683  0.00  0.00     0.060 C 
BRANCH   7   8
ATOM      8  C2' I4B d   1       1.189  -0.104  -1.593  0.00  0.00    -0.013 C 
ATOM      9  C4' I4B d   1       0.134  -1.165  -1.420  0.00  0.00     0.013 C 
ATOM     10  C3' I4B d   1       0.645   1.257  -1.278  0.00  0.00     0.013 C 
ENDBRANCH   7   8
ENDBRANCH   1   7
TORSDOF 2
ENDMDL
