MODEL 1
REMARK minimizedAffinity 4.6017108
REMARK minimizedRMSD -1
REMARK  0 active torsions:
REMARK  status: ('A' for Active; 'I' for Inactive)
ROOT
ATOM      1  C1  DEN d   1      -0.775   2.203  -1.292  0.00  0.00     0.130 A 
ATOM      2  C2  DEN d   1      -0.245   3.416  -1.908  0.00  0.00    -0.031 A 
ATOM      3  C3  DEN d   1       0.317   4.264  -0.838  0.00  0.00     0.027 A 
ATOM      4  C4  DEN d   1       0.421   3.816   1.700  0.00  0.00     0.027 A 
ATOM      5  C5  DEN d   1       0.089   2.926   2.698  0.00  0.00    -0.003 A 
ATOM      6  C6  DEN d   1      -0.579   1.758   2.441  0.00  0.00     0.001 A 
ATOM      7  C7  DEN d   1      -0.897   1.427   1.151  0.00  0.00     0.017 A 
ATOM      8  C8  DEN d   1      -0.572   2.323   0.140  0.00  0.00    -0.094 A 
ATOM      9  C9  DEN d   1       0.114   3.493   0.418  0.00  0.00    -0.072 A 
ENDROOT
TORSDOF 0
ENDMDL
