MODEL 1
REMARK minimizedAffinity 2.10975194
REMARK minimizedRMSD -1
REMARK  0 active torsions:
REMARK  status: ('A' for Active; 'I' for Inactive)
ROOT
ATOM      1  C1  DEN d   1      -0.936   3.526  -2.836  0.00  0.00     0.130 A 
ATOM      2  C2  DEN d   1      -1.645   2.269  -3.056  0.00  0.00    -0.031 A 
ATOM      3  C3  DEN d   1      -1.613   1.500  -1.795  0.00  0.00     0.027 A 
ATOM      4  C4  DEN d   1      -0.544   2.134   0.465  0.00  0.00     0.027 A 
ATOM      5  C5  DEN d   1       0.179   3.097   1.134  0.00  0.00    -0.003 A 
ATOM      6  C6  DEN d   1       0.606   4.245   0.523  0.00  0.00     0.001 A 
ATOM      7  C7  DEN d   1       0.276   4.481  -0.786  0.00  0.00     0.017 A 
ATOM      8  C8  DEN d   1      -0.446   3.512  -1.469  0.00  0.00    -0.094 A 
ATOM      9  C9  DEN d   1      -0.880   2.363  -0.830  0.00  0.00    -0.072 A 
ENDROOT
TORSDOF 0
ENDMDL
