MODEL 1
REMARK minimizedAffinity -1.46701026
REMARK minimizedRMSD -1
REMARK  0 active torsions:
REMARK  status: ('A' for Active; 'I' for Inactive)
ROOT
ATOM      1  C1  DEN d   1       0.337   3.924   1.715  0.00  0.00     0.130 A 
ATOM      2  C2  DEN d   1      -0.224   2.895   2.585  0.00  0.00    -0.031 A 
ATOM      3  C3  DEN d   1      -0.906   1.899   1.734  0.00  0.00     0.027 A 
ATOM      4  C4  DEN d   1      -1.140   1.848  -0.834  0.00  0.00     0.027 A 
ATOM      5  C5  DEN d   1      -0.840   2.513  -2.002  0.00  0.00    -0.003 A 
ATOM      6  C6  DEN d   1      -0.161   3.703  -2.011  0.00  0.00     0.001 A 
ATOM      7  C7  DEN d   1       0.280   4.242  -0.831  0.00  0.00     0.017 A 
ATOM      8  C8  DEN d   1      -0.026   3.581   0.352  0.00  0.00    -0.094 A 
ATOM      9  C9  DEN d   1      -0.703   2.373   0.339  0.00  0.00    -0.072 A 
ENDROOT
TORSDOF 0
ENDMDL
