MODEL 1
REMARK minimizedAffinity 12.6826496
REMARK minimizedRMSD -1
REMARK  0 active torsions:
REMARK  status: ('A' for Active; 'I' for Inactive)
ROOT
ATOM      1  C1  DEN d   1      -1.039   2.512  -2.293  0.00  0.00     0.130 A 
ATOM      2  C2  DEN d   1      -1.038   3.414  -3.441  0.00  0.00    -0.031 A 
ATOM      3  C3  DEN d   1      -0.232   4.600  -3.089  0.00  0.00     0.027 A 
ATOM      4  C4  DEN d   1       1.012   5.123  -0.891  0.00  0.00     0.027 A 
ATOM      5  C5  DEN d   1       1.293   4.663   0.377  0.00  0.00    -0.003 A 
ATOM      6  C6  DEN d   1       0.792   3.480   0.852  0.00  0.00     0.001 A 
ATOM      7  C7  DEN d   1       0.021   2.693   0.037  0.00  0.00     0.017 A 
ATOM      8  C8  DEN d   1      -0.273   3.154  -1.240  0.00  0.00    -0.094 A 
ATOM      9  C9  DEN d   1       0.253   4.347  -1.705  0.00  0.00    -0.072 A 
ENDROOT
TORSDOF 0
ENDMDL
