MODEL 1
REMARK minimizedAffinity 18.7710018
REMARK minimizedRMSD -1
REMARK  0 active torsions:
REMARK  status: ('A' for Active; 'I' for Inactive)
ROOT
ATOM      1  C1  DEN d   1       0.487   3.214  -3.019  0.00  0.00     0.130 A 
ATOM      2  C2  DEN d   1      -0.739   2.981  -3.777  0.00  0.00    -0.031 A 
ATOM      3  C3  DEN d   1      -1.758   2.456  -2.846  0.00  0.00     0.027 A 
ATOM      4  C4  DEN d   1      -1.558   1.989  -0.317  0.00  0.00     0.027 A 
ATOM      5  C5  DEN d   1      -0.708   2.020   0.766  0.00  0.00    -0.003 A 
ATOM      6  C6  DEN d   1       0.599   2.416   0.658  0.00  0.00     0.001 A 
ATOM      7  C7  DEN d   1       1.082   2.839  -0.552  0.00  0.00     0.017 A 
ATOM      8  C8  DEN d   1       0.233   2.804  -1.650  0.00  0.00    -0.094 A 
ATOM      9  C9  DEN d   1      -1.089   2.412  -1.518  0.00  0.00    -0.072 A 
ENDROOT
TORSDOF 0
ENDMDL
