MODEL 1
REMARK minimizedAffinity 7.48523903
REMARK minimizedRMSD -1
REMARK  0 active torsions:
REMARK  status: ('A' for Active; 'I' for Inactive)
ROOT
ATOM      1  C1  DEN d   1      -0.445   2.857  -2.740  0.00  0.00     0.130 A 
ATOM      2  C2  DEN d   1      -1.552   3.558  -3.383  0.00  0.00    -0.031 A 
ATOM      3  C3  DEN d   1      -1.951   4.680  -2.510  0.00  0.00     0.027 A 
ATOM      4  C4  DEN d   1      -0.963   5.399  -0.239  0.00  0.00     0.027 A 
ATOM      5  C5  DEN d   1      -0.017   5.103   0.718  0.00  0.00    -0.003 A 
ATOM      6  C6  DEN d   1       0.823   4.027   0.607  0.00  0.00     0.001 A 
ATOM      7  C7  DEN d   1       0.764   3.232  -0.508  0.00  0.00     0.017 A 
ATOM      8  C8  DEN d   1      -0.192   3.520  -1.474  0.00  0.00    -0.094 A 
ATOM      9  C9  DEN d   1      -1.024   4.620  -1.348  0.00  0.00    -0.072 A 
ENDROOT
TORSDOF 0
ENDMDL
