MODEL 1
REMARK minimizedAffinity 7.1878891
REMARK minimizedRMSD -1
REMARK  0 active torsions:
REMARK  status: ('A' for Active; 'I' for Inactive)
ROOT
ATOM      1  C1  DEN d   1      -2.117   5.156   1.048  0.00  0.00     0.130 A 
ATOM      2  C2  DEN d   1      -3.034   6.000   0.287  0.00  0.00    -0.031 A 
ATOM      3  C3  DEN d   1      -2.678   5.888  -1.142  0.00  0.00     0.027 A 
ATOM      4  C4  DEN d   1      -0.809   4.494  -2.244  0.00  0.00     0.027 A 
ATOM      5  C5  DEN d   1       0.234   3.627  -2.005  0.00  0.00    -0.003 A 
ATOM      6  C6  DEN d   1       0.586   3.239  -0.739  0.00  0.00     0.001 A 
ATOM      7  C7  DEN d   1      -0.142   3.683   0.334  0.00  0.00     0.017 A 
ATOM      8  C8  DEN d   1      -1.190   4.563   0.101  0.00  0.00    -0.094 A 
ATOM      9  C9  DEN d   1      -1.537   4.935  -1.187  0.00  0.00    -0.072 A 
ENDROOT
TORSDOF 0
ENDMDL
