MODEL 1
REMARK minimizedAffinity 8.66033173
REMARK minimizedRMSD -1
REMARK  0 active torsions:
REMARK  status: ('A' for Active; 'I' for Inactive)
ROOT
ATOM      1  C1  DEN d   1      -1.848   2.873  -3.135  0.00  0.00     0.130 A 
ATOM      2  C2  DEN d   1      -2.710   1.698  -3.041  0.00  0.00    -0.031 A 
ATOM      3  C3  DEN d   1      -2.493   1.078  -1.718  0.00  0.00     0.027 A 
ATOM      4  C4  DEN d   1      -0.918   1.822   0.184  0.00  0.00     0.027 A 
ATOM      5  C5  DEN d   1       0.021   2.756   0.563  0.00  0.00    -0.003 A 
ATOM      6  C6  DEN d   1       0.425   3.765  -0.270  0.00  0.00     0.001 A 
ATOM      7  C7  DEN d   1      -0.146   3.892  -1.509  0.00  0.00     0.017 A 
ATOM      8  C8  DEN d   1      -1.088   2.951  -1.901  0.00  0.00    -0.094 A 
ATOM      9  C9  DEN d   1      -1.492   1.944  -1.040  0.00  0.00    -0.072 A 
ENDROOT
TORSDOF 0
ENDMDL
