MODEL 1
REMARK minimizedAffinity 2.72129536
REMARK minimizedRMSD -1
REMARK  0 active torsions:
REMARK  status: ('A' for Active; 'I' for Inactive)
ROOT
ATOM      1  C1  DEN d   1       0.261   4.562  -1.924  0.00  0.00     0.130 A 
ATOM      2  C2  DEN d   1       0.920   5.049  -0.715  0.00  0.00    -0.031 A 
ATOM      3  C3  DEN d   1       0.639   4.093   0.375  0.00  0.00     0.027 A 
ATOM      4  C4  DEN d   1      -0.743   1.916   0.307  0.00  0.00     0.027 A 
ATOM      5  C5  DEN d   1      -1.506   1.095  -0.493  0.00  0.00    -0.003 A 
ATOM      6  C6  DEN d   1      -1.760   1.388  -1.807  0.00  0.00     0.001 A 
ATOM      7  C7  DEN d   1      -1.208   2.507  -2.372  0.00  0.00     0.017 A 
ATOM      8  C8  DEN d   1      -0.444   3.343  -1.569  0.00  0.00    -0.094 A 
ATOM      9  C9  DEN d   1      -0.189   3.024  -0.247  0.00  0.00    -0.072 A 
ENDROOT
TORSDOF 0
ENDMDL
