MODEL 1
REMARK minimizedAffinity 10.5079603
REMARK minimizedRMSD -1
REMARK  0 active torsions:
REMARK  status: ('A' for Active; 'I' for Inactive)
ROOT
ATOM      1  C1  DEN d   1       0.337   3.065  -0.264  0.00  0.00     0.130 A 
ATOM      2  C2  DEN d   1       0.422   4.051   0.811  0.00  0.00    -0.031 A 
ATOM      3  C3  DEN d   1      -0.175   5.310   0.323  0.00  0.00     0.027 A 
ATOM      4  C4  DEN d   1      -1.223   5.826  -1.976  0.00  0.00     0.027 A 
ATOM      5  C5  DEN d   1      -1.513   5.308  -3.219  0.00  0.00    -0.003 A 
ATOM      6  C6  DEN d   1      -1.180   4.027  -3.573  0.00  0.00     0.001 A 
ATOM      7  C7  DEN d   1      -0.576   3.206  -2.658  0.00  0.00     0.017 A 
ATOM      8  C8  DEN d   1      -0.273   3.724  -1.405  0.00  0.00    -0.094 A 
ATOM      9  C9  DEN d   1      -0.630   5.017  -1.062  0.00  0.00    -0.072 A 
ENDROOT
TORSDOF 0
ENDMDL
