MODEL 1
REMARK minimizedAffinity 12.5288763
REMARK minimizedRMSD -1
REMARK  0 active torsions:
REMARK  status: ('A' for Active; 'I' for Inactive)
ROOT
ATOM      1  C1  DEN d   1       0.020   4.099  -3.829  0.00  0.00     0.130 A 
ATOM      2  C2  DEN d   1      -1.330   3.652  -4.160  0.00  0.00    -0.031 A 
ATOM      3  C3  DEN d   1      -2.011   3.286  -2.902  0.00  0.00     0.027 A 
ATOM      4  C4  DEN d   1      -1.112   3.371  -0.486  0.00  0.00     0.027 A 
ATOM      5  C5  DEN d   1      -0.018   3.671   0.295  0.00  0.00    -0.003 A 
ATOM      6  C6  DEN d   1       1.167   4.098  -0.243  0.00  0.00     0.001 A 
ATOM      7  C7  DEN d   1       1.272   4.282  -1.596  0.00  0.00     0.017 A 
ATOM      8  C8  DEN d   1       0.175   3.974  -2.391  0.00  0.00    -0.094 A 
ATOM      9  C9  DEN d   1      -1.018   3.555  -1.827  0.00  0.00    -0.072 A 
ENDROOT
TORSDOF 0
ENDMDL
