MODEL 1
REMARK minimizedAffinity 16.2409439
REMARK minimizedRMSD -1
REMARK  0 active torsions:
REMARK  status: ('A' for Active; 'I' for Inactive)
ROOT
ATOM      1  C1  DEN d   1      -0.532   1.501  -0.601  0.00  0.00     0.130 A 
ATOM      2  C2  DEN d   1      -0.299   1.314   0.829  0.00  0.00    -0.031 A 
ATOM      3  C3  DEN d   1       0.347   2.536   1.349  0.00  0.00     0.027 A 
ATOM      4  C4  DEN d   1       1.000   4.689   0.087  0.00  0.00     0.027 A 
ATOM      5  C5  DEN d   1       1.013   5.310  -1.142  0.00  0.00    -0.003 A 
ATOM      6  C6  DEN d   1       0.546   4.696  -2.274  0.00  0.00     0.001 A 
ATOM      7  C7  DEN d   1       0.005   3.440  -2.192  0.00  0.00     0.017 A 
ATOM      8  C8  DEN d   1      -0.004   2.805  -0.957  0.00  0.00    -0.094 A 
ATOM      9  C9  DEN d   1       0.461   3.447   0.178  0.00  0.00    -0.072 A 
ENDROOT
TORSDOF 0
ENDMDL
