MODEL 1
REMARK minimizedAffinity 7.15009594
REMARK minimizedRMSD -1
REMARK  0 active torsions:
REMARK  status: ('A' for Active; 'I' for Inactive)
ROOT
ATOM      1  C1  DEN d   1      -2.660   0.693   2.889  0.00  0.00     0.130 A 
ATOM      2  C2  DEN d   1      -1.613   1.608   2.443  0.00  0.00    -0.031 A 
ATOM      3  C3  DEN d   1      -0.310   0.944   2.646  0.00  0.00     0.027 A 
ATOM      4  C4  DEN d   1       0.186  -1.401   3.597  0.00  0.00     0.027 A 
ATOM      5  C5  DEN d   1      -0.379  -2.542   4.122  0.00  0.00    -0.003 A 
ATOM      6  C6  DEN d   1      -1.730  -2.671   4.302  0.00  0.00     0.001 A 
ATOM      7  C7  DEN d   1      -2.567  -1.658   3.914  0.00  0.00     0.017 A 
ATOM      8  C8  DEN d   1      -2.004  -0.501   3.391  0.00  0.00    -0.094 A 
ATOM      9  C9  DEN d   1      -0.636  -0.395   3.204  0.00  0.00    -0.072 A 
ENDROOT
TORSDOF 0
ENDMDL
