MODEL 1
REMARK minimizedAffinity 0.0413836092
REMARK minimizedRMSD -1
REMARK  0 active torsions:
REMARK  status: ('A' for Active; 'I' for Inactive)
ROOT
ATOM      1  C1  DEN d   1      -5.001  -2.087   5.287  0.00  0.00     0.130 A 
ATOM      2  C2  DEN d   1      -5.997  -3.090   5.656  0.00  0.00    -0.031 A 
ATOM      3  C3  DEN d   1      -5.283  -4.337   6.000  0.00  0.00     0.027 A 
ATOM      4  C4  DEN d   1      -2.748  -4.808   6.000  0.00  0.00     0.027 A 
ATOM      5  C5  DEN d   1      -1.506  -4.268   5.748  0.00  0.00    -0.003 A 
ATOM      6  C6  DEN d   1      -1.345  -2.985   5.296  0.00  0.00     0.001 A 
ATOM      7  C7  DEN d   1      -2.442  -2.184   5.124  0.00  0.00     0.017 A 
ATOM      8  C8  DEN d   1      -3.698  -2.723   5.370  0.00  0.00    -0.094 A 
ATOM      9  C9  DEN d   1      -3.839  -4.018   5.838  0.00  0.00    -0.072 A 
ENDROOT
TORSDOF 0
ENDMDL
