MODEL 1
REMARK minimizedAffinity 9.31404781
REMARK minimizedRMSD -1
REMARK  0 active torsions:
REMARK  status: ('A' for Active; 'I' for Inactive)
ROOT
ATOM      1  C1  DEN d   1      -1.666   0.597   3.469  0.00  0.00     0.130 A 
ATOM      2  C2  DEN d   1      -0.353   1.089   3.061  0.00  0.00    -0.031 A 
ATOM      3  C3  DEN d   1       0.578  -0.057   3.041  0.00  0.00     0.027 A 
ATOM      4  C4  DEN d   1       0.114  -2.534   3.593  0.00  0.00     0.027 A 
ATOM      5  C5  DEN d   1      -0.848  -3.432   4.000  0.00  0.00    -0.003 A 
ATOM      6  C6  DEN d   1      -2.130  -3.048   4.289  0.00  0.00     0.001 A 
ATOM      7  C7  DEN d   1      -2.498  -1.738   4.131  0.00  0.00     0.017 A 
ATOM      8  C8  DEN d   1      -1.532  -0.825   3.728  0.00  0.00    -0.094 A 
ATOM      9  C9  DEN d   1      -0.244  -1.235   3.430  0.00  0.00    -0.072 A 
ENDROOT
TORSDOF 0
ENDMDL
