MODEL 1
REMARK minimizedAffinity 7.79717636
REMARK minimizedRMSD -1
REMARK  0 active torsions:
REMARK  status: ('A' for Active; 'I' for Inactive)
ROOT
ATOM      1  C1  DEN d   1      -0.758   4.631  -0.355  0.00  0.00     0.130 A 
ATOM      2  C2  DEN d   1      -0.308   5.999  -0.111  0.00  0.00    -0.031 A 
ATOM      3  C3  DEN d   1       0.519   5.997   1.112  0.00  0.00     0.027 A 
ATOM      4  C4  DEN d   1       1.148   4.018   2.642  0.00  0.00     0.027 A 
ATOM      5  C5  DEN d   1       0.993   2.665   2.848  0.00  0.00    -0.003 A 
ATOM      6  C6  DEN d   1       0.221   1.885   2.027  0.00  0.00     0.001 A 
ATOM      7  C7  DEN d   1      -0.387   2.444   0.935  0.00  0.00     0.017 A 
ATOM      8  C8  DEN d   1      -0.241   3.809   0.725  0.00  0.00    -0.094 A 
ATOM      9  C9  DEN d   1       0.552   4.578   1.559  0.00  0.00    -0.072 A 
ENDROOT
TORSDOF 0
ENDMDL
