MODEL 1
REMARK minimizedAffinity 10.2850409
REMARK minimizedRMSD -1
REMARK  1 active torsions:
REMARK  status: ('A' for Active; 'I' for Inactive)
REMARK    1  A    between atoms: C1_2  and  C2_3 
ROOT
ATOM      1  C2  UNL d   1      -3.283   1.907  -2.728  0.00  0.00    -0.081 A 
ATOM      2  C3  UNL d   1      -3.137   2.243  -4.079  0.00  0.00     0.006 A 
ATOM      3  C4  UNL d   1      -3.561   3.489  -4.549  0.00  0.00     0.002 A 
ATOM      4  C5  UNL d   1      -4.131   4.421  -3.674  0.00  0.00    -0.080 A 
ATOM      5  C6  UNL d   1      -4.562   5.773  -4.159  0.00  0.00     0.076 C 
ATOM      6  C7  UNL d   1      -4.292   4.078  -2.327  0.00  0.00     0.002 A 
ATOM      7  C8  UNL d   1      -3.869   2.832  -1.858  0.00  0.00     0.006 A 
ENDROOT
BRANCH   1   8
ATOM      8  C1  UNL d   1      -2.768   0.590  -2.206  0.00  0.00     0.054 C 
ATOM      9  C   UNL d   1      -1.785   0.794  -1.062  0.00  0.00     0.018 C 
ENDBRANCH   1   8
TORSDOF 1
ENDMDL
