MODEL 1
REMARK minimizedAffinity 7.25147581
REMARK minimizedRMSD -1
REMARK  1 active torsions:
REMARK  status: ('A' for Active; 'I' for Inactive)
REMARK    1  A    between atoms: C1_2  and  C2_3 
ROOT
ATOM      1  C2  UNL d   1      -3.752   2.046  -3.787  0.00  0.00    -0.081 A 
ATOM      2  C3  UNL d   1      -3.945   3.257  -3.111  0.00  0.00     0.006 A 
ATOM      3  C4  UNL d   1      -4.145   4.442  -3.824  0.00  0.00     0.002 A 
ATOM      4  C5  UNL d   1      -4.162   4.434  -5.223  0.00  0.00    -0.080 A 
ATOM      5  C6  UNL d   1      -4.406   5.694  -6.000  0.00  0.00     0.076 C 
ATOM      6  C7  UNL d   1      -3.952   3.227  -5.898  0.00  0.00     0.002 A 
ATOM      7  C8  UNL d   1      -3.751   2.043  -5.186  0.00  0.00     0.006 A 
ENDROOT
BRANCH   1   8
ATOM      8  C1  UNL d   1      -3.600   0.757  -3.021  0.00  0.00     0.054 C 
ATOM      9  C   UNL d   1      -2.365   0.783  -2.132  0.00  0.00     0.018 C 
ENDBRANCH   1   8
TORSDOF 1
ENDMDL
