MODEL 1
REMARK minimizedAffinity 10.6710033
REMARK minimizedRMSD -1
REMARK  1 active torsions:
REMARK  status: ('A' for Active; 'I' for Inactive)
REMARK    1  A    between atoms: C1_2  and  C2_3 
ROOT
ATOM      1  C2  UNL d   1       1.730  -0.111   4.332  0.00  0.00    -0.081 A 
ATOM      2  C3  UNL d   1       2.518  -0.833   5.238  0.00  0.00     0.006 A 
ATOM      3  C4  UNL d   1       2.902  -2.146   4.953  0.00  0.00     0.002 A 
ATOM      4  C5  UNL d   1       2.513  -2.755   3.755  0.00  0.00    -0.080 A 
ATOM      5  C6  UNL d   1       2.944  -4.153   3.424  0.00  0.00     0.076 C 
ATOM      6  C7  UNL d   1       1.712  -2.040   2.858  0.00  0.00     0.002 A 
ATOM      7  C8  UNL d   1       1.327  -0.728   3.143  0.00  0.00     0.006 A 
ENDROOT
BRANCH   1   8
ATOM      8  C1  UNL d   1       1.369   1.326   4.607  0.00  0.00     0.054 C 
ATOM      9  C   UNL d   1       1.833   1.758   5.990  0.00  0.00     0.018 C 
ENDBRANCH   1   8
TORSDOF 1
ENDMDL
