MODEL 1
REMARK minimizedAffinity 5.57166195
REMARK minimizedRMSD -1
REMARK  1 active torsions:
REMARK  status: ('A' for Active; 'I' for Inactive)
REMARK    1  A    between atoms: C1_2  and  C2_3 
ROOT
ATOM      1  C2  UNL d   1       2.486  -1.908   1.866  0.00  0.00    -0.081 A 
ATOM      2  C3  UNL d   1       1.834  -0.821   2.461  0.00  0.00     0.006 A 
ATOM      3  C4  UNL d   1       1.425  -0.884   3.795  0.00  0.00     0.002 A 
ATOM      4  C5  UNL d   1       1.667  -2.032   4.558  0.00  0.00    -0.080 A 
ATOM      5  C6  UNL d   1       1.260  -2.102   6.000  0.00  0.00     0.076 C 
ATOM      6  C7  UNL d   1       2.303  -3.124   3.959  0.00  0.00     0.002 A 
ATOM      7  C8  UNL d   1       2.712  -3.061   2.624  0.00  0.00     0.006 A 
ENDROOT
BRANCH   1   8
ATOM      8  C1  UNL d   1       2.986  -1.818   0.447  0.00  0.00     0.054 C 
ATOM      9  C   UNL d   1       4.325  -2.523   0.286  0.00  0.00     0.018 C 
ENDBRANCH   1   8
TORSDOF 1
ENDMDL
