MODEL 1
REMARK minimizedAffinity -4.8912406
REMARK minimizedRMSD -1
REMARK  0 active torsions:
REMARK  status: ('A' for Active; 'I' for Inactive)
ROOT
ATOM      1  C1  BNZ d   1       1.745   0.745   0.311  0.00  0.00     0.000 A 
ATOM      2  C2  BNZ d   1       2.759   0.406  -0.544  0.00  0.00     0.000 A 
ATOM      3  C3  BNZ d   1       2.642  -0.672  -1.376  0.00  0.00     0.000 A 
ATOM      4  C4  BNZ d   1       1.530  -1.433  -1.323  0.00  0.00     0.000 A 
ATOM      5  C5  BNZ d   1       0.502  -1.109  -0.459  0.00  0.00     0.000 A 
ATOM      6  C6  BNZ d   1       0.608  -0.000   0.349  0.00  0.00     0.000 A 
ENDROOT
TORSDOF 0
ENDMDL
