MODEL 1
REMARK minimizedAffinity -1.00376427
REMARK minimizedRMSD -1
REMARK  0 active torsions:
REMARK  status: ('A' for Active; 'I' for Inactive)
ROOT
ATOM      1  C1  BNZ d   1       0.111   0.560  -0.201  0.00  0.00     0.000 A 
ATOM      2  C2  BNZ d   1       1.118   0.490  -1.126  0.00  0.00     0.000 A 
ATOM      3  C3  BNZ d   1       1.598  -0.718  -1.547  0.00  0.00     0.000 A 
ATOM      4  C4  BNZ d   1       1.100  -1.852  -1.014  0.00  0.00     0.000 A 
ATOM      5  C5  BNZ d   1       0.091  -1.798  -0.073  0.00  0.00     0.000 A 
ATOM      6  C6  BNZ d   1      -0.417  -0.581   0.319  0.00  0.00     0.000 A 
ENDROOT
TORSDOF 0
ENDMDL
