MODEL 1
REMARK minimizedAffinity -4.81566238
REMARK minimizedRMSD -1
REMARK  0 active torsions:
REMARK  status: ('A' for Active; 'I' for Inactive)
ROOT
ATOM      1  C1  BNZ d   1      -0.007   0.472  -0.837  0.00  0.00     0.000 A 
ATOM      2  C2  BNZ d   1       0.029  -0.480   0.147  0.00  0.00     0.000 A 
ATOM      3  C3  BNZ d   1       1.006  -1.435   0.161  0.00  0.00     0.000 A 
ATOM      4  C4  BNZ d   1       1.922  -1.462  -0.829  0.00  0.00     0.000 A 
ATOM      5  C5  BNZ d   1       1.893  -0.515  -1.833  0.00  0.00     0.000 A 
ATOM      6  C6  BNZ d   1       0.931   0.468  -1.823  0.00  0.00     0.000 A 
ENDROOT
TORSDOF 0
ENDMDL
