MODEL 1
REMARK minimizedAffinity -4.10088015
REMARK minimizedRMSD -1
REMARK  0 active torsions:
REMARK  status: ('A' for Active; 'I' for Inactive)
ROOT
ATOM      1  C1  BNZ d   1       1.472   0.208  -1.475  0.00  0.00     0.000 A 
ATOM      2  C2  BNZ d   1       0.552   1.222  -1.480  0.00  0.00     0.000 A 
ATOM      3  C3  BNZ d   1      -0.628   1.098  -0.801  0.00  0.00     0.000 A 
ATOM      4  C4  BNZ d   1      -0.903  -0.052  -0.152  0.00  0.00     0.000 A 
ATOM      5  C5  BNZ d   1       0.011  -1.086  -0.146  0.00  0.00     0.000 A 
ATOM      6  C6  BNZ d   1       1.215  -0.944  -0.798  0.00  0.00     0.000 A 
ENDROOT
TORSDOF 0
ENDMDL
