MODEL 1
REMARK minimizedAffinity -4.53384924
REMARK minimizedRMSD -1
REMARK  0 active torsions:
REMARK  status: ('A' for Active; 'I' for Inactive)
ROOT
ATOM      1  C1  BNZ d   1      -0.039  -1.069  -0.310  0.00  0.00     0.000 A 
ATOM      2  C2  BNZ d   1       1.227  -1.063  -0.830  0.00  0.00     0.000 A 
ATOM      3  C3  BNZ d   1       1.789   0.095  -1.292  0.00  0.00     0.000 A 
ATOM      4  C4  BNZ d   1       1.069   1.235  -1.270  0.00  0.00     0.000 A 
ATOM      5  C5  BNZ d   1      -0.213   1.243  -0.757  0.00  0.00     0.000 A 
ATOM      6  C6  BNZ d   1      -0.760   0.084  -0.257  0.00  0.00     0.000 A 
ENDROOT
TORSDOF 0
ENDMDL
