MODEL 1
REMARK minimizedAffinity -4.00214767
REMARK minimizedRMSD -1
REMARK  0 active torsions:
REMARK  status: ('A' for Active; 'I' for Inactive)
ROOT
ATOM      1  C1  BNZ d   1       2.019  -1.073  -1.553  0.00  0.00     0.000 A 
ATOM      2  C2  BNZ d   1       0.794  -1.180  -0.949  0.00  0.00     0.000 A 
ATOM      3  C3  BNZ d   1       0.475  -0.400   0.127  0.00  0.00     0.000 A 
ATOM      4  C4  BNZ d   1       1.393   0.455   0.622  0.00  0.00     0.000 A 
ATOM      5  C5  BNZ d   1       2.635   0.567   0.030  0.00  0.00     0.000 A 
ATOM      6  C6  BNZ d   1       2.939  -0.191  -1.077  0.00  0.00     0.000 A 
ENDROOT
TORSDOF 0
ENDMDL
