MODEL 1
REMARK minimizedAffinity -4.26686239
REMARK minimizedRMSD -1
REMARK  0 active torsions:
REMARK  status: ('A' for Active; 'I' for Inactive)
ROOT
ATOM      1  C1  BNZ d   1      -0.575   0.318  -0.554  0.00  0.00     0.000 A 
ATOM      2  C2  BNZ d   1       0.581   0.689  -1.187  0.00  0.00     0.000 A 
ATOM      3  C3  BNZ d   1       1.662  -0.148  -1.217  0.00  0.00     0.000 A 
ATOM      4  C4  BNZ d   1       1.599  -1.335  -0.581  0.00  0.00     0.000 A 
ATOM      5  C5  BNZ d   1       0.444  -1.719   0.070  0.00  0.00     0.000 A 
ATOM      6  C6  BNZ d   1      -0.655  -0.891   0.065  0.00  0.00     0.000 A 
ENDROOT
TORSDOF 0
ENDMDL
