MODEL 1
REMARK minimizedAffinity -3.88418794
REMARK minimizedRMSD -1
REMARK  0 active torsions:
REMARK  status: ('A' for Active; 'I' for Inactive)
ROOT
ATOM      1  C1  BNZ d   1       1.054   0.545  -1.125  0.00  0.00     0.000 A 
ATOM      2  C2  BNZ d   1      -0.138   0.471  -0.454  0.00  0.00     0.000 A 
ATOM      3  C3  BNZ d   1      -0.514  -0.681   0.179  0.00  0.00     0.000 A 
ATOM      4  C4  BNZ d   1       0.281  -1.767   0.106  0.00  0.00     0.000 A 
ATOM      5  C5  BNZ d   1       1.481  -1.711  -0.574  0.00  0.00     0.000 A 
ATOM      6  C6  BNZ d   1       1.875  -0.539  -1.177  0.00  0.00     0.000 A 
ENDROOT
TORSDOF 0
ENDMDL
