MODEL 1
REMARK minimizedAffinity -5.0360322
REMARK minimizedRMSD -1
REMARK  0 active torsions:
REMARK  status: ('A' for Active; 'I' for Inactive)
ROOT
ATOM      1  C1  BNZ d   1       0.230  -1.782  -0.536  0.00  0.00     0.000 A 
ATOM      2  C2  BNZ d   1       1.574  -1.797  -0.800  0.00  0.00     0.000 A 
ATOM      3  C3  BNZ d   1       2.255  -0.634  -1.031  0.00  0.00     0.000 A 
ATOM      4  C4  BNZ d   1       1.584   0.536  -1.038  0.00  0.00     0.000 A 
ATOM      5  C5  BNZ d   1       0.228   0.566  -0.782  0.00  0.00     0.000 A 
ATOM      6  C6  BNZ d   1      -0.446  -0.602  -0.511  0.00  0.00     0.000 A 
ENDROOT
TORSDOF 0
ENDMDL
