MODEL 1
REMARK minimizedAffinity -3.7433002
REMARK minimizedRMSD -1
REMARK  0 active torsions:
REMARK  status: ('A' for Active; 'I' for Inactive)
ROOT
ATOM      1  C1  BNZ d   1      -0.652   0.940   2.020  0.00  0.00     0.000 A 
ATOM      2  C2  BNZ d   1       0.612   0.803   1.509  0.00  0.00     0.000 A 
ATOM      3  C3  BNZ d   1       0.811   0.264   0.268  0.00  0.00     0.000 A 
ATOM      4  C4  BNZ d   1      -0.249  -0.174  -0.442  0.00  0.00     0.000 A 
ATOM      5  C5  BNZ d   1      -1.528  -0.052   0.063  0.00  0.00     0.000 A 
ATOM      6  C6  BNZ d   1      -1.727   0.527   1.296  0.00  0.00     0.000 A 
ENDROOT
TORSDOF 0
ENDMDL
