MODEL 1
REMARK minimizedAffinity -4.55333471
REMARK minimizedRMSD -1
REMARK  0 active torsions:
REMARK  status: ('A' for Active; 'I' for Inactive)
ROOT
ATOM      1  C1  BNZ d   1      -0.181  -0.627   0.193  0.00  0.00     0.000 A 
ATOM      2  C2  BNZ d   1       0.712  -1.616  -0.123  0.00  0.00     0.000 A 
ATOM      3  C3  BNZ d   1       1.825  -1.342  -0.868  0.00  0.00     0.000 A 
ATOM      4  C4  BNZ d   1       2.022  -0.090  -1.329  0.00  0.00     0.000 A 
ATOM      5  C5  BNZ d   1       1.126   0.916  -1.026  0.00  0.00     0.000 A 
ATOM      6  C6  BNZ d   1       0.028   0.645  -0.244  0.00  0.00     0.000 A 
ENDROOT
TORSDOF 0
ENDMDL
