MODEL 1
REMARK minimizedAffinity 0.280311912
REMARK minimizedRMSD -1
REMARK  0 active torsions:
REMARK  status: ('A' for Active; 'I' for Inactive)
ROOT
ATOM      1  C   UNL d   1      -1.155  -0.020  -1.290  0.00  0.00     0.124 A 
ATOM      2  C1  UNL d   1       0.221  -0.202  -1.287  0.00  0.00     0.062 A 
ATOM      3  C2  UNL d   1       0.905  -0.345  -0.084  0.00  0.00     0.162 A 
ATOM      4  C3  UNL d   1       0.215  -0.306   1.127  0.00  0.00    -0.034 A 
ATOM      5  C4  UNL d   1      -1.169  -0.121   1.117  0.00  0.00     0.162 A 
ATOM      6  C5  UNL d   1      -1.849   0.020  -0.089  0.00  0.00     0.062 A 
ATOM      7  F   UNL d   1      -3.178   0.197  -0.090  0.00  0.00    -0.097 F 
ATOM      8  F1  UNL d   1      -1.864  -0.080   2.263  0.00  0.00    -0.096 F 
ATOM      9  I   UNL d   1       1.235  -0.519   2.929  0.00  0.00    -0.060 I 
ATOM     10  F2  UNL d   1       2.235  -0.520  -0.111  0.00  0.00    -0.096 F 
ATOM     11  F3  UNL d   1       0.893  -0.241  -2.447  0.00  0.00    -0.097 F 
ATOM     12  F4  UNL d   1      -1.811   0.118  -2.450  0.00  0.00    -0.092 F 
ENDROOT
TORSDOF 0
ENDMDL
