MODEL 1
REMARK minimizedAffinity -1.23719871
REMARK minimizedRMSD -1
REMARK  0 active torsions:
REMARK  status: ('A' for Active; 'I' for Inactive)
ROOT
ATOM      1  C   UNL d   1      -0.259  -0.157   2.463  0.00  0.00     0.124 A 
ATOM      2  C1  UNL d   1      -1.301   0.193   1.615  0.00  0.00     0.062 A 
ATOM      3  C2  UNL d   1      -1.090   0.267   0.241  0.00  0.00     0.162 A 
ATOM      4  C3  UNL d   1       0.167  -0.010  -0.294  0.00  0.00    -0.034 A 
ATOM      5  C4  UNL d   1       1.211  -0.361   0.564  0.00  0.00     0.162 A 
ATOM      6  C5  UNL d   1       0.995  -0.434   1.937  0.00  0.00     0.062 A 
ATOM      7  F   UNL d   1       2.003  -0.772   2.754  0.00  0.00    -0.097 F 
ATOM      8  F1  UNL d   1       2.432  -0.634   0.083  0.00  0.00    -0.096 F 
ATOM      9  I   UNL d   1       0.486   0.099  -2.348  0.00  0.00    -0.060 I 
ATOM     10  F2  UNL d   1      -2.115   0.608  -0.554  0.00  0.00    -0.096 F 
ATOM     11  F3  UNL d   1      -2.513   0.462   2.121  0.00  0.00    -0.097 F 
ATOM     12  F4  UNL d   1      -0.463  -0.227   3.784  0.00  0.00    -0.092 F 
ENDROOT
TORSDOF 0
ENDMDL
