MODEL 1
REMARK minimizedAffinity -1.45946395
REMARK minimizedRMSD -1
REMARK  0 active torsions:
REMARK  status: ('A' for Active; 'I' for Inactive)
ROOT
ATOM      1  C   UNL d   1       1.743  -0.845   1.940  0.00  0.00     0.124 A 
ATOM      2  C1  UNL d   1       0.462  -0.386   2.215  0.00  0.00     0.062 A 
ATOM      3  C2  UNL d   1      -0.353   0.074   1.184  0.00  0.00     0.162 A 
ATOM      4  C3  UNL d   1       0.111   0.077  -0.132  0.00  0.00    -0.034 A 
ATOM      5  C4  UNL d   1       1.401  -0.385  -0.400  0.00  0.00     0.162 A 
ATOM      6  C5  UNL d   1       2.211  -0.844   0.634  0.00  0.00     0.062 A 
ATOM      7  F   UNL d   1       3.448  -1.286   0.367  0.00  0.00    -0.097 F 
ATOM      8  F1  UNL d   1       1.878  -0.396  -1.653  0.00  0.00    -0.096 F 
ATOM      9  I   UNL d   1      -1.104   0.763  -1.675  0.00  0.00    -0.060 I 
ATOM     10  F2  UNL d   1      -1.586   0.511   1.478  0.00  0.00    -0.096 F 
ATOM     11  F3  UNL d   1       0.007  -0.386   3.476  0.00  0.00    -0.097 F 
ATOM     12  F4  UNL d   1       2.525  -1.286   2.934  0.00  0.00    -0.092 F 
ENDROOT
TORSDOF 0
ENDMDL
