MODEL 1
REMARK minimizedAffinity 0.26782763
REMARK minimizedRMSD -1
REMARK  0 active torsions:
REMARK  status: ('A' for Active; 'I' for Inactive)
ROOT
ATOM      1  C   UNL d   1       1.160  -1.250   2.074  0.00  0.00     0.124 A 
ATOM      2  C1  UNL d   1       1.847  -1.031   0.888  0.00  0.00     0.062 A 
ATOM      3  C2  UNL d   1       1.203  -0.438  -0.194  0.00  0.00     0.162 A 
ATOM      4  C3  UNL d   1      -0.136  -0.059  -0.095  0.00  0.00    -0.034 A 
ATOM      5  C4  UNL d   1      -0.820  -0.285   1.100  0.00  0.00     0.162 A 
ATOM      6  C5  UNL d   1      -0.172  -0.877   2.179  0.00  0.00     0.062 A 
ATOM      7  F   UNL d   1      -0.837  -1.089   3.324  0.00  0.00    -0.097 F 
ATOM      8  F1  UNL d   1      -2.108   0.067   1.230  0.00  0.00    -0.096 F 
ATOM      9  I   UNL d   1      -1.102   0.827  -1.711  0.00  0.00    -0.060 I 
ATOM     10  F2  UNL d   1       1.891  -0.237  -1.328  0.00  0.00    -0.096 F 
ATOM     11  F3  UNL d   1       3.134  -1.391   0.784  0.00  0.00    -0.097 F 
ATOM     12  F4  UNL d   1       1.782  -1.822   3.113  0.00  0.00    -0.092 F 
ENDROOT
TORSDOF 0
ENDMDL
