MODEL 1
REMARK minimizedAffinity -0.288261145
REMARK minimizedRMSD -1
REMARK  0 active torsions:
REMARK  status: ('A' for Active; 'I' for Inactive)
ROOT
ATOM      1  C   UNL d   1       1.123  -0.874   2.382  0.00  0.00     0.124 A 
ATOM      2  C1  UNL d   1       1.924  -0.711   1.261  0.00  0.00     0.062 A 
ATOM      3  C2  UNL d   1       1.385  -0.199   0.084  0.00  0.00     0.162 A 
ATOM      4  C3  UNL d   1       0.036   0.153   0.022  0.00  0.00    -0.034 A 
ATOM      5  C4  UNL d   1      -0.763  -0.014   1.154  0.00  0.00     0.162 A 
ATOM      6  C5  UNL d   1      -0.219  -0.526   2.328  0.00  0.00     0.062 A 
ATOM      7  F   UNL d   1      -0.995  -0.683   3.411  0.00  0.00    -0.097 F 
ATOM      8  F1  UNL d   1      -2.063   0.315   1.130  0.00  0.00    -0.096 F 
ATOM      9  I   UNL d   1      -0.774   0.918  -1.736  0.00  0.00    -0.060 I 
ATOM     10  F2  UNL d   1       2.182  -0.052  -0.985  0.00  0.00    -0.096 F 
ATOM     11  F3  UNL d   1       3.221  -1.047   1.310  0.00  0.00    -0.097 F 
ATOM     12  F4  UNL d   1       1.644  -1.367   3.513  0.00  0.00    -0.092 F 
ENDROOT
TORSDOF 0
ENDMDL
