MODEL 1
REMARK minimizedAffinity 4.73218393
REMARK minimizedRMSD -1
REMARK  0 active torsions:
REMARK  status: ('A' for Active; 'I' for Inactive)
ROOT
ATOM      1  C   UNL d   1       0.897  -1.205   1.238  0.00  0.00     0.124 A 
ATOM      2  C1  UNL d   1      -0.134  -0.348   1.599  0.00  0.00     0.062 A 
ATOM      3  C2  UNL d   1      -0.728   0.474   0.646  0.00  0.00     0.162 A 
ATOM      4  C3  UNL d   1      -0.293   0.443  -0.679  0.00  0.00    -0.034 A 
ATOM      5  C4  UNL d   1       0.744  -0.421  -1.035  0.00  0.00     0.162 A 
ATOM      6  C5  UNL d   1       1.335  -1.240  -0.079  0.00  0.00     0.062 A 
ATOM      7  F   UNL d   1       2.330  -2.067  -0.430  0.00  0.00    -0.097 F 
ATOM      8  F1  UNL d   1       1.186  -0.476  -2.300  0.00  0.00    -0.096 F 
ATOM      9  I   UNL d   1      -1.179   1.671  -2.107  0.00  0.00    -0.060 I 
ATOM     10  F2  UNL d   1      -1.721   1.292   1.024  0.00  0.00    -0.096 F 
ATOM     11  F3  UNL d   1      -0.558  -0.311   2.871  0.00  0.00    -0.097 F 
ATOM     12  F4  UNL d   1       1.467  -1.994   2.157  0.00  0.00    -0.092 F 
ENDROOT
TORSDOF 0
ENDMDL
