MODEL 1
REMARK minimizedAffinity 2.09362411
REMARK minimizedRMSD -1
REMARK  0 active torsions:
REMARK  status: ('A' for Active; 'I' for Inactive)
ROOT
ATOM      1  C   UNL d   1       0.743  -1.324   2.116  0.00  0.00     0.124 A 
ATOM      2  C1  UNL d   1       1.489  -0.482   1.303  0.00  0.00     0.062 A 
ATOM      3  C2  UNL d   1       0.872   0.223   0.273  0.00  0.00     0.162 A 
ATOM      4  C3  UNL d   1      -0.498   0.089   0.050  0.00  0.00    -0.034 A 
ATOM      5  C4  UNL d   1      -1.241  -0.761   0.871  0.00  0.00     0.162 A 
ATOM      6  C5  UNL d   1      -0.621  -1.463   1.899  0.00  0.00     0.062 A 
ATOM      7  F   UNL d   1      -1.343  -2.277   2.684  0.00  0.00    -0.097 F 
ATOM      8  F1  UNL d   1      -2.561  -0.913   0.685  0.00  0.00    -0.096 F 
ATOM      9  I   UNL d   1      -1.423   1.141  -1.489  0.00  0.00    -0.060 I 
ATOM     10  F2  UNL d   1       1.618   1.030  -0.497  0.00  0.00    -0.096 F 
ATOM     11  F3  UNL d   1       2.807  -0.347   1.509  0.00  0.00    -0.097 F 
ATOM     12  F4  UNL d   1       1.339  -2.002   3.106  0.00  0.00    -0.092 F 
ENDROOT
TORSDOF 0
ENDMDL
