MODEL 1
REMARK minimizedAffinity -1.47364116
REMARK minimizedRMSD -1
REMARK  0 active torsions:
REMARK  status: ('A' for Active; 'I' for Inactive)
ROOT
ATOM      1  C   UNL d   1       0.112  -0.803   1.404  0.00  0.00     0.124 A 
ATOM      2  C1  UNL d   1      -0.942  -0.777   0.501  0.00  0.00     0.062 A 
ATOM      3  C2  UNL d   1      -1.021   0.232  -0.454  0.00  0.00     0.162 A 
ATOM      4  C3  UNL d   1      -0.042   1.224  -0.512  0.00  0.00    -0.034 A 
ATOM      5  C4  UNL d   1       1.014   1.192   0.400  0.00  0.00     0.162 A 
ATOM      6  C5  UNL d   1       1.089   0.181   1.353  0.00  0.00     0.062 A 
ATOM      7  F   UNL d   1       2.107   0.158   2.224  0.00  0.00    -0.097 F 
ATOM      8  F1  UNL d   1       1.973   2.130   0.373  0.00  0.00    -0.096 F 
ATOM      9  I   UNL d   1      -0.156   2.735  -1.938  0.00  0.00    -0.060 I 
ATOM     10  F2  UNL d   1      -2.050   0.233  -1.314  0.00  0.00    -0.096 F 
ATOM     11  F3  UNL d   1      -1.888  -1.726   0.549  0.00  0.00    -0.097 F 
ATOM     12  F4  UNL d   1       0.184  -1.775   2.322  0.00  0.00    -0.092 F 
ENDROOT
TORSDOF 0
ENDMDL
