MODEL 1
REMARK minimizedAffinity -2.67418122
REMARK minimizedRMSD -1
REMARK  0 active torsions:
REMARK  status: ('A' for Active; 'I' for Inactive)
ROOT
ATOM      1  C   UNL d   1       1.107  -0.851   1.935  0.00  0.00     0.124 A 
ATOM      2  C1  UNL d   1       1.708  -0.299   0.812  0.00  0.00     0.062 A 
ATOM      3  C2  UNL d   1       0.938   0.054  -0.292  0.00  0.00     0.162 A 
ATOM      4  C3  UNL d   1      -0.443  -0.142  -0.279  0.00  0.00    -0.034 A 
ATOM      5  C4  UNL d   1      -1.040  -0.698   0.853  0.00  0.00     0.162 A 
ATOM      6  C5  UNL d   1      -0.266  -1.049   1.954  0.00  0.00     0.062 A 
ATOM      7  F   UNL d   1      -0.849  -1.582   3.038  0.00  0.00    -0.097 F 
ATOM      8  F1  UNL d   1      -2.366  -0.900   0.900  0.00  0.00    -0.096 F 
ATOM      9  I   UNL d   1      -1.598   0.386  -1.928  0.00  0.00    -0.060 I 
ATOM     10  F2  UNL d   1       1.546   0.585  -1.364  0.00  0.00    -0.096 F 
ATOM     11  F3  UNL d   1       3.035  -0.107   0.790  0.00  0.00    -0.097 F 
ATOM     12  F4  UNL d   1       1.850  -1.191   2.995  0.00  0.00    -0.092 F 
ENDROOT
TORSDOF 0
ENDMDL
