MODEL 1
REMARK minimizedAffinity -1.00831187
REMARK minimizedRMSD -1
REMARK  0 active torsions:
REMARK  status: ('A' for Active; 'I' for Inactive)
ROOT
ATOM      1  N1  IND d   1       1.030   0.677  -0.008  0.00  0.00    -0.196 N 
ATOM      2  C2  IND d   1      -0.036   0.012   0.532  0.00  0.00     0.054 A 
ATOM      3  C3  IND d   1      -0.820  -0.493  -0.447  0.00  0.00    -0.031 A 
ATOM      4  C4  IND d   1      -0.490  -0.435  -3.000  0.00  0.00     0.051 A 
ATOM      5  C5  IND d   1       0.317   0.089  -3.970  0.00  0.00    -0.031 A 
ATOM      6  C6  IND d   1       1.428   0.848  -3.663  0.00  0.00     0.015 A 
ATOM      7  C7  IND d   1       1.780   1.104  -2.368  0.00  0.00    -0.016 A 
ATOM      8  C8  IND d   1       0.958   0.580  -1.380  0.00  0.00    -0.047 A 
ATOM      9  C9  IND d   1      -0.194  -0.156  -1.687  0.00  0.00    -0.096 A 
ATOM     10  HN1 IND d   1       1.642   1.087   0.435  0.00  0.00     0.298 HD
ENDROOT
TORSDOF 0
ENDMDL
