MODEL 1
REMARK minimizedAffinity -3.31968212
REMARK minimizedRMSD -1
REMARK  0 active torsions:
REMARK  status: ('A' for Active; 'I' for Inactive)
ROOT
ATOM      1  N1  IND d   1      -0.523  -0.976  -1.587  0.00  0.00    -0.196 N 
ATOM      2  C2  IND d   1       0.829  -1.014  -1.786  0.00  0.00     0.054 A 
ATOM      3  C3  IND d   1       1.473  -0.417  -0.759  0.00  0.00    -0.031 A 
ATOM      4  C4  IND d   1       0.515   0.600   1.403  0.00  0.00     0.051 A 
ATOM      5  C5  IND d   1      -0.667   0.901   2.020  0.00  0.00    -0.031 A 
ATOM      6  C6  IND d   1      -1.886   0.583   1.456  0.00  0.00     0.015 A 
ATOM      7  C7  IND d   1      -1.968  -0.061   0.254  0.00  0.00    -0.016 A 
ATOM      8  C8  IND d   1      -0.770  -0.362  -0.378  0.00  0.00    -0.047 A 
ATOM      9  C9  IND d   1       0.469  -0.004   0.169  0.00  0.00    -0.096 A 
ATOM     10  HN1 IND d   1      -1.118  -1.283  -2.125  0.00  0.00     0.298 HD
ENDROOT
TORSDOF 0
ENDMDL
