MODEL 1
REMARK minimizedAffinity -3.70948243
REMARK minimizedRMSD -1
REMARK  0 active torsions:
REMARK  status: ('A' for Active; 'I' for Inactive)
ROOT
ATOM      1  N1  IND d   1      -0.953  -0.943  -0.537  0.00  0.00    -0.196 N 
ATOM      2  C2  IND d   1       0.268  -1.049  -1.143  0.00  0.00     0.054 A 
ATOM      3  C3  IND d   1       1.152  -0.199  -0.574  0.00  0.00    -0.031 A 
ATOM      4  C4  IND d   1       0.839   1.384   1.432  0.00  0.00     0.051 A 
ATOM      5  C5  IND d   1      -0.111   1.856   2.294  0.00  0.00    -0.031 A 
ATOM      6  C6  IND d   1      -1.416   1.408   2.257  0.00  0.00     0.015 A 
ATOM      7  C7  IND d   1      -1.818   0.459   1.361  0.00  0.00    -0.016 A 
ATOM      8  C8  IND d   1      -0.858  -0.017   0.479  0.00  0.00    -0.047 A 
ATOM      9  C9  IND d   1       0.457   0.464   0.484  0.00  0.00    -0.096 A 
ATOM     10  HN1 IND d   1      -1.660  -1.380  -0.754  0.00  0.00     0.298 HD
ENDROOT
TORSDOF 0
ENDMDL
