MODEL 1
REMARK minimizedAffinity -2.81613469
REMARK minimizedRMSD -1
REMARK  0 active torsions:
REMARK  status: ('A' for Active; 'I' for Inactive)
ROOT
ATOM      1  N1  IND d   1      -1.777   0.983   2.137  0.00  0.00    -0.196 N 
ATOM      2  C2  IND d   1      -0.772   1.568   2.855  0.00  0.00     0.054 A 
ATOM      3  C3  IND d   1       0.423   1.338   2.266  0.00  0.00    -0.031 A 
ATOM      4  C4  IND d   1       0.952   0.112   0.065  0.00  0.00     0.051 A 
ATOM      5  C5  IND d   1       0.366  -0.624  -0.926  0.00  0.00    -0.031 A 
ATOM      6  C6  IND d   1      -0.993  -0.864  -0.949  0.00  0.00     0.015 A 
ATOM      7  C7  IND d   1      -1.821  -0.366   0.017  0.00  0.00    -0.016 A 
ATOM      8  C8  IND d   1      -1.228   0.376   1.029  0.00  0.00    -0.047 A 
ATOM      9  C9  IND d   1       0.156   0.587   1.080  0.00  0.00    -0.096 A 
ATOM     10  HN1 IND d   1      -2.612   0.992   2.342  0.00  0.00     0.298 HD
ENDROOT
TORSDOF 0
ENDMDL
