MODEL 1
REMARK minimizedAffinity 0.527896643
REMARK minimizedRMSD -1
REMARK  0 active torsions:
REMARK  status: ('A' for Active; 'I' for Inactive)
ROOT
ATOM      1  N1  IND d   1       0.739  -0.030  -5.469  0.00  0.00    -0.196 N 
ATOM      2  C2  IND d   1      -0.144   0.691  -4.715  0.00  0.00     0.054 A 
ATOM      3  C3  IND d   1       0.485   1.245  -3.654  0.00  0.00    -0.031 A 
ATOM      4  C4  IND d   1       2.978   1.182  -3.016  0.00  0.00     0.051 A 
ATOM      5  C5  IND d   1       4.169   0.619  -3.380  0.00  0.00    -0.031 A 
ATOM      6  C6  IND d   1       4.280  -0.205  -4.482  0.00  0.00     0.015 A 
ATOM      7  C7  IND d   1       3.202  -0.487  -5.271  0.00  0.00    -0.016 A 
ATOM      8  C8  IND d   1       1.990   0.078  -4.902  0.00  0.00    -0.047 A 
ATOM      9  C9  IND d   1       1.862   0.880  -3.760  0.00  0.00    -0.096 A 
ATOM     10  HN1 IND d   1       0.546  -0.477  -6.177  0.00  0.00     0.298 HD
ENDROOT
TORSDOF 0
ENDMDL
