MODEL 1
REMARK minimizedAffinity -3.90168524
REMARK minimizedRMSD -1
REMARK  0 active torsions:
REMARK  status: ('A' for Active; 'I' for Inactive)
ROOT
ATOM      1  N1  IND d   1      -0.802  -0.615  -0.685  0.00  0.00    -0.196 N 
ATOM      2  C2  IND d   1       0.392  -1.076  -1.164  0.00  0.00     0.054 A 
ATOM      3  C3  IND d   1       1.403  -0.698  -0.349  0.00  0.00    -0.031 A 
ATOM      4  C4  IND d   1       1.315   0.596   1.875  0.00  0.00     0.051 A 
ATOM      5  C5  IND d   1       0.452   1.259   2.701  0.00  0.00    -0.031 A 
ATOM      6  C6  IND d   1      -0.901   1.331   2.438  0.00  0.00     0.015 A 
ATOM      7  C7  IND d   1      -1.445   0.730   1.338  0.00  0.00    -0.016 A 
ATOM      8  C8  IND d   1      -0.571   0.061   0.493  0.00  0.00    -0.047 A 
ATOM      9  C9  IND d   1       0.809   0.021   0.733  0.00  0.00    -0.096 A 
ATOM     10  HN1 IND d   1      -1.569  -0.727  -1.058  0.00  0.00     0.298 HD
ENDROOT
TORSDOF 0
ENDMDL
