MODEL 1
REMARK minimizedAffinity -3.96000147
REMARK minimizedRMSD -1
REMARK  0 active torsions:
REMARK  status: ('A' for Active; 'I' for Inactive)
ROOT
ATOM      1  N1  IND d   1       0.705   0.735   1.839  0.00  0.00    -0.196 N 
ATOM      2  C2  IND d   1      -0.381   1.200   2.526  0.00  0.00     0.054 A 
ATOM      3  C3  IND d   1      -1.510   1.009   1.806  0.00  0.00    -0.031 A 
ATOM      4  C4  IND d   1      -1.818  -0.138  -0.478  0.00  0.00     0.051 A 
ATOM      5  C5  IND d   1      -1.113  -0.691  -1.510  0.00  0.00    -0.031 A 
ATOM      6  C6  IND d   1       0.263  -0.801  -1.476  0.00  0.00     0.015 A 
ATOM      7  C7  IND d   1       0.986  -0.371  -0.400  0.00  0.00    -0.016 A 
ATOM      8  C8  IND d   1       0.273   0.197   0.647  0.00  0.00    -0.047 A 
ATOM      9  C9  IND d   1      -1.119   0.351   0.600  0.00  0.00    -0.096 A 
ATOM     10  HN1 IND d   1       1.522   0.773   2.107  0.00  0.00     0.298 HD
ENDROOT
TORSDOF 0
ENDMDL
