MODEL 1
REMARK minimizedAffinity -4.33796406
REMARK minimizedRMSD -1
REMARK  0 active torsions:
REMARK  status: ('A' for Active; 'I' for Inactive)
ROOT
ATOM      1  N1  IND d   1      -1.247  -0.553  -0.599  0.00  0.00    -0.196 N 
ATOM      2  C2  IND d   1      -0.043  -0.677  -1.234  0.00  0.00     0.054 A 
ATOM      3  C3  IND d   1       0.915   0.001  -0.563  0.00  0.00    -0.031 A 
ATOM      4  C4  IND d   1       0.751   1.301   1.653  0.00  0.00     0.051 A 
ATOM      5  C5  IND d   1      -0.150   1.725   2.589  0.00  0.00    -0.031 A 
ATOM      6  C6  IND d   1      -1.490   1.403   2.510  0.00  0.00     0.015 A 
ATOM      7  C7  IND d   1      -1.978   0.632   1.493  0.00  0.00    -0.016 A 
ATOM      8  C8  IND d   1      -1.067   0.205   0.538  0.00  0.00    -0.047 A 
ATOM      9  C9  IND d   1       0.286   0.564   0.589  0.00  0.00    -0.096 A 
ATOM     10  HN1 IND d   1      -1.992  -0.891  -0.864  0.00  0.00     0.298 HD
ENDROOT
TORSDOF 0
ENDMDL
