MODEL 1
REMARK minimizedAffinity 6.10028315
REMARK minimizedRMSD -1
REMARK  2 active torsions:
REMARK  status: ('A' for Active; 'I' for Inactive)
REMARK    1  A    between atoms: C2'_3  and  C1'_4 
REMARK    2  A    between atoms: C1'_4  and  C1_5 
ROOT
ATOM      1  C1  I4B d   1       0.976  -2.459   2.080  0.00  0.00    -0.075 A 
ATOM      2  C2  I4B d   1       1.870  -1.821   1.257  0.00  0.00     0.003 A 
ATOM      3  C3  I4B d   1       2.646  -2.564   0.334  0.00  0.00     0.002 A 
ATOM      4  C4  I4B d   1       2.533  -3.939   0.304  0.00  0.00    -0.004 A 
ATOM      5  C5  I4B d   1       1.610  -4.582   1.123  0.00  0.00     0.002 A 
ATOM      6  C6  I4B d   1       0.817  -3.837   2.008  0.00  0.00     0.003 A 
ENDROOT
BRANCH   1   7
ATOM      7  C1' I4B d   1       0.196  -1.647   3.065  0.00  0.00     0.060 C 
BRANCH   7   8
ATOM      8  C2' I4B d   1      -1.275  -1.932   2.844  0.00  0.00    -0.013 C 
ATOM      9  C4' I4B d   1      -1.695  -3.201   3.540  0.00  0.00     0.013 C 
ATOM     10  C3' I4B d   1      -2.056  -0.755   3.348  0.00  0.00     0.013 C 
ENDBRANCH   7   8
ENDBRANCH   1   7
TORSDOF 2
ENDMDL
