MODEL 1
REMARK minimizedAffinity 7.52609158
REMARK minimizedRMSD -1
REMARK  2 active torsions:
REMARK  status: ('A' for Active; 'I' for Inactive)
REMARK    1  A    between atoms: C2'_3  and  C1'_4 
REMARK    2  A    between atoms: C1'_4  and  C1_5 
ROOT
ATOM      1  C1  I4B d   1       3.520  -4.305   0.194  0.00  0.00    -0.075 A 
ATOM      2  C2  I4B d   1       3.643  -5.553  -0.365  0.00  0.00     0.003 A 
ATOM      3  C3  I4B d   1       4.899  -5.999  -0.845  0.00  0.00     0.002 A 
ATOM      4  C4  I4B d   1       5.986  -5.150  -0.793  0.00  0.00    -0.004 A 
ATOM      5  C5  I4B d   1       5.864  -3.894  -0.206  0.00  0.00     0.002 A 
ATOM      6  C6  I4B d   1       4.627  -3.473   0.302  0.00  0.00     0.003 A 
ENDROOT
BRANCH   1   7
ATOM      7  C1' I4B d   1       2.172  -3.855   0.661  0.00  0.00     0.060 C 
BRANCH   7   8
ATOM      8  C2' I4B d   1       2.129  -2.343   0.571  0.00  0.00    -0.013 C 
ATOM      9  C4' I4B d   1       0.870  -1.873  -0.110  0.00  0.00     0.013 C 
ATOM     10  C3' I4B d   1       2.229  -1.793   1.963  0.00  0.00     0.013 C 
ENDBRANCH   7   8
ENDBRANCH   1   7
TORSDOF 2
ENDMDL
