MODEL 1
REMARK minimizedAffinity 11.8237038
REMARK minimizedRMSD -1
REMARK  2 active torsions:
REMARK  status: ('A' for Active; 'I' for Inactive)
REMARK    1  A    between atoms: C2'_3  and  C1'_4 
REMARK    2  A    between atoms: C1'_4  and  C1_5 
ROOT
ATOM      1  C1  I4B d   1      -4.373   0.277  -2.611  0.00  0.00    -0.075 A 
ATOM      2  C2  I4B d   1      -5.328   0.437  -3.584  0.00  0.00     0.003 A 
ATOM      3  C3  I4B d   1      -6.000  -0.690  -4.115  0.00  0.00     0.002 A 
ATOM      4  C4  I4B d   1      -5.653  -1.954  -3.684  0.00  0.00    -0.004 A 
ATOM      5  C5  I4B d   1      -4.701  -2.113  -2.681  0.00  0.00     0.002 A 
ATOM      6  C6  I4B d   1      -4.066  -0.990  -2.131  0.00  0.00     0.003 A 
ENDROOT
BRANCH   1   7
ATOM      7  C1' I4B d   1      -3.659   1.486  -2.095  0.00  0.00     0.060 C 
BRANCH   7   8
ATOM      8  C2' I4B d   1      -2.912   2.116  -3.253  0.00  0.00    -0.013 C 
ATOM      9  C4' I4B d   1      -3.466   3.476  -3.584  0.00  0.00     0.013 C 
ATOM     10  C3' I4B d   1      -1.462   2.198  -2.878  0.00  0.00     0.013 C 
ENDBRANCH   7   8
ENDBRANCH   1   7
TORSDOF 2
ENDMDL
