MODEL 1
REMARK minimizedAffinity 12.1440773
REMARK minimizedRMSD -1
REMARK  2 active torsions:
REMARK  status: ('A' for Active; 'I' for Inactive)
REMARK    1  A    between atoms: C2'_3  and  C1'_4 
REMARK    2  A    between atoms: C1'_4  and  C1_5 
ROOT
ATOM      1  C1  I4B d   1       1.992  -1.799   1.106  0.00  0.00    -0.075 A 
ATOM      2  C2  I4B d   1       3.258  -2.317   1.214  0.00  0.00     0.003 A 
ATOM      3  C3  I4B d   1       3.509  -3.666   0.865  0.00  0.00     0.002 A 
ATOM      4  C4  I4B d   1       2.462  -4.470   0.464  0.00  0.00    -0.004 A 
ATOM      5  C5  I4B d   1       1.183  -3.937   0.333  0.00  0.00     0.002 A 
ATOM      6  C6  I4B d   1       0.948  -2.590   0.645  0.00  0.00     0.003 A 
ENDROOT
BRANCH   1   7
ATOM      7  C1' I4B d   1       1.756  -0.380   1.515  0.00  0.00     0.060 C 
BRANCH   7   8
ATOM      8  C2' I4B d   1       1.202  -0.386   2.925  0.00  0.00    -0.013 C 
ATOM      9  C4' I4B d   1      -0.041  -1.231   3.019  0.00  0.00     0.013 C 
ATOM     10  C3' I4B d   1       2.273  -0.896   3.842  0.00  0.00     0.013 C 
ENDBRANCH   7   8
ENDBRANCH   1   7
TORSDOF 2
ENDMDL
