MODEL 1
REMARK minimizedAffinity 6.71927595
REMARK minimizedRMSD -1
REMARK  2 active torsions:
REMARK  status: ('A' for Active; 'I' for Inactive)
REMARK    1  A    between atoms: C2'_3  and  C1'_4 
REMARK    2  A    between atoms: C1'_4  and  C1_5 
ROOT
ATOM      1  C1  I4B d   1       0.379  -1.340   2.423  0.00  0.00    -0.075 A 
ATOM      2  C2  I4B d   1       0.488  -1.804   1.135  0.00  0.00     0.003 A 
ATOM      3  C3  I4B d   1       1.738  -1.776   0.471  0.00  0.00     0.002 A 
ATOM      4  C4  I4B d   1       2.835  -1.234   1.109  0.00  0.00    -0.004 A 
ATOM      5  C5  I4B d   1       2.728  -0.786   2.423  0.00  0.00     0.002 A 
ATOM      6  C6  I4B d   1       1.495  -0.850   3.089  0.00  0.00     0.003 A 
ENDROOT
BRANCH   1   7
ATOM      7  C1' I4B d   1      -0.963  -1.354   3.083  0.00  0.00     0.060 C 
BRANCH   7   8
ATOM      8  C2' I4B d   1      -1.794  -2.438   2.428  0.00  0.00    -0.013 C 
ATOM      9  C4' I4B d   1      -2.352  -3.391   3.452  0.00  0.00     0.013 C 
ATOM     10  C3' I4B d   1      -2.892  -1.775   1.651  0.00  0.00     0.013 C 
ENDBRANCH   7   8
ENDBRANCH   1   7
TORSDOF 2
ENDMDL
