MODEL 1
REMARK minimizedAffinity 13.8892984
REMARK minimizedRMSD -1
REMARK  2 active torsions:
REMARK  status: ('A' for Active; 'I' for Inactive)
REMARK    1  A    between atoms: C2'_3  and  C1'_4 
REMARK    2  A    between atoms: C1'_4  and  C1_5 
ROOT
ATOM      1  C1  I4B d   1       0.767  -1.895  -0.529  0.00  0.00    -0.075 A 
ATOM      2  C2  I4B d   1       1.669  -2.925  -0.608  0.00  0.00     0.003 A 
ATOM      3  C3  I4B d   1       2.692  -3.054   0.363  0.00  0.00     0.002 A 
ATOM      4  C4  I4B d   1       2.804  -2.108   1.361  0.00  0.00    -0.004 A 
ATOM      5  C5  I4B d   1       1.874  -1.076   1.453  0.00  0.00     0.002 A 
ATOM      6  C6  I4B d   1       0.841  -0.976   0.510  0.00  0.00     0.003 A 
ENDROOT
BRANCH   1   7
ATOM      7  C1' I4B d   1      -0.280  -1.770  -1.590  0.00  0.00     0.060 C 
BRANCH   7   8
ATOM      8  C2' I4B d   1      -1.075  -0.510  -1.316  0.00  0.00    -0.013 C 
ATOM      9  C4' I4B d   1      -0.856   0.519  -2.394  0.00  0.00     0.013 C 
ATOM     10  C3' I4B d   1      -2.523  -0.888  -1.215  0.00  0.00     0.013 C 
ENDBRANCH   7   8
ENDBRANCH   1   7
TORSDOF 2
ENDMDL
