MODEL 1
REMARK minimizedAffinity 4.92992496
REMARK minimizedRMSD -1
REMARK  1 active torsions:
REMARK  status: ('A' for Active; 'I' for Inactive)
REMARK    1  A    between atoms: N_2  and  C1_3 
ROOT
ATOM      1  C1  UNL d   1       2.332  -5.320   0.082  0.00  0.00     0.143 A 
ATOM      2  C2  UNL d   1       1.129  -5.982   0.351  0.00  0.00    -0.057 A 
ATOM      3  C3  UNL d   1      -0.087  -5.519  -0.168  0.00  0.00     0.033 A 
ATOM      4  C4  UNL d   1      -0.124  -4.364  -0.944  0.00  0.00    -0.042 A 
ATOM      5  C5  UNL d   1       1.057  -3.676  -1.203  0.00  0.00     0.033 A 
ATOM      6  C6  UNL d   1       2.268  -4.148  -0.687  0.00  0.00    -0.057 A 
ENDROOT
BRANCH   1   7
ATOM      7  N   UNL d   1       3.558  -5.675   0.650  0.00  0.00    -0.732 N 
ATOM      8  C   UNL d   1       4.693  -5.996  -0.189  0.00  0.00     0.284 C 
ATOM      9  H3  UNL d   1       3.789  -5.107   1.462  0.00  0.00     0.395 HD
ENDBRANCH   1   7
TORSDOF 1
ENDMDL
