MODEL 1
REMARK minimizedAffinity -3.38236928
REMARK minimizedRMSD -1
REMARK  1 active torsions:
REMARK  status: ('A' for Active; 'I' for Inactive)
REMARK    1  A    between atoms: N_2  and  C1_3 
ROOT
ATOM      1  C1  UNL d   1      -0.481   0.267   0.966  0.00  0.00     0.143 A 
ATOM      2  C2  UNL d   1      -0.935  -1.054   1.043  0.00  0.00    -0.057 A 
ATOM      3  C3  UNL d   1      -0.641  -1.983   0.038  0.00  0.00     0.033 A 
ATOM      4  C4  UNL d   1       0.091  -1.598  -1.081  0.00  0.00    -0.042 A 
ATOM      5  C5  UNL d   1       0.531  -0.283  -1.191  0.00  0.00     0.033 A 
ATOM      6  C6  UNL d   1       0.240   0.638  -0.180  0.00  0.00    -0.057 A 
ENDROOT
BRANCH   1   7
ATOM      7  N   UNL d   1      -0.823   1.262   1.885  0.00  0.00    -0.732 N 
ATOM      8  C   UNL d   1      -0.116   2.524   1.903  0.00  0.00     0.284 C 
ATOM      9  H3  UNL d   1      -1.830   1.347   2.008  0.00  0.00     0.395 HD
ENDBRANCH   1   7
TORSDOF 1
ENDMDL
