MODEL 1
REMARK minimizedAffinity -1.60075641
REMARK minimizedRMSD -1
REMARK  1 active torsions:
REMARK  status: ('A' for Active; 'I' for Inactive)
REMARK    1  A    between atoms: N_2  and  C1_3 
ROOT
ATOM      1  C1  UNL d   1      -0.130  -2.077  -1.019  0.00  0.00     0.143 A 
ATOM      2  C2  UNL d   1      -1.294  -2.255  -1.773  0.00  0.00    -0.057 A 
ATOM      3  C3  UNL d   1      -1.738  -3.533  -2.133  0.00  0.00     0.033 A 
ATOM      4  C4  UNL d   1      -1.006  -4.658  -1.769  0.00  0.00    -0.042 A 
ATOM      5  C5  UNL d   1       0.169  -4.504  -1.041  0.00  0.00     0.033 A 
ATOM      6  C6  UNL d   1       0.603  -3.225  -0.678  0.00  0.00    -0.057 A 
ENDROOT
BRANCH   1   7
ATOM      7  N   UNL d   1       0.416  -0.828  -0.714  0.00  0.00    -0.732 N 
ATOM      8  C   UNL d   1       0.473  -0.363   0.656  0.00  0.00     0.284 C 
ATOM      9  H3  UNL d   1       1.253  -0.626  -1.256  0.00  0.00     0.395 HD
ENDBRANCH   1   7
TORSDOF 1
ENDMDL
