MODEL 1
REMARK minimizedAffinity -5.17178488
REMARK minimizedRMSD -1
REMARK  1 active torsions:
REMARK  status: ('A' for Active; 'I' for Inactive)
REMARK    1  A    between atoms: N_2  and  C1_3 
ROOT
ATOM      1  C1  UNL d   1      -0.209   1.230  -0.250  0.00  0.00     0.143 A 
ATOM      2  C2  UNL d   1      -0.262   1.517   1.118  0.00  0.00    -0.057 A 
ATOM      3  C3  UNL d   1      -0.647   2.781   1.581  0.00  0.00     0.033 A 
ATOM      4  C4  UNL d   1      -0.959   3.793   0.680  0.00  0.00    -0.042 A 
ATOM      5  C5  UNL d   1      -0.890   3.538  -0.685  0.00  0.00     0.033 A 
ATOM      6  C6  UNL d   1      -0.511   2.272  -1.141  0.00  0.00    -0.057 A 
ENDROOT
BRANCH   1   7
ATOM      7  N   UNL d   1       0.261   0.024  -0.775  0.00  0.00    -0.732 N 
ATOM      8  C   UNL d   1       0.872  -0.021  -2.086  0.00  0.00     0.284 C 
ATOM      9  H3  UNL d   1       0.733  -0.546  -0.077  0.00  0.00     0.395 HD
ENDBRANCH   1   7
TORSDOF 1
ENDMDL
