MODEL 1
REMARK minimizedAffinity -3.76061296
REMARK minimizedRMSD -1
REMARK  0 active torsions:
REMARK  status: ('A' for Active; 'I' for Inactive)
ROOT
ATOM      1  C1  BNZ d   1       0.715  -0.239  -1.892  0.00  0.00     0.000 A 
ATOM      2  C2  BNZ d   1       0.179  -1.172  -1.044  0.00  0.00     0.000 A 
ATOM      3  C3  BNZ d   1      -0.758  -0.816  -0.115  0.00  0.00     0.000 A 
ATOM      4  C4  BNZ d   1      -1.129   0.477  -0.008  0.00  0.00     0.000 A 
ATOM      5  C5  BNZ d   1      -0.591   1.430  -0.850  0.00  0.00     0.000 A 
ATOM      6  C6  BNZ d   1       0.324   1.061  -1.810  0.00  0.00     0.000 A 
ENDROOT
TORSDOF 0
ENDMDL
