MODEL 1
REMARK minimizedAffinity -4.28296947
REMARK minimizedRMSD -1
REMARK  0 active torsions:
REMARK  status: ('A' for Active; 'I' for Inactive)
ROOT
ATOM      1  C1  BNZ d   1       0.561   0.498   0.974  0.00  0.00     0.000 A 
ATOM      2  C2  BNZ d   1       1.408   0.354   2.040  0.00  0.00     0.000 A 
ATOM      3  C3  BNZ d   1       0.953   0.498   3.321  0.00  0.00     0.000 A 
ATOM      4  C4  BNZ d   1      -0.338   0.824   3.533  0.00  0.00     0.000 A 
ATOM      5  C5  BNZ d   1      -1.203   0.982   2.469  0.00  0.00     0.000 A 
ATOM      6  C6  BNZ d   1      -0.750   0.799   1.182  0.00  0.00     0.000 A 
ENDROOT
TORSDOF 0
ENDMDL
