MODEL 1
REMARK minimizedAffinity -3.00108194
REMARK minimizedRMSD -1
REMARK  0 active torsions:
REMARK  status: ('A' for Active; 'I' for Inactive)
ROOT
ATOM      1  C1  BNZ d   1      -0.429   0.706   3.106  0.00  0.00     0.000 A 
ATOM      2  C2  BNZ d   1      -1.240   0.785   2.005  0.00  0.00     0.000 A 
ATOM      3  C3  BNZ d   1      -0.757   0.504   0.758  0.00  0.00     0.000 A 
ATOM      4  C4  BNZ d   1       0.544   0.184   0.608  0.00  0.00     0.000 A 
ATOM      5  C5  BNZ d   1       1.377   0.108   1.706  0.00  0.00     0.000 A 
ATOM      6  C6  BNZ d   1       0.878   0.354   2.965  0.00  0.00     0.000 A 
ENDROOT
TORSDOF 0
ENDMDL
