MODEL 1
REMARK minimizedAffinity -2.02846766
REMARK minimizedRMSD -1
REMARK  0 active torsions:
REMARK  status: ('A' for Active; 'I' for Inactive)
ROOT
ATOM      1  C1  BNZ d   1       0.511  -0.823   1.111  0.00  0.00     0.000 A 
ATOM      2  C2  BNZ d   1       0.218  -0.482   2.404  0.00  0.00     0.000 A 
ATOM      3  C3  BNZ d   1      -0.964   0.129   2.717  0.00  0.00     0.000 A 
ATOM      4  C4  BNZ d   1      -1.832   0.435   1.731  0.00  0.00     0.000 A 
ATOM      5  C5  BNZ d   1      -1.547   0.107   0.421  0.00  0.00     0.000 A 
ATOM      6  C6  BNZ d   1      -0.374  -0.544   0.116  0.00  0.00     0.000 A 
ENDROOT
TORSDOF 0
ENDMDL
