MODEL 1
REMARK minimizedAffinity -3.86733222
REMARK minimizedRMSD -1
REMARK  0 active torsions:
REMARK  status: ('A' for Active; 'I' for Inactive)
ROOT
ATOM      1  C1  BNZ d   1      -0.094  -0.403   0.308  0.00  0.00     0.000 A 
ATOM      2  C2  BNZ d   1       0.922  -0.712   1.172  0.00  0.00     0.000 A 
ATOM      3  C3  BNZ d   1       0.829  -0.408   2.501  0.00  0.00     0.000 A 
ATOM      4  C4  BNZ d   1      -0.262   0.240   2.957  0.00  0.00     0.000 A 
ATOM      5  C5  BNZ d   1      -1.292   0.567   2.097  0.00  0.00     0.000 A 
ATOM      6  C6  BNZ d   1      -1.211   0.225   0.767  0.00  0.00     0.000 A 
ENDROOT
TORSDOF 0
ENDMDL
