MODEL 1
REMARK minimizedAffinity -4.24703312
REMARK minimizedRMSD -1
REMARK  0 active torsions:
REMARK  status: ('A' for Active; 'I' for Inactive)
ROOT
ATOM      1  C1  BNZ d   1       0.938   0.537   1.040  0.00  0.00     0.000 A 
ATOM      2  C2  BNZ d   1       0.729   1.109   2.267  0.00  0.00     0.000 A 
ATOM      3  C3  BNZ d   1      -0.508   1.089   2.846  0.00  0.00     0.000 A 
ATOM      4  C4  BNZ d   1      -1.543   0.535   2.182  0.00  0.00     0.000 A 
ATOM      5  C5  BNZ d   1      -1.350  -0.038   0.940  0.00  0.00     0.000 A 
ATOM      6  C6  BNZ d   1      -0.095  -0.051   0.377  0.00  0.00     0.000 A 
ENDROOT
TORSDOF 0
ENDMDL
