MODEL 1
REMARK minimizedAffinity -5.32382727
REMARK minimizedRMSD -1
REMARK  0 active torsions:
REMARK  status: ('A' for Active; 'I' for Inactive)
ROOT
ATOM      1  C1  BNZ d   1       1.138   0.357   3.113  0.00  0.00     0.000 A 
ATOM      2  C2  BNZ d   1      -0.036   1.027   3.328  0.00  0.00     0.000 A 
ATOM      3  C3  BNZ d   1      -0.975   1.128   2.339  0.00  0.00     0.000 A 
ATOM      4  C4  BNZ d   1      -0.722   0.594   1.127  0.00  0.00     0.000 A 
ATOM      5  C5  BNZ d   1       0.462  -0.077   0.892  0.00  0.00     0.000 A 
ATOM      6  C6  BNZ d   1       1.388  -0.210   1.901  0.00  0.00     0.000 A 
ENDROOT
TORSDOF 0
ENDMDL
