MODEL 1
REMARK minimizedAffinity -4.487113
REMARK minimizedRMSD -1
REMARK  0 active torsions:
REMARK  status: ('A' for Active; 'I' for Inactive)
ROOT
ATOM      1  C1  BNZ d   1      -0.101  -0.377   1.048  0.00  0.00     0.000 A 
ATOM      2  C2  BNZ d   1       0.775  -0.798   2.013  0.00  0.00     0.000 A 
ATOM      3  C3  BNZ d   1       0.539  -0.539   3.334  0.00  0.00     0.000 A 
ATOM      4  C4  BNZ d   1      -0.550   0.174   3.685  0.00  0.00     0.000 A 
ATOM      5  C5  BNZ d   1      -1.438   0.613   2.724  0.00  0.00     0.000 A 
ATOM      6  C6  BNZ d   1      -1.218   0.317   1.398  0.00  0.00     0.000 A 
ENDROOT
TORSDOF 0
ENDMDL
