MODEL 1
REMARK minimizedAffinity -4.5906105
REMARK minimizedRMSD -1
REMARK  0 active torsions:
REMARK  status: ('A' for Active; 'I' for Inactive)
ROOT
ATOM      1  C1  BNZ d   1      -0.926   0.515   3.313  0.00  0.00     0.000 A 
ATOM      2  C2  BNZ d   1       0.128   0.206   4.131  0.00  0.00     0.000 A 
ATOM      3  C3  BNZ d   1       1.322  -0.206   3.608  0.00  0.00     0.000 A 
ATOM      4  C4  BNZ d   1       1.448  -0.347   2.273  0.00  0.00     0.000 A 
ATOM      5  C5  BNZ d   1       0.391  -0.049   1.436  0.00  0.00     0.000 A 
ATOM      6  C6  BNZ d   1      -0.797   0.403   1.963  0.00  0.00     0.000 A 
ENDROOT
TORSDOF 0
ENDMDL
