MODEL 1
REMARK minimizedAffinity -2.80551887
REMARK minimizedRMSD -1
REMARK  0 active torsions:
REMARK  status: ('A' for Active; 'I' for Inactive)
ROOT
ATOM      1  C   UNL d   1      -0.486   1.073   2.491  0.00  0.00     0.124 A 
ATOM      2  C1  UNL d   1       0.840   0.817   2.170  0.00  0.00     0.062 A 
ATOM      3  C2  UNL d   1       1.167   0.267   0.934  0.00  0.00     0.162 A 
ATOM      4  C3  UNL d   1       0.167  -0.030   0.008  0.00  0.00    -0.034 A 
ATOM      5  C4  UNL d   1      -1.165   0.229   0.339  0.00  0.00     0.162 A 
ATOM      6  C5  UNL d   1      -1.487   0.779   1.575  0.00  0.00     0.062 A 
ATOM      7  F   UNL d   1      -2.768   1.026   1.883  0.00  0.00    -0.097 F 
ATOM      8  F1  UNL d   1      -2.151  -0.044  -0.528  0.00  0.00    -0.096 F 
ATOM      9  I   UNL d   1       0.652  -0.853  -1.841  0.00  0.00    -0.060 I 
ATOM     10  F2  UNL d   1       2.457   0.030   0.650  0.00  0.00    -0.096 F 
ATOM     11  F3  UNL d   1       1.808   1.100   3.053  0.00  0.00    -0.097 F 
ATOM     12  F4  UNL d   1      -0.798   1.602   3.681  0.00  0.00    -0.092 F 
ENDROOT
TORSDOF 0
ENDMDL
