MODEL 1
REMARK minimizedAffinity 13.1937799
REMARK minimizedRMSD -1
REMARK  0 active torsions:
REMARK  status: ('A' for Active; 'I' for Inactive)
ROOT
ATOM      1  C   UNL d   1      -0.710  -0.330   2.587  0.00  0.00     0.124 A 
ATOM      2  C1  UNL d   1       0.517  -0.268   1.941  0.00  0.00     0.062 A 
ATOM      3  C2  UNL d   1       0.574  -0.105   0.560  0.00  0.00     0.162 A 
ATOM      4  C3  UNL d   1      -0.600  -0.001  -0.185  0.00  0.00    -0.034 A 
ATOM      5  C4  UNL d   1      -1.831  -0.065   0.471  0.00  0.00     0.162 A 
ATOM      6  C5  UNL d   1      -1.882  -0.229   1.852  0.00  0.00     0.062 A 
ATOM      7  F   UNL d   1      -3.069  -0.289   2.474  0.00  0.00    -0.097 F 
ATOM      8  F1  UNL d   1      -2.979   0.031  -0.215  0.00  0.00    -0.096 F 
ATOM      9  I   UNL d   1      -0.520   0.244  -2.250  0.00  0.00    -0.060 I 
ATOM     10  F2  UNL d   1       1.774  -0.048  -0.037  0.00  0.00    -0.096 F 
ATOM     11  F3  UNL d   1       1.652  -0.367   2.649  0.00  0.00    -0.097 F 
ATOM     12  F4  UNL d   1      -0.761  -0.489   3.916  0.00  0.00    -0.092 F 
ENDROOT
TORSDOF 0
ENDMDL
