MODEL 1
REMARK minimizedAffinity 5.21149683
REMARK minimizedRMSD -1
REMARK  0 active torsions:
REMARK  status: ('A' for Active; 'I' for Inactive)
ROOT
ATOM      1  C   UNL d   1      -0.216  -0.057   2.141  0.00  0.00     0.124 A 
ATOM      2  C1  UNL d   1       0.954  -0.542   1.572  0.00  0.00     0.062 A 
ATOM      3  C2  UNL d   1       1.113  -0.542   0.189  0.00  0.00     0.162 A 
ATOM      4  C3  UNL d   1       0.099  -0.054  -0.635  0.00  0.00    -0.034 A 
ATOM      5  C4  UNL d   1      -1.075   0.431  -0.056  0.00  0.00     0.162 A 
ATOM      6  C5  UNL d   1      -1.229   0.429   1.326  0.00  0.00     0.062 A 
ATOM      7  F   UNL d   1      -2.360   0.897   1.873  0.00  0.00    -0.097 F 
ATOM      8  F1  UNL d   1      -2.070   0.907  -0.820  0.00  0.00    -0.096 F 
ATOM      9  I   UNL d   1       0.332  -0.053  -2.703  0.00  0.00    -0.060 I 
ATOM     10  F2  UNL d   1       2.253  -1.017  -0.332  0.00  0.00    -0.096 F 
ATOM     11  F3  UNL d   1       1.934  -1.013   2.357  0.00  0.00    -0.097 F 
ATOM     12  F4  UNL d   1      -0.367  -0.059   3.471  0.00  0.00    -0.092 F 
ENDROOT
TORSDOF 0
ENDMDL
