MODEL 1
REMARK minimizedAffinity 4.59734631
REMARK minimizedRMSD -1
REMARK  0 active torsions:
REMARK  status: ('A' for Active; 'I' for Inactive)
ROOT
ATOM      1  C   UNL d   1      -1.720  -0.316   2.944  0.00  0.00     0.124 A 
ATOM      2  C1  UNL d   1      -0.564  -0.001   3.645  0.00  0.00     0.062 A 
ATOM      3  C2  UNL d   1       0.636   0.188   2.966  0.00  0.00     0.162 A 
ATOM      4  C3  UNL d   1       0.686   0.065   1.577  0.00  0.00    -0.034 A 
ATOM      5  C4  UNL d   1      -0.480  -0.252   0.880  0.00  0.00     0.162 A 
ATOM      6  C5  UNL d   1      -1.677  -0.441   1.563  0.00  0.00     0.062 A 
ATOM      7  F   UNL d   1      -2.794  -0.744   0.884  0.00  0.00    -0.097 F 
ATOM      8  F1  UNL d   1      -0.468  -0.378  -0.456  0.00  0.00    -0.096 F 
ATOM      9  I   UNL d   1       2.479   0.348   0.558  0.00  0.00    -0.060 I 
ATOM     10  F2  UNL d   1       1.738   0.491   3.669  0.00  0.00    -0.096 F 
ATOM     11  F3  UNL d   1      -0.602   0.119   4.980  0.00  0.00    -0.097 F 
ATOM     12  F4  UNL d   1      -2.873  -0.498   3.600  0.00  0.00    -0.092 F 
ENDROOT
TORSDOF 0
ENDMDL
