MODEL 1
REMARK minimizedAffinity -3.34354591
REMARK minimizedRMSD -1
REMARK  0 active torsions:
REMARK  status: ('A' for Active; 'I' for Inactive)
ROOT
ATOM      1  C   UNL d   1      -0.124  -1.018  -0.624  0.00  0.00     0.124 A 
ATOM      2  C1  UNL d   1      -1.358  -0.589  -0.155  0.00  0.00     0.062 A 
ATOM      3  C2  UNL d   1      -1.438   0.168   1.010  0.00  0.00     0.162 A 
ATOM      4  C3  UNL d   1      -0.281   0.502   1.714  0.00  0.00    -0.034 A 
ATOM      5  C4  UNL d   1       0.956   0.065   1.237  0.00  0.00     0.162 A 
ATOM      6  C5  UNL d   1       1.031  -0.691   0.071  0.00  0.00     0.062 A 
ATOM      7  F   UNL d   1       2.224  -1.105  -0.380  0.00  0.00    -0.097 F 
ATOM      8  F1  UNL d   1       2.088   0.368   1.889  0.00  0.00    -0.096 F 
ATOM      9  I   UNL d   1      -0.398   1.633   3.457  0.00  0.00    -0.060 I 
ATOM     10  F2  UNL d   1      -2.644   0.569   1.441  0.00  0.00    -0.096 F 
ATOM     11  F3  UNL d   1      -2.475  -0.904  -0.825  0.00  0.00    -0.097 F 
ATOM     12  F4  UNL d   1      -0.049  -1.747  -1.745  0.00  0.00    -0.092 F 
ENDROOT
TORSDOF 0
ENDMDL
