MODEL 1
REMARK minimizedAffinity 3.06711221
REMARK minimizedRMSD -1
REMARK  0 active torsions:
REMARK  status: ('A' for Active; 'I' for Inactive)
ROOT
ATOM      1  C   UNL d   1      -0.893  -0.801   3.511  0.00  0.00     0.124 A 
ATOM      2  C1  UNL d   1      -0.818  -0.353   2.200  0.00  0.00     0.062 A 
ATOM      3  C2  UNL d   1      -0.163   0.839   1.904  0.00  0.00     0.162 A 
ATOM      4  C3  UNL d   1       0.424   1.591   2.922  0.00  0.00    -0.034 A 
ATOM      5  C4  UNL d   1       0.343   1.134   4.238  0.00  0.00     0.162 A 
ATOM      6  C5  UNL d   1      -0.313  -0.058   4.529  0.00  0.00     0.062 A 
ATOM      7  F   UNL d   1      -0.384  -0.489   5.797  0.00  0.00    -0.097 F 
ATOM      8  F1  UNL d   1       0.896   1.833   5.241  0.00  0.00    -0.096 F 
ATOM      9  I   UNL d   1       1.404   3.373   2.483  0.00  0.00    -0.060 I 
ATOM     10  F2  UNL d   1      -0.106   1.247   0.628  0.00  0.00    -0.096 F 
ATOM     11  F3  UNL d   1      -1.379  -1.070   1.215  0.00  0.00    -0.097 F 
ATOM     12  F4  UNL d   1      -1.525  -1.948   3.794  0.00  0.00    -0.092 F 
ENDROOT
TORSDOF 0
ENDMDL
