MODEL 1
REMARK minimizedAffinity -2.50997972
REMARK minimizedRMSD -1
REMARK  0 active torsions:
REMARK  status: ('A' for Active; 'I' for Inactive)
ROOT
ATOM      1  C   UNL d   1       0.041   0.515   2.745  0.00  0.00     0.124 A 
ATOM      2  C1  UNL d   1       0.727  -0.586   2.251  0.00  0.00     0.062 A 
ATOM      3  C2  UNL d   1       1.004  -0.686   0.891  0.00  0.00     0.162 A 
ATOM      4  C3  UNL d   1       0.596   0.320   0.014  0.00  0.00    -0.034 A 
ATOM      5  C4  UNL d   1      -0.094   1.423   0.518  0.00  0.00     0.162 A 
ATOM      6  C5  UNL d   1      -0.369   1.518   1.878  0.00  0.00     0.062 A 
ATOM      7  F   UNL d   1      -1.032   2.583   2.354  0.00  0.00    -0.097 F 
ATOM      8  F1  UNL d   1      -0.501   2.408  -0.297  0.00  0.00    -0.096 F 
ATOM      9  I   UNL d   1       1.008   0.175  -2.021  0.00  0.00    -0.060 I 
ATOM     10  F2  UNL d   1       1.669  -1.760   0.441  0.00  0.00    -0.096 F 
ATOM     11  F3  UNL d   1       1.123  -1.557   3.086  0.00  0.00    -0.097 F 
ATOM     12  F4  UNL d   1      -0.225   0.608   4.054  0.00  0.00    -0.092 F 
ENDROOT
TORSDOF 0
ENDMDL
