MODEL 1
REMARK minimizedAffinity -1.82316899
REMARK minimizedRMSD -1
REMARK  0 active torsions:
REMARK  status: ('A' for Active; 'I' for Inactive)
ROOT
ATOM      1  C   UNL d   1      -0.561   0.613   2.026  0.00  0.00     0.124 A 
ATOM      2  C1  UNL d   1      -1.672   0.742   1.204  0.00  0.00     0.062 A 
ATOM      3  C2  UNL d   1      -1.564   0.500  -0.162  0.00  0.00     0.162 A 
ATOM      4  C3  UNL d   1      -0.340   0.126  -0.716  0.00  0.00    -0.034 A 
ATOM      5  C4  UNL d   1       0.774   0.000   0.117  0.00  0.00     0.162 A 
ATOM      6  C5  UNL d   1       0.660   0.243   1.482  0.00  0.00     0.062 A 
ATOM      7  F   UNL d   1       1.735   0.118   2.274  0.00  0.00    -0.097 F 
ATOM      8  F1  UNL d   1       1.966  -0.358  -0.382  0.00  0.00    -0.096 F 
ATOM      9  I   UNL d   1      -0.174  -0.236  -2.758  0.00  0.00    -0.060 I 
ATOM     10  F2  UNL d   1      -2.654   0.632  -0.932  0.00  0.00    -0.096 F 
ATOM     11  F3  UNL d   1      -2.854   1.101   1.728  0.00  0.00    -0.097 F 
ATOM     12  F4  UNL d   1      -0.668   0.847   3.341  0.00  0.00    -0.092 F 
ENDROOT
TORSDOF 0
ENDMDL
