MODEL 1
REMARK minimizedAffinity -1.96983314
REMARK minimizedRMSD -1
REMARK  3 active torsions:
REMARK  status: ('A' for Active; 'I' for Inactive)
REMARK    1  A    between atoms: C3'_2  and  C2'_3 
REMARK    2  A    between atoms: C2'_3  and  C1'_4 
REMARK    3  A    between atoms: C1'_4  and  C1_5 
ROOT
ATOM      1  C1  N4B d   1       0.871  -1.918   1.229  0.00  0.00    -0.075 A 
ATOM      2  C2  N4B d   1       1.549  -1.297   0.157  0.00  0.00     0.002 A 
ATOM      3  C3  N4B d   1       2.373  -2.037  -0.655  0.00  0.00     0.002 A 
ATOM      4  C4  N4B d   1       2.549  -3.389  -0.405  0.00  0.00    -0.004 A 
ATOM      5  C5  N4B d   1       1.871  -3.987   0.617  0.00  0.00     0.002 A 
ATOM      6  C6  N4B d   1       1.036  -3.257   1.439  0.00  0.00     0.002 A 
ENDROOT
BRANCH   1   7
ATOM      7  C1' N4B d   1       0.027  -1.134   2.195  0.00  0.00     0.057 C 
BRANCH   7   8
ATOM      8  C2' N4B d   1      -0.308   0.222   1.582  0.00  0.00     0.009 C 
BRANCH   8   9
ATOM      9  C3' N4B d   1      -1.776   0.328   1.205  0.00  0.00     0.004 C 
ATOM     10  C4' N4B d   1      -2.082  -0.302  -0.121  0.00  0.00     0.003 C 
ENDBRANCH   8   9
ENDBRANCH   7   8
ENDBRANCH   1   7
TORSDOF 3
ENDMDL
