MODEL 1
REMARK minimizedAffinity 3.96871686
REMARK minimizedRMSD -1
REMARK  3 active torsions:
REMARK  status: ('A' for Active; 'I' for Inactive)
REMARK    1  A    between atoms: C3'_2  and  C2'_3 
REMARK    2  A    between atoms: C2'_3  and  C1'_4 
REMARK    3  A    between atoms: C1'_4  and  C1_5 
ROOT
ATOM      1  C1  N4B d   1       1.502  -3.524   1.416  0.00  0.00    -0.075 A 
ATOM      2  C2  N4B d   1       0.445  -4.334   1.885  0.00  0.00     0.002 A 
ATOM      3  C3  N4B d   1      -0.616  -3.763   2.545  0.00  0.00     0.002 A 
ATOM      4  C4  N4B d   1      -0.632  -2.394   2.763  0.00  0.00    -0.004 A 
ATOM      5  C5  N4B d   1       0.381  -1.615   2.284  0.00  0.00     0.002 A 
ATOM      6  C6  N4B d   1       1.451  -2.175   1.615  0.00  0.00     0.002 A 
ENDROOT
BRANCH   1   7
ATOM      7  C1' N4B d   1       2.725  -4.112   0.765  0.00  0.00     0.057 C 
BRANCH   7   8
ATOM      8  C2' N4B d   1       3.609  -4.742   1.837  0.00  0.00     0.009 C 
BRANCH   8   9
ATOM      9  C3' N4B d   1       5.084  -4.629   1.496  0.00  0.00     0.004 C 
ATOM     10  C4' N4B d   1       5.558  -5.730   0.595  0.00  0.00     0.003 C 
ENDBRANCH   8   9
ENDBRANCH   7   8
ENDBRANCH   1   7
TORSDOF 3
ENDMDL
