MODEL 1
REMARK minimizedAffinity -3.15329337
REMARK minimizedRMSD -1
REMARK  0 active torsions:
REMARK  status: ('A' for Active; 'I' for Inactive)
ROOT
ATOM      1  C1  BNZ d   1       1.649   1.097  -1.612  0.00  0.00     0.000 A 
ATOM      2  C2  BNZ d   1       0.587   1.172  -0.751  0.00  0.00     0.000 A 
ATOM      3  C3  BNZ d   1       0.118   0.055  -0.120  0.00  0.00     0.000 A 
ATOM      4  C4  BNZ d   1       0.683  -1.142  -0.381  0.00  0.00     0.000 A 
ATOM      5  C5  BNZ d   1       1.749  -1.235  -1.254  0.00  0.00     0.000 A 
ATOM      6  C6  BNZ d   1       2.244  -0.102  -1.858  0.00  0.00     0.000 A 
ENDROOT
TORSDOF 0
ENDMDL
