MODEL 1
REMARK minimizedAffinity -2.61887741
REMARK minimizedRMSD -1
REMARK  0 active torsions:
REMARK  status: ('A' for Active; 'I' for Inactive)
ROOT
ATOM      1  C1  BNZ d   1       0.052  -0.162   1.161  0.00  0.00     0.000 A 
ATOM      2  C2  BNZ d   1       0.894   0.338   0.204  0.00  0.00     0.000 A 
ATOM      3  C3  BNZ d   1       0.450   1.251  -0.711  0.00  0.00     0.000 A 
ATOM      4  C4  BNZ d   1      -0.844   1.631  -0.694  0.00  0.00     0.000 A 
ATOM      5  C5  BNZ d   1      -1.708   1.128   0.258  0.00  0.00     0.000 A 
ATOM      6  C6  BNZ d   1      -1.247   0.239   1.202  0.00  0.00     0.000 A 
ENDROOT
TORSDOF 0
ENDMDL
