MODEL 1
REMARK minimizedAffinity -4.90618134
REMARK minimizedRMSD -1
REMARK  0 active torsions:
REMARK  status: ('A' for Active; 'I' for Inactive)
ROOT
ATOM      1  C1  BNZ d   1       0.263  -0.324  -0.495  0.00  0.00     0.000 A 
ATOM      2  C2  BNZ d   1       0.890   0.828  -0.889  0.00  0.00     0.000 A 
ATOM      3  C3  BNZ d   1       1.859   0.804  -1.852  0.00  0.00     0.000 A 
ATOM      4  C4  BNZ d   1       2.228  -0.376  -2.392  0.00  0.00     0.000 A 
ATOM      5  C5  BNZ d   1       1.611  -1.547  -1.999  0.00  0.00     0.000 A 
ATOM      6  C6  BNZ d   1       0.609  -1.514  -1.057  0.00  0.00     0.000 A 
ENDROOT
TORSDOF 0
ENDMDL
