MODEL 1
REMARK minimizedAffinity -2.98008204
REMARK minimizedRMSD -1
REMARK  0 active torsions:
REMARK  status: ('A' for Active; 'I' for Inactive)
ROOT
ATOM      1  C1  BNZ d   1       2.311  -0.287  -1.303  0.00  0.00     0.000 A 
ATOM      2  C2  BNZ d   1       1.615  -1.280  -0.667  0.00  0.00     0.000 A 
ATOM      3  C3  BNZ d   1       0.490  -0.994   0.056  0.00  0.00     0.000 A 
ATOM      4  C4  BNZ d   1       0.087   0.287   0.175  0.00  0.00     0.000 A 
ATOM      5  C5  BNZ d   1       0.783   1.301  -0.453  0.00  0.00     0.000 A 
ATOM      6  C6  BNZ d   1       1.892   1.004  -1.212  0.00  0.00     0.000 A 
ENDROOT
TORSDOF 0
ENDMDL
