MODEL 1
REMARK minimizedAffinity -2.01963878
REMARK minimizedRMSD -1
REMARK  0 active torsions:
REMARK  status: ('A' for Active; 'I' for Inactive)
ROOT
ATOM      1  C1  BNZ d   1       0.650  -0.502  -0.336  0.00  0.00     0.000 A 
ATOM      2  C2  BNZ d   1       1.754  -0.640  -1.134  0.00  0.00     0.000 A 
ATOM      3  C3  BNZ d   1       2.240   0.422  -1.845  0.00  0.00     0.000 A 
ATOM      4  C4  BNZ d   1       1.599   1.607  -1.789  0.00  0.00     0.000 A 
ATOM      5  C5  BNZ d   1       0.479   1.759  -0.996  0.00  0.00     0.000 A 
ATOM      6  C6  BNZ d   1       0.015   0.699  -0.251  0.00  0.00     0.000 A 
ENDROOT
TORSDOF 0
ENDMDL
