MODEL 1
REMARK minimizedAffinity -2.92981791
REMARK minimizedRMSD -1
REMARK  0 active torsions:
REMARK  status: ('A' for Active; 'I' for Inactive)
ROOT
ATOM      1  C1  BNZ d   1       0.631  -0.819  -0.359  0.00  0.00     0.000 A 
ATOM      2  C2  BNZ d   1       1.103   0.349  -0.896  0.00  0.00     0.000 A 
ATOM      3  C3  BNZ d   1       2.127   0.339  -1.801  0.00  0.00     0.000 A 
ATOM      4  C4  BNZ d   1       2.704  -0.833  -2.138  0.00  0.00     0.000 A 
ATOM      5  C5  BNZ d   1       2.246  -2.018  -1.598  0.00  0.00     0.000 A 
ATOM      6  C6  BNZ d   1       1.189  -2.008  -0.717  0.00  0.00     0.000 A 
ENDROOT
TORSDOF 0
ENDMDL
