MODEL 1
REMARK minimizedAffinity -2.58805013
REMARK minimizedRMSD -1
REMARK  0 active torsions:
REMARK  status: ('A' for Active; 'I' for Inactive)
ROOT
ATOM      1  C1  BNZ d   1      -1.288   0.295   0.341  0.00  0.00     0.000 A 
ATOM      2  C2  BNZ d   1       0.051   0.050   0.193  0.00  0.00     0.000 A 
ATOM      3  C3  BNZ d   1       0.872   0.974  -0.390  0.00  0.00     0.000 A 
ATOM      4  C4  BNZ d   1       0.347   2.124  -0.861  0.00  0.00     0.000 A 
ATOM      5  C5  BNZ d   1      -1.003   2.382  -0.728  0.00  0.00     0.000 A 
ATOM      6  C6  BNZ d   1      -1.819   1.466  -0.105  0.00  0.00     0.000 A 
ENDROOT
TORSDOF 0
ENDMDL
