MODEL 1
REMARK minimizedAffinity -3.35547709
REMARK minimizedRMSD -1
REMARK  0 active torsions:
REMARK  status: ('A' for Active; 'I' for Inactive)
ROOT
ATOM      1  C1  BNZ d   1       2.149   0.051  -1.861  0.00  0.00     0.000 A 
ATOM      2  C2  BNZ d   1       1.713   1.340  -1.709  0.00  0.00     0.000 A 
ATOM      3  C3  BNZ d   1       0.664   1.631  -0.883  0.00  0.00     0.000 A 
ATOM      4  C4  BNZ d   1       0.027   0.630  -0.241  0.00  0.00     0.000 A 
ATOM      5  C5  BNZ d   1       0.449  -0.676  -0.391  0.00  0.00     0.000 A 
ATOM      6  C6  BNZ d   1       1.531  -0.961  -1.194  0.00  0.00     0.000 A 
ENDROOT
TORSDOF 0
ENDMDL
