MODEL 1
REMARK minimizedAffinity -2.00850701
REMARK minimizedRMSD -1
REMARK  0 active torsions:
REMARK  status: ('A' for Active; 'I' for Inactive)
ROOT
ATOM      1  C1  BNZ d   1      -0.092  -0.752   0.793  0.00  0.00     0.000 A 
ATOM      2  C2  BNZ d   1      -1.353  -0.227   0.884  0.00  0.00     0.000 A 
ATOM      3  C3  BNZ d   1      -1.644   0.992   0.337  0.00  0.00     0.000 A 
ATOM      4  C4  BNZ d   1      -0.666   1.700  -0.263  0.00  0.00     0.000 A 
ATOM      5  C5  BNZ d   1       0.613   1.188  -0.354  0.00  0.00     0.000 A 
ATOM      6  C6  BNZ d   1       0.893  -0.056   0.163  0.00  0.00     0.000 A 
ENDROOT
TORSDOF 0
ENDMDL
