MODEL 1
REMARK minimizedAffinity -3.57119846
REMARK minimizedRMSD -1
REMARK  0 active torsions:
REMARK  status: ('A' for Active; 'I' for Inactive)
ROOT
ATOM      1  C1  BNZ d   1       1.597  -1.582  -1.147  0.00  0.00     0.000 A 
ATOM      2  C2  BNZ d   1       0.643  -1.099  -0.290  0.00  0.00     0.000 A 
ATOM      3  C3  BNZ d   1       0.506   0.245  -0.083  0.00  0.00     0.000 A 
ATOM      4  C4  BNZ d   1       1.346   1.101  -0.700  0.00  0.00     0.000 A 
ATOM      5  C5  BNZ d   1       2.319   0.628  -1.559  0.00  0.00     0.000 A 
ATOM      6  C6  BNZ d   1       2.429  -0.723  -1.795  0.00  0.00     0.000 A 
ENDROOT
TORSDOF 0
ENDMDL
