MODEL 1
REMARK minimizedAffinity -2.53429079
REMARK minimizedRMSD -1
REMARK  0 active torsions:
REMARK  status: ('A' for Active; 'I' for Inactive)
ROOT
ATOM      1  C1  BNZ d   1      -0.038   1.614  -1.003  0.00  0.00     0.000 A 
ATOM      2  C2  BNZ d   1       1.243   1.404  -1.437  0.00  0.00     0.000 A 
ATOM      3  C3  BNZ d   1       1.923   0.271  -1.086  0.00  0.00     0.000 A 
ATOM      4  C4  BNZ d   1       1.337  -0.629  -0.271  0.00  0.00     0.000 A 
ATOM      5  C5  BNZ d   1       0.048  -0.427   0.182  0.00  0.00     0.000 A 
ATOM      6  C6  BNZ d   1      -0.647   0.696  -0.205  0.00  0.00     0.000 A 
ENDROOT
TORSDOF 0
ENDMDL
