MODEL 1
REMARK minimizedAffinity -3.69813561
REMARK minimizedRMSD -1
REMARK  0 active torsions:
REMARK  status: ('A' for Active; 'I' for Inactive)
ROOT
ATOM      1  C1  BNZ d   1      -1.259   0.290   0.312  0.00  0.00     0.000 A 
ATOM      2  C2  BNZ d   1      -1.141   0.758  -0.970  0.00  0.00     0.000 A 
ATOM      3  C3  BNZ d   1       0.066   1.182  -1.452  0.00  0.00     0.000 A 
ATOM      4  C4  BNZ d   1       1.143   1.176  -0.641  0.00  0.00     0.000 A 
ATOM      5  C5  BNZ d   1       1.038   0.716   0.656  0.00  0.00     0.000 A 
ATOM      6  C6  BNZ d   1      -0.169   0.253   1.126  0.00  0.00     0.000 A 
ENDROOT
TORSDOF 0
ENDMDL
