MODEL 1
REMARK minimizedAffinity -1.85791123
REMARK minimizedRMSD -1
REMARK  0 active torsions:
REMARK  status: ('A' for Active; 'I' for Inactive)
ROOT
ATOM      1  C1  BNZ d   1      -2.966  -0.641   1.592  0.00  0.00     0.000 A 
ATOM      2  C2  BNZ d   1      -3.886   0.315   1.252  0.00  0.00     0.000 A 
ATOM      3  C3  BNZ d   1      -3.739   1.608   1.670  0.00  0.00     0.000 A 
ATOM      4  C4  BNZ d   1      -2.695   1.935   2.458  0.00  0.00     0.000 A 
ATOM      5  C5  BNZ d   1      -1.764   0.981   2.818  0.00  0.00     0.000 A 
ATOM      6  C6  BNZ d   1      -1.895  -0.311   2.364  0.00  0.00     0.000 A 
ENDROOT
TORSDOF 0
ENDMDL
