MODEL 1
REMARK minimizedAffinity -3.6653173
REMARK minimizedRMSD -1
REMARK  0 active torsions:
REMARK  status: ('A' for Active; 'I' for Inactive)
ROOT
ATOM      1  C1  BNZ d   1      -0.819   1.913  -0.905  0.00  0.00     0.000 A 
ATOM      2  C2  BNZ d   1      -1.622   1.042  -0.220  0.00  0.00     0.000 A 
ATOM      3  C3  BNZ d   1      -1.098   0.193   0.714  0.00  0.00     0.000 A 
ATOM      4  C4  BNZ d   1       0.233   0.188   0.932  0.00  0.00     0.000 A 
ATOM      5  C5  BNZ d   1       1.058   1.053   0.242  0.00  0.00     0.000 A 
ATOM      6  C6  BNZ d   1       0.521   1.934  -0.669  0.00  0.00     0.000 A 
ENDROOT
TORSDOF 0
ENDMDL
