MODEL 1
REMARK minimizedAffinity 2.66700411
REMARK minimizedRMSD -1
REMARK  1 active torsions:
REMARK  status: ('A' for Active; 'I' for Inactive)
REMARK    1  A    between atoms: C3_4  and  O_7 
ROOT
ATOM      1  C   UNL d   1       5.978   0.664   0.029  0.00  0.00    -0.033 A 
ATOM      2  C1  UNL d   1       5.965   1.215  -1.254  0.00  0.00     0.039 A 
ATOM      3  C2  UNL d   1       5.967   2.602  -1.419  0.00  0.00    -0.080 A 
ATOM      4  C3  UNL d   1       5.983   3.424  -0.296  0.00  0.00     0.150 A 
ATOM      5  C4  UNL d   1       6.000   2.881   0.985  0.00  0.00    -0.007 A 
ATOM      6  C5  UNL d   1       5.997   1.496   1.148  0.00  0.00     0.039 A 
ENDROOT
BRANCH   4   7
ATOM      7  O   UNL d   1       5.980   4.783  -0.407  0.00  0.00    -0.526 OA
ATOM      8  H5  UNL d   1       5.939   5.014  -1.350  0.00  0.00     0.418 HD
ENDBRANCH   4   7
TORSDOF 1
ENDMDL
