MODEL 1
REMARK minimizedAffinity 5.7581892
REMARK minimizedRMSD -1
REMARK  1 active torsions:
REMARK  status: ('A' for Active; 'I' for Inactive)
REMARK    1  A    between atoms: C3_4  and  O_7 
ROOT
ATOM      1  C   UNL d   1       1.916  -1.221   1.594  0.00  0.00    -0.033 A 
ATOM      2  C1  UNL d   1       0.692  -1.853   1.366  0.00  0.00     0.039 A 
ATOM      3  C2  UNL d   1       0.658  -3.181   0.937  0.00  0.00    -0.080 A 
ATOM      4  C3  UNL d   1       1.854  -3.866   0.741  0.00  0.00     0.150 A 
ATOM      5  C4  UNL d   1       3.078  -3.244   0.969  0.00  0.00    -0.007 A 
ATOM      6  C5  UNL d   1       3.109  -1.918   1.397  0.00  0.00     0.039 A 
ENDROOT
BRANCH   4   7
ATOM      7  O   UNL d   1       1.872  -5.162   0.318  0.00  0.00    -0.526 OA
ATOM      8  H5  UNL d   1       0.955  -5.451   0.173  0.00  0.00     0.418 HD
ENDBRANCH   4   7
TORSDOF 1
ENDMDL
