MODEL 1
REMARK minimizedAffinity 1.25336599
REMARK minimizedRMSD -1
REMARK  1 active torsions:
REMARK  status: ('A' for Active; 'I' for Inactive)
REMARK    1  A    between atoms: C3_4  and  O_7 
ROOT
ATOM      1  C   UNL d   1       5.229  -5.873   5.959  0.00  0.00    -0.033 A 
ATOM      2  C1  UNL d   1       5.984  -4.699   5.977  0.00  0.00     0.039 A 
ATOM      3  C2  UNL d   1       5.347  -3.457   5.950  0.00  0.00    -0.080 A 
ATOM      4  C3  UNL d   1       3.956  -3.403   5.907  0.00  0.00     0.150 A 
ATOM      5  C4  UNL d   1       3.198  -4.569   5.893  0.00  0.00    -0.007 A 
ATOM      6  C5  UNL d   1       3.836  -5.808   5.918  0.00  0.00     0.039 A 
ENDROOT
BRANCH   4   7
ATOM      7  O   UNL d   1       3.290  -2.214   5.875  0.00  0.00    -0.526 OA
ATOM      8  H5  UNL d   1       3.944  -1.495   5.861  0.00  0.00     0.418 HD
ENDBRANCH   4   7
TORSDOF 1
ENDMDL
