MODEL 1
REMARK minimizedAffinity -2.31300378
REMARK minimizedRMSD -1
REMARK  0 active torsions:
REMARK  status: ('A' for Active; 'I' for Inactive)
ROOT
ATOM      1  C   UNL d   1      -1.604   2.072   0.153  0.00  0.00     0.020 A 
ATOM      2  C1  UNL d   1      -1.800   2.034   1.533  0.00  0.00     0.020 A 
ATOM      3  C2  UNL d   1      -1.185   1.041   2.299  0.00  0.00     0.034 A 
ATOM      4  C3  UNL d   1      -0.371   0.082   1.685  0.00  0.00     0.017 A 
ATOM      5  C4  UNL d   1      -0.175   0.121   0.300  0.00  0.00     0.017 A 
ATOM      6  C5  UNL d   1      -0.793   1.117  -0.462  0.00  0.00     0.034 A 
ATOM      7 Cl   UNL d   1       0.816  -1.028  -0.529  0.00  0.00    -0.070 Cl
ATOM      8 Cl1  UNL d   1       0.358  -1.117   2.693  0.00  0.00    -0.070 Cl
ENDROOT
TORSDOF 0
ENDMDL
