MODEL 1
REMARK minimizedAffinity -1.82493782
REMARK minimizedRMSD -1
REMARK  0 active torsions:
REMARK  status: ('A' for Active; 'I' for Inactive)
ROOT
ATOM      1  C   UNL d   1       0.278  -0.715   1.155  0.00  0.00     0.020 A 
ATOM      2  C1  UNL d   1       0.925  -0.586  -0.074  0.00  0.00     0.020 A 
ATOM      3  C2  UNL d   1       0.517   0.398  -0.977  0.00  0.00     0.034 A 
ATOM      4  C3  UNL d   1      -0.540   1.256  -0.654  0.00  0.00     0.017 A 
ATOM      5  C4  UNL d   1      -1.189   1.125   0.579  0.00  0.00     0.017 A 
ATOM      6  C5  UNL d   1      -0.777   0.138   1.480  0.00  0.00     0.034 A 
ATOM      7 Cl   UNL d   1      -2.502   2.147   1.049  0.00  0.00    -0.070 Cl
ATOM      8 Cl1  UNL d   1      -0.991   2.450  -1.819  0.00  0.00    -0.070 Cl
ENDROOT
TORSDOF 0
ENDMDL
