MODEL 1
REMARK minimizedAffinity -3.16826177
REMARK minimizedRMSD -1
REMARK  0 active torsions:
REMARK  status: ('A' for Active; 'I' for Inactive)
ROOT
ATOM      1  C   UNL d   1       0.995  -0.569   0.032  0.00  0.00     0.020 A 
ATOM      2  C1  UNL d   1       0.458  -0.677   1.314  0.00  0.00     0.020 A 
ATOM      3  C2  UNL d   1      -0.515   0.228   1.742  0.00  0.00     0.034 A 
ATOM      4  C3  UNL d   1      -0.955   1.245   0.887  0.00  0.00     0.017 A 
ATOM      5  C4  UNL d   1      -0.415   1.353  -0.400  0.00  0.00     0.017 A 
ATOM      6  C5  UNL d   1       0.559   0.444  -0.824  0.00  0.00     0.034 A 
ATOM      7 Cl   UNL d   1      -0.908   2.581  -1.512  0.00  0.00    -0.070 Cl
ATOM      8 Cl1  UNL d   1      -2.161   2.330   1.482  0.00  0.00    -0.070 Cl
ENDROOT
TORSDOF 0
ENDMDL
