MODEL 1
REMARK minimizedAffinity -4.13195229
REMARK minimizedRMSD -1
REMARK  0 active torsions:
REMARK  status: ('A' for Active; 'I' for Inactive)
ROOT
ATOM      1  C   UNL d   1      -1.664   2.663   1.127  0.00  0.00     0.020 A 
ATOM      2  C1  UNL d   1      -1.301   2.732  -0.218  0.00  0.00     0.020 A 
ATOM      3  C2  UNL d   1      -0.532   1.714  -0.787  0.00  0.00     0.034 A 
ATOM      4  C3  UNL d   1      -0.124   0.623  -0.010  0.00  0.00     0.017 A 
ATOM      5  C4  UNL d   1      -0.488   0.555   1.339  0.00  0.00     0.017 A 
ATOM      6  C5  UNL d   1      -1.258   1.577   1.903  0.00  0.00     0.034 A 
ATOM      7 Cl   UNL d   1      -0.022  -0.759   2.360  0.00  0.00    -0.070 Cl
ATOM      8 Cl1  UNL d   1       0.825  -0.599  -0.779  0.00  0.00    -0.070 Cl
ENDROOT
TORSDOF 0
ENDMDL
