MODEL 1
REMARK minimizedAffinity -2.69291425
REMARK minimizedRMSD -1
REMARK  0 active torsions:
REMARK  status: ('A' for Active; 'I' for Inactive)
ROOT
ATOM      1  C   UNL d   1      -0.870   0.147   1.669  0.00  0.00     0.020 A 
ATOM      2  C1  UNL d   1      -0.632   1.496   1.405  0.00  0.00     0.020 A 
ATOM      3  C2  UNL d   1       0.119   1.866   0.288  0.00  0.00     0.034 A 
ATOM      4  C3  UNL d   1       0.636   0.888  -0.570  0.00  0.00     0.017 A 
ATOM      5  C4  UNL d   1       0.396  -0.465  -0.304  0.00  0.00     0.017 A 
ATOM      6  C5  UNL d   1      -0.357  -0.831   0.816  0.00  0.00     0.034 A 
ATOM      7 Cl   UNL d   1       1.000  -1.729  -1.316  0.00  0.00    -0.070 Cl
ATOM      8 Cl1  UNL d   1       1.555   1.418  -1.933  0.00  0.00    -0.070 Cl
ENDROOT
TORSDOF 0
ENDMDL
