MODEL 1
REMARK minimizedAffinity -4.25302267
REMARK minimizedRMSD -1
REMARK  0 active torsions:
REMARK  status: ('A' for Active; 'I' for Inactive)
ROOT
ATOM      1  C   UNL d   1       1.200  -0.914  -0.283  0.00  0.00     0.020 A 
ATOM      2  C1  UNL d   1       0.464  -1.096   0.887  0.00  0.00     0.020 A 
ATOM      3  C2  UNL d   1      -0.520  -0.172   1.245  0.00  0.00     0.034 A 
ATOM      4  C3  UNL d   1      -0.770   0.940   0.431  0.00  0.00     0.017 A 
ATOM      5  C4  UNL d   1      -0.030   1.122  -0.743  0.00  0.00     0.017 A 
ATOM      6  C5  UNL d   1       0.953   0.193  -1.096  0.00  0.00     0.034 A 
ATOM      7 Cl   UNL d   1      -0.282   2.468  -1.797  0.00  0.00    -0.070 Cl
ATOM      8 Cl1  UNL d   1      -2.001   2.043   0.934  0.00  0.00    -0.070 Cl
ENDROOT
TORSDOF 0
ENDMDL
