MODEL 1
REMARK minimizedAffinity 4.92413139
REMARK minimizedRMSD -1
REMARK  0 active torsions:
REMARK  status: ('A' for Active; 'I' for Inactive)
ROOT
ATOM      1  C   UNL d   1      -1.628   1.959  -1.491  0.00  0.00     0.020 A 
ATOM      2  C1  UNL d   1      -0.446   2.624  -1.167  0.00  0.00     0.020 A 
ATOM      3  C2  UNL d   1       0.590   1.937  -0.531  0.00  0.00     0.034 A 
ATOM      4  C3  UNL d   1       0.446   0.580  -0.217  0.00  0.00     0.017 A 
ATOM      5  C4  UNL d   1      -0.740  -0.086  -0.542  0.00  0.00     0.017 A 
ATOM      6  C5  UNL d   1      -1.774   0.606  -1.179  0.00  0.00     0.034 A 
ATOM      7 Cl   UNL d   1      -0.991  -1.759  -0.187  0.00  0.00    -0.070 Cl
ATOM      8 Cl1  UNL d   1       1.769  -0.206   0.569  0.00  0.00    -0.070 Cl
ENDROOT
TORSDOF 0
ENDMDL
