MODEL 1
REMARK minimizedAffinity -3.91793132
REMARK minimizedRMSD -1
REMARK  0 active torsions:
REMARK  status: ('A' for Active; 'I' for Inactive)
ROOT
ATOM      1  C   UNL d   1      -1.970   1.614   1.666  0.00  0.00     0.020 A 
ATOM      2  C1  UNL d   1      -1.679   0.390   2.267  0.00  0.00     0.020 A 
ATOM      3  C2  UNL d   1      -0.760  -0.478   1.674  0.00  0.00     0.034 A 
ATOM      4  C3  UNL d   1      -0.129  -0.123   0.476  0.00  0.00     0.017 A 
ATOM      5  C4  UNL d   1      -0.422   1.106  -0.126  0.00  0.00     0.017 A 
ATOM      6  C5  UNL d   1      -1.343   1.971   0.472  0.00  0.00     0.034 A 
ATOM      7 Cl   UNL d   1       0.317   1.613  -1.604  0.00  0.00    -0.070 Cl
ATOM      8 Cl1  UNL d   1       0.997  -1.245  -0.201  0.00  0.00    -0.070 Cl
ENDROOT
TORSDOF 0
ENDMDL
