MODEL 1
REMARK minimizedAffinity -3.70687842
REMARK minimizedRMSD -1
REMARK  0 active torsions:
REMARK  status: ('A' for Active; 'I' for Inactive)
ROOT
ATOM      1  C   UNL d   1      -1.360   2.077   0.003  0.00  0.00     0.020 A 
ATOM      2  C1  UNL d   1      -1.662   1.998   1.362  0.00  0.00     0.020 A 
ATOM      3  C2  UNL d   1      -1.102   0.986   2.144  0.00  0.00     0.034 A 
ATOM      4  C3  UNL d   1      -0.236   0.049   1.568  0.00  0.00     0.017 A 
ATOM      5  C4  UNL d   1       0.067   0.130   0.204  0.00  0.00     0.017 A 
ATOM      6  C5  UNL d   1      -0.497   1.145  -0.575  0.00  0.00     0.034 A 
ATOM      7 Cl   UNL d   1       1.126  -0.990  -0.579  0.00  0.00    -0.070 Cl
ATOM      8 Cl1  UNL d   1       0.421  -1.176   2.594  0.00  0.00    -0.070 Cl
ENDROOT
TORSDOF 0
ENDMDL
