MODEL 1
REMARK minimizedAffinity -3.10239434
REMARK minimizedRMSD -1
REMARK  0 active torsions:
REMARK  status: ('A' for Active; 'I' for Inactive)
ROOT
ATOM      1  C   UNL d   1       1.105  -0.963  -0.324  0.00  0.00     0.020 A 
ATOM      2  C1  UNL d   1       0.538  -1.227   0.922  0.00  0.00     0.020 A 
ATOM      3  C2  UNL d   1      -0.390  -0.338   1.469  0.00  0.00     0.034 A 
ATOM      4  C3  UNL d   1      -0.752   0.819   0.770  0.00  0.00     0.017 A 
ATOM      5  C4  UNL d   1      -0.182   1.083  -0.481  0.00  0.00     0.017 A 
ATOM      6  C5  UNL d   1       0.746   0.189  -1.024  0.00  0.00     0.034 A 
ATOM      7 Cl   UNL d   1      -0.580   2.490  -1.402  0.00  0.00    -0.070 Cl
ATOM      8 Cl1  UNL d   1      -1.905   1.875   1.507  0.00  0.00    -0.070 Cl
ENDROOT
TORSDOF 0
ENDMDL
