MODEL 1
REMARK minimizedAffinity -2.58935571
REMARK minimizedRMSD -1
REMARK  0 active torsions:
REMARK  status: ('A' for Active; 'I' for Inactive)
ROOT
ATOM      1  C   UNL d   1      -0.277  -1.229   1.277  0.00  0.00     0.020 A 
ATOM      2  C1  UNL d   1       0.422  -1.226   0.071  0.00  0.00     0.020 A 
ATOM      3  C2  UNL d   1       0.426  -0.082  -0.730  0.00  0.00     0.034 A 
ATOM      4  C3  UNL d   1      -0.270   1.063  -0.326  0.00  0.00     0.017 A 
ATOM      5  C4  UNL d   1      -0.972   1.058   0.885  0.00  0.00     0.017 A 
ATOM      6  C5  UNL d   1      -0.973  -0.090   1.683  0.00  0.00     0.034 A 
ATOM      7 Cl   UNL d   1      -1.854   2.433   1.450  0.00  0.00    -0.070 Cl
ATOM      8 Cl1  UNL d   1      -0.221   2.442  -1.366  0.00  0.00    -0.070 Cl
ENDROOT
TORSDOF 0
ENDMDL
