MODEL 1
REMARK minimizedAffinity -3.05174947
REMARK minimizedRMSD -1
REMARK  0 active torsions:
REMARK  status: ('A' for Active; 'I' for Inactive)
ROOT
ATOM      1  C   UNL d   1       0.813   0.776  -1.518  0.00  0.00     0.020 A 
ATOM      2  C1  UNL d   1       1.362  -0.453  -1.156  0.00  0.00     0.020 A 
ATOM      3  C2  UNL d   1       1.009  -1.045   0.059  0.00  0.00     0.034 A 
ATOM      4  C3  UNL d   1       0.104  -0.407   0.915  0.00  0.00     0.017 A 
ATOM      5  C4  UNL d   1      -0.447   0.827   0.551  0.00  0.00     0.017 A 
ATOM      6  C5  UNL d   1      -0.089   1.414  -0.667  0.00  0.00     0.034 A 
ATOM      7 Cl   UNL d   1      -1.569   1.674   1.555  0.00  0.00    -0.070 Cl
ATOM      8 Cl1  UNL d   1      -0.288  -1.197   2.402  0.00  0.00    -0.070 Cl
ENDROOT
TORSDOF 0
ENDMDL
