MODEL 1
REMARK minimizedAffinity -4.68608952
REMARK minimizedRMSD -1
REMARK  0 active torsions:
REMARK  status: ('A' for Active; 'I' for Inactive)
ROOT
ATOM      1  C   UNL d   1      -1.872   2.283   1.085  0.00  0.00     0.020 A 
ATOM      2  C1  UNL d   1      -1.419   2.442  -0.224  0.00  0.00     0.020 A 
ATOM      3  C2  UNL d   1      -0.545   1.504  -0.779  0.00  0.00     0.034 A 
ATOM      4  C3  UNL d   1      -0.122   0.404  -0.024  0.00  0.00     0.017 A 
ATOM      5  C4  UNL d   1      -0.577   0.245   1.290  0.00  0.00     0.017 A 
ATOM      6  C5  UNL d   1      -1.452   1.187   1.840  0.00  0.00     0.034 A 
ATOM      7 Cl   UNL d   1      -0.099  -1.086   2.282  0.00  0.00    -0.070 Cl
ATOM      8 Cl1  UNL d   1       0.958  -0.717  -0.774  0.00  0.00    -0.070 Cl
ENDROOT
TORSDOF 0
ENDMDL
