MODEL 1
REMARK minimizedAffinity -5.22135782
REMARK minimizedRMSD -1
REMARK  0 active torsions:
REMARK  status: ('A' for Active; 'I' for Inactive)
ROOT
ATOM      1  C   UNL d   1      -2.289   1.726   1.099  0.00  0.00     0.020 A 
ATOM      2  C1  UNL d   1      -1.735   2.903   0.596  0.00  0.00     0.020 A 
ATOM      3  C2  UNL d   1      -0.600   2.849  -0.216  0.00  0.00     0.034 A 
ATOM      4  C3  UNL d   1      -0.015   1.616  -0.528  0.00  0.00     0.017 A 
ATOM      5  C4  UNL d   1      -0.572   0.435  -0.023  0.00  0.00     0.017 A 
ATOM      6  C5  UNL d   1      -1.709   0.495   0.790  0.00  0.00     0.034 A 
ATOM      7 Cl   UNL d   1       0.092  -1.123  -0.364  0.00  0.00    -0.070 Cl
ATOM      8 Cl1  UNL d   1       1.386   1.623  -1.538  0.00  0.00    -0.070 Cl
ENDROOT
TORSDOF 0
ENDMDL
