MODEL 1
REMARK minimizedAffinity -1.34609866
REMARK minimizedRMSD -1
REMARK  0 active torsions:
REMARK  status: ('A' for Active; 'I' for Inactive)
ROOT
ATOM      1  C   UNL d   1       1.348  -0.420  -0.679  0.00  0.00     0.020 A 
ATOM      2  C1  UNL d   1       0.431  -0.970   0.216  0.00  0.00     0.020 A 
ATOM      3  C2  UNL d   1      -0.666  -0.218   0.642  0.00  0.00     0.034 A 
ATOM      4  C3  UNL d   1      -0.848   1.088   0.173  0.00  0.00     0.017 A 
ATOM      5  C4  UNL d   1       0.073   1.639  -0.726  0.00  0.00     0.017 A 
ATOM      6  C5  UNL d   1       1.169   0.882  -1.149  0.00  0.00     0.034 A 
ATOM      7 Cl   UNL d   1      -0.086   3.244  -1.348  0.00  0.00    -0.070 Cl
ATOM      8 Cl1  UNL d   1      -2.227   1.961   0.741  0.00  0.00    -0.070 Cl
ENDROOT
TORSDOF 0
ENDMDL
