MODEL 1
REMARK minimizedAffinity -3.79073071
REMARK minimizedRMSD -1
REMARK  0 active torsions:
REMARK  status: ('A' for Active; 'I' for Inactive)
ROOT
ATOM      1  C   UNL d   1       1.217  -0.432  -0.218  0.00  0.00     0.020 A 
ATOM      2  C1  UNL d   1       0.519  -0.803   0.931  0.00  0.00     0.020 A 
ATOM      3  C2  UNL d   1      -0.494   0.019   1.429  0.00  0.00     0.034 A 
ATOM      4  C3  UNL d   1      -0.811   1.218   0.778  0.00  0.00     0.017 A 
ATOM      5  C4  UNL d   1      -0.110   1.589  -0.374  0.00  0.00     0.017 A 
ATOM      6  C5  UNL d   1       0.903   0.762  -0.869  0.00  0.00     0.034 A 
ATOM      7 Cl   UNL d   1      -0.444   3.052  -1.232  0.00  0.00    -0.070 Cl
ATOM      8 Cl1  UNL d   1      -2.075   2.186   1.449  0.00  0.00    -0.070 Cl
ENDROOT
TORSDOF 0
ENDMDL
