MODEL 1
REMARK minimizedAffinity -5.34118891
REMARK minimizedRMSD -1
REMARK  0 active torsions:
REMARK  status: ('A' for Active; 'I' for Inactive)
ROOT
ATOM      1  C   UNL d   1      -2.043   1.413   0.003  0.00  0.00     0.020 A 
ATOM      2  C1  UNL d   1      -1.742   1.545   1.358  0.00  0.00     0.020 A 
ATOM      3  C2  UNL d   1      -0.787   0.713   1.946  0.00  0.00     0.034 A 
ATOM      4  C3  UNL d   1      -0.130  -0.256   1.178  0.00  0.00     0.017 A 
ATOM      5  C4  UNL d   1      -0.433  -0.388  -0.181  0.00  0.00     0.017 A 
ATOM      6  C5  UNL d   1      -1.390   0.448  -0.765  0.00  0.00     0.034 A 
ATOM      7 Cl   UNL d   1       0.336  -1.560  -1.193  0.00  0.00    -0.070 Cl
ATOM      8 Cl1  UNL d   1       1.040  -1.250   1.970  0.00  0.00    -0.070 Cl
ENDROOT
TORSDOF 0
ENDMDL
