MODEL 1
REMARK minimizedAffinity -0.440707296
REMARK minimizedRMSD -1
REMARK  1 active torsions:
REMARK  status: ('A' for Active; 'I' for Inactive)
REMARK    1  A    between atoms: C3_4  and  O_7 
ROOT
ATOM      1  C   UNL d   1       5.046  -3.766  -5.999  0.00  0.00    -0.033 A 
ATOM      2  C1  UNL d   1       4.163  -4.848  -6.000  0.00  0.00     0.039 A 
ATOM      3  C2  UNL d   1       2.787  -4.628  -5.908  0.00  0.00    -0.080 A 
ATOM      4  C3  UNL d   1       2.308  -3.324  -5.816  0.00  0.00     0.150 A 
ATOM      5  C4  UNL d   1       3.182  -2.242  -5.818  0.00  0.00    -0.007 A 
ATOM      6  C5  UNL d   1       4.555  -2.463  -5.910  0.00  0.00     0.039 A 
ENDROOT
BRANCH   4   7
ATOM      7  O   UNL d   1       0.974  -3.060  -5.719  0.00  0.00    -0.526 OA
ATOM      8  H5  UNL d   1       0.494  -3.905  -5.701  0.00  0.00     0.418 HD
ENDBRANCH   4   7
TORSDOF 1
ENDMDL
