MODEL 1
REMARK minimizedAffinity -0.848881662
REMARK minimizedRMSD -1
REMARK  1 active torsions:
REMARK  status: ('A' for Active; 'I' for Inactive)
REMARK    1  A    between atoms: C3_4  and  O_7 
ROOT
ATOM      1  C   UNL d   1       4.246   5.693  -1.171  0.00  0.00    -0.033 A 
ATOM      2  C1  UNL d   1       5.559   5.998  -1.537  0.00  0.00     0.039 A 
ATOM      3  C2  UNL d   1       5.998   5.748  -2.838  0.00  0.00    -0.080 A 
ATOM      4  C3  UNL d   1       5.117   5.194  -3.763  0.00  0.00     0.150 A 
ATOM      5  C4  UNL d   1       3.807   4.891  -3.406  0.00  0.00    -0.007 A 
ATOM      6  C5  UNL d   1       3.370   5.141  -2.105  0.00  0.00     0.039 A 
ENDROOT
BRANCH   4   7
ATOM      7  O   UNL d   1       5.501   4.928  -5.043  0.00  0.00    -0.526 OA
ATOM      8  H5  UNL d   1       6.440   5.162  -5.138  0.00  0.00     0.418 HD
ENDBRANCH   4   7
TORSDOF 1
ENDMDL
