MODEL 1
REMARK minimizedAffinity 6.7647624
REMARK minimizedRMSD -1
REMARK  1 active torsions:
REMARK  status: ('A' for Active; 'I' for Inactive)
REMARK    1  A    between atoms: C3_4  and  O_7 
ROOT
ATOM      1  C   UNL d   1       2.248   5.215  -1.984  0.00  0.00    -0.033 A 
ATOM      2  C1  UNL d   1       2.640   5.823  -0.789  0.00  0.00     0.039 A 
ATOM      3  C2  UNL d   1       3.901   5.560  -0.252  0.00  0.00    -0.080 A 
ATOM      4  C3  UNL d   1       4.761   4.691  -0.918  0.00  0.00     0.150 A 
ATOM      5  C4  UNL d   1       4.378   4.085  -2.110  0.00  0.00    -0.007 A 
ATOM      6  C5  UNL d   1       3.118   4.348  -2.645  0.00  0.00     0.039 A 
ENDROOT
BRANCH   4   7
ATOM      7  O   UNL d   1       6.000   4.401  -0.430  0.00  0.00    -0.526 OA
ATOM      8  H5  UNL d   1       6.116   4.868   0.414  0.00  0.00     0.418 HD
ENDBRANCH   4   7
TORSDOF 1
ENDMDL
