MODEL 1
REMARK minimizedAffinity 3.27660728
REMARK minimizedRMSD -1
REMARK  1 active torsions:
REMARK  status: ('A' for Active; 'I' for Inactive)
REMARK    1  A    between atoms: C3_4  and  O_7 
ROOT
ATOM      1  C   UNL d   1       5.648  -3.237  -4.561  0.00  0.00    -0.033 A 
ATOM      2  C1  UNL d   1       5.838  -2.658  -5.818  0.00  0.00     0.039 A 
ATOM      3  C2  UNL d   1       5.959  -1.272  -5.939  0.00  0.00    -0.080 A 
ATOM      4  C3  UNL d   1       5.890  -0.478  -4.798  0.00  0.00     0.150 A 
ATOM      5  C4  UNL d   1       5.705  -1.048  -3.543  0.00  0.00    -0.007 A 
ATOM      6  C5  UNL d   1       5.583  -2.432  -3.424  0.00  0.00     0.039 A 
ENDROOT
BRANCH   4   7
ATOM      7  O   UNL d   1       5.998   0.879  -4.867  0.00  0.00    -0.526 OA
ATOM      8  H5  UNL d   1       6.093   1.134  -5.800  0.00  0.00     0.418 HD
ENDBRANCH   4   7
TORSDOF 1
ENDMDL
