MODEL 1
REMARK minimizedAffinity -0.784602225
REMARK minimizedRMSD -1
REMARK  1 active torsions:
REMARK  status: ('A' for Active; 'I' for Inactive)
REMARK    1  A    between atoms: C3_4  and  O_7 
ROOT
ATOM      1  C   UNL d   1       3.883  -0.778  -3.754  0.00  0.00    -0.033 A 
ATOM      2  C1  UNL d   1       5.279  -0.753  -3.751  0.00  0.00     0.039 A 
ATOM      3  C2  UNL d   1       5.998  -1.684  -4.503  0.00  0.00    -0.080 A 
ATOM      4  C3  UNL d   1       5.310  -2.633  -5.253  0.00  0.00     0.150 A 
ATOM      5  C4  UNL d   1       3.919  -2.661  -5.265  0.00  0.00    -0.007 A 
ATOM      6  C5  UNL d   1       3.203  -1.731  -4.512  0.00  0.00     0.039 A 
ENDROOT
BRANCH   4   7
ATOM      7  O   UNL d   1       5.968  -3.565  -5.999  0.00  0.00    -0.526 OA
ATOM      8  H5  UNL d   1       6.923  -3.443  -5.872  0.00  0.00     0.418 HD
ENDBRANCH   4   7
TORSDOF 1
ENDMDL
