MODEL 1
REMARK minimizedAffinity -0.279500365
REMARK minimizedRMSD -1
REMARK  1 active torsions:
REMARK  status: ('A' for Active; 'I' for Inactive)
REMARK    1  A    between atoms: C3_4  and  O_7 
ROOT
ATOM      1  C   UNL d   1       5.614  -6.000  -5.326  0.00  0.00    -0.033 A 
ATOM      2  C1  UNL d   1       5.949  -4.824  -6.000  0.00  0.00     0.039 A 
ATOM      3  C2  UNL d   1       5.244  -3.646  -5.746  0.00  0.00    -0.080 A 
ATOM      4  C3  UNL d   1       4.207  -3.657  -4.816  0.00  0.00     0.150 A 
ATOM      5  C4  UNL d   1       3.870  -4.824  -4.139  0.00  0.00    -0.007 A 
ATOM      6  C5  UNL d   1       4.575  -6.000  -4.394  0.00  0.00     0.039 A 
ENDROOT
BRANCH   4   7
ATOM      7  O   UNL d   1       3.487  -2.534  -4.539  0.00  0.00    -0.526 OA
ATOM      8  H5  UNL d   1       3.813  -1.812  -5.102  0.00  0.00     0.418 HD
ENDBRANCH   4   7
TORSDOF 1
ENDMDL
