MODEL 1
REMARK minimizedAffinity 1.89525592
REMARK minimizedRMSD -1
REMARK  0 active torsions:
REMARK  status: ('A' for Active; 'I' for Inactive)
ROOT
ATOM      1  C   UNL d   1       1.941  -3.345   0.046  0.00  0.00     0.124 A 
ATOM      2  C1  UNL d   1       0.837  -3.092  -0.756  0.00  0.00     0.062 A 
ATOM      3  C2  UNL d   1       0.553  -1.792  -1.166  0.00  0.00     0.162 A 
ATOM      4  C3  UNL d   1       1.375  -0.735  -0.775  0.00  0.00    -0.034 A 
ATOM      5  C4  UNL d   1       2.484  -0.998   0.033  0.00  0.00     0.162 A 
ATOM      6  C5  UNL d   1       2.763  -2.299   0.439  0.00  0.00     0.062 A 
ATOM      7  F   UNL d   1       3.830  -2.542   1.214  0.00  0.00    -0.097 F 
ATOM      8  F1  UNL d   1       3.295  -0.005   0.427  0.00  0.00    -0.096 F 
ATOM      9  I   UNL d   1       0.954   1.209  -1.385  0.00  0.00    -0.060 I 
ATOM     10  F2  UNL d   1      -0.520  -1.576  -1.941  0.00  0.00    -0.096 F 
ATOM     11  F3  UNL d   1       0.041  -4.101  -1.137  0.00  0.00    -0.097 F 
ATOM     12  F4  UNL d   1       2.212  -4.596   0.439  0.00  0.00    -0.092 F 
ENDROOT
TORSDOF 0
ENDMDL
