MODEL 1
REMARK minimizedAffinity 3.03607702
REMARK minimizedRMSD -1
REMARK  0 active torsions:
REMARK  status: ('A' for Active; 'I' for Inactive)
ROOT
ATOM      1  C   UNL d   1       1.856   1.962  -1.712  0.00  0.00     0.124 A 
ATOM      2  C1  UNL d   1       1.465   0.915  -2.534  0.00  0.00     0.062 A 
ATOM      3  C2  UNL d   1       1.226  -0.346  -1.996  0.00  0.00     0.162 A 
ATOM      4  C3  UNL d   1       1.377  -0.567  -0.627  0.00  0.00    -0.034 A 
ATOM      5  C4  UNL d   1       1.771   0.491   0.194  0.00  0.00     0.162 A 
ATOM      6  C5  UNL d   1       2.009   1.750  -0.349  0.00  0.00     0.062 A 
ATOM      7  F   UNL d   1       2.386   2.760   0.447  0.00  0.00    -0.097 F 
ATOM      8  F1  UNL d   1       1.925   0.314   1.514  0.00  0.00    -0.096 F 
ATOM      9  I   UNL d   1       1.021  -2.451   0.182  0.00  0.00    -0.060 I 
ATOM     10  F2  UNL d   1       0.850  -1.340  -2.815  0.00  0.00    -0.096 F 
ATOM     11  F3  UNL d   1       1.318   1.118  -3.852  0.00  0.00    -0.097 F 
ATOM     12  F4  UNL d   1       2.086   3.175  -2.233  0.00  0.00    -0.092 F 
ENDROOT
TORSDOF 0
ENDMDL
