MODEL 1
REMARK minimizedAffinity 15.8593969
REMARK minimizedRMSD -1
REMARK  0 active torsions:
REMARK  status: ('A' for Active; 'I' for Inactive)
ROOT
ATOM      1  C   UNL d   1      -3.856   1.320   2.385  0.00  0.00     0.124 A 
ATOM      2  C1  UNL d   1      -3.638   2.154   1.297  0.00  0.00     0.062 A 
ATOM      3  C2  UNL d   1      -2.960   3.358   1.463  0.00  0.00     0.162 A 
ATOM      4  C3  UNL d   1      -2.494   3.736   2.722  0.00  0.00    -0.034 A 
ATOM      5  C4  UNL d   1      -2.718   2.892   3.812  0.00  0.00     0.162 A 
ATOM      6  C5  UNL d   1      -3.396   1.690   3.641  0.00  0.00     0.062 A 
ATOM      7  F   UNL d   1      -3.605   0.885   4.694  0.00  0.00    -0.097 F 
ATOM      8  F1  UNL d   1      -2.283   3.225   5.037  0.00  0.00    -0.096 F 
ATOM      9  I   UNL d   1      -1.480   5.536   2.974  0.00  0.00    -0.060 I 
ATOM     10  F2  UNL d   1      -2.764   4.144   0.394  0.00  0.00    -0.096 F 
ATOM     11  F3  UNL d   1      -4.082   1.799   0.083  0.00  0.00    -0.097 F 
ATOM     12  F4  UNL d   1      -4.509   0.162   2.223  0.00  0.00    -0.092 F 
ENDROOT
TORSDOF 0
ENDMDL
