MODEL 1
REMARK minimizedAffinity 3.03794599
REMARK minimizedRMSD -1
REMARK  0 active torsions:
REMARK  status: ('A' for Active; 'I' for Inactive)
ROOT
ATOM      1  C   UNL d   1       1.217   0.570  -0.311  0.00  0.00     0.124 A 
ATOM      2  C1  UNL d   1       1.341   1.051  -1.607  0.00  0.00     0.062 A 
ATOM      3  C2  UNL d   1       1.711   2.374  -1.831  0.00  0.00     0.162 A 
ATOM      4  C3  UNL d   1       1.961   3.226  -0.755  0.00  0.00    -0.034 A 
ATOM      5  C4  UNL d   1       1.833   2.736   0.546  0.00  0.00     0.162 A 
ATOM      6  C5  UNL d   1       1.463   1.413   0.764  0.00  0.00     0.062 A 
ATOM      7  F   UNL d   1       1.344   0.951   2.017  0.00  0.00    -0.097 F 
ATOM      8  F1  UNL d   1       2.066   3.529   1.603  0.00  0.00    -0.096 F 
ATOM      9  I   UNL d   1       2.514   5.205  -1.086  0.00  0.00    -0.060 I 
ATOM     10  F2  UNL d   1       1.823   2.811  -3.094  0.00  0.00    -0.096 F 
ATOM     11  F3  UNL d   1       1.103   0.239  -2.647  0.00  0.00    -0.097 F 
ATOM     12  F4  UNL d   1       0.860  -0.703  -0.098  0.00  0.00    -0.092 F 
ENDROOT
TORSDOF 0
ENDMDL
