MODEL 1
REMARK minimizedAffinity 7.16566372
REMARK minimizedRMSD -1
REMARK  0 active torsions:
REMARK  status: ('A' for Active; 'I' for Inactive)
ROOT
ATOM      1  C   UNL d   1       1.217   0.159  -0.318  0.00  0.00     0.124 A 
ATOM      2  C1  UNL d   1       1.502   1.078   0.682  0.00  0.00     0.062 A 
ATOM      3  C2  UNL d   1       1.749   2.410   0.359  0.00  0.00     0.162 A 
ATOM      4  C3  UNL d   1       1.710   2.831  -0.970  0.00  0.00    -0.034 A 
ATOM      5  C4  UNL d   1       1.423   1.900  -1.971  0.00  0.00     0.162 A 
ATOM      6  C5  UNL d   1       1.178   0.571  -1.643  0.00  0.00     0.062 A 
ATOM      7  F   UNL d   1       0.903  -0.316  -2.611  0.00  0.00    -0.097 F 
ATOM      8  F1  UNL d   1       1.378   2.271  -3.259  0.00  0.00    -0.096 F 
ATOM      9  I   UNL d   1       2.078   4.820  -1.457  0.00  0.00    -0.060 I 
ATOM     10  F2  UNL d   1       2.021   3.276   1.346  0.00  0.00    -0.096 F 
ATOM     11  F3  UNL d   1       1.542   0.683   1.962  0.00  0.00    -0.097 F 
ATOM     12  F4  UNL d   1       0.981  -1.121  -0.005  0.00  0.00    -0.092 F 
ENDROOT
TORSDOF 0
ENDMDL
