MODEL 1
REMARK minimizedAffinity -0.303784102
REMARK minimizedRMSD -1
REMARK  0 active torsions:
REMARK  status: ('A' for Active; 'I' for Inactive)
ROOT
ATOM      1  C   UNL d   1       1.072   0.362   0.085  0.00  0.00     0.124 A 
ATOM      2  C1  UNL d   1       1.281   0.757  -1.229  0.00  0.00     0.062 A 
ATOM      3  C2  UNL d   1       1.563   2.088  -1.524  0.00  0.00     0.162 A 
ATOM      4  C3  UNL d   1       1.637   3.035  -0.502  0.00  0.00    -0.034 A 
ATOM      5  C4  UNL d   1       1.424   2.630   0.817  0.00  0.00     0.162 A 
ATOM      6  C5  UNL d   1       1.143   1.299   1.106  0.00  0.00     0.062 A 
ATOM      7  F   UNL d   1       0.941   0.919   2.376  0.00  0.00    -0.097 F 
ATOM      8  F1  UNL d   1       1.488   3.514   1.824  0.00  0.00    -0.096 F 
ATOM      9  I   UNL d   1       2.057   5.026  -0.939  0.00  0.00    -0.060 I 
ATOM     10  F2  UNL d   1       1.761   2.441  -2.803  0.00  0.00    -0.096 F 
ATOM     11  F3  UNL d   1       1.212  -0.146  -2.218  0.00  0.00    -0.097 F 
ATOM     12  F4  UNL d   1       0.800  -0.919   0.365  0.00  0.00    -0.092 F 
ENDROOT
TORSDOF 0
ENDMDL
