MODEL 1
REMARK minimizedAffinity -3.32372904
REMARK minimizedRMSD -1
REMARK  0 active torsions:
REMARK  status: ('A' for Active; 'I' for Inactive)
ROOT
ATOM      1  C   UNL d   1       1.722   1.079  -0.459  0.00  0.00     0.124 A 
ATOM      2  C1  UNL d   1       1.414   1.372   0.862  0.00  0.00     0.062 A 
ATOM      3  C2  UNL d   1       0.165   1.042   1.379  0.00  0.00     0.162 A 
ATOM      4  C3  UNL d   1      -0.786   0.413   0.575  0.00  0.00    -0.034 A 
ATOM      5  C4  UNL d   1      -0.470   0.123  -0.753  0.00  0.00     0.162 A 
ATOM      6  C5  UNL d   1       0.780   0.455  -1.265  0.00  0.00     0.062 A 
ATOM      7  F   UNL d   1       1.076   0.171  -2.542  0.00  0.00    -0.097 F 
ATOM      8  F1  UNL d   1      -1.360  -0.481  -1.554  0.00  0.00    -0.096 F 
ATOM      9  I   UNL d   1      -2.655  -0.083   1.345  0.00  0.00    -0.060 I 
ATOM     10  F2  UNL d   1      -0.106   1.337   2.660  0.00  0.00    -0.096 F 
ATOM     11  F3  UNL d   1       2.321   1.976   1.642  0.00  0.00    -0.097 F 
ATOM     12  F4  UNL d   1       2.924   1.399  -0.955  0.00  0.00    -0.092 F 
ENDROOT
TORSDOF 0
ENDMDL
