MODEL 1
REMARK minimizedAffinity 0.00454841368
REMARK minimizedRMSD -1
REMARK  0 active torsions:
REMARK  status: ('A' for Active; 'I' for Inactive)
ROOT
ATOM      1  C   UNL d   1       1.653   0.384  -0.094  0.00  0.00     0.124 A 
ATOM      2  C1  UNL d   1       1.654   1.327   0.926  0.00  0.00     0.062 A 
ATOM      3  C2  UNL d   1       1.736   2.683   0.625  0.00  0.00     0.162 A 
ATOM      4  C3  UNL d   1       1.816   3.106  -0.702  0.00  0.00    -0.034 A 
ATOM      5  C4  UNL d   1       1.816   2.153  -1.722  0.00  0.00     0.162 A 
ATOM      6  C5  UNL d   1       1.735   0.798  -1.416  0.00  0.00     0.062 A 
ATOM      7  F   UNL d   1       1.734  -0.111  -2.402  0.00  0.00    -0.097 F 
ATOM      8  F1  UNL d   1       1.893   2.525  -3.008  0.00  0.00    -0.096 F 
ATOM      9  I   UNL d   1       1.939   5.134  -1.156  0.00  0.00    -0.060 I 
ATOM     10  F2  UNL d   1       1.734   3.571   1.630  0.00  0.00    -0.096 F 
ATOM     11  F3  UNL d   1       1.577   0.929   2.204  0.00  0.00    -0.097 F 
ATOM     12  F4  UNL d   1       1.576  -0.920   0.199  0.00  0.00    -0.092 F 
ENDROOT
TORSDOF 0
ENDMDL
