MODEL 1
REMARK minimizedAffinity 20.4057579
REMARK minimizedRMSD -1
REMARK  0 active torsions:
REMARK  status: ('A' for Active; 'I' for Inactive)
ROOT
ATOM      1  C   UNL d   1       0.983   1.224  -0.603  0.00  0.00     0.124 A 
ATOM      2  C1  UNL d   1       0.903   1.755  -1.883  0.00  0.00     0.062 A 
ATOM      3  C2  UNL d   1       1.262   3.080  -2.115  0.00  0.00     0.162 A 
ATOM      4  C3  UNL d   1       1.707   3.882  -1.064  0.00  0.00    -0.034 A 
ATOM      5  C4  UNL d   1       1.785   3.341   0.220  0.00  0.00     0.162 A 
ATOM      6  C5  UNL d   1       1.424   2.016   0.447  0.00  0.00     0.062 A 
ATOM      7  F   UNL d   1       1.503   1.505   1.684  0.00  0.00    -0.097 F 
ATOM      8  F1  UNL d   1       2.209   4.084   1.253  0.00  0.00    -0.096 F 
ATOM      9  I   UNL d   1       2.246   5.863  -1.406  0.00  0.00    -0.060 I 
ATOM     10  F2  UNL d   1       1.175   3.567  -3.361  0.00  0.00    -0.096 F 
ATOM     11  F3  UNL d   1       0.476   0.991  -2.899  0.00  0.00    -0.097 F 
ATOM     12  F4  UNL d   1       0.636  -0.051  -0.383  0.00  0.00    -0.092 F 
ENDROOT
TORSDOF 0
ENDMDL
