MODEL 1
REMARK minimizedAffinity 8.5435648
REMARK minimizedRMSD -1
REMARK  0 active torsions:
REMARK  status: ('A' for Active; 'I' for Inactive)
ROOT
ATOM      1  C   UNL d   1       1.306   1.753  -3.014  0.00  0.00     0.124 A 
ATOM      2  C1  UNL d   1       1.155   0.489  -2.461  0.00  0.00     0.062 A 
ATOM      3  C2  UNL d   1       1.361   0.291  -1.099  0.00  0.00     0.162 A 
ATOM      4  C3  UNL d   1       1.719   1.361  -0.279  0.00  0.00    -0.034 A 
ATOM      5  C4  UNL d   1       1.869   2.630  -0.842  0.00  0.00     0.162 A 
ATOM      6  C5  UNL d   1       1.662   2.822  -2.204  0.00  0.00     0.062 A 
ATOM      7  F   UNL d   1       1.808   4.044  -2.737  0.00  0.00    -0.097 F 
ATOM      8  F1  UNL d   1       2.213   3.681  -0.083  0.00  0.00    -0.096 F 
ATOM      9  I   UNL d   1       2.028   1.071   1.759  0.00  0.00    -0.060 I 
ATOM     10  F2  UNL d   1       1.209  -0.941  -0.592  0.00  0.00    -0.096 F 
ATOM     11  F3  UNL d   1       0.812  -0.546  -3.242  0.00  0.00    -0.097 F 
ATOM     12  F4  UNL d   1       1.108   1.940  -4.325  0.00  0.00    -0.092 F 
ENDROOT
TORSDOF 0
ENDMDL
