MODEL 1
REMARK minimizedAffinity 17.3603611
REMARK minimizedRMSD -1
REMARK  0 active torsions:
REMARK  status: ('A' for Active; 'I' for Inactive)
ROOT
ATOM      1  C   UNL d   1       1.019   0.056  -0.227  0.00  0.00     0.124 A 
ATOM      2  C1  UNL d   1       1.027   0.350  -1.583  0.00  0.00     0.062 A 
ATOM      3  C2  UNL d   1       1.271   1.649  -2.016  0.00  0.00     0.162 A 
ATOM      4  C3  UNL d   1       1.511   2.666  -1.092  0.00  0.00    -0.034 A 
ATOM      5  C4  UNL d   1       1.501   2.363   0.271  0.00  0.00     0.162 A 
ATOM      6  C5  UNL d   1       1.257   1.062   0.699  0.00  0.00     0.062 A 
ATOM      7  F   UNL d   1       1.250   0.780   2.010  0.00  0.00    -0.097 F 
ATOM      8  F1  UNL d   1       1.729   3.316   1.186  0.00  0.00    -0.096 F 
ATOM      9  I   UNL d   1       1.877   4.611  -1.736  0.00  0.00    -0.060 I 
ATOM     10  F2  UNL d   1       1.272   1.905  -3.333  0.00  0.00    -0.096 F 
ATOM     11  F3  UNL d   1       0.797  -0.621  -2.479  0.00  0.00    -0.097 F 
ATOM     12  F4  UNL d   1       0.783  -1.196   0.188  0.00  0.00    -0.092 F 
ENDROOT
TORSDOF 0
ENDMDL
