MODEL 1
REMARK minimizedAffinity 10.6884909
REMARK minimizedRMSD -1
REMARK  0 active torsions:
REMARK  status: ('A' for Active; 'I' for Inactive)
ROOT
ATOM      1  C   UNL d   1       1.242   0.170   0.109  0.00  0.00     0.124 A 
ATOM      2  C1  UNL d   1       1.234   0.596  -1.212  0.00  0.00     0.062 A 
ATOM      3  C2  UNL d   1       1.509   1.925  -1.521  0.00  0.00     0.162 A 
ATOM      4  C3  UNL d   1       1.796   2.838  -0.506  0.00  0.00    -0.034 A 
ATOM      5  C4  UNL d   1       1.801   2.403   0.820  0.00  0.00     0.162 A 
ATOM      6  C5  UNL d   1       1.525   1.073   1.123  0.00  0.00     0.062 A 
ATOM      7  F   UNL d   1       1.533   0.664   2.400  0.00  0.00    -0.097 F 
ATOM      8  F1  UNL d   1       2.073   3.254   1.820  0.00  0.00    -0.096 F 
ATOM      9  I   UNL d   1       2.209   4.826  -0.964  0.00  0.00    -0.060 I 
ATOM     10  F2  UNL d   1       1.495   2.308  -2.806  0.00  0.00    -0.096 F 
ATOM     11  F3  UNL d   1       0.959  -0.275  -2.194  0.00  0.00    -0.097 F 
ATOM     12  F4  UNL d   1       0.975  -1.109   0.403  0.00  0.00    -0.092 F 
ENDROOT
TORSDOF 0
ENDMDL
