MODEL 1
REMARK minimizedAffinity 4.04177618
REMARK minimizedRMSD -1
REMARK  0 active torsions:
REMARK  status: ('A' for Active; 'I' for Inactive)
ROOT
ATOM      1  C   UNL d   1       2.005  -2.630   0.160  0.00  0.00     0.124 A 
ATOM      2  C1  UNL d   1       3.057  -1.769   0.439  0.00  0.00     0.062 A 
ATOM      3  C2  UNL d   1       2.992  -0.434   0.052  0.00  0.00     0.162 A 
ATOM      4  C3  UNL d   1       1.868   0.050  -0.619  0.00  0.00    -0.034 A 
ATOM      5  C4  UNL d   1       0.814  -0.822  -0.897  0.00  0.00     0.162 A 
ATOM      6  C5  UNL d   1       0.885  -2.156  -0.508  0.00  0.00     0.062 A 
ATOM      7  F   UNL d   1      -0.133  -2.986  -0.779  0.00  0.00    -0.097 F 
ATOM      8  F1  UNL d   1      -0.281  -0.391  -1.541  0.00  0.00    -0.096 F 
ATOM      9  I   UNL d   1       1.766   2.045  -1.200  0.00  0.00    -0.060 I 
ATOM     10  F2  UNL d   1       4.023   0.376   0.335  0.00  0.00    -0.096 F 
ATOM     11  F3  UNL d   1       4.141  -2.224   1.084  0.00  0.00    -0.097 F 
ATOM     12  F4  UNL d   1       2.072  -3.914   0.533  0.00  0.00    -0.092 F 
ENDROOT
TORSDOF 0
ENDMDL
