MODEL 1
REMARK minimizedAffinity 11.0733805
REMARK minimizedRMSD -1
REMARK  0 active torsions:
REMARK  status: ('A' for Active; 'I' for Inactive)
ROOT
ATOM      1  C   UNL d   1       1.376   1.866  -1.149  0.00  0.00     0.124 A 
ATOM      2  C1  UNL d   1       1.134   1.012  -2.216  0.00  0.00     0.062 A 
ATOM      3  C2  UNL d   1       0.859  -0.333  -1.987  0.00  0.00     0.162 A 
ATOM      4  C3  UNL d   1       0.822  -0.833  -0.685  0.00  0.00    -0.034 A 
ATOM      5  C4  UNL d   1       1.067   0.032   0.383  0.00  0.00     0.162 A 
ATOM      6  C5  UNL d   1       1.342   1.376   0.149  0.00  0.00     0.062 A 
ATOM      7  F   UNL d   1       1.575   2.199   1.181  0.00  0.00    -0.097 F 
ATOM      8  F1  UNL d   1       1.040  -0.415   1.647  0.00  0.00    -0.096 F 
ATOM      9  I   UNL d   1       0.411  -2.844  -0.339  0.00  0.00    -0.060 I 
ATOM     10  F2  UNL d   1       0.630  -1.136  -3.037  0.00  0.00    -0.096 F 
ATOM     11  F3  UNL d   1       1.167   1.483  -3.471  0.00  0.00    -0.097 F 
ATOM     12  F4  UNL d   1       1.641   3.159  -1.371  0.00  0.00    -0.092 F 
ENDROOT
TORSDOF 0
ENDMDL
