MODEL 1
REMARK minimizedAffinity 2.10901475
REMARK minimizedRMSD -1
REMARK  1 active torsions:
REMARK  status: ('A' for Active; 'I' for Inactive)
REMARK    1  A    between atoms: C1_2  and  C2_3 
ROOT
ATOM      1  C2  UNL d   1       0.835  -1.408   1.278  0.00  0.00    -0.077 A 
ATOM      2  C3  UNL d   1       1.213  -0.170   1.816  0.00  0.00     0.002 A 
ATOM      3  C4  UNL d   1       2.557   0.208   1.842  0.00  0.00     0.002 A 
ATOM      4  C5  UNL d   1       3.532  -0.644   1.328  0.00  0.00    -0.004 A 
ATOM      5  C6  UNL d   1       3.167  -1.878   0.793  0.00  0.00     0.002 A 
ATOM      6  C7  UNL d   1       1.824  -2.258   0.767  0.00  0.00     0.002 A 
ENDROOT
BRANCH   1   7
ATOM      7  C1  UNL d   1      -0.618  -1.797   1.203  0.00  0.00     0.055 C 
ATOM      8  C   UNL d   1      -1.091  -1.900  -0.239  0.00  0.00     0.019 C 
ENDBRANCH   1   7
TORSDOF 1
ENDMDL
