MODEL 1
REMARK minimizedAffinity 1.52249157
REMARK minimizedRMSD -1
REMARK  1 active torsions:
REMARK  status: ('A' for Active; 'I' for Inactive)
REMARK    1  A    between atoms: C1_2  and  C2_3 
ROOT
ATOM      1  C2  UNL d   1       0.712  -2.195   0.197  0.00  0.00    -0.077 A 
ATOM      2  C3  UNL d   1       1.169  -2.371  -1.116  0.00  0.00     0.002 A 
ATOM      3  C4  UNL d   1       0.334  -2.086  -2.198  0.00  0.00     0.002 A 
ATOM      4  C5  UNL d   1      -0.960  -1.620  -1.978  0.00  0.00    -0.004 A 
ATOM      5  C6  UNL d   1      -1.424  -1.443  -0.675  0.00  0.00     0.002 A 
ATOM      6  C7  UNL d   1      -0.592  -1.729   0.408  0.00  0.00     0.002 A 
ENDROOT
BRANCH   1   7
ATOM      7  C1  UNL d   1       1.628  -2.455   1.365  0.00  0.00     0.055 C 
ATOM      8  C   UNL d   1       2.651  -1.339   1.525  0.00  0.00     0.019 C 
ENDBRANCH   1   7
TORSDOF 1
ENDMDL
