MODEL 1
REMARK minimizedAffinity 0.434343934
REMARK minimizedRMSD -1
REMARK  1 active torsions:
REMARK  status: ('A' for Active; 'I' for Inactive)
REMARK    1  A    between atoms: C1_2  and  C2_3 
ROOT
ATOM      1  C2  UNL d   1       1.777  -0.378   1.367  0.00  0.00    -0.077 A 
ATOM      2  C3  UNL d   1       2.389  -1.344   2.179  0.00  0.00     0.002 A 
ATOM      3  C4  UNL d   1       1.688  -2.488   2.565  0.00  0.00     0.002 A 
ATOM      4  C5  UNL d   1       0.374  -2.679   2.140  0.00  0.00    -0.004 A 
ATOM      5  C6  UNL d   1      -0.243  -1.723   1.334  0.00  0.00     0.002 A 
ATOM      6  C7  UNL d   1       0.456  -0.578   0.949  0.00  0.00     0.002 A 
ENDROOT
BRANCH   1   7
ATOM      7  C1  UNL d   1       2.548   0.833   0.910  0.00  0.00     0.055 C 
ATOM      8  C   UNL d   1       1.632   2.033   0.721  0.00  0.00     0.019 C 
ENDBRANCH   1   7
TORSDOF 1
ENDMDL
