MODEL 1
REMARK minimizedAffinity 5.39315414
REMARK minimizedRMSD -1
REMARK  1 active torsions:
REMARK  status: ('A' for Active; 'I' for Inactive)
REMARK    1  A    between atoms: C1_2  and  C2_3 
ROOT
ATOM      1  C2  UNL d   1       3.692   0.189  -0.252  0.00  0.00    -0.077 A 
ATOM      2  C3  UNL d   1       3.365  -0.892   0.578  0.00  0.00     0.002 A 
ATOM      3  C4  UNL d   1       2.511  -0.713   1.668  0.00  0.00     0.002 A 
ATOM      4  C5  UNL d   1       1.975   0.544   1.937  0.00  0.00    -0.004 A 
ATOM      5  C6  UNL d   1       2.296   1.627   1.119  0.00  0.00     0.002 A 
ATOM      6  C7  UNL d   1       3.150   1.450   0.029  0.00  0.00     0.002 A 
ENDROOT
BRANCH   1   7
ATOM      7  C1  UNL d   1       4.573  -0.012  -1.457  0.00  0.00     0.055 C 
ATOM      8  C   UNL d   1       3.773   0.079  -2.749  0.00  0.00     0.019 C 
ENDBRANCH   1   7
TORSDOF 1
ENDMDL
