MODEL 1
REMARK minimizedAffinity 1.58393741
REMARK minimizedRMSD -1
REMARK  1 active torsions:
REMARK  status: ('A' for Active; 'I' for Inactive)
REMARK    1  A    between atoms: C1_2  and  C2_3 
ROOT
ATOM      1  C2  UNL d   1       2.370  -1.386   1.034  0.00  0.00    -0.077 A 
ATOM      2  C3  UNL d   1       1.848  -0.151   1.445  0.00  0.00     0.002 A 
ATOM      3  C4  UNL d   1       0.471   0.017   1.604  0.00  0.00     0.002 A 
ATOM      4  C5  UNL d   1      -0.395  -1.047   1.358  0.00  0.00    -0.004 A 
ATOM      5  C6  UNL d   1       0.114  -2.278   0.947  0.00  0.00     0.002 A 
ATOM      6  C7  UNL d   1       1.490  -2.447   0.786  0.00  0.00     0.002 A 
ENDROOT
BRANCH   1   7
ATOM      7  C1  UNL d   1       3.858  -1.583   0.909  0.00  0.00     0.055 C 
ATOM      8  C   UNL d   1       4.411  -0.865  -0.314  0.00  0.00     0.019 C 
ENDBRANCH   1   7
TORSDOF 1
ENDMDL
