MODEL 1
REMARK minimizedAffinity 3.21960402
REMARK minimizedRMSD -1
REMARK  0 active torsions:
REMARK  status: ('A' for Active; 'I' for Inactive)
ROOT
ATOM      1  C1  BNZ d   1      -0.872   0.524   1.809  0.00  0.00     0.000 A 
ATOM      2  C2  BNZ d   1      -0.798   0.416   0.445  0.00  0.00     0.000 A 
ATOM      3  C3  BNZ d   1      -1.932   0.315  -0.311  0.00  0.00     0.000 A 
ATOM      4  C4  BNZ d   1      -3.135   0.282   0.299  0.00  0.00     0.000 A 
ATOM      5  C5  BNZ d   1      -3.225   0.380   1.673  0.00  0.00     0.000 A 
ATOM      6  C6  BNZ d   1      -2.083   0.521   2.428  0.00  0.00     0.000 A 
ENDROOT
TORSDOF 0
ENDMDL
