MODEL 1
REMARK minimizedAffinity 7.06839132
REMARK minimizedRMSD -1
REMARK  0 active torsions:
REMARK  status: ('A' for Active; 'I' for Inactive)
ROOT
ATOM      1  C1  BNZ d   1       2.625   1.538   1.267  0.00  0.00     0.000 A 
ATOM      2  C2  BNZ d   1       3.361   2.039   0.226  0.00  0.00     0.000 A 
ATOM      3  C3  BNZ d   1       3.340   1.435  -1.000  0.00  0.00     0.000 A 
ATOM      4  C4  BNZ d   1       2.616   0.310  -1.173  0.00  0.00     0.000 A 
ATOM      5  C5  BNZ d   1       1.876  -0.212  -0.131  0.00  0.00     0.000 A 
ATOM      6  C6  BNZ d   1       1.869   0.421   1.091  0.00  0.00     0.000 A 
ENDROOT
TORSDOF 0
ENDMDL
