MODEL 1
REMARK minimizedAffinity 1.34587848
REMARK minimizedRMSD -1
REMARK  0 active torsions:
REMARK  status: ('A' for Active; 'I' for Inactive)
ROOT
ATOM      1  C1  BNZ d   1       1.207  -1.002  -0.087  0.00  0.00     0.000 A 
ATOM      2  C2  BNZ d   1       0.305  -0.221   0.585  0.00  0.00     0.000 A 
ATOM      3  C3  BNZ d   1      -0.996  -0.143   0.173  0.00  0.00     0.000 A 
ATOM      4  C4  BNZ d   1      -1.383  -0.814  -0.931  0.00  0.00     0.000 A 
ATOM      5  C5  BNZ d   1      -0.483  -1.598  -1.624  0.00  0.00     0.000 A 
ATOM      6  C6  BNZ d   1       0.816  -1.705  -1.184  0.00  0.00     0.000 A 
ENDROOT
TORSDOF 0
ENDMDL
