MODEL 1
REMARK minimizedAffinity -4.89578438
REMARK minimizedRMSD -1
REMARK  0 active torsions:
REMARK  status: ('A' for Active; 'I' for Inactive)
ROOT
ATOM      1  C1  BNZ d   1      -0.014   0.416   0.285  0.00  0.00     0.000 A 
ATOM      2  C2  BNZ d   1       0.886   1.082   1.075  0.00  0.00     0.000 A 
ATOM      3  C3  BNZ d   1       0.716   1.144   2.429  0.00  0.00     0.000 A 
ATOM      4  C4  BNZ d   1      -0.372   0.576   2.988  0.00  0.00     0.000 A 
ATOM      5  C5  BNZ d   1      -1.293  -0.090   2.205  0.00  0.00     0.000 A 
ATOM      6  C6  BNZ d   1      -1.099  -0.184   0.846  0.00  0.00     0.000 A 
ENDROOT
TORSDOF 0
ENDMDL
