MODEL 1
REMARK minimizedAffinity -2.78981566
REMARK minimizedRMSD -1
REMARK  0 active torsions:
REMARK  status: ('A' for Active; 'I' for Inactive)
ROOT
ATOM      1  C1  BNZ d   1       0.083   0.385   2.527  0.00  0.00     0.000 A 
ATOM      2  C2  BNZ d   1       0.238   0.296   1.169  0.00  0.00     0.000 A 
ATOM      3  C3  BNZ d   1      -0.838   0.080   0.354  0.00  0.00     0.000 A 
ATOM      4  C4  BNZ d   1      -2.060  -0.087   0.901  0.00  0.00     0.000 A 
ATOM      5  C5  BNZ d   1      -2.231  -0.009   2.269  0.00  0.00     0.000 A 
ATOM      6  C6  BNZ d   1      -1.151   0.248   3.082  0.00  0.00     0.000 A 
ENDROOT
TORSDOF 0
ENDMDL
