MODEL 1
REMARK minimizedAffinity 6.50976801
REMARK minimizedRMSD -1
REMARK  0 active torsions:
REMARK  status: ('A' for Active; 'I' for Inactive)
ROOT
ATOM      1  C1  BNZ d   1      -1.243  -0.574  -0.697  0.00  0.00     0.000 A 
ATOM      2  C2  BNZ d   1      -2.484  -0.230  -0.231  0.00  0.00     0.000 A 
ATOM      3  C3  BNZ d   1      -2.636   0.330   1.007  0.00  0.00     0.000 A 
ATOM      4  C4  BNZ d   1      -1.553   0.508   1.791  0.00  0.00     0.000 A 
ATOM      5  C5  BNZ d   1      -0.297   0.157   1.339  0.00  0.00     0.000 A 
ATOM      6  C6  BNZ d   1      -0.143  -0.370   0.078  0.00  0.00     0.000 A 
ENDROOT
TORSDOF 0
ENDMDL
