MODEL 1
REMARK minimizedAffinity -0.742353678
REMARK minimizedRMSD -1
REMARK  0 active torsions:
REMARK  status: ('A' for Active; 'I' for Inactive)
ROOT
ATOM      1  C   UNL d   1      -5.999  -3.990  -5.726  0.00  0.00    -0.002 A 
ATOM      2  C1  UNL d   1      -5.598  -5.309  -5.888  0.00  0.00     0.010 A 
ATOM      3  C2  UNL d   1      -4.990  -6.000  -4.838  0.00  0.00     0.041 A 
ATOM      4  C3  UNL d   1      -4.792  -5.337  -3.610  0.00  0.00    -0.075 A 
ATOM      5  S   UNL d   1      -4.070  -5.984  -2.185  0.00  0.00     0.015 SA
ATOM      6  C4  UNL d   1      -4.277  -4.526  -1.328  0.00  0.00     0.022 A 
ATOM      7  C5  UNL d   1      -4.881  -3.558  -2.095  0.00  0.00     0.026 A 
ATOM      8  C6  UNL d   1      -5.188  -4.010  -3.423  0.00  0.00    -0.082 A 
ATOM      9  C7  UNL d   1      -5.801  -3.336  -4.507  0.00  0.00     0.045 A 
ENDROOT
TORSDOF 0
ENDMDL
