MODEL 1
REMARK minimizedAffinity 1.63376749
REMARK minimizedRMSD -1
REMARK  0 active torsions:
REMARK  status: ('A' for Active; 'I' for Inactive)
ROOT
ATOM      1  C   UNL d   1      -5.114  -5.217  -5.994  0.00  0.00    -0.002 A 
ATOM      2  C1  UNL d   1      -5.513  -3.889  -5.935  0.00  0.00     0.010 A 
ATOM      3  C2  UNL d   1      -5.790  -3.284  -4.708  0.00  0.00     0.041 A 
ATOM      4  C3  UNL d   1      -5.657  -4.043  -3.529  0.00  0.00    -0.075 A 
ATOM      5  S   UNL d   1      -5.942  -3.512  -1.913  0.00  0.00     0.015 SA
ATOM      6  C4  UNL d   1      -5.541  -5.035  -1.263  0.00  0.00     0.022 A 
ATOM      7  C5  UNL d   1      -5.196  -5.939  -2.240  0.00  0.00     0.026 A 
ATOM      8  C6  UNL d   1      -5.257  -5.381  -3.562  0.00  0.00    -0.082 A 
ATOM      9  C7  UNL d   1      -4.983  -5.966  -4.822  0.00  0.00     0.045 A 
ENDROOT
TORSDOF 0
ENDMDL
