MODEL 1
REMARK minimizedAffinity 3.69475603
REMARK minimizedRMSD -1
REMARK  0 active torsions:
REMARK  status: ('A' for Active; 'I' for Inactive)
ROOT
ATOM      1  C   UNL d   1      -0.051   4.165  -1.028  0.00  0.00    -0.002 A 
ATOM      2  C1  UNL d   1      -1.128   3.306  -0.861  0.00  0.00     0.010 A 
ATOM      3  C2  UNL d   1      -0.959   2.067  -0.240  0.00  0.00     0.041 A 
ATOM      4  C3  UNL d   1       0.323   1.703   0.216  0.00  0.00    -0.075 A 
ATOM      5  S   UNL d   1       0.768   0.236   1.006  0.00  0.00     0.015 SA
ATOM      6  C4  UNL d   1       2.398   0.715   1.141  0.00  0.00     0.022 A 
ATOM      7  C5  UNL d   1       2.615   1.961   0.601  0.00  0.00     0.026 A 
ATOM      8  C6  UNL d   1       1.423   2.551   0.060  0.00  0.00    -0.082 A 
ATOM      9  C7  UNL d   1       1.219   3.800  -0.574  0.00  0.00     0.045 A 
ENDROOT
TORSDOF 0
ENDMDL
