MODEL 1
REMARK minimizedAffinity 13.8849106
REMARK minimizedRMSD -1
REMARK  0 active torsions:
REMARK  status: ('A' for Active; 'I' for Inactive)
ROOT
ATOM      1  C   UNL d   1       5.813   0.866  -5.952  0.00  0.00    -0.002 A 
ATOM      2  C1  UNL d   1       4.611   1.559  -5.990  0.00  0.00     0.010 A 
ATOM      3  C2  UNL d   1       3.555   1.195  -5.153  0.00  0.00     0.041 A 
ATOM      4  C3  UNL d   1       3.729   0.114  -4.266  0.00  0.00    -0.075 A 
ATOM      5  S   UNL d   1       2.575  -0.508  -3.147  0.00  0.00     0.015 SA
ATOM      6  C4  UNL d   1       3.651  -1.708  -2.590  0.00  0.00     0.022 A 
ATOM      7  C5  UNL d   1       4.865  -1.649  -3.232  0.00  0.00     0.026 A 
ATOM      8  C6  UNL d   1       4.931  -0.598  -4.208  0.00  0.00    -0.082 A 
ATOM      9  C7  UNL d   1       5.982  -0.205  -5.070  0.00  0.00     0.045 A 
ENDROOT
TORSDOF 0
ENDMDL
