MODEL 1
REMARK minimizedAffinity 0.823182762
REMARK minimizedRMSD -1
REMARK  0 active torsions:
REMARK  status: ('A' for Active; 'I' for Inactive)
ROOT
ATOM      1  C   UNL d   1       5.590   1.331  -5.998  0.00  0.00    -0.002 A 
ATOM      2  C1  UNL d   1       4.266   1.748  -6.000  0.00  0.00     0.010 A 
ATOM      3  C2  UNL d   1       3.326   1.127  -5.175  0.00  0.00     0.041 A 
ATOM      4  C3  UNL d   1       3.742   0.072  -4.340  0.00  0.00    -0.075 A 
ATOM      5  S   UNL d   1       2.766  -0.835  -3.245  0.00  0.00     0.015 SA
ATOM      6  C4  UNL d   1       4.084  -1.795  -2.749  0.00  0.00     0.022 A 
ATOM      7  C5  UNL d   1       5.247  -1.446  -3.393  0.00  0.00     0.026 A 
ATOM      8  C6  UNL d   1       5.070  -0.364  -4.320  0.00  0.00    -0.082 A 
ATOM      9  C7  UNL d   1       6.000   0.285  -5.168  0.00  0.00     0.045 A 
ENDROOT
TORSDOF 0
ENDMDL
