MODEL 1
REMARK minimizedAffinity 8.00410557
REMARK minimizedRMSD -1
REMARK  0 active torsions:
REMARK  status: ('A' for Active; 'I' for Inactive)
ROOT
ATOM      1  C4' PXY d   1      -1.302   1.716   3.387  0.00  0.00     0.077 C 
ATOM      2  C1' PXY d   1      -2.523  -1.753  -1.073  0.00  0.00     0.077 C 
ATOM      3  C1  PXY d   1      -2.214  -0.848   0.103  0.00  0.00    -0.082 A 
ATOM      4  C2  PXY d   1      -1.479   0.237  -0.082  0.00  0.00     0.003 A 
ATOM      5  C3  PXY d   1      -1.162   1.049   0.976  0.00  0.00     0.003 A 
ATOM      6  C4  PXY d   1      -1.648   0.778   2.227  0.00  0.00    -0.082 A 
ATOM      7  C5  PXY d   1      -2.407  -0.321   2.422  0.00  0.00     0.003 A 
ATOM      8  C6  PXY d   1      -2.683  -1.155   1.343  0.00  0.00     0.003 A 
ENDROOT
TORSDOF 0
ENDMDL
