MODEL 1
REMARK minimizedAffinity -1.99962687
REMARK minimizedRMSD -1
REMARK  0 active torsions:
REMARK  status: ('A' for Active; 'I' for Inactive)
ROOT
ATOM      1  C4' PXY d   1       5.284   4.332   5.999  0.00  0.00     0.077 C 
ATOM      2  C1' PXY d   1       4.689   5.989   0.493  0.00  0.00     0.077 C 
ATOM      3  C1  PXY d   1       4.851   5.544   1.933  0.00  0.00    -0.082 A 
ATOM      4  C2  PXY d   1       4.020   5.999   2.856  0.00  0.00     0.003 A 
ATOM      5  C3  PXY d   1       4.172   5.632   4.168  0.00  0.00     0.003 A 
ATOM      6  C4  PXY d   1       5.152   4.747   4.531  0.00  0.00    -0.082 A 
ATOM      7  C5  PXY d   1       5.998   4.270   3.593  0.00  0.00     0.003 A 
ATOM      8  C6  PXY d   1       5.852   4.687   2.273  0.00  0.00     0.003 A 
ENDROOT
TORSDOF 0
ENDMDL
