MODEL 1
REMARK minimizedAffinity 10.3522911
REMARK minimizedRMSD -1
REMARK  0 active torsions:
REMARK  status: ('A' for Active; 'I' for Inactive)
ROOT
ATOM      1  C4' PXY d   1       1.832   1.128  -1.893  0.00  0.00     0.077 C 
ATOM      2  C1' PXY d   1       0.782  -4.397  -3.229  0.00  0.00     0.077 C 
ATOM      3  C1  PXY d   1       1.060  -2.952  -2.866  0.00  0.00    -0.082 A 
ATOM      4  C2  PXY d   1       0.518  -1.981  -3.584  0.00  0.00     0.003 A 
ATOM      5  C3  PXY d   1       0.784  -0.669  -3.290  0.00  0.00     0.003 A 
ATOM      6  C4  PXY d   1       1.572  -0.346  -2.217  0.00  0.00    -0.082 A 
ATOM      7  C5  PXY d   1       2.120  -1.330  -1.474  0.00  0.00     0.003 A 
ATOM      8  C6  PXY d   1       1.871  -2.656  -1.814  0.00  0.00     0.003 A 
ENDROOT
TORSDOF 0
ENDMDL
