MODEL 1
REMARK minimizedAffinity -1.52857792
REMARK minimizedRMSD -1
REMARK  0 active torsions:
REMARK  status: ('A' for Active; 'I' for Inactive)
ROOT
ATOM      1  C4' PXY d   1       4.522   5.207  -0.367  0.00  0.00     0.077 C 
ATOM      2  C1' PXY d   1       5.460   5.284   5.336  0.00  0.00     0.077 C 
ATOM      3  C1  PXY d   1       5.227   5.260   3.838  0.00  0.00    -0.082 A 
ATOM      4  C2  PXY d   1       4.263   5.999   3.315  0.00  0.00     0.003 A 
ATOM      5  C3  PXY d   1       4.017   5.965   1.966  0.00  0.00     0.003 A 
ATOM      6  C4  PXY d   1       4.800   5.207   1.138  0.00  0.00    -0.082 A 
ATOM      7  C5  PXY d   1       5.793   4.458   1.664  0.00  0.00     0.003 A 
ATOM      8  C6  PXY d   1       6.000   4.475   3.040  0.00  0.00     0.003 A 
ENDROOT
TORSDOF 0
ENDMDL
