MODEL 1
REMARK minimizedAffinity 4.63361835
REMARK minimizedRMSD -1
REMARK  0 active torsions:
REMARK  status: ('A' for Active; 'I' for Inactive)
ROOT
ATOM      1  C4' PXY d   1       3.476   4.776  -0.408  0.00  0.00     0.077 C 
ATOM      2  C1' PXY d   1       5.807   6.000   4.738  0.00  0.00     0.077 C 
ATOM      3  C1  PXY d   1       5.207   5.680   3.383  0.00  0.00    -0.082 A 
ATOM      4  C2  PXY d   1       3.913   5.865   3.180  0.00  0.00     0.003 A 
ATOM      5  C3  PXY d   1       3.349   5.551   1.971  0.00  0.00     0.003 A 
ATOM      6  C4  PXY d   1       4.126   5.094   0.941  0.00  0.00    -0.082 A 
ATOM      7  C5  PXY d   1       5.450   4.912   1.137  0.00  0.00     0.003 A 
ATOM      8  C6  PXY d   1       5.996   5.198   2.384  0.00  0.00     0.003 A 
ENDROOT
TORSDOF 0
ENDMDL
