MODEL 1
REMARK minimizedAffinity 11.9775925
REMARK minimizedRMSD -1
REMARK  0 active torsions:
REMARK  status: ('A' for Active; 'I' for Inactive)
ROOT
ATOM      1  C4' PXY d   1       0.310  -0.499  -5.968  0.00  0.00     0.077 C 
ATOM      2  C1' PXY d   1       2.023  -3.201  -1.152  0.00  0.00     0.077 C 
ATOM      3  C1  PXY d   1       1.574  -2.504  -2.422  0.00  0.00    -0.082 A 
ATOM      4  C2  PXY d   1       1.843  -1.220  -2.593  0.00  0.00     0.003 A 
ATOM      5  C3  PXY d   1       1.416  -0.566  -3.720  0.00  0.00     0.003 A 
ATOM      6  C4  PXY d   1       0.753  -1.246  -4.706  0.00  0.00    -0.082 A 
ATOM      7  C5  PXY d   1       0.484  -2.559  -4.543  0.00  0.00     0.003 A 
ATOM      8  C6  PXY d   1       0.890  -3.194  -3.373  0.00  0.00     0.003 A 
ENDROOT
TORSDOF 0
ENDMDL
