MODEL 1
REMARK minimizedAffinity 6.4449296
REMARK minimizedRMSD -1
REMARK  0 active torsions:
REMARK  status: ('A' for Active; 'I' for Inactive)
ROOT
ATOM      1  C4' PXY d   1       0.839  -1.764  -2.160  0.00  0.00     0.077 C 
ATOM      2  C1' PXY d   1       2.106   3.821  -2.945  0.00  0.00     0.077 C 
ATOM      3  C1  PXY d   1       1.764   2.360  -2.731  0.00  0.00    -0.082 A 
ATOM      4  C2  PXY d   1       2.704   1.440  -2.877  0.00  0.00     0.003 A 
ATOM      5  C3  PXY d   1       2.404   0.111  -2.720  0.00  0.00     0.003 A 
ATOM      6  C4  PXY d   1       1.142  -0.276  -2.356  0.00  0.00    -0.082 A 
ATOM      7  C5  PXY d   1       0.180   0.658  -2.194  0.00  0.00     0.003 A 
ATOM      8  C6  PXY d   1       0.495   1.998  -2.400  0.00  0.00     0.003 A 
ENDROOT
TORSDOF 0
ENDMDL
