MODEL 1
REMARK minimizedAffinity 11.6745024
REMARK minimizedRMSD -1
REMARK  0 active torsions:
REMARK  status: ('A' for Active; 'I' for Inactive)
ROOT
ATOM      1  C4' PXY d   1      -1.579   5.012   5.883  0.00  0.00     0.077 C 
ATOM      2  C1' PXY d   1      -4.732   5.011   1.038  0.00  0.00     0.077 C 
ATOM      3  C1  PXY d   1      -3.900   5.000   2.305  0.00  0.00    -0.082 A 
ATOM      4  C2  PXY d   1      -4.274   5.735   3.340  0.00  0.00     0.003 A 
ATOM      5  C3  PXY d   1      -3.517   5.761   4.482  0.00  0.00     0.003 A 
ATOM      6  C4  PXY d   1      -2.393   4.986   4.587  0.00  0.00    -0.082 A 
ATOM      7  C5  PXY d   1      -2.010   4.225   3.539  0.00  0.00     0.003 A 
ATOM      8  C6  PXY d   1      -2.771   4.244   2.374  0.00  0.00     0.003 A 
ENDROOT
TORSDOF 0
ENDMDL
