MODEL 1
REMARK minimizedAffinity 11.7886705
REMARK minimizedRMSD -1
REMARK  0 active torsions:
REMARK  status: ('A' for Active; 'I' for Inactive)
ROOT
ATOM      1  C4' PXY d   1       0.395   0.207  -1.709  0.00  0.00     0.077 C 
ATOM      2  C1' PXY d   1      -2.592   0.418   3.236  0.00  0.00     0.077 C 
ATOM      3  C1  PXY d   1      -1.817   0.354   1.934  0.00  0.00    -0.082 A 
ATOM      4  C2  PXY d   1      -0.532   0.669   1.922  0.00  0.00     0.003 A 
ATOM      5  C3  PXY d   1       0.176   0.647   0.748  0.00  0.00     0.003 A 
ATOM      6  C4  PXY d   1      -0.425   0.248  -0.416  0.00  0.00    -0.082 A 
ATOM      7  C5  PXY d   1      -1.733  -0.085  -0.410  0.00  0.00     0.003 A 
ATOM      8  C6  PXY d   1      -2.444  -0.017   0.785  0.00  0.00     0.003 A 
ENDROOT
TORSDOF 0
ENDMDL
