MODEL 1
REMARK minimizedAffinity -2.23394728
REMARK minimizedRMSD -1
REMARK  0 active torsions:
REMARK  status: ('A' for Active; 'I' for Inactive)
ROOT
ATOM      1  C4' PXY d   1       5.510   4.943   5.195  0.00  0.00     0.077 C 
ATOM      2  C1' PXY d   1       4.912   5.187  -0.549  0.00  0.00     0.077 C 
ATOM      3  C1  PXY d   1       5.065   5.136   0.958  0.00  0.00    -0.082 A 
ATOM      4  C2  PXY d   1       5.873   4.241   1.503  0.00  0.00     0.003 A 
ATOM      5  C3  PXY d   1       5.999   4.160   2.866  0.00  0.00     0.003 A 
ATOM      6  C4  PXY d   1       5.332   5.038   3.677  0.00  0.00    -0.082 A 
ATOM      7  C5  PXY d   1       4.513   5.960   3.128  0.00  0.00     0.003 A 
ATOM      8  C6  PXY d   1       4.367   6.000   1.745  0.00  0.00     0.003 A 
ENDROOT
TORSDOF 0
ENDMDL
