MODEL 1
REMARK minimizedAffinity 9.05663204
REMARK minimizedRMSD -1
REMARK  0 active torsions:
REMARK  status: ('A' for Active; 'I' for Inactive)
ROOT
ATOM      1  C4' PXY d   1      -1.255   2.456   4.148  0.00  0.00     0.077 C 
ATOM      2  C1' PXY d   1      -2.948  -1.515   0.304  0.00  0.00     0.077 C 
ATOM      3  C1  PXY d   1      -2.514  -0.477   1.320  0.00  0.00    -0.082 A 
ATOM      4  C2  PXY d   1      -1.845   0.591   0.919  0.00  0.00     0.003 A 
ATOM      5  C3  PXY d   1      -1.416   1.524   1.829  0.00  0.00     0.003 A 
ATOM      6  C4  PXY d   1      -1.722   1.387   3.156  0.00  0.00    -0.082 A 
ATOM      7  C5  PXY d   1      -2.414   0.305   3.572  0.00  0.00     0.003 A 
ATOM      8  C6  PXY d   1      -2.803  -0.650   2.638  0.00  0.00     0.003 A 
ENDROOT
TORSDOF 0
ENDMDL
