MODEL 1
REMARK minimizedAffinity 9.75453663
REMARK minimizedRMSD -1
REMARK  0 active torsions:
REMARK  status: ('A' for Active; 'I' for Inactive)
ROOT
ATOM      1  C4' PXY d   1       5.033   5.869   4.832  0.00  0.00     0.077 C 
ATOM      2  C1' PXY d   1       5.035   4.528  -0.791  0.00  0.00     0.077 C 
ATOM      3  C1  PXY d   1       5.027   4.891   0.681  0.00  0.00    -0.082 A 
ATOM      4  C2  PXY d   1       5.994   4.449   1.469  0.00  0.00     0.003 A 
ATOM      5  C3  PXY d   1       5.986   4.740   2.808  0.00  0.00     0.003 A 
ATOM      6  C4  PXY d   1       5.006   5.536   3.338  0.00  0.00    -0.082 A 
ATOM      7  C5  PXY d   1       4.021   6.000   2.539  0.00  0.00     0.003 A 
ATOM      8  C6  PXY d   1       4.026   5.659   1.190  0.00  0.00     0.003 A 
ENDROOT
TORSDOF 0
ENDMDL
