MODEL 1
REMARK minimizedAffinity 11.0025911
REMARK minimizedRMSD -1
REMARK  0 active torsions:
REMARK  status: ('A' for Active; 'I' for Inactive)
ROOT
ATOM      1  C4' PXY d   1      -2.004   5.160   3.307  0.00  0.00     0.077 C 
ATOM      2  C1' PXY d   1      -2.455  -0.449   1.982  0.00  0.00     0.077 C 
ATOM      3  C1  PXY d   1      -2.341   1.025   2.317  0.00  0.00    -0.082 A 
ATOM      4  C2  PXY d   1      -1.531   1.414   3.289  0.00  0.00     0.003 A 
ATOM      5  C3  PXY d   1      -1.439   2.740   3.626  0.00  0.00     0.003 A 
ATOM      6  C4  PXY d   1      -2.144   3.683   2.927  0.00  0.00    -0.082 A 
ATOM      7  C5  PXY d   1      -2.964   3.296   1.928  0.00  0.00     0.003 A 
ATOM      8  C6  PXY d   1      -3.074   1.941   1.628  0.00  0.00     0.003 A 
ENDROOT
TORSDOF 0
ENDMDL
