MODEL 1
REMARK minimizedAffinity 0.709475935
REMARK minimizedRMSD -1
REMARK  0 active torsions:
REMARK  status: ('A' for Active; 'I' for Inactive)
ROOT
ATOM      1  C4' PXY d   1       5.459   5.610   5.617  0.00  0.00     0.077 C 
ATOM      2  C1' PXY d   1       4.131   5.660  -0.009  0.00  0.00     0.077 C 
ATOM      3  C1  PXY d   1       4.470   5.655   1.469  0.00  0.00    -0.082 A 
ATOM      4  C2  PXY d   1       5.686   5.311   1.860  0.00  0.00     0.003 A 
ATOM      5  C3  PXY d   1       6.000   5.271   3.194  0.00  0.00     0.003 A 
ATOM      6  C4  PXY d   1       5.075   5.638   4.135  0.00  0.00    -0.082 A 
ATOM      7  C5  PXY d   1       3.835   6.000   3.743  0.00  0.00     0.003 A 
ATOM      8  C6  PXY d   1       3.524   5.995   2.386  0.00  0.00     0.003 A 
ENDROOT
TORSDOF 0
ENDMDL
