MODEL 1
REMARK minimizedAffinity 7.18943834
REMARK minimizedRMSD -1
REMARK  0 active torsions:
REMARK  status: ('A' for Active; 'I' for Inactive)
ROOT
ATOM      1  C4' PXY d   1      -1.784   1.323   2.827  0.00  0.00     0.077 C 
ATOM      2  C1' PXY d   1       0.550   0.715  -2.426  0.00  0.00     0.077 C 
ATOM      3  C1  PXY d   1      -0.051   0.872  -1.043  0.00  0.00    -0.082 A 
ATOM      4  C2  PXY d   1      -1.351   0.698  -0.871  0.00  0.00     0.003 A 
ATOM      5  C3  PXY d   1      -1.915   0.867   0.367  0.00  0.00     0.003 A 
ATOM      6  C4  PXY d   1      -1.133   1.166   1.450  0.00  0.00    -0.082 A 
ATOM      7  C5  PXY d   1       0.196   1.334   1.285  0.00  0.00     0.003 A 
ATOM      8  C6  PXY d   1       0.744   1.198   0.012  0.00  0.00     0.003 A 
ENDROOT
TORSDOF 0
ENDMDL
