MODEL 1
REMARK minimizedAffinity 12.7069998
REMARK minimizedRMSD -1
REMARK  0 active torsions:
REMARK  status: ('A' for Active; 'I' for Inactive)
ROOT
ATOM      1  C4' PXY d   1      -1.322   3.029   3.868  0.00  0.00     0.077 C 
ATOM      2  C1' PXY d   1      -2.890  -1.971   1.428  0.00  0.00     0.077 C 
ATOM      3  C1  PXY d   1      -2.469  -0.659   2.060  0.00  0.00    -0.082 A 
ATOM      4  C2  PXY d   1      -2.861  -0.370   3.290  0.00  0.00     0.003 A 
ATOM      5  C3  PXY d   1      -2.515   0.826   3.864  0.00  0.00     0.003 A 
ATOM      6  C4  PXY d   1      -1.716   1.712   3.193  0.00  0.00    -0.082 A 
ATOM      7  C5  PXY d   1      -1.302   1.419   1.942  0.00  0.00     0.003 A 
ATOM      8  C6  PXY d   1      -1.698   0.218   1.361  0.00  0.00     0.003 A 
ENDROOT
TORSDOF 0
ENDMDL
