MODEL 1
REMARK minimizedAffinity 6.72106075
REMARK minimizedRMSD -1
REMARK  0 active torsions:
REMARK  status: ('A' for Active; 'I' for Inactive)
ROOT
ATOM      1  C4' PXY d   1      -1.878   0.737   2.727  0.00  0.00     0.077 C 
ATOM      2  C1' PXY d   1      -4.902   5.491   1.434  0.00  0.00     0.077 C 
ATOM      3  C1  PXY d   1      -4.098   4.251   1.772  0.00  0.00    -0.082 A 
ATOM      4  C2  PXY d   1      -4.599   3.055   1.509  0.00  0.00     0.003 A 
ATOM      5  C3  PXY d   1      -3.899   1.923   1.838  0.00  0.00     0.003 A 
ATOM      6  C4  PXY d   1      -2.651   2.017   2.393  0.00  0.00    -0.082 A 
ATOM      7  C5  PXY d   1      -2.128   3.234   2.655  0.00  0.00     0.003 A 
ATOM      8  C6  PXY d   1      -2.872   4.370   2.351  0.00  0.00     0.003 A 
ENDROOT
TORSDOF 0
ENDMDL
