MODEL 1
REMARK minimizedAffinity 5.65396023
REMARK minimizedRMSD -1
REMARK  0 active torsions:
REMARK  status: ('A' for Active; 'I' for Inactive)
ROOT
ATOM      1  C4' PXY d   1       2.283   3.811  -3.261  0.00  0.00     0.077 C 
ATOM      2  C1' PXY d   1       1.107  -1.684  -1.906  0.00  0.00     0.077 C 
ATOM      3  C1  PXY d   1       1.411  -0.245  -2.273  0.00  0.00    -0.082 A 
ATOM      4  C2  PXY d   1       2.310   0.432  -1.577  0.00  0.00     0.003 A 
ATOM      5  C3  PXY d   1       2.575   1.744  -1.876  0.00  0.00     0.003 A 
ATOM      6  C4  PXY d   1       1.951   2.353  -2.931  0.00  0.00    -0.082 A 
ATOM      7  C5  PXY d   1       1.040   1.666  -3.653  0.00  0.00     0.003 A 
ATOM      8  C6  PXY d   1       0.756   0.348  -3.308  0.00  0.00     0.003 A 
ENDROOT
TORSDOF 0
ENDMDL
