MODEL 1
REMARK minimizedAffinity 1.66437125
REMARK minimizedRMSD -1
REMARK  0 active torsions:
REMARK  status: ('A' for Active; 'I' for Inactive)
ROOT
ATOM      1  C4' PXY d   1      -6.000  -0.383   5.246  0.00  0.00     0.077 C 
ATOM      2  C1' PXY d   1      -2.025   1.115   1.325  0.00  0.00     0.077 C 
ATOM      3  C1  PXY d   1      -3.076   0.729   2.347  0.00  0.00    -0.082 A 
ATOM      4  C2  PXY d   1      -2.701   0.312   3.545  0.00  0.00     0.003 A 
ATOM      5  C3  PXY d   1      -3.638  -0.071   4.471  0.00  0.00     0.003 A 
ATOM      6  C4  PXY d   1      -4.974   0.025   4.186  0.00  0.00    -0.082 A 
ATOM      7  C5  PXY d   1      -5.364   0.460   2.969  0.00  0.00     0.003 A 
ATOM      8  C6  PXY d   1      -4.397   0.805   2.029  0.00  0.00     0.003 A 
ENDROOT
TORSDOF 0
ENDMDL
