MODEL 1
REMARK minimizedAffinity 6.02889538
REMARK minimizedRMSD -1
REMARK  0 active torsions:
REMARK  status: ('A' for Active; 'I' for Inactive)
ROOT
ATOM      1  C4' PXY d   1       5.255   4.961  -0.156  0.00  0.00     0.077 C 
ATOM      2  C1' PXY d   1       5.449   4.665   5.614  0.00  0.00     0.077 C 
ATOM      3  C1  PXY d   1       5.397   4.756   4.101  0.00  0.00    -0.082 A 
ATOM      4  C2  PXY d   1       5.003   3.708   3.396  0.00  0.00     0.003 A 
ATOM      5  C3  PXY d   1       4.980   3.762   2.027  0.00  0.00     0.003 A 
ATOM      6  C4  PXY d   1       5.314   4.918   1.373  0.00  0.00    -0.082 A 
ATOM      7  C5  PXY d   1       5.707   5.995   2.086  0.00  0.00     0.003 A 
ATOM      8  C6  PXY d   1       5.763   5.906   3.474  0.00  0.00     0.003 A 
ENDROOT
TORSDOF 0
ENDMDL
