MODEL 1
REMARK minimizedAffinity -1.68628645
REMARK minimizedRMSD -1
REMARK  1 active torsions:
REMARK  status: ('A' for Active; 'I' for Inactive)
REMARK    1  A    between atoms: C1_2  and  C2_3 
ROOT
ATOM      1  C2  UNL d   1      -0.369   3.768  -0.763  0.00  0.00    -0.077 A 
ATOM      2  C3  UNL d   1      -1.545   3.828  -1.523  0.00  0.00     0.002 A 
ATOM      3  C4  UNL d   1      -1.813   4.940  -2.324  0.00  0.00     0.002 A 
ATOM      4  C5  UNL d   1      -0.907   5.997  -2.377  0.00  0.00    -0.004 A 
ATOM      5  C6  UNL d   1       0.265   5.948  -1.623  0.00  0.00     0.002 A 
ATOM      6  C7  UNL d   1       0.534   4.838  -0.821  0.00  0.00     0.002 A 
ENDROOT
BRANCH   1   7
ATOM      7  C1  UNL d   1      -0.055   2.549   0.063  0.00  0.00     0.055 C 
ATOM      8  C   UNL d   1      -0.158   2.847   1.552  0.00  0.00     0.019 C 
ENDBRANCH   1   7
TORSDOF 1
ENDMDL
