MODEL 1
REMARK minimizedAffinity 2.44717956
REMARK minimizedRMSD -1
REMARK  1 active torsions:
REMARK  status: ('A' for Active; 'I' for Inactive)
REMARK    1  A    between atoms: C1_2  and  C2_3 
ROOT
ATOM      1  C2  UNL d   1      -0.223   4.457  -1.869  0.00  0.00    -0.077 A 
ATOM      2  C3  UNL d   1      -0.828   3.249  -1.496  0.00  0.00     0.002 A 
ATOM      3  C4  UNL d   1      -0.376   2.549  -0.375  0.00  0.00     0.002 A 
ATOM      4  C5  UNL d   1       0.680   3.052   0.383  0.00  0.00    -0.004 A 
ATOM      5  C6  UNL d   1       1.289   4.252   0.018  0.00  0.00     0.002 A 
ATOM      6  C7  UNL d   1       0.839   4.952  -1.102  0.00  0.00     0.002 A 
ENDROOT
BRANCH   1   7
ATOM      7  C1  UNL d   1      -0.742   5.238  -3.049  0.00  0.00     0.055 C 
ATOM      8  C   UNL d   1       0.378   6.000  -3.743  0.00  0.00     0.019 C 
ENDBRANCH   1   7
TORSDOF 1
ENDMDL
