MODEL 1
REMARK minimizedAffinity -0.645375967
REMARK minimizedRMSD -1
REMARK  1 active torsions:
REMARK  status: ('A' for Active; 'I' for Inactive)
REMARK    1  A    between atoms: C1_2  and  C2_3 
ROOT
ATOM      1  C2  UNL d   1      -4.817   4.611  -3.680  0.00  0.00    -0.077 A 
ATOM      2  C3  UNL d   1      -5.325   3.703  -4.620  0.00  0.00     0.002 A 
ATOM      3  C4  UNL d   1      -5.912   2.507  -4.202  0.00  0.00     0.002 A 
ATOM      4  C5  UNL d   1      -5.999   2.210  -2.844  0.00  0.00    -0.004 A 
ATOM      5  C6  UNL d   1      -5.495   3.105  -1.901  0.00  0.00     0.002 A 
ATOM      6  C7  UNL d   1      -4.908   4.300  -2.317  0.00  0.00     0.002 A 
ENDROOT
BRANCH   1   7
ATOM      7  C1  UNL d   1      -4.229   5.924  -4.126  0.00  0.00     0.055 C 
ATOM      8  C   UNL d   1      -4.131   5.999  -5.643  0.00  0.00     0.019 C 
ENDBRANCH   1   7
TORSDOF 1
ENDMDL
