MODEL 1
REMARK minimizedAffinity 10.9426565
REMARK minimizedRMSD -1
REMARK  1 active torsions:
REMARK  status: ('A' for Active; 'I' for Inactive)
REMARK    1  A    between atoms: C1_2  and  C2_3 
ROOT
ATOM      1  C2  UNL d   1       0.786  -2.867  -0.744  0.00  0.00    -0.077 A 
ATOM      2  C3  UNL d   1       1.239  -4.193  -0.741  0.00  0.00     0.002 A 
ATOM      3  C4  UNL d   1       0.663  -5.138  -1.592  0.00  0.00     0.002 A 
ATOM      4  C5  UNL d   1      -0.365  -4.766  -2.456  0.00  0.00    -0.004 A 
ATOM      5  C6  UNL d   1      -0.824  -3.449  -2.465  0.00  0.00     0.002 A 
ATOM      6  C7  UNL d   1      -0.250  -2.504  -1.613  0.00  0.00     0.002 A 
ENDROOT
BRANCH   1   7
ATOM      7  C1  UNL d   1       1.439  -1.835   0.138  0.00  0.00     0.055 C 
ATOM      8  C   UNL d   1       2.934  -1.743  -0.130  0.00  0.00     0.019 C 
ENDBRANCH   1   7
TORSDOF 1
ENDMDL
