MODEL 1
REMARK minimizedAffinity 9.94825077
REMARK minimizedRMSD -1
REMARK  0 active torsions:
REMARK  status: ('A' for Active; 'I' for Inactive)
ROOT
ATOM      1  O1  BZF d   1      -0.360   2.711   4.488  0.00  0.00    -0.204 OA
ATOM      2  C2  BZF d   1       0.283   2.505   5.693  0.00  0.00     0.174 A 
ATOM      3  C3  BZF d   1       0.838   1.277   5.736  0.00  0.00    -0.012 A 
ATOM      4  C3A BZF d   1       0.601   0.711   4.443  0.00  0.00    -0.107 A 
ATOM      5  C4  BZF d   1       0.927  -0.483   3.867  0.00  0.00     0.055 A 
ATOM      6  C5  BZF d   1       0.483  -0.753   2.611  0.00  0.00    -0.016 A 
ATOM      7  C6  BZF d   1      -0.291   0.144   1.906  0.00  0.00     0.022 A 
ATOM      8  C7  BZF d   1      -0.635   1.344   2.434  0.00  0.00     0.029 A 
ATOM      9  C7A BZF d   1      -0.161   1.634   3.690  0.00  0.00     0.058 A 
ENDROOT
TORSDOF 0
ENDMDL
