MODEL 1
REMARK minimizedAffinity 7.83438778
REMARK minimizedRMSD -1
REMARK  0 active torsions:
REMARK  status: ('A' for Active; 'I' for Inactive)
ROOT
ATOM      1  O1  BZF d   1       5.480   4.788   4.128  0.00  0.00    -0.204 OA
ATOM      2  C2  BZF d   1       5.527   3.453   4.479  0.00  0.00     0.174 A 
ATOM      3  C3  BZF d   1       5.084   2.677   3.469  0.00  0.00    -0.012 A 
ATOM      4  C3A BZF d   1       4.824   3.578   2.388  0.00  0.00    -0.107 A 
ATOM      5  C4  BZF d   1       4.379   3.406   1.108  0.00  0.00     0.055 A 
ATOM      6  C5  BZF d   1       4.164   4.500   0.331  0.00  0.00    -0.016 A 
ATOM      7  C6  BZF d   1       4.378   5.779   0.802  0.00  0.00     0.022 A 
ATOM      8  C7  BZF d   1       4.824   5.999   2.063  0.00  0.00     0.029 A 
ATOM      9  C7A BZF d   1       5.074   4.894   2.840  0.00  0.00     0.058 A 
ENDROOT
TORSDOF 0
ENDMDL
