MODEL 1
REMARK minimizedAffinity 23.5351295
REMARK minimizedRMSD -1
REMARK  0 active torsions:
REMARK  status: ('A' for Active; 'I' for Inactive)
ROOT
ATOM      1  O1  BZF d   1       1.570  -1.018  -4.051  0.00  0.00    -0.204 OA
ATOM      2  C2  BZF d   1       0.376  -0.327  -4.124  0.00  0.00     0.174 A 
ATOM      3  C3  BZF d   1      -0.539  -1.026  -4.826  0.00  0.00    -0.012 A 
ATOM      4  C3A BZF d   1       0.095  -2.270  -5.138  0.00  0.00    -0.107 A 
ATOM      5  C4  BZF d   1      -0.311  -3.389  -5.806  0.00  0.00     0.055 A 
ATOM      6  C5  BZF d   1       0.576  -4.401  -6.000  0.00  0.00    -0.016 A 
ATOM      7  C6  BZF d   1       1.875  -4.324  -5.544  0.00  0.00     0.022 A 
ATOM      8  C7  BZF d   1       2.323  -3.236  -4.871  0.00  0.00     0.029 A 
ATOM      9  C7A BZF d   1       1.420  -2.226  -4.645  0.00  0.00     0.058 A 
ENDROOT
TORSDOF 0
ENDMDL
