MODEL 1
REMARK minimizedAffinity 22.1506577
REMARK minimizedRMSD -1
REMARK  0 active torsions:
REMARK  status: ('A' for Active; 'I' for Inactive)
ROOT
ATOM      1  O1  BZF d   1      -0.938   3.274   4.780  0.00  0.00    -0.204 OA
ATOM      2  C2  BZF d   1      -0.226   3.324   5.962  0.00  0.00     0.174 A 
ATOM      3  C3  BZF d   1       0.709   2.352   6.000  0.00  0.00    -0.012 A 
ATOM      4  C3A BZF d   1       0.633   1.708   4.724  0.00  0.00    -0.107 A 
ATOM      5  C4  BZF d   1       1.320   0.676   4.152  0.00  0.00     0.055 A 
ATOM      6  C5  BZF d   1       0.952   0.242   2.918  0.00  0.00    -0.016 A 
ATOM      7  C6  BZF d   1      -0.099   0.813   2.231  0.00  0.00     0.022 A 
ATOM      8  C7  BZF d   1      -0.807   1.842   2.756  0.00  0.00     0.029 A 
ATOM      9  C7A BZF d   1      -0.417   2.305   3.989  0.00  0.00     0.058 A 
ENDROOT
TORSDOF 0
ENDMDL
