MODEL 1
REMARK minimizedAffinity 22.7388859
REMARK minimizedRMSD -1
REMARK  0 active torsions:
REMARK  status: ('A' for Active; 'I' for Inactive)
ROOT
ATOM      1  O1  BZF d   1       1.231  -1.822   1.956  0.00  0.00    -0.204 OA
ATOM      2  C2  BZF d   1       0.325  -1.986   0.926  0.00  0.00     0.174 A 
ATOM      3  C3  BZF d   1      -0.549  -0.959   0.889  0.00  0.00    -0.012 A 
ATOM      4  C3A BZF d   1      -0.108  -0.054   1.906  0.00  0.00    -0.107 A 
ATOM      5  C4  BZF d   1      -0.560   1.159   2.344  0.00  0.00     0.055 A 
ATOM      6  C5  BZF d   1       0.052   1.747   3.405  0.00  0.00    -0.016 A 
ATOM      7  C6  BZF d   1       1.112   1.150   4.055  0.00  0.00     0.022 A 
ATOM      8  C7  BZF d   1       1.598  -0.050   3.655  0.00  0.00     0.029 A 
ATOM      9  C7A BZF d   1       1.004  -0.632   2.561  0.00  0.00     0.058 A 
ENDROOT
TORSDOF 0
ENDMDL
