MODEL 1
REMARK minimizedAffinity 10.9024105
REMARK minimizedRMSD -1
REMARK  0 active torsions:
REMARK  status: ('A' for Active; 'I' for Inactive)
ROOT
ATOM      1  O1  BZF d   1       1.780   0.776   1.747  0.00  0.00    -0.204 OA
ATOM      2  C2  BZF d   1       0.584   0.354   2.294  0.00  0.00     0.174 A 
ATOM      3  C3  BZF d   1       0.721   0.110   3.614  0.00  0.00    -0.012 A 
ATOM      4  C3A BZF d   1       2.065   0.487   3.928  0.00  0.00    -0.107 A 
ATOM      5  C4  BZF d   1       2.793   0.491   5.084  0.00  0.00     0.055 A 
ATOM      6  C5  BZF d   1       4.103   0.850   5.038  0.00  0.00    -0.016 A 
ATOM      7  C6  BZF d   1       4.718   1.205   3.855  0.00  0.00     0.022 A 
ATOM      8  C7  BZF d   1       4.035   1.221   2.684  0.00  0.00     0.029 A 
ATOM      9  C7A BZF d   1       2.703   0.890   2.733  0.00  0.00     0.058 A 
ENDROOT
TORSDOF 0
ENDMDL
