MODEL 1
REMARK minimizedAffinity 16.1787434
REMARK minimizedRMSD -1
REMARK  0 active torsions:
REMARK  status: ('A' for Active; 'I' for Inactive)
ROOT
ATOM      1  O1  BZF d   1       0.470  -0.552  -3.554  0.00  0.00    -0.204 OA
ATOM      2  C2  BZF d   1       0.827  -0.738  -4.876  0.00  0.00     0.174 A 
ATOM      3  C3  BZF d   1       0.181  -1.799  -5.400  0.00  0.00    -0.012 A 
ATOM      4  C3A BZF d   1      -0.699  -2.252  -4.368  0.00  0.00    -0.107 A 
ATOM      5  C4  BZF d   1      -1.614  -3.264  -4.290  0.00  0.00     0.055 A 
ATOM      6  C5  BZF d   1      -2.256  -3.484  -3.113  0.00  0.00    -0.016 A 
ATOM      7  C6  BZF d   1      -2.006  -2.717  -1.994  0.00  0.00     0.022 A 
ATOM      8  C7  BZF d   1      -1.111  -1.700  -2.024  0.00  0.00     0.029 A 
ATOM      9  C7A BZF d   1      -0.484  -1.453  -3.221  0.00  0.00     0.058 A 
ENDROOT
TORSDOF 0
ENDMDL
