MODEL 1
REMARK minimizedAffinity 1.39473283
REMARK minimizedRMSD -1
REMARK  0 active torsions:
REMARK  status: ('A' for Active; 'I' for Inactive)
ROOT
ATOM      1  O1  BZF d   1       0.456  -1.288   3.305  0.00  0.00    -0.204 OA
ATOM      2  C2  BZF d   1       0.473  -0.099   2.602  0.00  0.00     0.174 A 
ATOM      3  C3  BZF d   1       1.413   0.734   3.092  0.00  0.00    -0.012 A 
ATOM      4  C3A BZF d   1       2.085  -0.014   4.110  0.00  0.00    -0.107 A 
ATOM      5  C4  BZF d   1       3.124   0.266   4.950  0.00  0.00     0.055 A 
ATOM      6  C5  BZF d   1       3.491  -0.657   5.878  0.00  0.00    -0.016 A 
ATOM      7  C6  BZF d   1       2.837  -1.866   5.998  0.00  0.00     0.022 A 
ATOM      8  C7  BZF d   1       1.803  -2.191   5.184  0.00  0.00     0.029 A 
ATOM      9  C7A BZF d   1       1.452  -1.274   4.223  0.00  0.00     0.058 A 
ENDROOT
TORSDOF 0
ENDMDL
