MODEL 1
REMARK minimizedAffinity 0.67360729
REMARK minimizedRMSD -1
REMARK  0 active torsions:
REMARK  status: ('A' for Active; 'I' for Inactive)
ROOT
ATOM      1  C   UNL d   1       0.299  -1.080   1.488  0.00  0.00     0.078 C 
ATOM      2  C1  UNL d   1      -0.479  -0.658   0.278  0.00  0.00    -0.077 A 
ATOM      3  C2  UNL d   1      -0.261   0.588  -0.322  0.00  0.00    -0.001 A 
ATOM      4  C3  UNL d   1      -0.999   0.971  -1.442  0.00  0.00     0.003 A 
ATOM      5  C4  UNL d   1      -1.962   0.115  -1.972  0.00  0.00    -0.005 A 
ATOM      6  C5  UNL d   1      -2.188  -1.126  -1.381  0.00  0.00     0.003 A 
ATOM      7  C6  UNL d   1      -1.451  -1.512  -0.261  0.00  0.00    -0.001 A 
ENDROOT
TORSDOF 0
ENDMDL
