MODEL 1
REMARK minimizedAffinity 0.361493498
REMARK minimizedRMSD -1
REMARK  0 active torsions:
REMARK  status: ('A' for Active; 'I' for Inactive)
ROOT
ATOM      1  C   UNL d   1       0.288  -1.227   0.789  0.00  0.00     0.078 C 
ATOM      2  C1  UNL d   1       0.946   0.065   1.170  0.00  0.00    -0.077 A 
ATOM      3  C2  UNL d   1       0.827   0.580   2.467  0.00  0.00    -0.001 A 
ATOM      4  C3  UNL d   1       1.437   1.789   2.805  0.00  0.00     0.003 A 
ATOM      5  C4  UNL d   1       2.169   2.494   1.852  0.00  0.00    -0.005 A 
ATOM      6  C5  UNL d   1       2.291   1.991   0.558  0.00  0.00     0.003 A 
ATOM      7  C6  UNL d   1       1.682   0.782   0.218  0.00  0.00    -0.001 A 
ENDROOT
TORSDOF 0
ENDMDL
