MODEL 1
REMARK minimizedAffinity 0.102545403
REMARK minimizedRMSD -1
REMARK  0 active torsions:
REMARK  status: ('A' for Active; 'I' for Inactive)
ROOT
ATOM      1  C   UNL d   1       0.443  -1.659   1.462  0.00  0.00     0.078 C 
ATOM      2  C1  UNL d   1       0.055  -0.802   0.294  0.00  0.00    -0.077 A 
ATOM      3  C2  UNL d   1      -1.021  -1.153  -0.531  0.00  0.00    -0.001 A 
ATOM      4  C3  UNL d   1      -1.365  -0.351  -1.621  0.00  0.00     0.003 A 
ATOM      5  C4  UNL d   1      -0.638   0.806  -1.895  0.00  0.00    -0.005 A 
ATOM      6  C5  UNL d   1       0.435   1.162  -1.081  0.00  0.00     0.003 A 
ATOM      7  C6  UNL d   1       0.781   0.361   0.009  0.00  0.00    -0.001 A 
ENDROOT
TORSDOF 0
ENDMDL
