MODEL 1
REMARK minimizedAffinity -2.49208236
REMARK minimizedRMSD -1
REMARK  0 active torsions:
REMARK  status: ('A' for Active; 'I' for Inactive)
ROOT
ATOM      1  C   UNL d   1       1.828   1.737   1.497  0.00  0.00     0.078 C 
ATOM      2  C1  UNL d   1       0.972   0.733   0.786  0.00  0.00    -0.077 A 
ATOM      3  C2  UNL d   1       0.795  -0.558   1.301  0.00  0.00    -0.001 A 
ATOM      4  C3  UNL d   1       0.002  -1.486   0.623  0.00  0.00     0.003 A 
ATOM      5  C4  UNL d   1      -0.618  -1.134  -0.573  0.00  0.00    -0.005 A 
ATOM      6  C5  UNL d   1      -0.447   0.147  -1.095  0.00  0.00     0.003 A 
ATOM      7  C6  UNL d   1       0.345   1.076  -0.418  0.00  0.00    -0.001 A 
ENDROOT
TORSDOF 0
ENDMDL
