MODEL 1
REMARK minimizedAffinity -1.14895999
REMARK minimizedRMSD -1
REMARK  0 active torsions:
REMARK  status: ('A' for Active; 'I' for Inactive)
ROOT
ATOM      1  C   UNL d   1      -2.513  -0.910  -1.488  0.00  0.00     0.078 C 
ATOM      2  C1  UNL d   1      -1.210  -0.472  -0.889  0.00  0.00    -0.077 A 
ATOM      3  C2  UNL d   1      -0.651  -1.155   0.198  0.00  0.00    -0.001 A 
ATOM      4  C3  UNL d   1       0.558  -0.730   0.752  0.00  0.00     0.003 A 
ATOM      5  C4  UNL d   1       1.217   0.379   0.226  0.00  0.00    -0.005 A 
ATOM      6  C5  UNL d   1       0.668   1.066  -0.854  0.00  0.00     0.003 A 
ATOM      7  C6  UNL d   1      -0.541   0.643  -1.409  0.00  0.00    -0.001 A 
ENDROOT
TORSDOF 0
ENDMDL
