MODEL 1
REMARK minimizedAffinity -3.66562557
REMARK minimizedRMSD -1
REMARK  0 active torsions:
REMARK  status: ('A' for Active; 'I' for Inactive)
ROOT
ATOM      1  C   UNL d   1      -4.784   5.223   1.228  0.00  0.00     0.078 C 
ATOM      2  C1  UNL d   1      -4.893   5.180   2.723  0.00  0.00    -0.077 A 
ATOM      3  C2  UNL d   1      -5.904   4.444   3.352  0.00  0.00    -0.001 A 
ATOM      4  C3  UNL d   1      -6.000   4.422   4.744  0.00  0.00     0.003 A 
ATOM      5  C4  UNL d   1      -5.088   5.135   5.520  0.00  0.00    -0.005 A 
ATOM      6  C5  UNL d   1      -4.079   5.872   4.903  0.00  0.00     0.003 A 
ATOM      7  C6  UNL d   1      -3.982   5.896   3.511  0.00  0.00    -0.001 A 
ENDROOT
TORSDOF 0
ENDMDL
