MODEL 1
REMARK minimizedAffinity 4.39245462
REMARK minimizedRMSD -1
REMARK  0 active torsions:
REMARK  status: ('A' for Active; 'I' for Inactive)
ROOT
ATOM      1  C   UNL d   1       0.618  -1.709   1.560  0.00  0.00     0.078 C 
ATOM      2  C1  UNL d   1      -0.746  -1.479   0.983  0.00  0.00    -0.077 A 
ATOM      3  C2  UNL d   1      -0.966  -1.546  -0.399  0.00  0.00    -0.001 A 
ATOM      4  C3  UNL d   1      -2.240  -1.320  -0.923  0.00  0.00     0.003 A 
ATOM      5  C4  UNL d   1      -3.304  -1.023  -0.073  0.00  0.00    -0.005 A 
ATOM      6  C5  UNL d   1      -3.094  -0.952   1.303  0.00  0.00     0.003 A 
ATOM      7  C6  UNL d   1      -1.821  -1.178   1.829  0.00  0.00    -0.001 A 
ENDROOT
TORSDOF 0
ENDMDL
