MODEL 1
REMARK minimizedAffinity 2.09369802
REMARK minimizedRMSD -1
REMARK  0 active torsions:
REMARK  status: ('A' for Active; 'I' for Inactive)
ROOT
ATOM      1  C   UNL d   1       1.198  -1.378   1.629  0.00  0.00     0.078 C 
ATOM      2  C1  UNL d   1       0.099  -1.144   0.636  0.00  0.00    -0.077 A 
ATOM      3  C2  UNL d   1       0.378  -0.663  -0.649  0.00  0.00    -0.001 A 
ATOM      4  C3  UNL d   1      -0.656  -0.441  -1.560  0.00  0.00     0.003 A 
ATOM      5  C4  UNL d   1      -1.977  -0.697  -1.195  0.00  0.00    -0.005 A 
ATOM      6  C5  UNL d   1      -2.264  -1.173   0.082  0.00  0.00     0.003 A 
ATOM      7  C6  UNL d   1      -1.231  -1.396   0.994  0.00  0.00    -0.001 A 
ENDROOT
TORSDOF 0
ENDMDL
