MODEL 1
REMARK minimizedAffinity 0.662174284
REMARK minimizedRMSD -1
REMARK  0 active torsions:
REMARK  status: ('A' for Active; 'I' for Inactive)
ROOT
ATOM      1  C   UNL d   1       2.552   2.628   2.580  0.00  0.00     0.078 C 
ATOM      2  C1  UNL d   1       1.570   1.497   2.505  0.00  0.00    -0.077 A 
ATOM      3  C2  UNL d   1       1.982   0.206   2.156  0.00  0.00    -0.001 A 
ATOM      4  C3  UNL d   1       1.056  -0.835   2.080  0.00  0.00     0.003 A 
ATOM      5  C4  UNL d   1      -0.290  -0.595   2.352  0.00  0.00    -0.005 A 
ATOM      6  C5  UNL d   1      -0.710   0.687   2.698  0.00  0.00     0.003 A 
ATOM      7  C6  UNL d   1       0.215   1.729   2.774  0.00  0.00    -0.001 A 
ENDROOT
TORSDOF 0
ENDMDL
