MODEL 1
REMARK minimizedAffinity -1.06320655
REMARK minimizedRMSD -1
REMARK  0 active torsions:
REMARK  status: ('A' for Active; 'I' for Inactive)
ROOT
ATOM      1  C   UNL d   1      -4.912  -2.040   0.932  0.00  0.00     0.078 C 
ATOM      2  C1  UNL d   1      -3.867  -1.353   0.104  0.00  0.00    -0.077 A 
ATOM      3  C2  UNL d   1      -4.064  -0.050  -0.370  0.00  0.00    -0.001 A 
ATOM      4  C3  UNL d   1      -3.086   0.573  -1.147  0.00  0.00     0.003 A 
ATOM      5  C4  UNL d   1      -1.906  -0.098  -1.458  0.00  0.00    -0.005 A 
ATOM      6  C5  UNL d   1      -1.702  -1.396  -0.992  0.00  0.00     0.003 A 
ATOM      7  C6  UNL d   1      -2.678  -2.021  -0.215  0.00  0.00    -0.001 A 
ENDROOT
TORSDOF 0
ENDMDL
