MODEL 1
REMARK minimizedAffinity 0.218004882
REMARK minimizedRMSD -1
REMARK  0 active torsions:
REMARK  status: ('A' for Active; 'I' for Inactive)
ROOT
ATOM      1  C   UNL d   1       5.997   1.257  -0.838  0.00  0.00     0.078 C 
ATOM      2  C1  UNL d   1       4.881   1.940  -0.105  0.00  0.00    -0.077 A 
ATOM      3  C2  UNL d   1       3.731   2.367  -0.779  0.00  0.00    -0.001 A 
ATOM      4  C3  UNL d   1       2.704   3.010  -0.086  0.00  0.00     0.003 A 
ATOM      5  C4  UNL d   1       2.818   3.233   1.285  0.00  0.00    -0.005 A 
ATOM      6  C5  UNL d   1       3.960   2.814   1.964  0.00  0.00     0.003 A 
ATOM      7  C6  UNL d   1       4.988   2.170   1.272  0.00  0.00    -0.001 A 
ENDROOT
TORSDOF 0
ENDMDL
