MODEL 1
REMARK minimizedAffinity 6.33086348
REMARK minimizedRMSD -1
REMARK  0 active torsions:
REMARK  status: ('A' for Active; 'I' for Inactive)
ROOT
ATOM      1  C   UNL d   1      -2.210  -1.017  -1.064  0.00  0.00     0.078 C 
ATOM      2  C1  UNL d   1      -1.014  -1.019  -0.159  0.00  0.00    -0.077 A 
ATOM      3  C2  UNL d   1      -1.161  -1.122   1.230  0.00  0.00    -0.001 A 
ATOM      4  C3  UNL d   1      -0.039  -1.113   2.060  0.00  0.00     0.003 A 
ATOM      5  C4  UNL d   1       1.237  -0.999   1.512  0.00  0.00    -0.005 A 
ATOM      6  C5  UNL d   1       1.392  -0.894   0.131  0.00  0.00     0.003 A 
ATOM      7  C6  UNL d   1       0.272  -0.903  -0.701  0.00  0.00    -0.001 A 
ENDROOT
TORSDOF 0
ENDMDL
