MODEL 1
REMARK minimizedAffinity -2.43750763
REMARK minimizedRMSD -1
REMARK  0 active torsions:
REMARK  status: ('A' for Active; 'I' for Inactive)
ROOT
ATOM      1  C   UNL d   1       5.999   4.867  -4.196  0.00  0.00     0.078 C 
ATOM      2  C1  UNL d   1       5.339   4.127  -3.071  0.00  0.00    -0.077 A 
ATOM      3  C2  UNL d   1       4.080   4.513  -2.596  0.00  0.00    -0.001 A 
ATOM      4  C3  UNL d   1       3.481   3.822  -1.541  0.00  0.00     0.003 A 
ATOM      5  C4  UNL d   1       4.135   2.741  -0.953  0.00  0.00    -0.005 A 
ATOM      6  C5  UNL d   1       5.389   2.351  -1.418  0.00  0.00     0.003 A 
ATOM      7  C6  UNL d   1       5.989   3.041  -2.472  0.00  0.00    -0.001 A 
ENDROOT
TORSDOF 0
ENDMDL
