MODEL 1
REMARK minimizedAffinity 1.72211874
REMARK minimizedRMSD -1
REMARK  0 active torsions:
REMARK  status: ('A' for Active; 'I' for Inactive)
ROOT
ATOM      1  C   UNL d   1       0.412   1.919  -4.047  0.00  0.00     0.078 C 
ATOM      2  C1  UNL d   1      -0.711   1.301  -3.268  0.00  0.00    -0.077 A 
ATOM      3  C2  UNL d   1      -1.953   1.939  -3.164  0.00  0.00    -0.001 A 
ATOM      4  C3  UNL d   1      -2.986   1.357  -2.428  0.00  0.00     0.003 A 
ATOM      5  C4  UNL d   1      -2.787   0.135  -1.788  0.00  0.00    -0.005 A 
ATOM      6  C5  UNL d   1      -1.553  -0.506  -1.883  0.00  0.00     0.003 A 
ATOM      7  C6  UNL d   1      -0.519   0.075  -2.619  0.00  0.00    -0.001 A 
ENDROOT
TORSDOF 0
ENDMDL
