MODEL 1
REMARK minimizedAffinity 2.89050221
REMARK minimizedRMSD -1
REMARK  0 active torsions:
REMARK  status: ('A' for Active; 'I' for Inactive)
ROOT
ATOM      1  C   UNL d   1      -2.722  -1.231  -0.342  0.00  0.00     0.078 C 
ATOM      2  C1  UNL d   1      -1.918  -0.389  -1.287  0.00  0.00    -0.077 A 
ATOM      3  C2  UNL d   1      -0.640  -0.787  -1.698  0.00  0.00    -0.001 A 
ATOM      4  C3  UNL d   1       0.101   0.012  -2.571  0.00  0.00     0.003 A 
ATOM      5  C4  UNL d   1      -0.426   1.214  -3.038  0.00  0.00    -0.005 A 
ATOM      6  C5  UNL d   1      -1.696   1.620  -2.632  0.00  0.00     0.003 A 
ATOM      7  C6  UNL d   1      -2.438   0.822  -1.760  0.00  0.00    -0.001 A 
ENDROOT
TORSDOF 0
ENDMDL
