MODEL 1
REMARK minimizedAffinity -3.04526472
REMARK minimizedRMSD -1
REMARK  0 active torsions:
REMARK  status: ('A' for Active; 'I' for Inactive)
ROOT
ATOM      1  C1  DEN d   1       1.477   0.767  -0.351  0.00  0.00     0.130 A 
ATOM      2  C2  DEN d   1       0.969   0.038  -1.509  0.00  0.00    -0.031 A 
ATOM      3  C3  DEN d   1      -0.408  -0.401  -1.205  0.00  0.00     0.027 A 
ATOM      4  C4  DEN d   1      -1.796  -0.020   0.936  0.00  0.00     0.027 A 
ATOM      5  C5  DEN d   1      -1.785   0.534   2.197  0.00  0.00    -0.003 A 
ATOM      6  C6  DEN d   1      -0.684   1.170   2.706  0.00  0.00     0.001 A 
ATOM      7  C7  DEN d   1       0.438   1.307   1.933  0.00  0.00     0.017 A 
ATOM      8  C8  DEN d   1       0.438   0.744   0.663  0.00  0.00    -0.094 A 
ATOM      9  C9  DEN d   1      -0.689   0.116   0.162  0.00  0.00    -0.072 A 
ENDROOT
TORSDOF 0
ENDMDL
