MODEL 1
REMARK minimizedAffinity -5.98649597
REMARK minimizedRMSD -1
REMARK  0 active torsions:
REMARK  status: ('A' for Active; 'I' for Inactive)
ROOT
ATOM      1  C1  DEN d   1       0.693  -0.270  -0.195  0.00  0.00     0.130 A 
ATOM      2  C2  DEN d   1      -0.621  -0.027  -0.786  0.00  0.00    -0.031 A 
ATOM      3  C3  DEN d   1      -1.484   0.574   0.251  0.00  0.00     0.027 A 
ATOM      4  C4  DEN d   1      -0.916   1.152   2.699  0.00  0.00     0.027 A 
ATOM      5  C5  DEN d   1       0.070   1.118   3.661  0.00  0.00    -0.003 A 
ATOM      6  C6  DEN d   1       1.311   0.592   3.417  0.00  0.00     0.001 A 
ATOM      7  C7  DEN d   1       1.614   0.120   2.168  0.00  0.00     0.017 A 
ATOM      8  C8  DEN d   1       0.623   0.144   1.195  0.00  0.00    -0.094 A 
ATOM      9  C9  DEN d   1      -0.621   0.691   1.457  0.00  0.00    -0.072 A 
ENDROOT
TORSDOF 0
ENDMDL
