MODEL 1
REMARK minimizedAffinity -0.76628089
REMARK minimizedRMSD -1
REMARK  0 active torsions:
REMARK  status: ('A' for Active; 'I' for Inactive)
ROOT
ATOM      1  C1  DEN d   1       2.392  -0.663  -1.128  0.00  0.00     0.130 A 
ATOM      2  C2  DEN d   1       1.266  -1.324  -0.473  0.00  0.00    -0.031 A 
ATOM      3  C3  DEN d   1       0.069  -1.129  -1.316  0.00  0.00     0.027 A 
ATOM      4  C4  DEN d   1      -0.148   0.123  -3.561  0.00  0.00     0.027 A 
ATOM      5  C5  DEN d   1       0.532   0.857  -4.507  0.00  0.00    -0.003 A 
ATOM      6  C6  DEN d   1       1.860   1.163  -4.378  0.00  0.00     0.001 A 
ATOM      7  C7  DEN d   1       2.563   0.694  -3.299  0.00  0.00     0.017 A 
ATOM      8  C8  DEN d   1       1.883  -0.041  -2.337  0.00  0.00    -0.094 A 
ATOM      9  C9  DEN d   1       0.542  -0.350  -2.492  0.00  0.00    -0.072 A 
ENDROOT
TORSDOF 0
ENDMDL
