MODEL 1
REMARK minimizedAffinity -4.52527285
REMARK minimizedRMSD -1
REMARK  0 active torsions:
REMARK  status: ('A' for Active; 'I' for Inactive)
ROOT
ATOM      1  C1  DEN d   1       1.666  -0.384   0.004  0.00  0.00     0.130 A 
ATOM      2  C2  DEN d   1       1.101  -0.929  -1.227  0.00  0.00    -0.031 A 
ATOM      3  C3  DEN d   1      -0.356  -0.692  -1.204  0.00  0.00     0.027 A 
ATOM      4  C4  DEN d   1      -1.784   0.465   0.605  0.00  0.00     0.027 A 
ATOM      5  C5  DEN d   1      -1.752   1.081   1.837  0.00  0.00    -0.003 A 
ATOM      6  C6  DEN d   1      -0.593   1.220   2.554  0.00  0.00     0.001 A 
ATOM      7  C7  DEN d   1       0.590   0.777   2.024  0.00  0.00     0.017 A 
ATOM      8  C8  DEN d   1       0.564   0.149   0.786  0.00  0.00    -0.094 A 
ATOM      9  C9  DEN d   1      -0.616   0.029   0.071  0.00  0.00    -0.072 A 
ENDROOT
TORSDOF 0
ENDMDL
