MODEL 1
REMARK minimizedAffinity -3.72188115
REMARK minimizedRMSD -1
REMARK  0 active torsions:
REMARK  status: ('A' for Active; 'I' for Inactive)
ROOT
ATOM      1  C1  DEN d   1      -1.456  -1.008  -0.362  0.00  0.00     0.130 A 
ATOM      2  C2  DEN d   1      -0.355  -1.081  -1.319  0.00  0.00    -0.031 A 
ATOM      3  C3  DEN d   1       0.733  -0.210  -0.829  0.00  0.00     0.027 A 
ATOM      4  C4  DEN d   1       0.821   1.231   1.307  0.00  0.00     0.027 A 
ATOM      5  C5  DEN d   1       0.120   1.626   2.425  0.00  0.00    -0.003 A 
ATOM      6  C6  DEN d   1      -1.158   1.200   2.673  0.00  0.00     0.001 A 
ATOM      7  C7  DEN d   1      -1.758   0.318   1.814  0.00  0.00     0.017 A 
ATOM      8  C8  DEN d   1      -1.060  -0.078   0.681  0.00  0.00    -0.094 A 
ATOM      9  C9  DEN d   1       0.236   0.354   0.454  0.00  0.00    -0.072 A 
ENDROOT
TORSDOF 0
ENDMDL
