MODEL 1
REMARK minimizedAffinity -2.97358394
REMARK minimizedRMSD -1
REMARK  0 active torsions:
REMARK  status: ('A' for Active; 'I' for Inactive)
ROOT
ATOM      1  C1  DEN d   1       0.666   0.118   1.171  0.00  0.00     0.130 A 
ATOM      2  C2  DEN d   1      -0.212   0.942   1.997  0.00  0.00    -0.031 A 
ATOM      3  C3  DEN d   1      -1.027   1.783   1.097  0.00  0.00     0.027 A 
ATOM      4  C4  DEN d   1      -1.019   1.884  -1.480  0.00  0.00     0.027 A 
ATOM      5  C5  DEN d   1      -0.436   1.379  -2.621  0.00  0.00    -0.003 A 
ATOM      6  C6  DEN d   1       0.570   0.451  -2.578  0.00  0.00     0.001 A 
ATOM      7  C7  DEN d   1       0.994  -0.035  -1.369  0.00  0.00     0.017 A 
ATOM      8  C8  DEN d   1       0.416   0.475  -0.214  0.00  0.00    -0.094 A 
ATOM      9  C9  DEN d   1      -0.608   1.404  -0.279  0.00  0.00    -0.072 A 
ENDROOT
TORSDOF 0
ENDMDL
