MODEL 1
REMARK minimizedAffinity 1.07457125
REMARK minimizedRMSD -1
REMARK  0 active torsions:
REMARK  status: ('A' for Active; 'I' for Inactive)
ROOT
ATOM      1  C1  DEN d   1      -0.735  -0.875   2.118  0.00  0.00     0.130 A 
ATOM      2  C2  DEN d   1      -2.038  -0.681   1.488  0.00  0.00    -0.031 A 
ATOM      3  C3  DEN d   1      -1.826   0.015   0.203  0.00  0.00     0.027 A 
ATOM      4  C4  DEN d   1       0.383   0.803  -0.870  0.00  0.00     0.027 A 
ATOM      5  C5  DEN d   1       1.749   0.872  -0.705  0.00  0.00    -0.003 A 
ATOM      6  C6  DEN d   1       2.374   0.398   0.418  0.00  0.00     0.001 A 
ATOM      7  C7  DEN d   1       1.637  -0.207   1.401  0.00  0.00     0.017 A 
ATOM      8  C8  DEN d   1       0.258  -0.274   1.245  0.00  0.00    -0.094 A 
ATOM      9  C9  DEN d   1      -0.354   0.200   0.097  0.00  0.00    -0.072 A 
ENDROOT
TORSDOF 0
ENDMDL
