MODEL 1
REMARK minimizedAffinity -5.90427065
REMARK minimizedRMSD -1
REMARK  0 active torsions:
REMARK  status: ('A' for Active; 'I' for Inactive)
ROOT
ATOM      1  C1  DEN d   1      -0.933   1.117   2.937  0.00  0.00     0.130 A 
ATOM      2  C2  DEN d   1       0.405   1.156   3.520  0.00  0.00    -0.031 A 
ATOM      3  C3  DEN d   1       1.303   0.361   2.658  0.00  0.00     0.027 A 
ATOM      4  C4  DEN d   1       0.753  -0.915   0.485  0.00  0.00     0.027 A 
ATOM      5  C5  DEN d   1      -0.250  -1.249  -0.398  0.00  0.00    -0.003 A 
ATOM      6  C6  DEN d   1      -1.547  -0.849  -0.214  0.00  0.00     0.001 A 
ATOM      7  C7  DEN d   1      -1.867  -0.054   0.854  0.00  0.00     0.017 A 
ATOM      8  C8  DEN d   1      -0.863   0.281   1.753  0.00  0.00    -0.094 A 
ATOM      9  C9  DEN d   1       0.445  -0.123   1.543  0.00  0.00    -0.072 A 
ENDROOT
TORSDOF 0
ENDMDL
