MODEL 1
REMARK minimizedAffinity -2.48131251
REMARK minimizedRMSD -1
REMARK  1 active torsions:
REMARK  status: ('A' for Active; 'I' for Inactive)
REMARK    1  A    between atoms: C1_2  and  C2_3 
ROOT
ATOM      1  C2  UNL d   1      -1.194  -0.087   1.297  0.00  0.00    -0.077 A 
ATOM      2  C3  UNL d   1      -0.567  -1.341   1.303  0.00  0.00     0.002 A 
ATOM      3  C4  UNL d   1       0.587  -1.557   0.548  0.00  0.00     0.002 A 
ATOM      4  C5  UNL d   1       1.127  -0.524  -0.214  0.00  0.00    -0.004 A 
ATOM      5  C6  UNL d   1       0.510   0.727  -0.228  0.00  0.00     0.002 A 
ATOM      6  C7  UNL d   1      -0.644   0.945   0.524  0.00  0.00     0.002 A 
ENDROOT
BRANCH   1   7
ATOM      7  C1  UNL d   1      -2.411   0.163   2.149  0.00  0.00     0.055 C 
ATOM      8  C   UNL d   1      -3.640   0.431   1.293  0.00  0.00     0.019 C 
ENDBRANCH   1   7
TORSDOF 1
ENDMDL
