MODEL 1
REMARK minimizedAffinity -5.56240177
REMARK minimizedRMSD -1
REMARK  1 active torsions:
REMARK  status: ('A' for Active; 'I' for Inactive)
REMARK    1  A    between atoms: C1_2  and  C2_3 
ROOT
ATOM      1  C2  UNL d   1       0.765  -0.528  -0.347  0.00  0.00    -0.077 A 
ATOM      2  C3  UNL d   1       0.984  -1.609  -1.212  0.00  0.00     0.002 A 
ATOM      3  C4  UNL d   1       1.717  -1.436  -2.388  0.00  0.00     0.002 A 
ATOM      4  C5  UNL d   1       2.241  -0.185  -2.706  0.00  0.00    -0.004 A 
ATOM      5  C6  UNL d   1       2.028   0.897  -1.853  0.00  0.00     0.002 A 
ATOM      6  C7  UNL d   1       1.294   0.726  -0.679  0.00  0.00     0.002 A 
ENDROOT
BRANCH   1   7
ATOM      7  C1  UNL d   1       0.016  -0.723   0.945  0.00  0.00     0.055 C 
ATOM      8  C   UNL d   1      -0.999   0.388   1.170  0.00  0.00     0.019 C 
ENDBRANCH   1   7
TORSDOF 1
ENDMDL
