MODEL 1
REMARK minimizedAffinity -3.6127789
REMARK minimizedRMSD -1
REMARK  1 active torsions:
REMARK  status: ('A' for Active; 'I' for Inactive)
REMARK    1  A    between atoms: C1_2  and  C2_3 
ROOT
ATOM      1  C2  UNL d   1      -0.666   0.246   0.595  0.00  0.00    -0.077 A 
ATOM      2  C3  UNL d   1      -0.438  -0.807  -0.302  0.00  0.00     0.002 A 
ATOM      3  C4  UNL d   1       0.465  -0.654  -1.356  0.00  0.00     0.002 A 
ATOM      4  C5  UNL d   1       1.148   0.549  -1.522  0.00  0.00    -0.004 A 
ATOM      5  C6  UNL d   1       0.926   1.603  -0.636  0.00  0.00     0.002 A 
ATOM      6  C7  UNL d   1       0.024   1.452   0.417  0.00  0.00     0.002 A 
ENDROOT
BRANCH   1   7
ATOM      7  C1  UNL d   1      -1.602   0.066   1.761  0.00  0.00     0.055 C 
ATOM      8  C   UNL d   1      -3.029   0.442   1.390  0.00  0.00     0.019 C 
ENDBRANCH   1   7
TORSDOF 1
ENDMDL
