MODEL 1
REMARK minimizedAffinity -2.42459249
REMARK minimizedRMSD -1
REMARK  1 active torsions:
REMARK  status: ('A' for Active; 'I' for Inactive)
REMARK    1  A    between atoms: C1_2  and  C2_3 
ROOT
ATOM      1  C2  UNL d   1       0.382   0.410   0.130  0.00  0.00    -0.077 A 
ATOM      2  C3  UNL d   1      -0.073  -0.651  -0.665  0.00  0.00     0.002 A 
ATOM      3  C4  UNL d   1       0.601  -0.994  -1.839  0.00  0.00     0.002 A 
ATOM      4  C5  UNL d   1       1.736  -0.284  -2.225  0.00  0.00    -0.004 A 
ATOM      5  C6  UNL d   1       2.195   0.775  -1.442  0.00  0.00     0.002 A 
ATOM      6  C7  UNL d   1       1.522   1.120  -0.269  0.00  0.00     0.002 A 
ENDROOT
BRANCH   1   7
ATOM      7  C1  UNL d   1      -0.315   0.750   1.421  0.00  0.00     0.055 C 
ATOM      8  C   UNL d   1      -1.812   0.495   1.326  0.00  0.00     0.019 C 
ENDBRANCH   1   7
TORSDOF 1
ENDMDL
