MODEL 1
REMARK minimizedAffinity -4.94679499
REMARK minimizedRMSD -1
REMARK  1 active torsions:
REMARK  status: ('A' for Active; 'I' for Inactive)
REMARK    1  A    between atoms: C1_2  and  C2_3 
ROOT
ATOM      1  C2  UNL d   1       0.987  -0.348  -1.161  0.00  0.00    -0.077 A 
ATOM      2  C3  UNL d   1       1.685  -0.055  -2.341  0.00  0.00     0.002 A 
ATOM      3  C4  UNL d   1       2.157  -1.086  -3.157  0.00  0.00     0.002 A 
ATOM      4  C5  UNL d   1       1.931  -2.415  -2.804  0.00  0.00    -0.004 A 
ATOM      5  C6  UNL d   1       1.240  -2.716  -1.632  0.00  0.00     0.002 A 
ATOM      6  C7  UNL d   1       0.769  -1.688  -0.815  0.00  0.00     0.002 A 
ENDROOT
BRANCH   1   7
ATOM      7  C1  UNL d   1       0.435   0.762  -0.306  0.00  0.00     0.055 C 
ATOM      8  C   UNL d   1      -0.675   0.258   0.606  0.00  0.00     0.019 C 
ENDBRANCH   1   7
TORSDOF 1
ENDMDL
