MODEL 1
REMARK minimizedAffinity -5.39108133
REMARK minimizedRMSD -1
REMARK  1 active torsions:
REMARK  status: ('A' for Active; 'I' for Inactive)
REMARK    1  A    between atoms: C1_2  and  C2_3 
ROOT
ATOM      1  C2  UNL d   1       1.022  -0.088  -1.030  0.00  0.00    -0.077 A 
ATOM      2  C3  UNL d   1       0.674  -1.444  -1.116  0.00  0.00     0.002 A 
ATOM      3  C4  UNL d   1       1.297  -2.275  -2.049  0.00  0.00     0.002 A 
ATOM      4  C5  UNL d   1       2.274  -1.761  -2.899  0.00  0.00    -0.004 A 
ATOM      5  C6  UNL d   1       2.626  -0.414  -2.822  0.00  0.00     0.002 A 
ATOM      6  C7  UNL d   1       2.003   0.418  -1.891  0.00  0.00     0.002 A 
ENDROOT
BRANCH   1   7
ATOM      7  C1  UNL d   1       0.386   0.798   0.009  0.00  0.00     0.055 C 
ATOM      8  C   UNL d   1      -0.342  -0.020   1.065  0.00  0.00     0.019 C 
ENDBRANCH   1   7
TORSDOF 1
ENDMDL
