MODEL 1
REMARK minimizedAffinity -3.61299181
REMARK minimizedRMSD -1
REMARK  1 active torsions:
REMARK  status: ('A' for Active; 'I' for Inactive)
REMARK    1  A    between atoms: C1_2  and  C2_3 
ROOT
ATOM      1  C2  UNL d   1       1.249  -0.097  -0.729  0.00  0.00    -0.077 A 
ATOM      2  C3  UNL d   1       1.058   0.702   0.407  0.00  0.00     0.002 A 
ATOM      3  C4  UNL d   1       0.496   0.160   1.565  0.00  0.00     0.002 A 
ATOM      4  C5  UNL d   1       0.124  -1.182   1.598  0.00  0.00    -0.004 A 
ATOM      5  C6  UNL d   1       0.308  -1.984   0.472  0.00  0.00     0.002 A 
ATOM      6  C7  UNL d   1       0.868  -1.444  -0.686  0.00  0.00     0.002 A 
ENDROOT
BRANCH   1   7
ATOM      7  C1  UNL d   1       1.900   0.474  -1.962  0.00  0.00     0.055 C 
ATOM      8  C   UNL d   1       1.202  -0.002  -3.228  0.00  0.00     0.019 C 
ENDBRANCH   1   7
TORSDOF 1
ENDMDL
