MODEL 1
REMARK minimizedAffinity -2.64805126
REMARK minimizedRMSD -1
REMARK  1 active torsions:
REMARK  status: ('A' for Active; 'I' for Inactive)
REMARK    1  A    between atoms: C1_2  and  C2_3 
ROOT
ATOM      1  C2  UNL d   1       0.241  -0.732  -0.829  0.00  0.00    -0.077 A 
ATOM      2  C3  UNL d   1       1.087   0.383  -0.748  0.00  0.00     0.002 A 
ATOM      3  C4  UNL d   1       1.798   0.813  -1.871  0.00  0.00     0.002 A 
ATOM      4  C5  UNL d   1       1.666   0.136  -3.082  0.00  0.00    -0.004 A 
ATOM      5  C6  UNL d   1       0.829  -0.975  -3.171  0.00  0.00     0.002 A 
ATOM      6  C7  UNL d   1       0.119  -1.407  -2.050  0.00  0.00     0.002 A 
ENDROOT
BRANCH   1   7
ATOM      7  C1  UNL d   1      -0.564  -1.167   0.368  0.00  0.00     0.055 C 
ATOM      8  C   UNL d   1      -1.179   0.026   1.085  0.00  0.00     0.019 C 
ENDBRANCH   1   7
TORSDOF 1
ENDMDL
