MODEL 1
REMARK minimizedAffinity -3.08014894
REMARK minimizedRMSD -1
REMARK  1 active torsions:
REMARK  status: ('A' for Active; 'I' for Inactive)
REMARK    1  A    between atoms: C1_2  and  C2_3 
ROOT
ATOM      1  C2  UNL d   1      -0.401  -0.049   0.358  0.00  0.00    -0.077 A 
ATOM      2  C3  UNL d   1      -0.377  -1.251  -0.363  0.00  0.00     0.002 A 
ATOM      3  C4  UNL d   1       0.400  -1.367  -1.517  0.00  0.00     0.002 A 
ATOM      4  C5  UNL d   1       1.161  -0.287  -1.958  0.00  0.00    -0.004 A 
ATOM      5  C6  UNL d   1       1.142   0.914  -1.250  0.00  0.00     0.002 A 
ATOM      6  C7  UNL d   1       0.366   1.032  -0.096  0.00  0.00     0.002 A 
ENDROOT
BRANCH   1   7
ATOM      7  C1  UNL d   1      -1.199   0.063   1.631  0.00  0.00     0.055 C 
ATOM      8  C   UNL d   1      -2.688   0.190   1.341  0.00  0.00     0.019 C 
ENDBRANCH   1   7
TORSDOF 1
ENDMDL
