MODEL 1
REMARK minimizedAffinity -4.04030371
REMARK minimizedRMSD -1
REMARK  1 active torsions:
REMARK  status: ('A' for Active; 'I' for Inactive)
REMARK    1  A    between atoms: C1_2  and  C2_3 
ROOT
ATOM      1  C2  UNL d   1       0.716   0.054  -1.355  0.00  0.00    -0.077 A 
ATOM      2  C3  UNL d   1      -0.054  -0.958  -0.766  0.00  0.00     0.002 A 
ATOM      3  C4  UNL d   1      -0.392  -0.892   0.587  0.00  0.00     0.002 A 
ATOM      4  C5  UNL d   1       0.032   0.187   1.361  0.00  0.00    -0.004 A 
ATOM      5  C6  UNL d   1       0.800   1.198   0.784  0.00  0.00     0.002 A 
ATOM      6  C7  UNL d   1       1.139   1.133  -0.568  0.00  0.00     0.002 A 
ENDROOT
BRANCH   1   7
ATOM      7  C1  UNL d   1       1.040   0.009  -2.826  0.00  0.00     0.055 C 
ATOM      8  C   UNL d   1       2.298  -0.806  -3.090  0.00  0.00     0.019 C 
ENDBRANCH   1   7
TORSDOF 1
ENDMDL
