MODEL 1
REMARK minimizedAffinity -3.36531591
REMARK minimizedRMSD -1
REMARK  1 active torsions:
REMARK  status: ('A' for Active; 'I' for Inactive)
REMARK    1  A    between atoms: C1_2  and  C2_3 
ROOT
ATOM      1  C2  UNL d   1       0.840  -0.542  -1.353  0.00  0.00    -0.077 A 
ATOM      2  C3  UNL d   1       0.236   0.465  -0.587  0.00  0.00     0.002 A 
ATOM      3  C4  UNL d   1      -0.356   0.160   0.641  0.00  0.00     0.002 A 
ATOM      4  C5  UNL d   1      -0.346  -1.150   1.114  0.00  0.00    -0.004 A 
ATOM      5  C6  UNL d   1       0.250  -2.159   0.359  0.00  0.00     0.002 A 
ATOM      6  C7  UNL d   1       0.841  -1.856  -0.869  0.00  0.00     0.002 A 
ENDROOT
BRANCH   1   7
ATOM      7  C1  UNL d   1       1.522  -0.207  -2.653  0.00  0.00     0.055 C 
ATOM      8  C   UNL d   1       2.968   0.212  -2.428  0.00  0.00     0.019 C 
ENDBRANCH   1   7
TORSDOF 1
ENDMDL
