MODEL 1
REMARK minimizedAffinity -5.30049372
REMARK minimizedRMSD -1
REMARK  1 active torsions:
REMARK  status: ('A' for Active; 'I' for Inactive)
REMARK    1  A    between atoms: C1_2  and  C2_3 
ROOT
ATOM      1  C2  UNL d   1       0.173   0.083   0.389  0.00  0.00    -0.077 A 
ATOM      2  C3  UNL d   1       0.807   1.332   0.454  0.00  0.00     0.002 A 
ATOM      3  C4  UNL d   1       1.496   1.832  -0.652  0.00  0.00     0.002 A 
ATOM      4  C5  UNL d   1       1.553   1.093  -1.832  0.00  0.00    -0.004 A 
ATOM      5  C6  UNL d   1       0.927  -0.150  -1.906  0.00  0.00     0.002 A 
ATOM      6  C7  UNL d   1       0.239  -0.653  -0.801  0.00  0.00     0.002 A 
ENDROOT
BRANCH   1   7
ATOM      7  C1  UNL d   1      -0.612  -0.437   1.565  0.00  0.00     0.055 C 
ATOM      8  C   UNL d   1      -2.007   0.171   1.612  0.00  0.00     0.019 C 
ENDBRANCH   1   7
TORSDOF 1
ENDMDL
