MODEL 1
REMARK minimizedAffinity -4.75618267
REMARK minimizedRMSD -1
REMARK  0 active torsions:
REMARK  status: ('A' for Active; 'I' for Inactive)
ROOT
ATOM      1  N1  IND d   1       0.052  -2.131   1.898  0.00  0.00    -0.196 N 
ATOM      2  C2  IND d   1       1.194  -2.603   2.482  0.00  0.00     0.054 A 
ATOM      3  C3  IND d   1       2.236  -1.789   2.202  0.00  0.00    -0.031 A 
ATOM      4  C4  IND d   1       2.276   0.425   0.891  0.00  0.00     0.051 A 
ATOM      5  C5  IND d   1       1.484   1.245   0.137  0.00  0.00    -0.031 A 
ATOM      6  C6  IND d   1       0.147   0.978  -0.070  0.00  0.00     0.015 A 
ATOM      7  C7  IND d   1      -0.454  -0.119   0.480  0.00  0.00    -0.016 A 
ATOM      8  C8  IND d   1       0.349  -0.957   1.240  0.00  0.00    -0.047 A 
ATOM      9  C9  IND d   1       1.716  -0.714   1.419  0.00  0.00    -0.096 A 
ATOM     10  HN1 IND d   1      -0.722  -2.504   1.934  0.00  0.00     0.298 HD
ENDROOT
TORSDOF 0
ENDMDL
