MODEL 1
REMARK minimizedAffinity -5.4525795
REMARK minimizedRMSD -1
REMARK  0 active torsions:
REMARK  status: ('A' for Active; 'I' for Inactive)
ROOT
ATOM      1  N1  IND d   1      -0.653  -0.433   0.347  0.00  0.00    -0.196 N 
ATOM      2  C2  IND d   1      -0.661   0.745  -0.347  0.00  0.00     0.054 A 
ATOM      3  C3  IND d   1       0.579   1.281  -0.378  0.00  0.00    -0.031 A 
ATOM      4  C4  IND d   1       2.789   0.347   0.556  0.00  0.00     0.051 A 
ATOM      5  C5  IND d   1       3.294  -0.681   1.302  0.00  0.00    -0.031 A 
ATOM      6  C6  IND d   1       2.493  -1.701   1.775  0.00  0.00     0.015 A 
ATOM      7  C7  IND d   1       1.154  -1.736   1.508  0.00  0.00    -0.016 A 
ATOM      8  C8  IND d   1       0.636  -0.691   0.757  0.00  0.00    -0.047 A 
ATOM      9  C9  IND d   1       1.436   0.369   0.311  0.00  0.00    -0.096 A 
ATOM     10  HN1 IND d   1      -1.338  -0.929   0.501  0.00  0.00     0.298 HD
ENDROOT
TORSDOF 0
ENDMDL
