MODEL 1
REMARK minimizedAffinity -3.05934644
REMARK minimizedRMSD -1
REMARK  0 active torsions:
REMARK  status: ('A' for Active; 'I' for Inactive)
ROOT
ATOM      1  N1  IND d   1      -0.486   0.712   0.445  0.00  0.00    -0.196 N 
ATOM      2  C2  IND d   1       0.082   1.954   0.514  0.00  0.00     0.054 A 
ATOM      3  C3  IND d   1       1.429   1.859   0.449  0.00  0.00    -0.031 A 
ATOM      4  C4  IND d   1       2.909  -0.222   0.128  0.00  0.00     0.051 A 
ATOM      5  C5  IND d   1       2.849  -1.586   0.051  0.00  0.00    -0.031 A 
ATOM      6  C6  IND d   1       1.649  -2.266   0.099  0.00  0.00     0.015 A 
ATOM      7  C7  IND d   1       0.460  -1.605   0.216  0.00  0.00    -0.016 A 
ATOM      8  C8  IND d   1       0.517  -0.221   0.302  0.00  0.00    -0.047 A 
ATOM      9  C9  IND d   1       1.735   0.472   0.296  0.00  0.00    -0.096 A 
ATOM     10  HN1 IND d   1      -1.328   0.542   0.485  0.00  0.00     0.298 HD
ENDROOT
TORSDOF 0
ENDMDL
