MODEL 1
REMARK minimizedAffinity -3.40177989
REMARK minimizedRMSD -1
REMARK  0 active torsions:
REMARK  status: ('A' for Active; 'I' for Inactive)
ROOT
ATOM      1  N1  IND d   1       2.538  -0.233   1.094  0.00  0.00    -0.196 N 
ATOM      2  C2  IND d   1       2.742  -1.402   1.772  0.00  0.00     0.054 A 
ATOM      3  C3  IND d   1       1.567  -2.040   1.974  0.00  0.00    -0.031 A 
ATOM      4  C4  IND d   1      -0.799  -1.397   1.190  0.00  0.00     0.051 A 
ATOM      5  C5  IND d   1      -1.493  -0.398   0.568  0.00  0.00    -0.031 A 
ATOM      6  C6  IND d   1      -0.866   0.729   0.077  0.00  0.00     0.015 A 
ATOM      7  C7  IND d   1       0.486   0.894   0.180  0.00  0.00    -0.016 A 
ATOM      8  C8  IND d   1       1.194  -0.116   0.818  0.00  0.00    -0.047 A 
ATOM      9  C9  IND d   1       0.557  -1.242   1.355  0.00  0.00    -0.096 A 
ATOM     10  HN1 IND d   1       3.147   0.334   0.876  0.00  0.00     0.298 HD
ENDROOT
TORSDOF 0
ENDMDL
