MODEL 1
REMARK minimizedAffinity -5.60965729
REMARK minimizedRMSD -1
REMARK  0 active torsions:
REMARK  status: ('A' for Active; 'I' for Inactive)
ROOT
ATOM      1  N1  IND d   1      -0.621   0.017   0.530  0.00  0.00    -0.196 N 
ATOM      2  C2  IND d   1      -0.528   1.230  -0.093  0.00  0.00     0.054 A 
ATOM      3  C3  IND d   1       0.759   1.644  -0.127  0.00  0.00    -0.031 A 
ATOM      4  C4  IND d   1       2.885   0.442   0.688  0.00  0.00     0.051 A 
ATOM      5  C5  IND d   1       3.302  -0.674   1.357  0.00  0.00    -0.031 A 
ATOM      6  C6  IND d   1       2.415  -1.638   1.791  0.00  0.00     0.015 A 
ATOM      7  C7  IND d   1       1.073  -1.526   1.561  0.00  0.00    -0.016 A 
ATOM      8  C8  IND d   1       0.645  -0.391   0.888  0.00  0.00    -0.047 A 
ATOM      9  C9  IND d   1       1.536   0.611   0.482  0.00  0.00    -0.096 A 
ATOM     10  HN1 IND d   1      -1.349  -0.419   0.674  0.00  0.00     0.298 HD
ENDROOT
TORSDOF 0
ENDMDL
