MODEL 1
REMARK minimizedAffinity -3.17007661
REMARK minimizedRMSD -1
REMARK  0 active torsions:
REMARK  status: ('A' for Active; 'I' for Inactive)
ROOT
ATOM      1  N1  IND d   1      -0.023   1.448   0.147  0.00  0.00    -0.196 N 
ATOM      2  C2  IND d   1      -1.101   0.758  -0.334  0.00  0.00     0.054 A 
ATOM      3  C3  IND d   1      -0.811  -0.558  -0.434  0.00  0.00    -0.031 A 
ATOM      4  C4  IND d   1       1.335  -1.816   0.229  0.00  0.00     0.051 A 
ATOM      5  C5  IND d   1       2.609  -1.609   0.679  0.00  0.00    -0.031 A 
ATOM      6  C6  IND d   1       3.079  -0.348   0.984  0.00  0.00     0.015 A 
ATOM      7  C7  IND d   1       2.286   0.757   0.860  0.00  0.00    -0.016 A 
ATOM      8  C8  IND d   1       0.994   0.552   0.396  0.00  0.00    -0.047 A 
ATOM      9  C9  IND d   1       0.525  -0.720   0.045  0.00  0.00    -0.096 A 
ATOM     10  HN1 IND d   1       0.014   2.297   0.272  0.00  0.00     0.298 HD
ENDROOT
TORSDOF 0
ENDMDL
