MODEL 1
REMARK minimizedAffinity -1.17406237
REMARK minimizedRMSD -1
REMARK  0 active torsions:
REMARK  status: ('A' for Active; 'I' for Inactive)
ROOT
ATOM      1  N1  IND d   1       1.863  -1.408   1.184  0.00  0.00    -0.196 N 
ATOM      2  C2  IND d   1       2.884  -0.540   0.913  0.00  0.00     0.054 A 
ATOM      3  C3  IND d   1       2.401   0.599   0.368  0.00  0.00    -0.031 A 
ATOM      4  C4  IND d   1      -0.038   1.293  -0.076  0.00  0.00     0.051 A 
ATOM      5  C5  IND d   1      -1.319   0.819  -0.028  0.00  0.00    -0.031 A 
ATOM      6  C6  IND d   1      -1.611  -0.446   0.438  0.00  0.00     0.015 A 
ATOM      7  C7  IND d   1      -0.629  -1.284   0.887  0.00  0.00    -0.016 A 
ATOM      8  C8  IND d   1       0.673  -0.809   0.833  0.00  0.00    -0.047 A 
ATOM      9  C9  IND d   1       0.980   0.459   0.321  0.00  0.00    -0.096 A 
ATOM     10  HN1 IND d   1       1.949  -2.196   1.517  0.00  0.00     0.298 HD
ENDROOT
TORSDOF 0
ENDMDL
