MODEL 1
REMARK minimizedAffinity 2.25801635
REMARK minimizedRMSD -1
REMARK  0 active torsions:
REMARK  status: ('A' for Active; 'I' for Inactive)
ROOT
ATOM      1  C   UNL d   1      -0.340  -1.846   2.965  0.00  0.00     0.172 C 
ATOM      2  N   UNL d   1       0.796  -2.058   2.099  0.00  0.00    -0.070 N 
ATOM      3  C1  UNL d   1       1.119  -1.299   1.006  0.00  0.00    -0.004 A 
ATOM      4  C2  UNL d   1       2.267  -1.823   0.452  0.00  0.00    -0.047 A 
ATOM      5  C3  UNL d   1       2.646  -2.937   1.238  0.00  0.00    -0.047 A 
ATOM      6  C4  UNL d   1       1.718  -3.059   2.251  0.00  0.00    -0.004 A 
ENDROOT
TORSDOF 0
ENDMDL
