MODEL 1
REMARK minimizedAffinity -0.609317958
REMARK minimizedRMSD -1
REMARK  0 active torsions:
REMARK  status: ('A' for Active; 'I' for Inactive)
ROOT
ATOM      1  C   UNL d   1       2.259  -2.225   0.866  0.00  0.00     0.172 C 
ATOM      2  N   UNL d   1       1.153  -2.136   1.790  0.00  0.00    -0.070 N 
ATOM      3  C1  UNL d   1       0.685  -0.986   2.367  0.00  0.00    -0.004 A 
ATOM      4  C2  UNL d   1      -0.375  -1.322   3.180  0.00  0.00    -0.047 A 
ATOM      5  C3  UNL d   1      -0.550  -2.724   3.090  0.00  0.00    -0.047 A 
ATOM      6  C4  UNL d   1       0.409  -3.202   2.222  0.00  0.00    -0.004 A 
ENDROOT
TORSDOF 0
ENDMDL
