MODEL 1
REMARK minimizedAffinity -0.916429043
REMARK minimizedRMSD -1
REMARK  0 active torsions:
REMARK  status: ('A' for Active; 'I' for Inactive)
ROOT
ATOM      1  C   UNL d   1       2.771  -4.034   2.355  0.00  0.00     0.172 C 
ATOM      2  N   UNL d   1       1.564  -3.325   2.709  0.00  0.00    -0.070 N 
ATOM      3  C1  UNL d   1       1.415  -1.964   2.735  0.00  0.00    -0.004 A 
ATOM      4  C2  UNL d   1       0.121  -1.688   3.121  0.00  0.00    -0.047 A 
ATOM      5  C3  UNL d   1      -0.530  -2.926   3.335  0.00  0.00    -0.047 A 
ATOM      6  C4  UNL d   1       0.386  -3.923   3.073  0.00  0.00    -0.004 A 
ENDROOT
TORSDOF 0
ENDMDL
