MODEL 1
REMARK minimizedAffinity 1.4004662
REMARK minimizedRMSD -1
REMARK  0 active torsions:
REMARK  status: ('A' for Active; 'I' for Inactive)
ROOT
ATOM      1  C   UNL d   1       0.980  -3.448   0.898  0.00  0.00     0.172 C 
ATOM      2  N   UNL d   1       0.807  -2.363   1.835  0.00  0.00    -0.070 N 
ATOM      3  C1  UNL d   1      -0.323  -2.112   2.566  0.00  0.00    -0.004 A 
ATOM      4  C2  UNL d   1      -0.088  -0.994   3.337  0.00  0.00    -0.047 A 
ATOM      5  C3  UNL d   1       1.229  -0.558   3.059  0.00  0.00    -0.047 A 
ATOM      6  C4  UNL d   1       1.760  -1.423   2.126  0.00  0.00    -0.004 A 
ENDROOT
TORSDOF 0
ENDMDL
