MODEL 1
REMARK minimizedAffinity -1.95133984
REMARK minimizedRMSD -1
REMARK  0 active torsions:
REMARK  status: ('A' for Active; 'I' for Inactive)
ROOT
ATOM      1  C   UNL d   1       2.327   5.248  -5.861  0.00  0.00     0.172 C 
ATOM      2  N   UNL d   1       3.753   5.026  -5.876  0.00  0.00    -0.070 N 
ATOM      3  C1  UNL d   1       4.711   5.999  -5.979  0.00  0.00    -0.004 A 
ATOM      4  C2  UNL d   1       5.944   5.382  -5.957  0.00  0.00    -0.047 A 
ATOM      5  C3  UNL d   1       5.718   3.990  -5.838  0.00  0.00    -0.047 A 
ATOM      6  C4  UNL d   1       4.354   3.798  -5.790  0.00  0.00    -0.004 A 
ENDROOT
TORSDOF 0
ENDMDL
