MODEL 1
REMARK minimizedAffinity 4.46708202
REMARK minimizedRMSD -1
REMARK  0 active torsions:
REMARK  status: ('A' for Active; 'I' for Inactive)
ROOT
ATOM      1  C   UNL d   1       5.998  -0.062  -2.423  0.00  0.00     0.172 C 
ATOM      2  N   UNL d   1       5.986   0.745  -1.226  0.00  0.00    -0.070 N 
ATOM      3  C1  UNL d   1       5.960   2.113  -1.185  0.00  0.00    -0.004 A 
ATOM      4  C2  UNL d   1       5.956   2.496   0.139  0.00  0.00    -0.047 A 
ATOM      5  C3  UNL d   1       5.982   1.317   0.921  0.00  0.00    -0.047 A 
ATOM      6  C4  UNL d   1       6.000   0.248   0.051  0.00  0.00    -0.004 A 
ENDROOT
TORSDOF 0
ENDMDL
