MODEL 1
REMARK minimizedAffinity 2.44805479
REMARK minimizedRMSD -1
REMARK  0 active torsions:
REMARK  status: ('A' for Active; 'I' for Inactive)
ROOT
ATOM      1  C   UNL d   1      -5.207   5.648   6.000  0.00  0.00     0.172 C 
ATOM      2  N   UNL d   1      -4.252   4.565   5.999  0.00  0.00    -0.070 N 
ATOM      3  C1  UNL d   1      -4.558   3.231   6.000  0.00  0.00    -0.004 A 
ATOM      4  C2  UNL d   1      -3.373   2.526   5.998  0.00  0.00    -0.047 A 
ATOM      5  C3  UNL d   1      -2.319   3.470   5.998  0.00  0.00    -0.047 A 
ATOM      6  C4  UNL d   1      -2.891   4.725   5.999  0.00  0.00    -0.004 A 
ENDROOT
TORSDOF 0
ENDMDL
