MODEL 1
REMARK minimizedAffinity 1.58554435
REMARK minimizedRMSD -1
REMARK  0 active torsions:
REMARK  status: ('A' for Active; 'I' for Inactive)
ROOT
ATOM      1  C   UNL d   1      -4.461   1.338  -5.764  0.00  0.00     0.172 C 
ATOM      2  N   UNL d   1      -3.728   2.115  -4.792  0.00  0.00    -0.070 N 
ATOM      3  C1  UNL d   1      -4.176   3.257  -4.182  0.00  0.00    -0.004 A 
ATOM      4  C2  UNL d   1      -3.187   3.693  -3.327  0.00  0.00    -0.047 A 
ATOM      5  C3  UNL d   1      -2.108   2.783  -3.427  0.00  0.00    -0.047 A 
ATOM      6  C4  UNL d   1      -2.470   1.816  -4.341  0.00  0.00    -0.004 A 
ENDROOT
TORSDOF 0
ENDMDL
