MODEL 1
REMARK minimizedAffinity 4.73698187
REMARK minimizedRMSD -1
REMARK  0 active torsions:
REMARK  status: ('A' for Active; 'I' for Inactive)
ROOT
ATOM      1  C   UNL d   1       1.446  -2.741  -0.053  0.00  0.00     0.172 C 
ATOM      2  N   UNL d   1       1.140  -1.897   1.078  0.00  0.00    -0.070 N 
ATOM      3  C1  UNL d   1      -0.114  -1.634   1.561  0.00  0.00    -0.004 A 
ATOM      4  C2  UNL d   1       0.018  -0.790   2.642  0.00  0.00    -0.047 A 
ATOM      5  C3  UNL d   1       1.400  -0.536   2.814  0.00  0.00    -0.047 A 
ATOM      6  C4  UNL d   1       2.071  -1.233   1.832  0.00  0.00    -0.004 A 
ENDROOT
TORSDOF 0
ENDMDL
