MODEL 1
REMARK minimizedAffinity 8.62688255
REMARK minimizedRMSD -1
REMARK  0 active torsions:
REMARK  status: ('A' for Active; 'I' for Inactive)
ROOT
ATOM      1  C   UNL d   1      -1.853  -2.404   2.037  0.00  0.00     0.172 C 
ATOM      2  N   UNL d   1      -0.562  -1.759   2.091  0.00  0.00    -0.070 N 
ATOM      3  C1  UNL d   1      -0.231  -0.700   2.893  0.00  0.00    -0.004 A 
ATOM      4  C2  UNL d   1       1.087  -0.381   2.650  0.00  0.00    -0.047 A 
ATOM      5  C3  UNL d   1       1.565  -1.280   1.667  0.00  0.00    -0.047 A 
ATOM      6  C4  UNL d   1       0.524  -2.122   1.339  0.00  0.00    -0.004 A 
ENDROOT
TORSDOF 0
ENDMDL
