MODEL 1
REMARK minimizedAffinity 5.96023941
REMARK minimizedRMSD -1
REMARK  0 active torsions:
REMARK  status: ('A' for Active; 'I' for Inactive)
ROOT
ATOM      1  C   UNL d   1      -4.734   3.785  -4.305  0.00  0.00     0.172 C 
ATOM      2  N   UNL d   1      -3.678   3.031  -3.672  0.00  0.00    -0.070 N 
ATOM      3  C1  UNL d   1      -3.826   2.199  -2.595  0.00  0.00    -0.004 A 
ATOM      4  C2  UNL d   1      -2.589   1.670  -2.296  0.00  0.00    -0.047 A 
ATOM      5  C3  UNL d   1      -1.665   2.204  -3.225  0.00  0.00    -0.047 A 
ATOM      6  C4  UNL d   1      -2.366   3.043  -4.065  0.00  0.00    -0.004 A 
ENDROOT
TORSDOF 0
ENDMDL
