MODEL 1
REMARK minimizedAffinity -5.15545607
REMARK minimizedRMSD -1
REMARK  1 active torsions:
REMARK  status: ('A' for Active; 'I' for Inactive)
REMARK    1  A    between atoms: N_2  and  C1_3 
ROOT
ATOM      1  C1  UNL d   1       0.163   0.764   2.002  0.00  0.00     0.143 A 
ATOM      2  C2  UNL d   1       0.495   0.168   0.781  0.00  0.00    -0.057 A 
ATOM      3  C3  UNL d   1      -0.493  -0.347  -0.067  0.00  0.00     0.033 A 
ATOM      4  C4  UNL d   1      -1.832  -0.300   0.306  0.00  0.00    -0.042 A 
ATOM      5  C5  UNL d   1      -2.183   0.266   1.526  0.00  0.00     0.033 A 
ATOM      6  C6  UNL d   1      -1.192   0.784   2.366  0.00  0.00    -0.057 A 
ENDROOT
BRANCH   1   7
ATOM      7  N   UNL d   1       1.106   1.205   2.934  0.00  0.00    -0.732 N 
ATOM      8  C   UNL d   1       2.323   0.456   3.162  0.00  0.00     0.284 C 
ATOM      9  H3  UNL d   1       1.239   2.214   2.905  0.00  0.00     0.395 HD
ENDBRANCH   1   7
TORSDOF 1
ENDMDL
