MODEL 1
REMARK minimizedAffinity -4.134902
REMARK minimizedRMSD -1
REMARK  1 active torsions:
REMARK  status: ('A' for Active; 'I' for Inactive)
REMARK    1  A    between atoms: N_2  and  C1_3 
ROOT
ATOM      1  C1  UNL d   1      -0.471   0.346   0.730  0.00  0.00     0.143 A 
ATOM      2  C2  UNL d   1       0.313   1.356   1.298  0.00  0.00    -0.057 A 
ATOM      3  C3  UNL d   1       0.114   1.773   2.620  0.00  0.00     0.033 A 
ATOM      4  C4  UNL d   1      -0.895   1.205   3.390  0.00  0.00    -0.042 A 
ATOM      5  C5  UNL d   1      -1.703   0.217   2.838  0.00  0.00     0.033 A 
ATOM      6  C6  UNL d   1      -1.496  -0.199   1.520  0.00  0.00    -0.057 A 
ENDROOT
BRANCH   1   7
ATOM      7  N   UNL d   1      -0.388  -0.043  -0.609  0.00  0.00    -0.732 N 
ATOM      8  C   UNL d   1       0.836  -0.607  -1.138  0.00  0.00     0.284 C 
ATOM      9  H3  UNL d   1      -1.233  -0.508  -0.932  0.00  0.00     0.395 HD
ENDBRANCH   1   7
TORSDOF 1
ENDMDL
