MODEL 1
REMARK minimizedAffinity -4.81748629
REMARK minimizedRMSD -1
REMARK  1 active torsions:
REMARK  status: ('A' for Active; 'I' for Inactive)
REMARK    1  A    between atoms: N_2  and  C1_3 
ROOT
ATOM      1  C1  UNL d   1       0.110   0.398   1.041  0.00  0.00     0.143 A 
ATOM      2  C2  UNL d   1      -0.756   0.922   2.008  0.00  0.00    -0.057 A 
ATOM      3  C3  UNL d   1      -0.330   1.134   3.324  0.00  0.00     0.033 A 
ATOM      4  C4  UNL d   1       0.965   0.799   3.706  0.00  0.00    -0.042 A 
ATOM      5  C5  UNL d   1       1.835   0.255   2.768  0.00  0.00     0.033 A 
ATOM      6  C6  UNL d   1       1.406   0.051   1.453  0.00  0.00    -0.057 A 
ENDROOT
BRANCH   1   7
ATOM      7  N   UNL d   1      -0.283   0.072  -0.259  0.00  0.00    -0.732 N 
ATOM      8  C   UNL d   1       0.365  -1.006  -0.976  0.00  0.00     0.284 C 
ATOM      9  H3  UNL d   1      -1.292   0.103  -0.380  0.00  0.00     0.395 HD
ENDBRANCH   1   7
TORSDOF 1
ENDMDL
