MODEL 1
REMARK minimizedAffinity -4.27854872
REMARK minimizedRMSD -1
REMARK  1 active torsions:
REMARK  status: ('A' for Active; 'I' for Inactive)
REMARK    1  A    between atoms: N_2  and  C1_3 
ROOT
ATOM      1  C1  UNL d   1      -0.028   0.097   0.462  0.00  0.00     0.143 A 
ATOM      2  C2  UNL d   1      -1.255   0.753   0.608  0.00  0.00    -0.057 A 
ATOM      3  C3  UNL d   1      -1.619   1.351   1.821  0.00  0.00     0.033 A 
ATOM      4  C4  UNL d   1      -0.771   1.278   2.921  0.00  0.00    -0.042 A 
ATOM      5  C5  UNL d   1       0.443   0.610   2.806  0.00  0.00     0.033 A 
ATOM      6  C6  UNL d   1       0.803   0.020   1.590  0.00  0.00    -0.057 A 
ENDROOT
BRANCH   1   7
ATOM      7  N   UNL d   1       0.348  -0.601  -0.688  0.00  0.00    -0.732 N 
ATOM      8  C   UNL d   1       0.357   0.054  -1.979  0.00  0.00     0.284 C 
ATOM      9  H3  UNL d   1       1.144  -1.214  -0.527  0.00  0.00     0.395 HD
ENDBRANCH   1   7
TORSDOF 1
ENDMDL
