MODEL 1
REMARK minimizedAffinity -4.98097658
REMARK minimizedRMSD -1
REMARK  1 active torsions:
REMARK  status: ('A' for Active; 'I' for Inactive)
REMARK    1  A    between atoms: N_2  and  C1_3 
ROOT
ATOM      1  C1  UNL d   1       0.723   0.134   1.066  0.00  0.00     0.143 A 
ATOM      2  C2  UNL d   1       1.586   0.092   2.167  0.00  0.00    -0.057 A 
ATOM      3  C3  UNL d   1       1.249   0.708   3.378  0.00  0.00     0.033 A 
ATOM      4  C4  UNL d   1       0.051   1.404   3.501  0.00  0.00    -0.042 A 
ATOM      5  C5  UNL d   1      -0.811   1.480   2.413  0.00  0.00     0.033 A 
ATOM      6  C6  UNL d   1      -0.471   0.857   1.208  0.00  0.00    -0.057 A 
ENDROOT
BRANCH   1   7
ATOM      7  N   UNL d   1       1.045  -0.374  -0.195  0.00  0.00    -0.732 N 
ATOM      8  C   UNL d   1       0.004  -0.692  -1.149  0.00  0.00     0.284 C 
ATOM      9  H3  UNL d   1       1.857   0.084  -0.602  0.00  0.00     0.395 HD
ENDBRANCH   1   7
TORSDOF 1
ENDMDL
