MODEL 1
REMARK minimizedAffinity 14.44487
REMARK minimizedRMSD -1
REMARK  0 active torsions:
REMARK  status: ('A' for Active; 'I' for Inactive)
ROOT
ATOM      1  C   UNL d   1       1.368  -1.725  -1.781  0.00  0.00     0.124 A 
ATOM      2  C1  UNL d   1       0.680  -1.724  -0.576  0.00  0.00     0.062 A 
ATOM      3  C2  UNL d   1       0.123  -0.545  -0.090  0.00  0.00     0.162 A 
ATOM      4  C3  UNL d   1       0.250   0.643  -0.810  0.00  0.00    -0.034 A 
ATOM      5  C4  UNL d   1       0.945   0.634  -2.021  0.00  0.00     0.162 A 
ATOM      6  C5  UNL d   1       1.500  -0.547  -2.503  0.00  0.00     0.062 A 
ATOM      7  F   UNL d   1       2.164  -0.547  -3.667  0.00  0.00    -0.097 F 
ATOM      8  F1  UNL d   1       1.086   1.758  -2.739  0.00  0.00    -0.096 F 
ATOM      9  I   UNL d   1      -0.582   2.409  -0.087  0.00  0.00    -0.060 I 
ATOM     10  F2  UNL d   1      -0.537  -0.572   1.078  0.00  0.00    -0.096 F 
ATOM     11  F3  UNL d   1       0.552  -2.861   0.123  0.00  0.00    -0.097 F 
ATOM     12  F4  UNL d   1       1.904  -2.861  -2.246  0.00  0.00    -0.092 F 
ENDROOT
TORSDOF 0
ENDMDL
