MODEL 1
REMARK minimizedAffinity -2.26754284
REMARK minimizedRMSD -1
REMARK  0 active torsions:
REMARK  status: ('A' for Active; 'I' for Inactive)
ROOT
ATOM      1  C   UNL d   1       1.527  -1.735  -3.513  0.00  0.00     0.124 A 
ATOM      2  C1  UNL d   1       1.367  -1.861  -2.140  0.00  0.00     0.062 A 
ATOM      3  C2  UNL d   1       1.105  -0.739  -1.359  0.00  0.00     0.162 A 
ATOM      4  C3  UNL d   1       1.001   0.520  -1.950  0.00  0.00    -0.034 A 
ATOM      5  C4  UNL d   1       1.164   0.640  -3.331  0.00  0.00     0.162 A 
ATOM      6  C5  UNL d   1       1.425  -0.485  -4.107  0.00  0.00     0.062 A 
ATOM      7  F   UNL d   1       1.579  -0.361  -5.433  0.00  0.00    -0.097 F 
ATOM      8  F1  UNL d   1       1.069   1.835  -3.932  0.00  0.00    -0.096 F 
ATOM      9  I   UNL d   1       0.609   2.201  -0.786  0.00  0.00    -0.060 I 
ATOM     10  F2  UNL d   1       0.956  -0.891  -0.035  0.00  0.00    -0.096 F 
ATOM     11  F3  UNL d   1       1.466  -3.068  -1.563  0.00  0.00    -0.097 F 
ATOM     12  F4  UNL d   1       1.780  -2.816  -4.261  0.00  0.00    -0.092 F 
ENDROOT
TORSDOF 0
ENDMDL
