MODEL 1
REMARK minimizedAffinity 18.4216099
REMARK minimizedRMSD -1
REMARK  0 active torsions:
REMARK  status: ('A' for Active; 'I' for Inactive)
ROOT
ATOM      1  C   UNL d   1       0.942   1.653  -2.713  0.00  0.00     0.124 A 
ATOM      2  C1  UNL d   1       1.256   0.396  -3.209  0.00  0.00     0.062 A 
ATOM      3  C2  UNL d   1       1.125  -0.729  -2.400  0.00  0.00     0.162 A 
ATOM      4  C3  UNL d   1       0.676  -0.602  -1.086  0.00  0.00    -0.034 A 
ATOM      5  C4  UNL d   1       0.362   0.666  -0.593  0.00  0.00     0.162 A 
ATOM      6  C5  UNL d   1       0.495   1.787  -1.406  0.00  0.00     0.062 A 
ATOM      7  F   UNL d   1       0.191   3.001  -0.924  0.00  0.00    -0.097 F 
ATOM      8  F1  UNL d   1      -0.073   0.824   0.666  0.00  0.00    -0.096 F 
ATOM      9  I   UNL d   1       0.478  -2.282   0.127  0.00  0.00    -0.060 I 
ATOM     10  F2  UNL d   1       1.436  -1.932  -2.906  0.00  0.00    -0.096 F 
ATOM     11  F3  UNL d   1       1.689   0.264  -4.471  0.00  0.00    -0.097 F 
ATOM     12  F4  UNL d   1       1.070   2.734  -3.493  0.00  0.00    -0.092 F 
ENDROOT
TORSDOF 0
ENDMDL
