MODEL 1
REMARK minimizedAffinity 9.86925316
REMARK minimizedRMSD -1
REMARK  0 active torsions:
REMARK  status: ('A' for Active; 'I' for Inactive)
ROOT
ATOM      1  C   UNL d   1       1.916   2.308  -4.429  0.00  0.00     0.124 A 
ATOM      2  C1  UNL d   1       2.247   3.527  -3.853  0.00  0.00     0.062 A 
ATOM      3  C2  UNL d   1       2.063   3.730  -2.489  0.00  0.00     0.162 A 
ATOM      4  C3  UNL d   1       1.545   2.711  -1.689  0.00  0.00    -0.034 A 
ATOM      5  C4  UNL d   1       1.214   1.488  -2.276  0.00  0.00     0.162 A 
ATOM      6  C5  UNL d   1       1.400   1.290  -3.640  0.00  0.00     0.062 A 
ATOM      7  F   UNL d   1       1.079   0.112  -4.194  0.00  0.00    -0.097 F 
ATOM      8  F1  UNL d   1       0.714   0.486  -1.536  0.00  0.00    -0.096 F 
ATOM      9  I   UNL d   1       1.268   3.010   0.351  0.00  0.00    -0.060 I 
ATOM     10  F2  UNL d   1       2.391   4.918  -1.960  0.00  0.00    -0.096 F 
ATOM     11  F3  UNL d   1       2.745   4.513  -4.614  0.00  0.00    -0.097 F 
ATOM     12  F4  UNL d   1       2.093   2.116  -5.743  0.00  0.00    -0.092 F 
ENDROOT
TORSDOF 0
ENDMDL
