MODEL 1
REMARK minimizedAffinity 4.22234964
REMARK minimizedRMSD -1
REMARK  0 active torsions:
REMARK  status: ('A' for Active; 'I' for Inactive)
ROOT
ATOM      1  C   UNL d   1       0.720  -0.996  -0.254  0.00  0.00     0.124 A 
ATOM      2  C1  UNL d   1       0.573   0.338  -0.608  0.00  0.00     0.062 A 
ATOM      3  C2  UNL d   1       0.923   0.766  -1.885  0.00  0.00     0.162 A 
ATOM      4  C3  UNL d   1       1.424  -0.141  -2.819  0.00  0.00    -0.034 A 
ATOM      5  C4  UNL d   1       1.570  -1.481  -2.455  0.00  0.00     0.162 A 
ATOM      6  C5  UNL d   1       1.218  -1.904  -1.177  0.00  0.00     0.062 A 
ATOM      7  F   UNL d   1       1.361  -3.193  -0.837  0.00  0.00    -0.097 F 
ATOM      8  F1  UNL d   1       2.049  -2.380  -3.328  0.00  0.00    -0.096 F 
ATOM      9  I   UNL d   1       1.950   0.495  -4.729  0.00  0.00    -0.060 I 
ATOM     10  F2  UNL d   1       0.771   2.061  -2.200  0.00  0.00    -0.096 F 
ATOM     11  F3  UNL d   1       0.092   1.218   0.282  0.00  0.00    -0.097 F 
ATOM     12  F4  UNL d   1       0.382  -1.405   0.976  0.00  0.00    -0.092 F 
ENDROOT
TORSDOF 0
ENDMDL
