MODEL 1
REMARK minimizedAffinity 11.6162071
REMARK minimizedRMSD -1
REMARK  0 active torsions:
REMARK  status: ('A' for Active; 'I' for Inactive)
ROOT
ATOM      1  C   UNL d   1       1.559  -1.391  -1.386  0.00  0.00     0.124 A 
ATOM      2  C1  UNL d   1       0.799  -0.231  -1.329  0.00  0.00     0.062 A 
ATOM      3  C2  UNL d   1      -0.243  -0.121  -0.413  0.00  0.00     0.162 A 
ATOM      4  C3  UNL d   1      -0.532  -1.175   0.454  0.00  0.00    -0.034 A 
ATOM      5  C4  UNL d   1       0.236  -2.339   0.390  0.00  0.00     0.162 A 
ATOM      6  C5  UNL d   1       1.277  -2.444  -0.527  0.00  0.00     0.062 A 
ATOM      7  F   UNL d   1       2.010  -3.565  -0.582  0.00  0.00    -0.097 F 
ATOM      8  F1  UNL d   1      -0.014  -3.372   1.208  0.00  0.00    -0.096 F 
ATOM      9  I   UNL d   1      -2.090  -1.016   1.825  0.00  0.00    -0.060 I 
ATOM     10  F2  UNL d   1      -0.961   1.011  -0.379  0.00  0.00    -0.096 F 
ATOM     11  F3  UNL d   1       1.069   0.788  -2.158  0.00  0.00    -0.097 F 
ATOM     12  F4  UNL d   1       2.561  -1.493  -2.269  0.00  0.00    -0.092 F 
ENDROOT
TORSDOF 0
ENDMDL
