MODEL 1
REMARK minimizedAffinity 3.17939734
REMARK minimizedRMSD -1
REMARK  0 active torsions:
REMARK  status: ('A' for Active; 'I' for Inactive)
ROOT
ATOM      1  C   UNL d   1       1.115  -2.141  -0.622  0.00  0.00     0.124 A 
ATOM      2  C1  UNL d   1       2.107  -1.178  -0.495  0.00  0.00     0.062 A 
ATOM      3  C2  UNL d   1       1.765   0.160  -0.327  0.00  0.00     0.162 A 
ATOM      4  C3  UNL d   1       0.425   0.545  -0.284  0.00  0.00    -0.034 A 
ATOM      5  C4  UNL d   1      -0.567  -0.428  -0.414  0.00  0.00     0.162 A 
ATOM      6  C5  UNL d   1      -0.221  -1.765  -0.582  0.00  0.00     0.062 A 
ATOM      7  F   UNL d   1      -1.181  -2.693  -0.705  0.00  0.00    -0.097 F 
ATOM      8  F1  UNL d   1      -1.865  -0.093  -0.377  0.00  0.00    -0.096 F 
ATOM      9  I   UNL d   1      -0.089   2.546  -0.033  0.00  0.00    -0.060 I 
ATOM     10  F2  UNL d   1       2.745   1.069  -0.207  0.00  0.00    -0.096 F 
ATOM     11  F3  UNL d   1       3.397  -1.539  -0.535  0.00  0.00    -0.097 F 
ATOM     12  F4  UNL d   1       1.446  -3.428  -0.785  0.00  0.00    -0.092 F 
ENDROOT
TORSDOF 0
ENDMDL
