MODEL 1
REMARK minimizedAffinity 8.40398312
REMARK minimizedRMSD -1
REMARK  0 active torsions:
REMARK  status: ('A' for Active; 'I' for Inactive)
ROOT
ATOM      1  C   UNL d   1       1.460  -2.091  -3.156  0.00  0.00     0.124 A 
ATOM      2  C1  UNL d   1       1.189  -2.232  -1.802  0.00  0.00     0.062 A 
ATOM      3  C2  UNL d   1       0.835  -1.122  -1.040  0.00  0.00     0.162 A 
ATOM      4  C3  UNL d   1       0.748   0.138  -1.631  0.00  0.00    -0.034 A 
ATOM      5  C4  UNL d   1       1.022   0.272  -2.993  0.00  0.00     0.162 A 
ATOM      6  C5  UNL d   1       1.376  -0.840  -3.750  0.00  0.00     0.062 A 
ATOM      7  F   UNL d   1       1.637  -0.702  -5.058  0.00  0.00    -0.097 F 
ATOM      8  F1  UNL d   1       0.949   1.470  -3.592  0.00  0.00    -0.096 F 
ATOM      9  I   UNL d   1       0.218   1.800  -0.495  0.00  0.00    -0.060 I 
ATOM     10  F2  UNL d   1       0.578  -1.288   0.266  0.00  0.00    -0.096 F 
ATOM     11  F3  UNL d   1       1.270  -3.440  -1.226  0.00  0.00    -0.097 F 
ATOM     12  F4  UNL d   1       1.801  -3.160  -3.887  0.00  0.00    -0.092 F 
ENDROOT
TORSDOF 0
ENDMDL
