MODEL 1
REMARK minimizedAffinity 5.87784672
REMARK minimizedRMSD -1
REMARK  0 active torsions:
REMARK  status: ('A' for Active; 'I' for Inactive)
ROOT
ATOM      1  C   UNL d   1       0.450  -2.186  -0.061  0.00  0.00     0.124 A 
ATOM      2  C1  UNL d   1      -0.216  -0.969  -0.042  0.00  0.00     0.062 A 
ATOM      3  C2  UNL d   1      -0.011  -0.042  -1.060  0.00  0.00     0.162 A 
ATOM      4  C3  UNL d   1       0.865  -0.329  -2.107  0.00  0.00    -0.034 A 
ATOM      5  C4  UNL d   1       1.532  -1.555  -2.119  0.00  0.00     0.162 A 
ATOM      6  C5  UNL d   1       1.323  -2.478  -1.099  0.00  0.00     0.062 A 
ATOM      7  F   UNL d   1       1.968  -3.654  -1.120  0.00  0.00    -0.097 F 
ATOM      8  F1  UNL d   1       2.381  -1.864  -3.111  0.00  0.00    -0.096 F 
ATOM      9  I   UNL d   1       1.175   1.054  -3.631  0.00  0.00    -0.060 I 
ATOM     10  F2  UNL d   1      -0.668   1.126  -1.016  0.00  0.00    -0.096 F 
ATOM     11  F3  UNL d   1      -1.060  -0.684   0.960  0.00  0.00    -0.097 F 
ATOM     12  F4  UNL d   1       0.251  -3.075   0.920  0.00  0.00    -0.092 F 
ENDROOT
TORSDOF 0
ENDMDL
