MODEL 1
REMARK minimizedAffinity 8.73048306
REMARK minimizedRMSD -1
REMARK  0 active torsions:
REMARK  status: ('A' for Active; 'I' for Inactive)
ROOT
ATOM      1  C   UNL d   1       0.916  -1.099  -2.066  0.00  0.00     0.124 A 
ATOM      2  C1  UNL d   1       1.143  -1.307  -3.419  0.00  0.00     0.062 A 
ATOM      3  C2  UNL d   1       1.373  -0.225  -4.265  0.00  0.00     0.162 A 
ATOM      4  C3  UNL d   1       1.378   1.075  -3.759  0.00  0.00    -0.034 A 
ATOM      5  C4  UNL d   1       1.148   1.276  -2.396  0.00  0.00     0.162 A 
ATOM      6  C5  UNL d   1       0.919   0.191  -1.556  0.00  0.00     0.062 A 
ATOM      7  F   UNL d   1       0.699   0.394  -0.249  0.00  0.00    -0.097 F 
ATOM      8  F1  UNL d   1       1.145   2.512  -1.877  0.00  0.00    -0.096 F 
ATOM      9  I   UNL d   1       1.721   2.695  -5.019  0.00  0.00    -0.060 I 
ATOM     10  F2  UNL d   1       1.590  -0.455  -5.568  0.00  0.00    -0.096 F 
ATOM     11  F3  UNL d   1       1.141  -2.553  -3.915  0.00  0.00    -0.097 F 
ATOM     12  F4  UNL d   1       0.694  -2.142  -1.255  0.00  0.00    -0.092 F 
ENDROOT
TORSDOF 0
ENDMDL
