MODEL 1
REMARK minimizedAffinity 11.4341106
REMARK minimizedRMSD -1
REMARK  0 active torsions:
REMARK  status: ('A' for Active; 'I' for Inactive)
ROOT
ATOM      1  C   UNL d   1       1.030   1.243  -3.226  0.00  0.00     0.124 A 
ATOM      2  C1  UNL d   1       1.306  -0.058  -3.621  0.00  0.00     0.062 A 
ATOM      3  C2  UNL d   1       1.122  -1.114  -2.733  0.00  0.00     0.162 A 
ATOM      4  C3  UNL d   1       0.659  -0.872  -1.439  0.00  0.00    -0.034 A 
ATOM      5  C4  UNL d   1       0.385   0.440  -1.049  0.00  0.00     0.162 A 
ATOM      6  C5  UNL d   1       0.570   1.491  -1.940  0.00  0.00     0.062 A 
ATOM      7  F   UNL d   1       0.303   2.748  -1.557  0.00  0.00    -0.097 F 
ATOM      8  F1  UNL d   1      -0.062   0.708   0.188  0.00  0.00    -0.096 F 
ATOM      9  I   UNL d   1       0.383  -2.447  -0.107  0.00  0.00    -0.060 I 
ATOM     10  F2  UNL d   1       1.397  -2.361  -3.142  0.00  0.00    -0.096 F 
ATOM     11  F3  UNL d   1       1.751  -0.300  -4.863  0.00  0.00    -0.097 F 
ATOM     12  F4  UNL d   1       1.208   2.257  -4.083  0.00  0.00    -0.092 F 
ENDROOT
TORSDOF 0
ENDMDL
