MODEL 1
REMARK minimizedAffinity 16.6086521
REMARK minimizedRMSD -1
REMARK  0 active torsions:
REMARK  status: ('A' for Active; 'I' for Inactive)
ROOT
ATOM      1  C   UNL d   1       0.419  -2.448  -0.177  0.00  0.00     0.124 A 
ATOM      2  C1  UNL d   1       1.302  -2.923  -1.138  0.00  0.00     0.062 A 
ATOM      3  C2  UNL d   1       1.739  -2.088  -2.162  0.00  0.00     0.162 A 
ATOM      4  C3  UNL d   1       1.294  -0.767  -2.230  0.00  0.00    -0.034 A 
ATOM      5  C4  UNL d   1       0.406  -0.297  -1.261  0.00  0.00     0.162 A 
ATOM      6  C5  UNL d   1      -0.028  -1.136  -0.240  0.00  0.00     0.062 A 
ATOM      7  F   UNL d   1      -0.880  -0.675   0.687  0.00  0.00    -0.097 F 
ATOM      8  F1  UNL d   1      -0.041   0.967  -1.297  0.00  0.00    -0.096 F 
ATOM      9  I   UNL d   1       1.945   0.486  -3.759  0.00  0.00    -0.060 I 
ATOM     10  F2  UNL d   1       2.591  -2.573  -3.076  0.00  0.00    -0.096 F 
ATOM     11  F3  UNL d   1       1.734  -4.191  -1.080  0.00  0.00    -0.097 F 
ATOM     12  F4  UNL d   1       0.000  -3.255   0.806  0.00  0.00    -0.092 F 
ENDROOT
TORSDOF 0
ENDMDL
