MODEL 1
REMARK minimizedAffinity 13.9164648
REMARK minimizedRMSD -1
REMARK  0 active torsions:
REMARK  status: ('A' for Active; 'I' for Inactive)
ROOT
ATOM      1  C   UNL d   1       5.071   2.766   3.719  0.00  0.00     0.124 A 
ATOM      2  C1  UNL d   1       4.612   2.035   2.633  0.00  0.00     0.062 A 
ATOM      3  C2  UNL d   1       4.615   0.643   2.674  0.00  0.00     0.162 A 
ATOM      4  C3  UNL d   1       5.079  -0.026   3.807  0.00  0.00    -0.034 A 
ATOM      5  C4  UNL d   1       5.540   0.717   4.895  0.00  0.00     0.162 A 
ATOM      6  C5  UNL d   1       5.534   2.107   4.849  0.00  0.00     0.062 A 
ATOM      7  F   UNL d   1       5.978   2.812   5.900  0.00  0.00    -0.097 F 
ATOM      8  F1  UNL d   1       5.993   0.105   6.000  0.00  0.00    -0.096 F 
ATOM      9  I   UNL d   1       5.086  -2.106   3.872  0.00  0.00    -0.060 I 
ATOM     10  F2  UNL d   1       4.166  -0.038   1.610  0.00  0.00    -0.096 F 
ATOM     11  F3  UNL d   1       4.164   2.669   1.540  0.00  0.00    -0.097 F 
ATOM     12  F4  UNL d   1       5.067   4.105   3.677  0.00  0.00    -0.092 F 
ENDROOT
TORSDOF 0
ENDMDL
