MODEL 1
REMARK minimizedAffinity 3.39681053
REMARK minimizedRMSD -1
REMARK  0 active torsions:
REMARK  status: ('A' for Active; 'I' for Inactive)
ROOT
ATOM      1  C   UNL d   1       1.365   0.854  -2.709  0.00  0.00     0.124 A 
ATOM      2  C1  UNL d   1       1.820  -0.408  -3.066  0.00  0.00     0.062 A 
ATOM      3  C2  UNL d   1       1.589  -1.498  -2.232  0.00  0.00     0.162 A 
ATOM      4  C3  UNL d   1       0.898  -1.331  -1.032  0.00  0.00    -0.034 A 
ATOM      5  C4  UNL d   1       0.444  -0.059  -0.678  0.00  0.00     0.162 A 
ATOM      6  C5  UNL d   1       0.678   1.027  -1.516  0.00  0.00     0.062 A 
ATOM      7  F   UNL d   1       0.237   2.245  -1.168  0.00  0.00    -0.097 F 
ATOM      8  F1  UNL d   1      -0.223   0.136   0.469  0.00  0.00    -0.096 F 
ATOM      9  I   UNL d   1       0.550  -2.959   0.219  0.00  0.00    -0.060 I 
ATOM     10  F2  UNL d   1       2.040  -2.706  -2.603  0.00  0.00    -0.096 F 
ATOM     11  F3  UNL d   1       2.485  -0.578  -4.218  0.00  0.00    -0.097 F 
ATOM     12  F4  UNL d   1       1.589   1.901  -3.513  0.00  0.00    -0.092 F 
ENDROOT
TORSDOF 0
ENDMDL
