MODEL 1
REMARK minimizedAffinity 10.4021578
REMARK minimizedRMSD -1
REMARK  0 active torsions:
REMARK  status: ('A' for Active; 'I' for Inactive)
ROOT
ATOM      1  C   UNL d   1       0.501  -1.635   0.420  0.00  0.00     0.124 A 
ATOM      2  C1  UNL d   1       0.288  -0.289   0.156  0.00  0.00     0.062 A 
ATOM      3  C2  UNL d   1       0.619   0.242  -1.087  0.00  0.00     0.162 A 
ATOM      4  C3  UNL d   1       1.166  -0.574  -2.078  0.00  0.00    -0.034 A 
ATOM      5  C4  UNL d   1       1.378  -1.927  -1.805  0.00  0.00     0.162 A 
ATOM      6  C5  UNL d   1       1.045  -2.452  -0.561  0.00  0.00     0.062 A 
ATOM      7  F   UNL d   1       1.252  -3.753  -0.308  0.00  0.00    -0.097 F 
ATOM      8  F1  UNL d   1       1.901  -2.740  -2.735  0.00  0.00    -0.096 F 
ATOM      9  I   UNL d   1       1.662   0.215  -3.938  0.00  0.00    -0.060 I 
ATOM     10  F2  UNL d   1       0.403   1.546  -1.314  0.00  0.00    -0.096 F 
ATOM     11  F3  UNL d   1      -0.236   0.503   1.102  0.00  0.00    -0.097 F 
ATOM     12  F4  UNL d   1       0.183  -2.143   1.618  0.00  0.00    -0.092 F 
ENDROOT
TORSDOF 0
ENDMDL
