MODEL 1
REMARK minimizedAffinity 21.1413803
REMARK minimizedRMSD -1
REMARK  0 active torsions:
REMARK  status: ('A' for Active; 'I' for Inactive)
ROOT
ATOM      1  C   UNL d   1       1.795   1.559  -4.328  0.00  0.00     0.124 A 
ATOM      2  C1  UNL d   1       1.328   0.720  -3.325  0.00  0.00     0.062 A 
ATOM      3  C2  UNL d   1       1.084   1.221  -2.050  0.00  0.00     0.162 A 
ATOM      4  C3  UNL d   1       1.305   2.570  -1.770  0.00  0.00    -0.034 A 
ATOM      5  C4  UNL d   1       1.775   3.407  -2.783  0.00  0.00     0.162 A 
ATOM      6  C5  UNL d   1       2.017   2.901  -4.056  0.00  0.00     0.062 A 
ATOM      7  F   UNL d   1       2.468   3.713  -5.023  0.00  0.00    -0.097 F 
ATOM      8  F1  UNL d   1       1.998   4.709  -2.548  0.00  0.00    -0.096 F 
ATOM      9  I   UNL d   1       0.941   3.324   0.135  0.00  0.00    -0.060 I 
ATOM     10  F2  UNL d   1       0.634   0.388  -1.101  0.00  0.00    -0.096 F 
ATOM     11  F3  UNL d   1       1.113  -0.578  -3.585  0.00  0.00    -0.097 F 
ATOM     12  F4  UNL d   1       2.030   1.073  -5.554  0.00  0.00    -0.092 F 
ENDROOT
TORSDOF 0
ENDMDL
