MODEL 1
REMARK minimizedAffinity -0.0999133065
REMARK minimizedRMSD -1
REMARK  0 active torsions:
REMARK  status: ('A' for Active; 'I' for Inactive)
ROOT
ATOM      1  C   UNL d   1       0.791  -1.773   0.009  0.00  0.00     0.124 A 
ATOM      2  C1  UNL d   1       1.298  -2.431  -1.103  0.00  0.00     0.062 A 
ATOM      3  C2  UNL d   1       1.436  -1.757  -2.313  0.00  0.00     0.162 A 
ATOM      4  C3  UNL d   1       1.068  -0.415  -2.417  0.00  0.00    -0.034 A 
ATOM      5  C4  UNL d   1       0.559   0.240  -1.294  0.00  0.00     0.162 A 
ATOM      6  C5  UNL d   1       0.422  -0.439  -0.088  0.00  0.00     0.062 A 
ATOM      7  F   UNL d   1      -0.068   0.199   0.986  0.00  0.00    -0.097 F 
ATOM      8  F1  UNL d   1       0.195   1.529  -1.359  0.00  0.00    -0.096 F 
ATOM      9  I   UNL d   1       1.274   0.597  -4.224  0.00  0.00    -0.060 I 
ATOM     10  F2  UNL d   1       1.929  -2.417  -3.371  0.00  0.00    -0.096 F 
ATOM     11  F3  UNL d   1       1.655  -3.720  -1.013  0.00  0.00    -0.097 F 
ATOM     12  F4  UNL d   1       0.658  -2.424   1.171  0.00  0.00    -0.092 F 
ENDROOT
TORSDOF 0
ENDMDL
