MODEL 1
REMARK minimizedAffinity 14.0706444
REMARK minimizedRMSD -1
REMARK  0 active torsions:
REMARK  status: ('A' for Active; 'I' for Inactive)
ROOT
ATOM      1  C   UNL d   1       1.815   3.634  -0.693  0.00  0.00     0.124 A 
ATOM      2  C1  UNL d   1       3.130   3.775  -0.271  0.00  0.00     0.062 A 
ATOM      3  C2  UNL d   1       3.439   3.729   1.085  0.00  0.00     0.162 A 
ATOM      4  C3  UNL d   1       2.431   3.541   2.031  0.00  0.00    -0.034 A 
ATOM      5  C4  UNL d   1       1.111   3.401   1.599  0.00  0.00     0.162 A 
ATOM      6  C5  UNL d   1       0.807   3.447   0.242  0.00  0.00     0.062 A 
ATOM      7  F   UNL d   1      -0.464   3.311  -0.163  0.00  0.00    -0.097 F 
ATOM      8  F1  UNL d   1       0.117   3.218   2.481  0.00  0.00    -0.096 F 
ATOM      9  I   UNL d   1       2.889   3.472   4.060  0.00  0.00    -0.060 I 
ATOM     10  F2  UNL d   1       4.718   3.868   1.464  0.00  0.00    -0.096 F 
ATOM     11  F3  UNL d   1       4.106   3.957  -1.173  0.00  0.00    -0.097 F 
ATOM     12  F4  UNL d   1       1.521   3.680  -1.999  0.00  0.00    -0.092 F 
ENDROOT
TORSDOF 0
ENDMDL
