MODEL 1
REMARK minimizedAffinity 2.46880293
REMARK minimizedRMSD -1
REMARK  0 active torsions:
REMARK  status: ('A' for Active; 'I' for Inactive)
ROOT
ATOM      1  C1  BNZ d   1      -1.196   2.090   0.733  0.00  0.00     0.000 A 
ATOM      2  C2  BNZ d   1      -0.628   0.861   0.937  0.00  0.00     0.000 A 
ATOM      3  C3  BNZ d   1       0.349   0.689   1.878  0.00  0.00     0.000 A 
ATOM      4  C4  BNZ d   1       0.783   1.752   2.585  0.00  0.00     0.000 A 
ATOM      5  C5  BNZ d   1       0.226   3.000   2.385  0.00  0.00     0.000 A 
ATOM      6  C6  BNZ d   1      -0.784   3.161   1.464  0.00  0.00     0.000 A 
ENDROOT
TORSDOF 0
ENDMDL
