MODEL 1
REMARK minimizedAffinity 4.75750637
REMARK minimizedRMSD -1
REMARK  0 active torsions:
REMARK  status: ('A' for Active; 'I' for Inactive)
ROOT
ATOM      1  C1  BNZ d   1       5.248  -4.874  -3.696  0.00  0.00     0.000 A 
ATOM      2  C2  BNZ d   1       5.612  -4.497  -2.431  0.00  0.00     0.000 A 
ATOM      3  C3  BNZ d   1       4.877  -4.888  -1.346  0.00  0.00     0.000 A 
ATOM      4  C4  BNZ d   1       3.760  -5.620  -1.531  0.00  0.00     0.000 A 
ATOM      5  C5  BNZ d   1       3.375  -6.000  -2.802  0.00  0.00     0.000 A 
ATOM      6  C6  BNZ d   1       4.138  -5.638  -3.888  0.00  0.00     0.000 A 
ENDROOT
TORSDOF 0
ENDMDL
