MODEL 1
REMARK minimizedAffinity 3.73985863
REMARK minimizedRMSD -1
REMARK  0 active torsions:
REMARK  status: ('A' for Active; 'I' for Inactive)
ROOT
ATOM      1  C1  BNZ d   1       0.687   0.651   1.382  0.00  0.00     0.000 A 
ATOM      2  C2  BNZ d   1       1.576  -0.389   1.449  0.00  0.00     0.000 A 
ATOM      3  C3  BNZ d   1       1.581  -1.237   2.520  0.00  0.00     0.000 A 
ATOM      4  C4  BNZ d   1       0.725  -1.022   3.540  0.00  0.00     0.000 A 
ATOM      5  C5  BNZ d   1      -0.171   0.027   3.492  0.00  0.00     0.000 A 
ATOM      6  C6  BNZ d   1      -0.200   0.856   2.394  0.00  0.00     0.000 A 
ENDROOT
TORSDOF 0
ENDMDL
