MODEL 1
REMARK minimizedAffinity -0.1217876
REMARK minimizedRMSD -1
REMARK  0 active torsions:
REMARK  status: ('A' for Active; 'I' for Inactive)
ROOT
ATOM      1  C1  BNZ d   1      -5.999  -0.265   6.000  0.00  0.00     0.000 A 
ATOM      2  C2  BNZ d   1      -5.943   0.704   5.033  0.00  0.00     0.000 A 
ATOM      3  C3  BNZ d   1      -5.425   0.430   3.798  0.00  0.00     0.000 A 
ATOM      4  C4  BNZ d   1      -4.928  -0.798   3.545  0.00  0.00     0.000 A 
ATOM      5  C5  BNZ d   1      -4.969  -1.782   4.512  0.00  0.00     0.000 A 
ATOM      6  C6  BNZ d   1      -5.527  -1.514   5.741  0.00  0.00     0.000 A 
ENDROOT
TORSDOF 0
ENDMDL
