MODEL 1
REMARK minimizedAffinity -2.1082027
REMARK minimizedRMSD -1
REMARK  0 active torsions:
REMARK  status: ('A' for Active; 'I' for Inactive)
ROOT
ATOM      1  C1  BNZ d   1       0.043   1.913   2.356  0.00  0.00     0.000 A 
ATOM      2  C2  BNZ d   1       0.311   0.575   2.242  0.00  0.00     0.000 A 
ATOM      3  C3  BNZ d   1       0.689   0.037   1.043  0.00  0.00     0.000 A 
ATOM      4  C4  BNZ d   1       0.759   0.828  -0.046  0.00  0.00     0.000 A 
ATOM      5  C5  BNZ d   1       0.483   2.177   0.050  0.00  0.00     0.000 A 
ATOM      6  C6  BNZ d   1       0.141   2.723   1.266  0.00  0.00     0.000 A 
ENDROOT
TORSDOF 0
ENDMDL
