MODEL 1
REMARK minimizedAffinity -0.263395309
REMARK minimizedRMSD -1
REMARK  0 active torsions:
REMARK  status: ('A' for Active; 'I' for Inactive)
ROOT
ATOM      1  C1  BNZ d   1      -5.978  -0.827   3.298  0.00  0.00     0.000 A 
ATOM      2  C2  BNZ d   1      -5.973  -2.176   3.062  0.00  0.00     0.000 A 
ATOM      3  C3  BNZ d   1      -6.000  -3.067   4.097  0.00  0.00     0.000 A 
ATOM      4  C4  BNZ d   1      -5.990  -2.611   5.366  0.00  0.00     0.000 A 
ATOM      5  C5  BNZ d   1      -5.986  -1.254   5.621  0.00  0.00     0.000 A 
ATOM      6  C6  BNZ d   1      -5.998  -0.359   4.575  0.00  0.00     0.000 A 
ENDROOT
TORSDOF 0
ENDMDL
