MODEL 1
REMARK minimizedAffinity -0.401918054
REMARK minimizedRMSD -1
REMARK  0 active torsions:
REMARK  status: ('A' for Active; 'I' for Inactive)
ROOT
ATOM      1  C1  BNZ d   1       0.456   3.706   1.750  0.00  0.00     0.000 A 
ATOM      2  C2  BNZ d   1       1.226   2.744   2.348  0.00  0.00     0.000 A 
ATOM      3  C3  BNZ d   1       1.102   1.429   1.996  0.00  0.00     0.000 A 
ATOM      4  C4  BNZ d   1       0.180   1.073   1.078  0.00  0.00     0.000 A 
ATOM      5  C5  BNZ d   1      -0.610   2.030   0.473  0.00  0.00     0.000 A 
ATOM      6  C6  BNZ d   1      -0.455   3.357   0.801  0.00  0.00     0.000 A 
ENDROOT
TORSDOF 0
ENDMDL
