MODEL 1
REMARK minimizedAffinity -1.46000004
REMARK minimizedRMSD -1
REMARK  1 active torsions:
REMARK  status: ('A' for Active; 'I' for Inactive)
REMARK    1  A    between atoms: C1_2  and  C2_3 
ROOT
ATOM      1  C2  UNL d   1      -0.211  -0.446   0.174  0.00  0.00    -0.076 A 
ATOM      2  C3  UNL d   1       0.654  -0.355   1.278  0.00  0.00     0.004 A 
ATOM      3  C4  UNL d   1       0.273   0.325   2.434  0.00  0.00    -0.003 A 
ATOM      4  C5  UNL d   1      -0.980   0.924   2.504  0.00  0.00     0.000 A 
ATOM      5  C6  UNL d   1      -1.858   0.828   1.425  0.00  0.00     0.000 A 
ATOM      6  C7  UNL d   1      -1.496   0.132   0.259  0.00  0.00    -0.073 A 
ATOM      7  C8  UNL d   1      -2.479   0.066  -0.877  0.00  0.00     0.078 C 
ENDROOT
BRANCH   1   8
ATOM      8  C1  UNL d   1       0.267  -1.173  -1.062  0.00  0.00     0.053 C 
ATOM      9  C   UNL d   1       0.902  -0.237  -2.079  0.00  0.00     0.018 C 
ENDBRANCH   1   8
TORSDOF 1
ENDMDL
