MODEL 1
REMARK minimizedAffinity -3.2998836
REMARK minimizedRMSD -1
REMARK  1 active torsions:
REMARK  status: ('A' for Active; 'I' for Inactive)
REMARK    1  A    between atoms: C1_2  and  C2_3 
ROOT
ATOM      1  C2  UNL d   1       0.131  -0.316   0.833  0.00  0.00    -0.076 A 
ATOM      2  C3  UNL d   1       1.468  -0.748   0.865  0.00  0.00     0.004 A 
ATOM      3  C4  UNL d   1       2.193  -0.750   2.056  0.00  0.00    -0.003 A 
ATOM      4  C5  UNL d   1       1.592  -0.320   3.234  0.00  0.00     0.000 A 
ATOM      5  C6  UNL d   1       0.260   0.095   3.224  0.00  0.00     0.000 A 
ATOM      6  C7  UNL d   1      -0.489   0.088   2.035  0.00  0.00    -0.073 A 
ATOM      7  C8  UNL d   1      -1.919   0.552   2.081  0.00  0.00     0.078 C 
ENDROOT
BRANCH   1   8
ATOM      8  C1  UNL d   1      -0.597  -0.310  -0.493  0.00  0.00     0.053 C 
ATOM      9  C   UNL d   1       0.352  -0.394  -1.678  0.00  0.00     0.018 C 
ENDBRANCH   1   8
TORSDOF 1
ENDMDL
