MODEL 1
REMARK minimizedAffinity 6.31335926
REMARK minimizedRMSD -1
REMARK  0 active torsions:
REMARK  status: ('A' for Active; 'I' for Inactive)
ROOT
ATOM      1  C   UNL d   1      -2.903   1.576   2.539  0.00  0.00     0.077 C 
ATOM      2  C1  UNL d   1      -1.632   2.013   1.875  0.00  0.00    -0.074 A 
ATOM      3  C2  UNL d   1      -0.393   1.519   2.297  0.00  0.00    -0.005 A 
ATOM      4  C3  UNL d   1       0.780   1.927   1.663  0.00  0.00     0.006 A 
ATOM      5  C4  UNL d   1       0.727   2.832   0.602  0.00  0.00    -0.005 A 
ATOM      6  C5  UNL d   1      -0.502   3.336   0.165  0.00  0.00    -0.074 A 
ATOM      7  C6  UNL d   1      -0.577   4.301  -0.980  0.00  0.00     0.077 C 
ATOM      8  C7  UNL d   1      -1.677   2.915   0.803  0.00  0.00    -0.001 A 
ENDROOT
TORSDOF 0
ENDMDL
