MODEL 1
REMARK minimizedAffinity -2.31927013
REMARK minimizedRMSD -1
REMARK  0 active torsions:
REMARK  status: ('A' for Active; 'I' for Inactive)
ROOT
ATOM      1  C   UNL d   1      -0.799   3.268  -2.244  0.00  0.00     0.077 C 
ATOM      2  C1  UNL d   1      -0.319   3.394  -0.828  0.00  0.00    -0.074 A 
ATOM      3  C2  UNL d   1       0.606   4.379  -0.467  0.00  0.00    -0.005 A 
ATOM      4  C3  UNL d   1       1.035   4.490   0.855  0.00  0.00     0.006 A 
ATOM      5  C4  UNL d   1       0.545   3.618   1.828  0.00  0.00    -0.005 A 
ATOM      6  C5  UNL d   1      -0.381   2.627   1.486  0.00  0.00    -0.074 A 
ATOM      7  C6  UNL d   1      -0.925   1.688   2.522  0.00  0.00     0.077 C 
ATOM      8  C7  UNL d   1      -0.813   2.527   0.157  0.00  0.00    -0.001 A 
ENDROOT
TORSDOF 0
ENDMDL
