MODEL 1
REMARK minimizedAffinity -1.66242492
REMARK minimizedRMSD -1
REMARK  0 active torsions:
REMARK  status: ('A' for Active; 'I' for Inactive)
ROOT
ATOM      1  C   UNL d   1      -0.912   2.892  -2.915  0.00  0.00     0.077 C 
ATOM      2  C1  UNL d   1      -0.544   3.242  -1.503  0.00  0.00    -0.074 A 
ATOM      3  C2  UNL d   1       0.100   4.448  -1.207  0.00  0.00    -0.005 A 
ATOM      4  C3  UNL d   1       0.427   4.764   0.111  0.00  0.00     0.006 A 
ATOM      5  C4  UNL d   1       0.115   3.880   1.145  0.00  0.00    -0.005 A 
ATOM      6  C5  UNL d   1      -0.530   2.671   0.868  0.00  0.00    -0.074 A 
ATOM      7  C6  UNL d   1      -0.882   1.714   1.967  0.00  0.00     0.077 C 
ATOM      8  C7  UNL d   1      -0.862   2.363  -0.459  0.00  0.00    -0.001 A 
ENDROOT
TORSDOF 0
ENDMDL
