MODEL 1
REMARK minimizedAffinity 0.115459442
REMARK minimizedRMSD -1
REMARK  0 active torsions:
REMARK  status: ('A' for Active; 'I' for Inactive)
ROOT
ATOM      1  C   UNL d   1      -0.174   5.983  -0.930  0.00  0.00     0.077 C 
ATOM      2  C1  UNL d   1      -0.097   4.627  -0.294  0.00  0.00    -0.074 A 
ATOM      3  C2  UNL d   1      -0.083   3.467  -1.076  0.00  0.00    -0.005 A 
ATOM      4  C3  UNL d   1      -0.002   2.212  -0.471  0.00  0.00     0.006 A 
ATOM      5  C4  UNL d   1       0.067   2.105   0.918  0.00  0.00    -0.005 A 
ATOM      6  C5  UNL d   1       0.056   3.254   1.716  0.00  0.00    -0.074 A 
ATOM      7  C6  UNL d   1       0.140   3.157   3.210  0.00  0.00     0.077 C 
ATOM      8  C7  UNL d   1      -0.019   4.511   1.101  0.00  0.00    -0.001 A 
ENDROOT
TORSDOF 0
ENDMDL
