MODEL 1
REMARK minimizedAffinity 8.78819275
REMARK minimizedRMSD -1
REMARK  0 active torsions:
REMARK  status: ('A' for Active; 'I' for Inactive)
ROOT
ATOM      1  C   UNL d   1      -0.270   1.263   1.243  0.00  0.00     0.077 C 
ATOM      2  C1  UNL d   1      -0.081   2.309   0.184  0.00  0.00    -0.074 A 
ATOM      3  C2  UNL d   1       0.681   3.454   0.432  0.00  0.00    -0.005 A 
ATOM      4  C3  UNL d   1       0.856   4.413  -0.565  0.00  0.00     0.006 A 
ATOM      5  C4  UNL d   1       0.271   4.237  -1.820  0.00  0.00    -0.005 A 
ATOM      6  C5  UNL d   1      -0.495   3.097  -2.087  0.00  0.00    -0.074 A 
ATOM      7  C6  UNL d   1      -1.122   2.887  -3.433  0.00  0.00     0.077 C 
ATOM      8  C7  UNL d   1      -0.660   2.135  -1.082  0.00  0.00    -0.001 A 
ENDROOT
TORSDOF 0
ENDMDL
