MODEL 1
REMARK minimizedAffinity -1.9542166
REMARK minimizedRMSD -1
REMARK  0 active torsions:
REMARK  status: ('A' for Active; 'I' for Inactive)
ROOT
ATOM      1  C   UNL d   1      -1.978   1.346   2.958  0.00  0.00     0.077 C 
ATOM      2  C1  UNL d   1      -0.949   2.193   2.269  0.00  0.00    -0.074 A 
ATOM      3  C2  UNL d   1       0.113   2.756   2.983  0.00  0.00    -0.005 A 
ATOM      4  C3  UNL d   1       1.067   3.533   2.327  0.00  0.00     0.006 A 
ATOM      5  C4  UNL d   1       0.970   3.754   0.953  0.00  0.00    -0.005 A 
ATOM      6  C5  UNL d   1      -0.085   3.198   0.222  0.00  0.00    -0.074 A 
ATOM      7  C6  UNL d   1      -0.199   3.418  -1.257  0.00  0.00     0.077 C 
ATOM      8  C7  UNL d   1      -1.036   2.413   0.887  0.00  0.00    -0.001 A 
ENDROOT
TORSDOF 0
ENDMDL
