MODEL 1
REMARK minimizedAffinity 3.52878118
REMARK minimizedRMSD -1
REMARK  0 active torsions:
REMARK  status: ('A' for Active; 'I' for Inactive)
ROOT
ATOM      1  C   UNL d   1      -2.036  -2.687   4.180  0.00  0.00     0.077 C 
ATOM      2  C1  UNL d   1      -3.414  -3.046   4.651  0.00  0.00    -0.074 A 
ATOM      3  C2  UNL d   1      -4.088  -2.246   5.578  0.00  0.00    -0.005 A 
ATOM      4  C3  UNL d   1      -5.373  -2.587   6.000  0.00  0.00     0.006 A 
ATOM      5  C4  UNL d   1      -5.996  -3.731   5.499  0.00  0.00    -0.005 A 
ATOM      6  C5  UNL d   1      -5.338  -4.543   4.570  0.00  0.00    -0.074 A 
ATOM      7  C6  UNL d   1      -5.997  -5.770   4.014  0.00  0.00     0.077 C 
ATOM      8  C7  UNL d   1      -4.049  -4.189   4.146  0.00  0.00    -0.001 A 
ENDROOT
TORSDOF 0
ENDMDL
