MODEL 1
REMARK minimizedAffinity 3.43723583
REMARK minimizedRMSD -1
REMARK  0 active torsions:
REMARK  status: ('A' for Active; 'I' for Inactive)
ROOT
ATOM      1  C   UNL d   1      -3.377  -2.120   5.952  0.00  0.00     0.077 C 
ATOM      2  C1  UNL d   1      -4.288  -3.103   5.278  0.00  0.00    -0.074 A 
ATOM      3  C2  UNL d   1      -4.880  -4.145   6.000  0.00  0.00    -0.005 A 
ATOM      4  C3  UNL d   1      -5.732  -5.046   5.362  0.00  0.00     0.006 A 
ATOM      5  C4  UNL d   1      -6.000  -4.916   3.998  0.00  0.00    -0.005 A 
ATOM      6  C5  UNL d   1      -5.417  -3.880   3.261  0.00  0.00    -0.074 A 
ATOM      7  C6  UNL d   1      -5.702  -3.720   1.797  0.00  0.00     0.077 C 
ATOM      8  C7  UNL d   1      -4.567  -2.974   3.911  0.00  0.00    -0.001 A 
ENDROOT
TORSDOF 0
ENDMDL
