MODEL 1
REMARK minimizedAffinity 13.612608
REMARK minimizedRMSD -1
REMARK  0 active torsions:
REMARK  status: ('A' for Active; 'I' for Inactive)
ROOT
ATOM      1  C   UNL d   1       0.278   2.011  -1.155  0.00  0.00     0.077 C 
ATOM      2  C1  UNL d   1       0.122   3.399  -0.610  0.00  0.00    -0.074 A 
ATOM      3  C2  UNL d   1       1.239   4.158  -0.245  0.00  0.00    -0.005 A 
ATOM      4  C3  UNL d   1       1.078   5.452   0.251  0.00  0.00     0.006 A 
ATOM      5  C4  UNL d   1      -0.198   5.999   0.387  0.00  0.00    -0.005 A 
ATOM      6  C5  UNL d   1      -1.327   5.255   0.026  0.00  0.00    -0.074 A 
ATOM      7  C6  UNL d   1      -2.705   5.832   0.157  0.00  0.00     0.077 C 
ATOM      8  C7  UNL d   1      -1.157   3.959  -0.478  0.00  0.00    -0.001 A 
ENDROOT
TORSDOF 0
ENDMDL
