MODEL 1
REMARK minimizedAffinity 2.11237741
REMARK minimizedRMSD -1
REMARK  0 active torsions:
REMARK  status: ('A' for Active; 'I' for Inactive)
ROOT
ATOM      1  C   UNL d   1      -2.538   0.591   3.373  0.00  0.00     0.077 C 
ATOM      2  C1  UNL d   1      -1.364   1.295   2.761  0.00  0.00    -0.074 A 
ATOM      3  C2  UNL d   1      -0.088   1.190   3.326  0.00  0.00    -0.005 A 
ATOM      4  C3  UNL d   1       0.996   1.843   2.740  0.00  0.00     0.006 A 
ATOM      5  C4  UNL d   1       0.817   2.606   1.585  0.00  0.00    -0.005 A 
ATOM      6  C5  UNL d   1      -0.451   2.721   1.006  0.00  0.00    -0.074 A 
ATOM      7  C6  UNL d   1      -0.659   3.529  -0.241  0.00  0.00     0.077 C 
ATOM      8  C7  UNL d   1      -1.534   2.057   1.596  0.00  0.00    -0.001 A 
ENDROOT
TORSDOF 0
ENDMDL
