MODEL 1
REMARK minimizedAffinity 12.3603458
REMARK minimizedRMSD -1
REMARK  0 active torsions:
REMARK  status: ('A' for Active; 'I' for Inactive)
ROOT
ATOM      1  C   UNL d   1       1.883  -4.299  -1.809  0.00  0.00     0.077 C 
ATOM      2  C1  UNL d   1       3.019  -3.933  -2.717  0.00  0.00    -0.074 A 
ATOM      3  C2  UNL d   1       4.329  -4.325  -2.423  0.00  0.00    -0.005 A 
ATOM      4  C3  UNL d   1       5.374  -3.986  -3.282  0.00  0.00     0.006 A 
ATOM      5  C4  UNL d   1       5.120  -3.252  -4.442  0.00  0.00    -0.005 A 
ATOM      6  C5  UNL d   1       3.817  -2.851  -4.752  0.00  0.00    -0.074 A 
ATOM      7  C6  UNL d   1       3.526  -2.070  -5.999  0.00  0.00     0.077 C 
ATOM      8  C7  UNL d   1       2.771  -3.202  -3.888  0.00  0.00    -0.001 A 
ENDROOT
TORSDOF 0
ENDMDL
