MODEL 1
REMARK minimizedAffinity 4.97682762
REMARK minimizedRMSD -1
REMARK  0 active torsions:
REMARK  status: ('A' for Active; 'I' for Inactive)
ROOT
ATOM      1  C   UNL d   1      -1.184   2.707  -2.647  0.00  0.00     0.077 C 
ATOM      2  C1  UNL d   1      -0.778   3.013  -1.235  0.00  0.00    -0.074 A 
ATOM      3  C2  UNL d   1      -0.040   4.162  -0.932  0.00  0.00    -0.005 A 
ATOM      4  C3  UNL d   1       0.322   4.437   0.386  0.00  0.00     0.006 A 
ATOM      5  C4  UNL d   1      -0.049   3.569   1.413  0.00  0.00    -0.005 A 
ATOM      6  C5  UNL d   1      -0.787   2.415   1.129  0.00  0.00    -0.074 A 
ATOM      7  C6  UNL d   1      -1.202   1.476   2.222  0.00  0.00     0.077 C 
ATOM      8  C7  UNL d   1      -1.153   2.149  -0.197  0.00  0.00    -0.001 A 
ENDROOT
TORSDOF 0
ENDMDL
