MODEL 1
REMARK minimizedAffinity 0.933186591
REMARK minimizedRMSD -1
REMARK  0 active torsions:
REMARK  status: ('A' for Active; 'I' for Inactive)
ROOT
ATOM      1  C   UNL d   1      -3.630  -1.480   5.997  0.00  0.00     0.077 C 
ATOM      2  C1  UNL d   1      -4.226  -2.627   5.235  0.00  0.00    -0.074 A 
ATOM      3  C2  UNL d   1      -4.189  -2.658   3.838  0.00  0.00    -0.005 A 
ATOM      4  C3  UNL d   1      -4.739  -3.736   3.144  0.00  0.00     0.006 A 
ATOM      5  C4  UNL d   1      -5.329  -4.791   3.839  0.00  0.00    -0.005 A 
ATOM      6  C5  UNL d   1      -5.375  -4.778   5.237  0.00  0.00    -0.074 A 
ATOM      7  C6  UNL d   1      -5.997  -5.909   6.000  0.00  0.00     0.077 C 
ATOM      8  C7  UNL d   1      -4.814  -3.695   5.927  0.00  0.00    -0.001 A 
ENDROOT
TORSDOF 0
ENDMDL
