MODEL 1
REMARK minimizedAffinity -2.91714716
REMARK minimizedRMSD -1
REMARK  0 active torsions:
REMARK  status: ('A' for Active; 'I' for Inactive)
ROOT
ATOM      1  C   UNL d   1      -1.137  -2.733   4.136  0.00  0.00     0.077 C 
ATOM      2  C1  UNL d   1      -2.573  -2.937   4.516  0.00  0.00    -0.074 A 
ATOM      3  C2  UNL d   1      -3.111  -2.322   5.651  0.00  0.00    -0.005 A 
ATOM      4  C3  UNL d   1      -4.451  -2.513   5.986  0.00  0.00     0.006 A 
ATOM      5  C4  UNL d   1      -5.266  -3.321   5.191  0.00  0.00    -0.005 A 
ATOM      6  C5  UNL d   1      -4.746  -3.944   4.053  0.00  0.00    -0.074 A 
ATOM      7  C6  UNL d   1      -5.610  -4.807   3.182  0.00  0.00     0.077 C 
ATOM      8  C7  UNL d   1      -3.400  -3.741   3.718  0.00  0.00    -0.001 A 
ENDROOT
TORSDOF 0
ENDMDL
