MODEL 1
REMARK minimizedAffinity 1.52382958
REMARK minimizedRMSD -1
REMARK  0 active torsions:
REMARK  status: ('A' for Active; 'I' for Inactive)
ROOT
ATOM      1  C   UNL d   1      -1.808  -0.116   2.472  0.00  0.00     0.077 C 
ATOM      2  C1  UNL d   1      -1.038   1.111   2.085  0.00  0.00    -0.074 A 
ATOM      3  C2  UNL d   1      -0.504   1.962   3.058  0.00  0.00    -0.005 A 
ATOM      4  C3  UNL d   1       0.218   3.095   2.683  0.00  0.00     0.006 A 
ATOM      5  C4  UNL d   1       0.413   3.388   1.332  0.00  0.00    -0.005 A 
ATOM      6  C5  UNL d   1      -0.111   2.548   0.345  0.00  0.00    -0.074 A 
ATOM      7  C6  UNL d   1       0.098   2.843  -1.111  0.00  0.00     0.077 C 
ATOM      8  C7  UNL d   1      -0.830   1.408   0.730  0.00  0.00    -0.001 A 
ENDROOT
TORSDOF 0
ENDMDL
