MODEL 1
REMARK minimizedAffinity -0.305435926
REMARK minimizedRMSD -1
REMARK  0 active torsions:
REMARK  status: ('A' for Active; 'I' for Inactive)
ROOT
ATOM      1  C   UNL d   1      -5.549  -4.380   1.298  0.00  0.00     0.077 C 
ATOM      2  C1  UNL d   1      -5.559  -4.598   2.782  0.00  0.00    -0.074 A 
ATOM      3  C2  UNL d   1      -5.999  -5.808   3.327  0.00  0.00    -0.005 A 
ATOM      4  C3  UNL d   1      -5.993  -6.000   4.709  0.00  0.00     0.006 A 
ATOM      5  C4  UNL d   1      -5.550  -4.985   5.557  0.00  0.00    -0.005 A 
ATOM      6  C5  UNL d   1      -5.106  -3.768   5.030  0.00  0.00    -0.074 A 
ATOM      7  C6  UNL d   1      -4.616  -2.671   5.927  0.00  0.00     0.077 C 
ATOM      8  C7  UNL d   1      -5.107  -3.586   3.640  0.00  0.00    -0.001 A 
ENDROOT
TORSDOF 0
ENDMDL
