MODEL 1
REMARK minimizedAffinity 12.3309488
REMARK minimizedRMSD -1
REMARK  0 active torsions:
REMARK  status: ('A' for Active; 'I' for Inactive)
ROOT
ATOM      1  C   UNL d   1      -3.801   5.100   1.129  0.00  0.00     0.077 C 
ATOM      2  C1  UNL d   1      -2.367   4.905   0.735  0.00  0.00    -0.074 A 
ATOM      3  C2  UNL d   1      -1.509   5.998   0.579  0.00  0.00    -0.005 A 
ATOM      4  C3  UNL d   1      -0.176   5.801   0.221  0.00  0.00     0.006 A 
ATOM      5  C4  UNL d   1       0.313   4.510   0.016  0.00  0.00    -0.005 A 
ATOM      6  C5  UNL d   1      -0.530   3.404   0.169  0.00  0.00    -0.074 A 
ATOM      7  C6  UNL d   1      -0.019   2.009  -0.038  0.00  0.00     0.077 C 
ATOM      8  C7  UNL d   1      -1.867   3.611   0.535  0.00  0.00    -0.001 A 
ENDROOT
TORSDOF 0
ENDMDL
