MODEL 1
REMARK minimizedAffinity -3.79739285
REMARK minimizedRMSD -1
REMARK  0 active torsions:
REMARK  status: ('A' for Active; 'I' for Inactive)
ROOT
ATOM      1  C   UNL d   1      -6.000  -2.566  -0.456  0.00  0.00     0.077 C 
ATOM      2  C1  UNL d   1      -5.324  -1.447  -1.191  0.00  0.00    -0.074 A 
ATOM      3  C2  UNL d   1      -4.076  -0.968  -0.780  0.00  0.00    -0.005 A 
ATOM      4  C3  UNL d   1      -3.455   0.067  -1.479  0.00  0.00     0.006 A 
ATOM      5  C4  UNL d   1      -4.075   0.633  -2.594  0.00  0.00    -0.005 A 
ATOM      6  C5  UNL d   1      -5.323   0.167  -3.020  0.00  0.00    -0.074 A 
ATOM      7  C6  UNL d   1      -5.999   0.757  -4.222  0.00  0.00     0.077 C 
ATOM      8  C7  UNL d   1      -5.937  -0.879  -2.316  0.00  0.00    -0.001 A 
ENDROOT
TORSDOF 0
ENDMDL
