MODEL 1
REMARK minimizedAffinity 3.10976481
REMARK minimizedRMSD -1
REMARK  0 active torsions:
REMARK  status: ('A' for Active; 'I' for Inactive)
ROOT
ATOM      1  C   UNL d   1      -1.544  -0.637   0.181  0.00  0.00     0.124 A 
ATOM      2  C1  UNL d   1      -0.363  -0.245   0.796  0.00  0.00     0.062 A 
ATOM      3  C2  UNL d   1       0.279   0.924   0.397  0.00  0.00     0.162 A 
ATOM      4  C3  UNL d   1      -0.260   1.710  -0.621  0.00  0.00    -0.034 A 
ATOM      5  C4  UNL d   1      -1.447   1.308  -1.236  0.00  0.00     0.162 A 
ATOM      6  C5  UNL d   1      -2.085   0.139  -0.834  0.00  0.00     0.062 A 
ATOM      7  F   UNL d   1      -3.225  -0.239  -1.429  0.00  0.00    -0.097 F 
ATOM      8  F1  UNL d   1      -1.992   2.040  -2.219  0.00  0.00    -0.096 F 
ATOM      9  I   UNL d   1       0.697   3.459  -1.220  0.00  0.00    -0.060 I 
ATOM     10  F2  UNL d   1       1.418   1.280   1.009  0.00  0.00    -0.096 F 
ATOM     11  F3  UNL d   1       0.162  -0.994   1.776  0.00  0.00    -0.097 F 
ATOM     12  F4  UNL d   1      -2.159  -1.763   0.566  0.00  0.00    -0.092 F 
ENDROOT
TORSDOF 0
ENDMDL
