MODEL 1
REMARK minimizedAffinity 25.3464394
REMARK minimizedRMSD -1
REMARK  0 active torsions:
REMARK  status: ('A' for Active; 'I' for Inactive)
ROOT
ATOM      1  C   UNL d   1      -1.193  -0.385   1.399  0.00  0.00     0.124 A 
ATOM      2  C1  UNL d   1      -0.756  -1.328   0.478  0.00  0.00     0.062 A 
ATOM      3  C2  UNL d   1      -1.440  -1.504  -0.721  0.00  0.00     0.162 A 
ATOM      4  C3  UNL d   1      -2.568  -0.736  -1.008  0.00  0.00    -0.034 A 
ATOM      5  C4  UNL d   1      -3.002   0.210  -0.076  0.00  0.00     0.162 A 
ATOM      6  C5  UNL d   1      -2.315   0.382   1.121  0.00  0.00     0.062 A 
ATOM      7  F   UNL d   1      -2.739   1.293   2.009  0.00  0.00    -0.097 F 
ATOM      8  F1  UNL d   1      -4.083   0.965  -0.320  0.00  0.00    -0.096 F 
ATOM      9  I   UNL d   1      -3.594  -0.997  -2.800  0.00  0.00    -0.060 I 
ATOM     10  F2  UNL d   1      -0.995  -2.422  -1.592  0.00  0.00    -0.096 F 
ATOM     11  F3  UNL d   1       0.328  -2.071   0.745  0.00  0.00    -0.097 F 
ATOM     12  F4  UNL d   1      -0.533  -0.218   2.552  0.00  0.00    -0.092 F 
ENDROOT
TORSDOF 0
ENDMDL
