MODEL 1
REMARK minimizedAffinity 8.64315128
REMARK minimizedRMSD -1
REMARK  0 active torsions:
REMARK  status: ('A' for Active; 'I' for Inactive)
ROOT
ATOM      1  C   UNL d   1       5.148   4.710   1.560  0.00  0.00     0.124 A 
ATOM      2  C1  UNL d   1       4.522   3.986   2.566  0.00  0.00     0.062 A 
ATOM      3  C2  UNL d   1       4.142   2.665   2.346  0.00  0.00     0.162 A 
ATOM      4  C3  UNL d   1       4.389   2.058   1.115  0.00  0.00    -0.034 A 
ATOM      5  C4  UNL d   1       5.018   2.792   0.108  0.00  0.00     0.162 A 
ATOM      6  C5  UNL d   1       5.395   4.112   0.332  0.00  0.00     0.062 A 
ATOM      7  F   UNL d   1       6.000   4.809  -0.641  0.00  0.00    -0.097 F 
ATOM      8  F1  UNL d   1       5.270   2.239  -1.088  0.00  0.00    -0.096 F 
ATOM      9  I   UNL d   1       3.823   0.083   0.782  0.00  0.00    -0.060 I 
ATOM     10  F2  UNL d   1       3.539   1.990   3.336  0.00  0.00    -0.096 F 
ATOM     11  F3  UNL d   1       4.281   4.562   3.753  0.00  0.00    -0.097 F 
ATOM     12  F4  UNL d   1       5.511   5.981   1.774  0.00  0.00    -0.092 F 
ENDROOT
TORSDOF 0
ENDMDL
