MODEL 1
REMARK minimizedAffinity 12.7643499
REMARK minimizedRMSD -1
REMARK  0 active torsions:
REMARK  status: ('A' for Active; 'I' for Inactive)
ROOT
ATOM      1  C   UNL d   1      -2.076  -0.198   0.762  0.00  0.00     0.124 A 
ATOM      2  C1  UNL d   1      -1.179  -1.152   0.300  0.00  0.00     0.062 A 
ATOM      3  C2  UNL d   1      -0.252  -1.720   1.168  0.00  0.00     0.162 A 
ATOM      4  C3  UNL d   1      -0.217  -1.337   2.509  0.00  0.00    -0.034 A 
ATOM      5  C4  UNL d   1      -1.121  -0.377   2.967  0.00  0.00     0.162 A 
ATOM      6  C5  UNL d   1      -2.046   0.188   2.094  0.00  0.00     0.062 A 
ATOM      7  F   UNL d   1      -2.911   1.109   2.543  0.00  0.00    -0.097 F 
ATOM      8  F1  UNL d   1      -1.115   0.014   4.249  0.00  0.00    -0.096 F 
ATOM      9  I   UNL d   1       1.168  -2.185   3.811  0.00  0.00    -0.060 I 
ATOM     10  F2  UNL d   1       0.602  -2.640   0.694  0.00  0.00    -0.096 F 
ATOM     11  F3  UNL d   1      -1.205  -1.527  -0.987  0.00  0.00    -0.097 F 
ATOM     12  F4  UNL d   1      -2.966   0.348  -0.076  0.00  0.00    -0.092 F 
ENDROOT
TORSDOF 0
ENDMDL
