MODEL 1
REMARK minimizedAffinity 10.8459444
REMARK minimizedRMSD -1
REMARK  0 active torsions:
REMARK  status: ('A' for Active; 'I' for Inactive)
ROOT
ATOM      1  C   UNL d   1       2.961  -1.627   2.514  0.00  0.00     0.124 A 
ATOM      2  C1  UNL d   1       2.191  -2.753   2.766  0.00  0.00     0.062 A 
ATOM      3  C2  UNL d   1       1.151  -3.096   1.907  0.00  0.00     0.162 A 
ATOM      4  C3  UNL d   1       0.875  -2.312   0.787  0.00  0.00    -0.034 A 
ATOM      5  C4  UNL d   1       1.654  -1.180   0.541  0.00  0.00     0.162 A 
ATOM      6  C5  UNL d   1       2.692  -0.841   1.402  0.00  0.00     0.062 A 
ATOM      7  F   UNL d   1       3.435   0.248   1.157  0.00  0.00    -0.097 F 
ATOM      8  F1  UNL d   1       1.416  -0.403  -0.527  0.00  0.00    -0.096 F 
ATOM      9  I   UNL d   1      -0.680  -2.821  -0.500  0.00  0.00    -0.060 I 
ATOM     10  F2  UNL d   1       0.423  -4.191   2.175  0.00  0.00    -0.096 F 
ATOM     11  F3  UNL d   1       2.448  -3.514   3.840  0.00  0.00    -0.097 F 
ATOM     12  F4  UNL d   1       3.961  -1.298   3.342  0.00  0.00    -0.092 F 
ENDROOT
TORSDOF 0
ENDMDL
