MODEL 1
REMARK minimizedAffinity 14.5449181
REMARK minimizedRMSD -1
REMARK  0 active torsions:
REMARK  status: ('A' for Active; 'I' for Inactive)
ROOT
ATOM      1  C   UNL d   1       2.573  -1.373   0.771  0.00  0.00     0.124 A 
ATOM      2  C1  UNL d   1       2.126  -0.063   0.673  0.00  0.00     0.062 A 
ATOM      3  C2  UNL d   1       0.762   0.212   0.649  0.00  0.00     0.162 A 
ATOM      4  C3  UNL d   1      -0.167  -0.826   0.724  0.00  0.00    -0.034 A 
ATOM      5  C4  UNL d   1       0.290  -2.142   0.822  0.00  0.00     0.162 A 
ATOM      6  C5  UNL d   1       1.655  -2.411   0.846  0.00  0.00     0.062 A 
ATOM      7  F   UNL d   1       2.084  -3.678   0.940  0.00  0.00    -0.097 F 
ATOM      8  F1  UNL d   1      -0.575  -3.164   0.896  0.00  0.00    -0.096 F 
ATOM      9  I   UNL d   1      -2.208  -0.420   0.688  0.00  0.00    -0.060 I 
ATOM     10  F2  UNL d   1       0.359   1.488   0.553  0.00  0.00    -0.096 F 
ATOM     11  F3  UNL d   1       3.011   0.942   0.601  0.00  0.00    -0.097 F 
ATOM     12  F4  UNL d   1       3.886  -1.635   0.794  0.00  0.00    -0.092 F 
ENDROOT
TORSDOF 0
ENDMDL
