MODEL 1
REMARK minimizedAffinity 21.1865883
REMARK minimizedRMSD -1
REMARK  0 active torsions:
REMARK  status: ('A' for Active; 'I' for Inactive)
ROOT
ATOM      1  C   UNL d   1      -1.606  -0.577   0.674  0.00  0.00     0.124 A 
ATOM      2  C1  UNL d   1      -0.975   0.656   0.582  0.00  0.00     0.062 A 
ATOM      3  C2  UNL d   1       0.411   0.742   0.673  0.00  0.00     0.162 A 
ATOM      4  C3  UNL d   1       1.177  -0.409   0.856  0.00  0.00    -0.034 A 
ATOM      5  C4  UNL d   1       0.535  -1.646   0.948  0.00  0.00     0.162 A 
ATOM      6  C5  UNL d   1      -0.851  -1.726   0.857  0.00  0.00     0.062 A 
ATOM      7  F   UNL d   1      -1.458  -2.918   0.946  0.00  0.00    -0.097 F 
ATOM      8  F1  UNL d   1       1.241  -2.773   1.124  0.00  0.00    -0.096 F 
ATOM      9  I   UNL d   1       3.250  -0.286   0.992  0.00  0.00    -0.060 I 
ATOM     10  F2  UNL d   1       0.994   1.947   0.581  0.00  0.00    -0.096 F 
ATOM     11  F3  UNL d   1      -1.703   1.769   0.407  0.00  0.00    -0.097 F 
ATOM     12  F4  UNL d   1      -2.940  -0.656   0.588  0.00  0.00    -0.092 F 
ENDROOT
TORSDOF 0
ENDMDL
