MODEL 1
REMARK minimizedAffinity 24.1950321
REMARK minimizedRMSD -1
REMARK  0 active torsions:
REMARK  status: ('A' for Active; 'I' for Inactive)
ROOT
ATOM      1  C   UNL d   1       2.459   0.484   0.671  0.00  0.00     0.124 A 
ATOM      2  C1  UNL d   1       1.596  -0.541   1.032  0.00  0.00     0.062 A 
ATOM      3  C2  UNL d   1       1.981  -1.869   0.872  0.00  0.00     0.162 A 
ATOM      4  C3  UNL d   1       3.236  -2.180   0.349  0.00  0.00    -0.034 A 
ATOM      5  C4  UNL d   1       4.099  -1.143  -0.012  0.00  0.00     0.162 A 
ATOM      6  C5  UNL d   1       3.709   0.182   0.150  0.00  0.00     0.062 A 
ATOM      7  F   UNL d   1       4.544   1.172  -0.200  0.00  0.00    -0.097 F 
ATOM      8  F1  UNL d   1       5.313  -1.406  -0.518  0.00  0.00    -0.096 F 
ATOM      9  I   UNL d   1       3.816  -4.164   0.108  0.00  0.00    -0.060 I 
ATOM     10  F2  UNL d   1       1.127  -2.840   1.229  0.00  0.00    -0.096 F 
ATOM     11  F3  UNL d   1       0.387  -0.253   1.536  0.00  0.00    -0.097 F 
ATOM     12  F4  UNL d   1       2.085   1.761   0.826  0.00  0.00    -0.092 F 
ENDROOT
TORSDOF 0
ENDMDL
