MODEL 1
REMARK minimizedAffinity 23.05023
REMARK minimizedRMSD -1
REMARK  0 active torsions:
REMARK  status: ('A' for Active; 'I' for Inactive)
ROOT
ATOM      1  C   UNL d   1       4.717   4.707   0.358  0.00  0.00     0.124 A 
ATOM      2  C1  UNL d   1       4.138   3.515   0.772  0.00  0.00     0.062 A 
ATOM      3  C2  UNL d   1       3.983   2.464  -0.127  0.00  0.00     0.162 A 
ATOM      4  C3  UNL d   1       4.408   2.599  -1.449  0.00  0.00    -0.034 A 
ATOM      5  C4  UNL d   1       4.989   3.801  -1.857  0.00  0.00     0.162 A 
ATOM      6  C5  UNL d   1       5.142   4.849  -0.955  0.00  0.00     0.062 A 
ATOM      7  F   UNL d   1       5.701   6.000  -1.356  0.00  0.00    -0.097 F 
ATOM      8  F1  UNL d   1       5.409   3.965  -3.120  0.00  0.00    -0.096 F 
ATOM      9  I   UNL d   1       4.178   1.030  -2.796  0.00  0.00    -0.060 I 
ATOM     10  F2  UNL d   1       3.420   1.324   0.299  0.00  0.00    -0.096 F 
ATOM     11  F3  UNL d   1       3.726   3.376   2.040  0.00  0.00    -0.097 F 
ATOM     12  F4  UNL d   1       4.865   5.717   1.225  0.00  0.00    -0.092 F 
ENDROOT
TORSDOF 0
ENDMDL
