MODEL 1
REMARK minimizedAffinity 23.921875
REMARK minimizedRMSD -1
REMARK  0 active torsions:
REMARK  status: ('A' for Active; 'I' for Inactive)
ROOT
ATOM      1  C   UNL d   1      -2.554  -0.472   0.734  0.00  0.00     0.124 A 
ATOM      2  C1  UNL d   1      -2.299  -1.832   0.853  0.00  0.00     0.062 A 
ATOM      3  C2  UNL d   1      -1.064  -2.274   1.319  0.00  0.00     0.162 A 
ATOM      4  C3  UNL d   1      -0.075  -1.356   1.670  0.00  0.00    -0.034 A 
ATOM      5  C4  UNL d   1      -0.338   0.010   1.547  0.00  0.00     0.162 A 
ATOM      6  C5  UNL d   1      -1.574   0.447   1.081  0.00  0.00     0.062 A 
ATOM      7  F   UNL d   1      -1.819   1.760   0.966  0.00  0.00    -0.097 F 
ATOM      8  F1  UNL d   1       0.591   0.920   1.876  0.00  0.00    -0.096 F 
ATOM      9  I   UNL d   1       1.773  -2.013   2.367  0.00  0.00    -0.060 I 
ATOM     10  F2  UNL d   1      -0.845  -3.593   1.425  0.00  0.00    -0.096 F 
ATOM     11  F3  UNL d   1      -3.244  -2.722   0.518  0.00  0.00    -0.097 F 
ATOM     12  F4  UNL d   1      -3.743  -0.050   0.285  0.00  0.00    -0.092 F 
ENDROOT
TORSDOF 0
ENDMDL
