MODEL 1
REMARK minimizedAffinity 20.8417244
REMARK minimizedRMSD -1
REMARK  0 active torsions:
REMARK  status: ('A' for Active; 'I' for Inactive)
ROOT
ATOM      1  C   UNL d   1       2.605  -0.796  -0.675  0.00  0.00     0.124 A 
ATOM      2  C1  UNL d   1       2.182  -0.846   0.646  0.00  0.00     0.062 A 
ATOM      3  C2  UNL d   1       0.879  -1.227   0.950  0.00  0.00     0.162 A 
ATOM      4  C3  UNL d   1      -0.013  -1.562  -0.069  0.00  0.00    -0.034 A 
ATOM      5  C4  UNL d   1       0.419  -1.508  -1.396  0.00  0.00     0.162 A 
ATOM      6  C5  UNL d   1       1.723  -1.127  -1.695  0.00  0.00     0.062 A 
ATOM      7  F   UNL d   1       2.130  -1.079  -2.972  0.00  0.00    -0.097 F 
ATOM      8  F1  UNL d   1      -0.412  -1.823  -2.400  0.00  0.00    -0.096 F 
ATOM      9  I   UNL d   1      -1.963  -2.132   0.381  0.00  0.00    -0.060 I 
ATOM     10  F2  UNL d   1       0.498  -1.266   2.236  0.00  0.00    -0.096 F 
ATOM     11  F3  UNL d   1       3.032  -0.526   1.633  0.00  0.00    -0.097 F 
ATOM     12  F4  UNL d   1       3.860  -0.428  -0.965  0.00  0.00    -0.092 F 
ENDROOT
TORSDOF 0
ENDMDL
