MODEL 1
REMARK minimizedAffinity 14.4181776
REMARK minimizedRMSD -1
REMARK  0 active torsions:
REMARK  status: ('A' for Active; 'I' for Inactive)
ROOT
ATOM      1  C   UNL d   1      -4.717   0.525   2.012  0.00  0.00     0.124 A 
ATOM      2  C1  UNL d   1      -4.225   0.494   0.715  0.00  0.00     0.062 A 
ATOM      3  C2  UNL d   1      -2.894   0.162   0.479  0.00  0.00     0.162 A 
ATOM      4  C3  UNL d   1      -2.045  -0.142   1.544  0.00  0.00    -0.034 A 
ATOM      5  C4  UNL d   1      -2.548  -0.107   2.846  0.00  0.00     0.162 A 
ATOM      6  C5  UNL d   1      -3.879   0.225   3.076  0.00  0.00     0.062 A 
ATOM      7  F   UNL d   1      -4.353   0.255   4.330  0.00  0.00    -0.097 F 
ATOM      8  F1  UNL d   1      -1.759  -0.394   3.893  0.00  0.00    -0.096 F 
ATOM      9  I   UNL d   1      -0.054  -0.638   1.196  0.00  0.00    -0.060 I 
ATOM     10  F2  UNL d   1      -2.445   0.139  -0.784  0.00  0.00    -0.096 F 
ATOM     11  F3  UNL d   1      -5.033   0.784  -0.315  0.00  0.00    -0.097 F 
ATOM     12  F4  UNL d   1      -5.998   0.846   2.236  0.00  0.00    -0.092 F 
ENDROOT
TORSDOF 0
ENDMDL
