MODEL 1
REMARK minimizedAffinity 11.1404581
REMARK minimizedRMSD -1
REMARK  0 active torsions:
REMARK  status: ('A' for Active; 'I' for Inactive)
ROOT
ATOM      1  C   UNL d   1      -0.049  -1.049   1.226  0.00  0.00     0.124 A 
ATOM      2  C1  UNL d   1      -0.061  -0.964   2.611  0.00  0.00     0.062 A 
ATOM      3  C2  UNL d   1      -1.141  -0.381   3.267  0.00  0.00     0.162 A 
ATOM      4  C3  UNL d   1      -2.219   0.122   2.539  0.00  0.00    -0.034 A 
ATOM      5  C4  UNL d   1      -2.199   0.034   1.146  0.00  0.00     0.162 A 
ATOM      6  C5  UNL d   1      -1.117  -0.550   0.494  0.00  0.00     0.062 A 
ATOM      7  F   UNL d   1      -1.107  -0.631  -0.844  0.00  0.00    -0.097 F 
ATOM      8  F1  UNL d   1      -3.219   0.508   0.414  0.00  0.00    -0.096 F 
ATOM      9  I   UNL d   1      -3.835   0.996   3.516  0.00  0.00    -0.060 I 
ATOM     10  F2  UNL d   1      -1.126  -0.312   4.607  0.00  0.00    -0.096 F 
ATOM     11  F3  UNL d   1       0.971  -1.445   3.320  0.00  0.00    -0.097 F 
ATOM     12  F4  UNL d   1       0.992  -1.610   0.597  0.00  0.00    -0.092 F 
ENDROOT
TORSDOF 0
ENDMDL
