MODEL 1
REMARK minimizedAffinity 12.8430309
REMARK minimizedRMSD -1
REMARK  0 active torsions:
REMARK  status: ('A' for Active; 'I' for Inactive)
ROOT
ATOM      1  C   UNL d   1       4.254   2.327  -0.694  0.00  0.00     0.124 A 
ATOM      2  C1  UNL d   1       3.518   1.719  -1.701  0.00  0.00     0.062 A 
ATOM      3  C2  UNL d   1       2.709   0.623  -1.412  0.00  0.00     0.162 A 
ATOM      4  C3  UNL d   1       2.631   0.130  -0.110  0.00  0.00    -0.034 A 
ATOM      5  C4  UNL d   1       3.375   0.747   0.897  0.00  0.00     0.162 A 
ATOM      6  C5  UNL d   1       4.182   1.841   0.604  0.00  0.00     0.062 A 
ATOM      7  F   UNL d   1       4.893   2.428   1.578  0.00  0.00    -0.097 F 
ATOM      8  F1  UNL d   1       3.324   0.298   2.160  0.00  0.00    -0.096 F 
ATOM      9  I   UNL d   1       1.423  -1.508   0.326  0.00  0.00    -0.060 I 
ATOM     10  F2  UNL d   1       2.008   0.055  -2.405  0.00  0.00    -0.096 F 
ATOM     11  F3  UNL d   1       3.586   2.186  -2.956  0.00  0.00    -0.097 F 
ATOM     12  F4  UNL d   1       5.032   3.380  -0.975  0.00  0.00    -0.092 F 
ENDROOT
TORSDOF 0
ENDMDL
