MODEL 1
REMARK minimizedAffinity 8.00244045
REMARK minimizedRMSD -1
REMARK  0 active torsions:
REMARK  status: ('A' for Active; 'I' for Inactive)
ROOT
ATOM      1  C   UNL d   1       2.625  -1.990   3.329  0.00  0.00     0.124 A 
ATOM      2  C1  UNL d   1       3.380  -2.628   4.302  0.00  0.00     0.062 A 
ATOM      3  C2  UNL d   1       2.820  -3.648   5.066  0.00  0.00     0.162 A 
ATOM      4  C3  UNL d   1       1.497  -4.037   4.859  0.00  0.00    -0.034 A 
ATOM      5  C4  UNL d   1       0.743  -3.389   3.879  0.00  0.00     0.162 A 
ATOM      6  C5  UNL d   1       1.307  -2.370   3.119  0.00  0.00     0.062 A 
ATOM      7  F   UNL d   1       0.575  -1.754   2.179  0.00  0.00    -0.097 F 
ATOM      8  F1  UNL d   1      -0.533  -3.738   3.654  0.00  0.00    -0.096 F 
ATOM      9  I   UNL d   1       0.656  -5.561   5.999  0.00  0.00    -0.060 I 
ATOM     10  F2  UNL d   1       3.574  -4.248   6.000  0.00  0.00    -0.096 F 
ATOM     11  F3  UNL d   1       4.654  -2.261   4.509  0.00  0.00    -0.097 F 
ATOM     12  F4  UNL d   1       3.166  -1.008   2.596  0.00  0.00    -0.092 F 
ENDROOT
TORSDOF 0
ENDMDL
