MODEL 1
REMARK minimizedAffinity 13.4544106
REMARK minimizedRMSD -1
REMARK  0 active torsions:
REMARK  status: ('A' for Active; 'I' for Inactive)
ROOT
ATOM      1  C   UNL d   1       1.953  -1.923   3.198  0.00  0.00     0.124 A 
ATOM      2  C1  UNL d   1       2.036  -1.464   1.891  0.00  0.00     0.062 A 
ATOM      3  C2  UNL d   1       2.605  -2.262   0.903  0.00  0.00     0.162 A 
ATOM      4  C3  UNL d   1       3.095  -3.530   1.219  0.00  0.00    -0.034 A 
ATOM      5  C4  UNL d   1       3.009  -3.985   2.536  0.00  0.00     0.162 A 
ATOM      6  C5  UNL d   1       2.439  -3.182   3.519  0.00  0.00     0.062 A 
ATOM      7  F   UNL d   1       2.359  -3.628   4.781  0.00  0.00    -0.097 F 
ATOM      8  F1  UNL d   1       3.470  -5.198   2.874  0.00  0.00    -0.096 F 
ATOM      9  I   UNL d   1       3.947  -4.727  -0.255  0.00  0.00    -0.060 I 
ATOM     10  F2  UNL d   1       2.673  -1.793  -0.352  0.00  0.00    -0.096 F 
ATOM     11  F3  UNL d   1       1.568  -0.247   1.578  0.00  0.00    -0.097 F 
ATOM     12  F4  UNL d   1       1.406  -1.152   4.146  0.00  0.00    -0.092 F 
ENDROOT
TORSDOF 0
ENDMDL
