MODEL 1
REMARK minimizedAffinity -1.65331984
REMARK minimizedRMSD -1
REMARK  0 active torsions:
REMARK  status: ('A' for Active; 'I' for Inactive)
ROOT
ATOM      1  C   UNL d   1       1.152  -5.997  -2.389  0.00  0.00     0.124 A 
ATOM      2  C1  UNL d   1       2.464  -5.997  -1.938  0.00  0.00     0.062 A 
ATOM      3  C2  UNL d   1       3.517  -5.998  -2.848  0.00  0.00     0.162 A 
ATOM      4  C3  UNL d   1       3.262  -5.998  -4.220  0.00  0.00    -0.034 A 
ATOM      5  C4  UNL d   1       1.939  -6.000  -4.666  0.00  0.00     0.162 A 
ATOM      6  C5  UNL d   1       0.890  -5.999  -3.752  0.00  0.00     0.062 A 
ATOM      7  F   UNL d   1      -0.377  -5.999  -4.189  0.00  0.00    -0.097 F 
ATOM      8  F1  UNL d   1       1.658  -6.000  -5.977  0.00  0.00    -0.096 F 
ATOM      9  I   UNL d   1       4.833  -6.000  -5.584  0.00  0.00    -0.060 I 
ATOM     10  F2  UNL d   1       4.776  -5.998  -2.384  0.00  0.00    -0.096 F 
ATOM     11  F3  UNL d   1       2.719  -5.997  -0.622  0.00  0.00    -0.097 F 
ATOM     12  F4  UNL d   1       0.140  -5.997  -1.511  0.00  0.00    -0.092 F 
ENDROOT
TORSDOF 0
ENDMDL
