MODEL 1
REMARK minimizedAffinity 18.3286953
REMARK minimizedRMSD -1
REMARK  0 active torsions:
REMARK  status: ('A' for Active; 'I' for Inactive)
ROOT
ATOM      1  C   UNL d   1       1.246  -2.915   3.280  0.00  0.00     0.124 A 
ATOM      2  C1  UNL d   1       2.031  -1.976   2.624  0.00  0.00     0.062 A 
ATOM      3  C2  UNL d   1       3.388  -1.873   2.914  0.00  0.00     0.162 A 
ATOM      4  C3  UNL d   1       3.971  -2.712   3.864  0.00  0.00    -0.034 A 
ATOM      5  C4  UNL d   1       3.175  -3.653   4.520  0.00  0.00     0.162 A 
ATOM      6  C5  UNL d   1       1.819  -3.752   4.227  0.00  0.00     0.062 A 
ATOM      7  F   UNL d   1       1.063  -4.660   4.862  0.00  0.00    -0.097 F 
ATOM      8  F1  UNL d   1       3.703  -4.475   5.439  0.00  0.00    -0.096 F 
ATOM      9  I   UNL d   1       6.000  -2.561   4.301  0.00  0.00    -0.060 I 
ATOM     10  F2  UNL d   1       4.122  -0.957   2.266  0.00  0.00    -0.096 F 
ATOM     11  F3  UNL d   1       1.480  -1.165   1.710  0.00  0.00    -0.097 F 
ATOM     12  F4  UNL d   1      -0.060  -3.011   3.000  0.00  0.00    -0.092 F 
ENDROOT
TORSDOF 0
ENDMDL
