MODEL 1
REMARK minimizedAffinity 18.2301331
REMARK minimizedRMSD -1
REMARK  0 active torsions:
REMARK  status: ('A' for Active; 'I' for Inactive)
ROOT
ATOM      1  C   UNL d   1       1.340  -3.221   3.043  0.00  0.00     0.124 A 
ATOM      2  C1  UNL d   1       1.971  -2.004   2.829  0.00  0.00     0.062 A 
ATOM      3  C2  UNL d   1       3.248  -1.779   3.335  0.00  0.00     0.162 A 
ATOM      4  C3  UNL d   1       3.903  -2.775   4.061  0.00  0.00    -0.034 A 
ATOM      5  C4  UNL d   1       3.261  -3.996   4.273  0.00  0.00     0.162 A 
ATOM      6  C5  UNL d   1       1.984  -4.215   3.765  0.00  0.00     0.062 A 
ATOM      7  F   UNL d   1       1.376  -5.392   3.973  0.00  0.00    -0.097 F 
ATOM      8  F1  UNL d   1       3.861  -4.975   4.966  0.00  0.00    -0.096 F 
ATOM      9  I   UNL d   1       5.812  -2.443   4.819  0.00  0.00    -0.060 I 
ATOM     10  F2  UNL d   1       3.835  -0.593   3.113  0.00  0.00    -0.096 F 
ATOM     11  F3  UNL d   1       1.350  -1.041   2.133  0.00  0.00    -0.097 F 
ATOM     12  F4  UNL d   1       0.111  -3.434   2.556  0.00  0.00    -0.092 F 
ENDROOT
TORSDOF 0
ENDMDL
