MODEL 1
REMARK minimizedAffinity 20.5394478
REMARK minimizedRMSD -1
REMARK  0 active torsions:
REMARK  status: ('A' for Active; 'I' for Inactive)
ROOT
ATOM      1  C   UNL d   1      -3.445   1.052  -3.476  0.00  0.00     0.124 A 
ATOM      2  C1  UNL d   1      -3.000  -0.247  -3.277  0.00  0.00     0.062 A 
ATOM      3  C2  UNL d   1      -3.562  -1.298  -3.996  0.00  0.00     0.162 A 
ATOM      4  C3  UNL d   1      -4.576  -1.053  -4.923  0.00  0.00    -0.034 A 
ATOM      5  C4  UNL d   1      -5.019   0.256  -5.117  0.00  0.00     0.162 A 
ATOM      6  C5  UNL d   1      -4.454   1.303  -4.396  0.00  0.00     0.062 A 
ATOM      7  F   UNL d   1      -4.886   2.558  -4.590  0.00  0.00    -0.097 F 
ATOM      8  F1  UNL d   1      -5.992   0.527  -6.000  0.00  0.00    -0.096 F 
ATOM      9  I   UNL d   1      -5.420  -2.621  -6.000  0.00  0.00    -0.060 I 
ATOM     10  F2  UNL d   1      -3.113  -2.543  -3.783  0.00  0.00    -0.096 F 
ATOM     11  F3  UNL d   1      -2.026  -0.492  -2.389  0.00  0.00    -0.097 F 
ATOM     12  F4  UNL d   1      -2.903   2.061  -2.782  0.00  0.00    -0.092 F 
ENDROOT
TORSDOF 0
ENDMDL
