MODEL 1
REMARK minimizedAffinity 11.7479668
REMARK minimizedRMSD -1
REMARK  0 active torsions:
REMARK  status: ('A' for Active; 'I' for Inactive)
ROOT
ATOM      1  C   UNL d   1       1.235  -3.463   3.713  0.00  0.00     0.124 A 
ATOM      2  C1  UNL d   1       1.885  -4.325   4.586  0.00  0.00     0.062 A 
ATOM      3  C2  UNL d   1       3.246  -4.171   4.837  0.00  0.00     0.162 A 
ATOM      4  C3  UNL d   1       3.965  -3.151   4.214  0.00  0.00    -0.034 A 
ATOM      5  C4  UNL d   1       3.305  -2.290   3.337  0.00  0.00     0.162 A 
ATOM      6  C5  UNL d   1       1.945  -2.447   3.089  0.00  0.00     0.062 A 
ATOM      7  F   UNL d   1       1.318  -1.614   2.246  0.00  0.00    -0.097 F 
ATOM      8  F1  UNL d   1       3.966  -1.298   2.722  0.00  0.00    -0.096 F 
ATOM      9  I   UNL d   1       6.000  -2.918   4.587  0.00  0.00    -0.060 I 
ATOM     10  F2  UNL d   1       3.848  -5.018   5.685  0.00  0.00    -0.096 F 
ATOM     11  F3  UNL d   1       1.202  -5.308   5.189  0.00  0.00    -0.097 F 
ATOM     12  F4  UNL d   1      -0.074  -3.614   3.473  0.00  0.00    -0.092 F 
ENDROOT
TORSDOF 0
ENDMDL
