MODEL 1
REMARK minimizedAffinity 11.6145802
REMARK minimizedRMSD -1
REMARK  0 active torsions:
REMARK  status: ('A' for Active; 'I' for Inactive)
ROOT
ATOM      1  C   UNL d   1       1.147  -3.226   3.445  0.00  0.00     0.124 A 
ATOM      2  C1  UNL d   1       1.883  -4.253   4.019  0.00  0.00     0.062 A 
ATOM      3  C2  UNL d   1       3.269  -4.156   4.109  0.00  0.00     0.162 A 
ATOM      4  C3  UNL d   1       3.928  -3.027   3.622  0.00  0.00    -0.034 A 
ATOM      5  C4  UNL d   1       3.181  -1.999   3.045  0.00  0.00     0.162 A 
ATOM      6  C5  UNL d   1       1.797  -2.100   2.958  0.00  0.00     0.062 A 
ATOM      7  F   UNL d   1       1.088  -1.107   2.403  0.00  0.00    -0.097 F 
ATOM      8  F1  UNL d   1       3.783  -0.899   2.568  0.00  0.00    -0.096 F 
ATOM      9  I   UNL d   1       6.000  -2.879   3.754  0.00  0.00    -0.060 I 
ATOM     10  F2  UNL d   1       3.954  -5.164   4.669  0.00  0.00    -0.096 F 
ATOM     11  F3  UNL d   1       1.258  -5.342   4.489  0.00  0.00    -0.097 F 
ATOM     12  F4  UNL d   1      -0.186  -3.322   3.360  0.00  0.00    -0.092 F 
ENDROOT
TORSDOF 0
ENDMDL
