MODEL 1
REMARK minimizedAffinity 14.105176
REMARK minimizedRMSD -1
REMARK  0 active torsions:
REMARK  status: ('A' for Active; 'I' for Inactive)
ROOT
ATOM      1  C   UNL d   1      -2.893   1.052  -2.134  0.00  0.00     0.124 A 
ATOM      2  C1  UNL d   1      -2.644   1.469  -0.834  0.00  0.00     0.062 A 
ATOM      3  C2  UNL d   1      -3.488   2.391  -0.220  0.00  0.00     0.162 A 
ATOM      4  C3  UNL d   1      -4.590   2.901  -0.906  0.00  0.00    -0.034 A 
ATOM      5  C4  UNL d   1      -4.834   2.477  -2.214  0.00  0.00     0.162 A 
ATOM      6  C5  UNL d   1      -3.987   1.557  -2.823  0.00  0.00     0.062 A 
ATOM      7  F   UNL d   1      -4.229   1.155  -4.079  0.00  0.00    -0.097 F 
ATOM      8  F1  UNL d   1      -5.884   2.948  -2.902  0.00  0.00    -0.096 F 
ATOM      9  I   UNL d   1      -5.855   4.278   0.008  0.00  0.00    -0.060 I 
ATOM     10  F2  UNL d   1      -3.223   2.776   1.037  0.00  0.00    -0.096 F 
ATOM     11  F3  UNL d   1      -1.587   0.984  -0.166  0.00  0.00    -0.097 F 
ATOM     12  F4  UNL d   1      -2.079   0.167  -2.722  0.00  0.00    -0.092 F 
ENDROOT
TORSDOF 0
ENDMDL
