MODEL 1
REMARK minimizedAffinity -2.60368156
REMARK minimizedRMSD -1
REMARK  0 active torsions:
REMARK  status: ('A' for Active; 'I' for Inactive)
ROOT
ATOM      1  C   UNL d   1       0.560   4.898  -5.106  0.00  0.00    -0.002 A 
ATOM      2  C1  UNL d   1       1.165   6.000  -5.694  0.00  0.00     0.010 A 
ATOM      3  C2  UNL d   1       2.527   5.984  -6.000  0.00  0.00     0.041 A 
ATOM      4  C3  UNL d   1       3.279   4.829  -5.704  0.00  0.00    -0.075 A 
ATOM      5  S   UNL d   1       4.961   4.582  -5.990  0.00  0.00     0.015 SA
ATOM      6  C4  UNL d   1       4.916   3.007  -5.339  0.00  0.00     0.022 A 
ATOM      7  C5  UNL d   1       3.657   2.663  -4.909  0.00  0.00     0.026 A 
ATOM      8  C6  UNL d   1       2.692   3.707  -5.113  0.00  0.00    -0.082 A 
ATOM      9  C7  UNL d   1       1.309   3.755  -4.814  0.00  0.00     0.045 A 
ENDROOT
TORSDOF 0
ENDMDL
