MODEL 1
REMARK minimizedAffinity -1.9008249
REMARK minimizedRMSD -1
REMARK  0 active torsions:
REMARK  status: ('A' for Active; 'I' for Inactive)
ROOT
ATOM      1  C   UNL d   1       0.757   4.830  -5.990  0.00  0.00    -0.002 A 
ATOM      2  C1  UNL d   1       1.505   5.999  -5.998  0.00  0.00     0.010 A 
ATOM      3  C2  UNL d   1       2.900   5.950  -5.999  0.00  0.00     0.041 A 
ATOM      4  C3  UNL d   1       3.537   4.693  -5.995  0.00  0.00    -0.075 A 
ATOM      5  S   UNL d   1       5.234   4.389  -5.996  0.00  0.00     0.015 SA
ATOM      6  C4  UNL d   1       5.006   2.700  -5.987  0.00  0.00     0.022 A 
ATOM      7  C5  UNL d   1       3.674   2.359  -5.983  0.00  0.00     0.026 A 
ATOM      8  C6  UNL d   1       2.806   3.502  -5.987  0.00  0.00    -0.082 A 
ATOM      9  C7  UNL d   1       1.392   3.586  -5.985  0.00  0.00     0.045 A 
ENDROOT
TORSDOF 0
ENDMDL
