MODEL 1
REMARK minimizedAffinity 6.36989784
REMARK minimizedRMSD -1
REMARK  0 active torsions:
REMARK  status: ('A' for Active; 'I' for Inactive)
ROOT
ATOM      1  C   UNL d   1       5.863   4.385  -5.964  0.00  0.00    -0.002 A 
ATOM      2  C1  UNL d   1       5.816   2.999  -5.989  0.00  0.00     0.010 A 
ATOM      3  C2  UNL d   1       4.591   2.330  -5.999  0.00  0.00     0.041 A 
ATOM      4  C3  UNL d   1       3.402   3.085  -5.986  0.00  0.00    -0.075 A 
ATOM      5  S   UNL d   1       1.787   2.482  -5.995  0.00  0.00     0.015 SA
ATOM      6  C4  UNL d   1       1.121   4.050  -5.968  0.00  0.00     0.022 A 
ATOM      7  C5  UNL d   1       2.093   5.023  -5.951  0.00  0.00     0.026 A 
ATOM      8  C6  UNL d   1       3.423   4.482  -5.962  0.00  0.00    -0.082 A 
ATOM      9  C7  UNL d   1       4.682   5.131  -5.951  0.00  0.00     0.045 A 
ENDROOT
TORSDOF 0
ENDMDL
