MODEL 1
REMARK minimizedAffinity -0.0764343962
REMARK minimizedRMSD -1
REMARK  0 active torsions:
REMARK  status: ('A' for Active; 'I' for Inactive)
ROOT
ATOM      1  C   UNL d   1       1.421   3.734  -5.337  0.00  0.00    -0.002 A 
ATOM      2  C1  UNL d   1       1.906   2.447  -5.152  0.00  0.00     0.010 A 
ATOM      3  C2  UNL d   1       3.274   2.183  -5.244  0.00  0.00     0.041 A 
ATOM      4  C3  UNL d   1       4.155   3.245  -5.526  0.00  0.00    -0.075 A 
ATOM      5  S   UNL d   1       5.870   3.159  -5.684  0.00  0.00     0.015 SA
ATOM      6  C4  UNL d   1       6.000   4.829  -6.000  0.00  0.00     0.022 A 
ATOM      7  C5  UNL d   1       4.774   5.452  -5.989  0.00  0.00     0.026 A 
ATOM      8  C6  UNL d   1       3.691   4.550  -5.715  0.00  0.00    -0.082 A 
ATOM      9  C7  UNL d   1       2.299   4.785  -5.617  0.00  0.00     0.045 A 
ENDROOT
TORSDOF 0
ENDMDL
