MODEL 1
REMARK minimizedAffinity -1.77983844
REMARK minimizedRMSD -1
REMARK  0 active torsions:
REMARK  status: ('A' for Active; 'I' for Inactive)
ROOT
ATOM      1  C   UNL d   1       0.375   4.535  -5.957  0.00  0.00    -0.002 A 
ATOM      2  C1  UNL d   1       0.914   5.813  -5.998  0.00  0.00     0.010 A 
ATOM      3  C2  UNL d   1       2.298   6.000  -5.999  0.00  0.00     0.041 A 
ATOM      4  C3  UNL d   1       3.139   4.870  -5.960  0.00  0.00    -0.075 A 
ATOM      5  S   UNL d   1       4.863   4.856  -5.954  0.00  0.00     0.015 SA
ATOM      6  C4  UNL d   1       4.923   3.154  -5.898  0.00  0.00     0.022 A 
ATOM      7  C5  UNL d   1       3.668   2.593  -5.884  0.00  0.00     0.026 A 
ATOM      8  C6  UNL d   1       2.619   3.573  -5.919  0.00  0.00    -0.082 A 
ATOM      9  C7  UNL d   1       1.212   3.417  -5.919  0.00  0.00     0.045 A 
ENDROOT
TORSDOF 0
ENDMDL
