MODEL 1
REMARK minimizedAffinity 1.70985413
REMARK minimizedRMSD -1
REMARK  0 active torsions:
REMARK  status: ('A' for Active; 'I' for Inactive)
ROOT
ATOM      1  C   UNL d   1       1.512   5.926  -5.877  0.00  0.00    -0.002 A 
ATOM      2  C1  UNL d   1       0.896   4.714  -5.603  0.00  0.00     0.010 A 
ATOM      3  C2  UNL d   1       1.654   3.551  -5.447  0.00  0.00     0.041 A 
ATOM      4  C3  UNL d   1       3.055   3.629  -5.570  0.00  0.00    -0.075 A 
ATOM      5  S   UNL d   1       4.186   2.336  -5.418  0.00  0.00     0.015 SA
ATOM      6  C4  UNL d   1       5.513   3.364  -5.713  0.00  0.00     0.022 A 
ATOM      7  C5  UNL d   1       5.122   4.665  -5.924  0.00  0.00     0.026 A 
ATOM      8  C6  UNL d   1       3.699   4.839  -5.845  0.00  0.00    -0.082 A 
ATOM      9  C7  UNL d   1       2.903   6.000  -5.999  0.00  0.00     0.045 A 
ENDROOT
TORSDOF 0
ENDMDL
