MODEL 1
REMARK minimizedAffinity 1.38029027
REMARK minimizedRMSD -1
REMARK  0 active torsions:
REMARK  status: ('A' for Active; 'I' for Inactive)
ROOT
ATOM      1  C   UNL d   1       5.276   2.830  -5.969  0.00  0.00    -0.002 A 
ATOM      2  C1  UNL d   1       5.620   4.174  -5.975  0.00  0.00     0.010 A 
ATOM      3  C2  UNL d   1       4.631   5.160  -5.981  0.00  0.00     0.041 A 
ATOM      4  C3  UNL d   1       3.278   4.768  -5.978  0.00  0.00    -0.075 A 
ATOM      5  S   UNL d   1       1.897   5.800  -5.982  0.00  0.00     0.015 SA
ATOM      6  C4  UNL d   1       0.818   4.480  -5.975  0.00  0.00     0.022 A 
ATOM      7  C5  UNL d   1       1.478   3.275  -5.969  0.00  0.00     0.026 A 
ATOM      8  C6  UNL d   1       2.907   3.420  -5.970  0.00  0.00    -0.082 A 
ATOM      9  C7  UNL d   1       3.933   2.445  -5.965  0.00  0.00     0.045 A 
ENDROOT
TORSDOF 0
ENDMDL
