MODEL 1
REMARK minimizedAffinity 6.06457281
REMARK minimizedRMSD -1
REMARK  0 active torsions:
REMARK  status: ('A' for Active; 'I' for Inactive)
ROOT
ATOM      1  C   UNL d   1       6.000  -0.377   3.505  0.00  0.00    -0.002 A 
ATOM      2  C1  UNL d   1       4.968  -0.559   4.415  0.00  0.00     0.010 A 
ATOM      3  C2  UNL d   1       3.645  -0.302   4.050  0.00  0.00     0.041 A 
ATOM      4  C3  UNL d   1       3.374   0.143   2.741  0.00  0.00    -0.075 A 
ATOM      5  S   UNL d   1       1.831   0.520   2.070  0.00  0.00     0.015 SA
ATOM      6  C4  UNL d   1       2.505   0.930   0.559  0.00  0.00     0.022 A 
ATOM      7  C5  UNL d   1       3.872   0.789   0.549  0.00  0.00     0.026 A 
ATOM      8  C6  UNL d   1       4.396   0.333   1.806  0.00  0.00    -0.082 A 
ATOM      9  C7  UNL d   1       5.727   0.064   2.207  0.00  0.00     0.045 A 
ENDROOT
TORSDOF 0
ENDMDL
