MODEL 1
REMARK minimizedAffinity 11.2226992
REMARK minimizedRMSD -1
REMARK  0 active torsions:
REMARK  status: ('A' for Active; 'I' for Inactive)
ROOT
ATOM      1  C   UNL d   1       1.400   0.541   0.253  0.00  0.00    -0.002 A 
ATOM      2  C1  UNL d   1       1.813   1.844   0.011  0.00  0.00     0.010 A 
ATOM      3  C2  UNL d   1       3.050   2.295   0.478  0.00  0.00     0.041 A 
ATOM      4  C3  UNL d   1       3.872   1.406   1.198  0.00  0.00    -0.075 A 
ATOM      5  S   UNL d   1       5.426   1.737   1.866  0.00  0.00     0.015 SA
ATOM      6  C4  UNL d   1       5.579   0.157   2.487  0.00  0.00     0.022 A 
ATOM      7  C5  UNL d   1       4.479  -0.617   2.202  0.00  0.00     0.026 A 
ATOM      8  C6  UNL d   1       3.478   0.089   1.454  0.00  0.00    -0.082 A 
ATOM      9  C7  UNL d   1       2.218  -0.338   0.968  0.00  0.00     0.045 A 
ENDROOT
TORSDOF 0
ENDMDL
