MODEL 1
REMARK minimizedAffinity 19.4217281
REMARK minimizedRMSD -1
REMARK  0 active torsions:
REMARK  status: ('A' for Active; 'I' for Inactive)
ROOT
ATOM      1  C   UNL d   1      -2.060  -2.689  -3.451  0.00  0.00    -0.002 A 
ATOM      2  C1  UNL d   1      -2.455  -1.487  -2.880  0.00  0.00     0.010 A 
ATOM      3  C2  UNL d   1      -1.944  -1.086  -1.644  0.00  0.00     0.041 A 
ATOM      4  C3  UNL d   1      -1.019  -1.921  -0.986  0.00  0.00    -0.075 A 
ATOM      5  S   UNL d   1      -0.260  -1.634   0.535  0.00  0.00     0.015 SA
ATOM      6  C4  UNL d   1       0.607  -3.100   0.462  0.00  0.00     0.022 A 
ATOM      7  C5  UNL d   1       0.336  -3.803  -0.687  0.00  0.00     0.026 A 
ATOM      8  C6  UNL d   1      -0.606  -3.135  -1.541  0.00  0.00    -0.082 A 
ATOM      9  C7  UNL d   1      -1.143  -3.514  -2.795  0.00  0.00     0.045 A 
ENDROOT
TORSDOF 0
ENDMDL
