MODEL 1
REMARK minimizedAffinity 8.61514473
REMARK minimizedRMSD -1
REMARK  0 active torsions:
REMARK  status: ('A' for Active; 'I' for Inactive)
ROOT
ATOM      1  C   UNL d   1      -0.735   3.154   2.324  0.00  0.00    -0.002 A 
ATOM      2  C1  UNL d   1      -2.061   3.149   2.732  0.00  0.00     0.010 A 
ATOM      3  C2  UNL d   1      -3.035   3.818   1.988  0.00  0.00     0.041 A 
ATOM      4  C3  UNL d   1      -2.651   4.496   0.815  0.00  0.00    -0.075 A 
ATOM      5  S   UNL d   1      -3.672   5.382  -0.255  0.00  0.00     0.015 SA
ATOM      6  C4  UNL d   1      -2.372   5.787  -1.280  0.00  0.00     0.022 A 
ATOM      7  C5  UNL d   1      -1.181   5.267  -0.832  0.00  0.00     0.026 A 
ATOM      8  C6  UNL d   1      -1.322   4.514   0.383  0.00  0.00    -0.082 A 
ATOM      9  C7  UNL d   1      -0.357   3.828   1.159  0.00  0.00     0.045 A 
ENDROOT
TORSDOF 0
ENDMDL
