MODEL 1
REMARK minimizedAffinity -2.35166073
REMARK minimizedRMSD -1
REMARK  1 active torsions:
REMARK  status: ('A' for Active; 'I' for Inactive)
REMARK    1  A    between atoms: C1_2  and  C2_3 
ROOT
ATOM      1  C2  UNL d   1       2.176   1.620   0.264  0.00  0.00    -0.076 A 
ATOM      2  C3  UNL d   1       1.967   1.243   1.602  0.00  0.00     0.004 A 
ATOM      3  C4  UNL d   1       2.848   1.643   2.606  0.00  0.00    -0.003 A 
ATOM      4  C5  UNL d   1       3.952   2.426   2.288  0.00  0.00     0.000 A 
ATOM      5  C6  UNL d   1       4.165   2.824   0.968  0.00  0.00     0.000 A 
ATOM      6  C7  UNL d   1       3.277   2.443  -0.053  0.00  0.00    -0.073 A 
ATOM      7  C8  UNL d   1       3.559   2.895  -1.460  0.00  0.00     0.078 C 
ENDROOT
BRANCH   1   8
ATOM      8  C1  UNL d   1       1.202   1.134  -0.785  0.00  0.00     0.053 C 
ATOM      9  C   UNL d   1      -0.085   0.595  -0.181  0.00  0.00     0.018 C 
ENDBRANCH   1   8
TORSDOF 1
ENDMDL
