MODEL 1
REMARK minimizedAffinity -2.48128176
REMARK minimizedRMSD -1
REMARK  1 active torsions:
REMARK  status: ('A' for Active; 'I' for Inactive)
REMARK    1  A    between atoms: C1_2  and  C2_3 
ROOT
ATOM      1  C2  UNL d   1       2.545   1.277  -0.044  0.00  0.00    -0.076 A 
ATOM      2  C3  UNL d   1       3.295   1.550  -1.201  0.00  0.00     0.004 A 
ATOM      3  C4  UNL d   1       3.891   2.795  -1.392  0.00  0.00    -0.003 A 
ATOM      4  C5  UNL d   1       3.748   3.787  -0.428  0.00  0.00     0.000 A 
ATOM      5  C6  UNL d   1       3.022   3.528   0.734  0.00  0.00     0.000 A 
ATOM      6  C7  UNL d   1       2.428   2.273   0.949  0.00  0.00    -0.073 A 
ATOM      7  C8  UNL d   1       1.652   2.050   2.218  0.00  0.00     0.078 C 
ENDROOT
BRANCH   1   8
ATOM      8  C1  UNL d   1       1.898  -0.083   0.096  0.00  0.00     0.053 C 
ATOM      9  C   UNL d   1       0.589  -0.187  -0.672  0.00  0.00     0.018 C 
ENDBRANCH   1   8
TORSDOF 1
ENDMDL
