MODEL 1
REMARK minimizedAffinity 1.38491118
REMARK minimizedRMSD -1
REMARK  1 active torsions:
REMARK  status: ('A' for Active; 'I' for Inactive)
REMARK    1  A    between atoms: C1_2  and  C2_3 
ROOT
ATOM      1  C2  UNL d   1      -0.949  -0.240  -0.915  0.00  0.00    -0.076 A 
ATOM      2  C3  UNL d   1      -0.577  -0.667   0.372  0.00  0.00     0.004 A 
ATOM      3  C4  UNL d   1       0.726  -0.496   0.836  0.00  0.00    -0.003 A 
ATOM      4  C5  UNL d   1       1.679   0.106   0.021  0.00  0.00     0.000 A 
ATOM      5  C6  UNL d   1       1.323   0.552  -1.252  0.00  0.00     0.000 A 
ATOM      6  C7  UNL d   1       0.009   0.401  -1.729  0.00  0.00    -0.073 A 
ATOM      7  C8  UNL d   1      -0.318   0.895  -3.111  0.00  0.00     0.078 C 
ENDROOT
BRANCH   1   8
ATOM      8  C1  UNL d   1      -2.370  -0.477  -1.374  0.00  0.00     0.053 C 
ATOM      9  C   UNL d   1      -2.961  -1.757  -0.803  0.00  0.00     0.018 C 
ENDBRANCH   1   8
TORSDOF 1
ENDMDL
