MODEL 1
REMARK minimizedAffinity -1.04596341
REMARK minimizedRMSD -1
REMARK  1 active torsions:
REMARK  status: ('A' for Active; 'I' for Inactive)
REMARK    1  A    between atoms: C1_2  and  C2_3 
ROOT
ATOM      1  C2  UNL d   1       0.287   0.187  -0.626  0.00  0.00    -0.076 A 
ATOM      2  C3  UNL d   1      -0.320   0.781  -1.746  0.00  0.00     0.004 A 
ATOM      3  C4  UNL d   1      -1.579   0.371  -2.181  0.00  0.00    -0.003 A 
ATOM      4  C5  UNL d   1      -2.252  -0.639  -1.503  0.00  0.00     0.000 A 
ATOM      5  C6  UNL d   1      -1.672  -1.227  -0.379  0.00  0.00     0.000 A 
ATOM      6  C7  UNL d   1      -0.410  -0.814   0.082  0.00  0.00    -0.073 A 
ATOM      7  C8  UNL d   1       0.170  -1.487   1.296  0.00  0.00     0.078 C 
ENDROOT
BRANCH   1   8
ATOM      8  C1  UNL d   1       1.666   0.654  -0.217  0.00  0.00     0.053 C 
ATOM      9  C   UNL d   1       1.621   1.793   0.790  0.00  0.00     0.018 C 
ENDBRANCH   1   8
TORSDOF 1
ENDMDL
