MODEL 1
REMARK minimizedAffinity -3.1300633
REMARK minimizedRMSD -1
REMARK  1 active torsions:
REMARK  status: ('A' for Active; 'I' for Inactive)
REMARK    1  A    between atoms: C1_2  and  C2_3 
ROOT
ATOM      1  C2  UNL d   1       2.679   1.415   0.864  0.00  0.00    -0.076 A 
ATOM      2  C3  UNL d   1       3.374   1.827  -0.286  0.00  0.00     0.004 A 
ATOM      3  C4  UNL d   1       3.736   3.160  -0.467  0.00  0.00    -0.003 A 
ATOM      4  C5  UNL d   1       3.408   4.105   0.500  0.00  0.00     0.000 A 
ATOM      5  C6  UNL d   1       2.734   3.711   1.656  0.00  0.00     0.000 A 
ATOM      6  C7  UNL d   1       2.377   2.367   1.861  0.00  0.00    -0.073 A 
ATOM      7  C8  UNL d   1       1.646   1.999   3.123  0.00  0.00     0.078 C 
ENDROOT
BRANCH   1   8
ATOM      8  C1  UNL d   1       2.290  -0.041   0.993  0.00  0.00     0.053 C 
ATOM      9  C   UNL d   1       0.817  -0.278   0.697  0.00  0.00     0.018 C 
ENDBRANCH   1   8
TORSDOF 1
ENDMDL
