MODEL 1
REMARK minimizedAffinity -4.11972237
REMARK minimizedRMSD -1
REMARK  1 active torsions:
REMARK  status: ('A' for Active; 'I' for Inactive)
REMARK    1  A    between atoms: C1_2  and  C2_3 
ROOT
ATOM      1  C2  UNL d   1       0.818   0.405  -0.588  0.00  0.00    -0.076 A 
ATOM      2  C3  UNL d   1       0.302   1.054  -1.723  0.00  0.00     0.004 A 
ATOM      3  C4  UNL d   1      -0.998   0.805  -2.163  0.00  0.00    -0.003 A 
ATOM      4  C5  UNL d   1      -1.802  -0.095  -1.473  0.00  0.00     0.000 A 
ATOM      5  C6  UNL d   1      -1.312  -0.734  -0.335  0.00  0.00     0.000 A 
ATOM      6  C7  UNL d   1      -0.010  -0.483   0.131  0.00  0.00    -0.073 A 
ATOM      7  C8  UNL d   1       0.468  -1.204   1.361  0.00  0.00     0.078 C 
ENDROOT
BRANCH   1   8
ATOM      8  C1  UNL d   1       2.243   0.694  -0.175  0.00  0.00     0.053 C 
ATOM      9  C   UNL d   1       2.359   1.946   0.681  0.00  0.00     0.018 C 
ENDBRANCH   1   8
TORSDOF 1
ENDMDL
