MODEL 1
REMARK minimizedAffinity -3.40741158
REMARK minimizedRMSD -1
REMARK  1 active torsions:
REMARK  status: ('A' for Active; 'I' for Inactive)
REMARK    1  A    between atoms: C1_2  and  C2_3 
ROOT
ATOM      1  C2  UNL d   1      -1.277  -0.315  -0.390  0.00  0.00    -0.076 A 
ATOM      2  C3  UNL d   1      -2.557  -0.588  -0.904  0.00  0.00     0.004 A 
ATOM      3  C4  UNL d   1      -3.195  -1.797  -0.633  0.00  0.00    -0.003 A 
ATOM      4  C5  UNL d   1      -2.565  -2.752   0.157  0.00  0.00     0.000 A 
ATOM      5  C6  UNL d   1      -1.303  -2.491   0.689  0.00  0.00     0.000 A 
ATOM      6  C7  UNL d   1      -0.652  -1.271   0.439  0.00  0.00    -0.073 A 
ATOM      7  C8  UNL d   1       0.711  -1.044   1.033  0.00  0.00     0.078 C 
ENDROOT
BRANCH   1   8
ATOM      8  C1  UNL d   1      -0.623   1.003  -0.740  0.00  0.00     0.053 C 
ATOM      9  C   UNL d   1       0.114   0.952  -2.070  0.00  0.00     0.018 C 
ENDBRANCH   1   8
TORSDOF 1
ENDMDL
