MODEL 1
REMARK minimizedAffinity -3.45648718
REMARK minimizedRMSD -1
REMARK  1 active torsions:
REMARK  status: ('A' for Active; 'I' for Inactive)
REMARK    1  A    between atoms: C1_2  and  C2_3 
ROOT
ATOM      1  C2  UNL d   1       0.236   0.136  -0.113  0.00  0.00    -0.076 A 
ATOM      2  C3  UNL d   1      -0.111   0.930  -1.220  0.00  0.00     0.004 A 
ATOM      3  C4  UNL d   1      -1.338   0.769  -1.862  0.00  0.00    -0.003 A 
ATOM      4  C5  UNL d   1      -2.238  -0.188  -1.407  0.00  0.00     0.000 A 
ATOM      5  C6  UNL d   1      -1.918  -0.972  -0.299  0.00  0.00     0.000 A 
ATOM      6  C7  UNL d   1      -0.692  -0.812   0.369  0.00  0.00    -0.073 A 
ATOM      7  C8  UNL d   1      -0.396  -1.688   1.555  0.00  0.00     0.078 C 
ENDROOT
BRANCH   1   8
ATOM      8  C1  UNL d   1       1.591   0.337   0.526  0.00  0.00     0.053 C 
ATOM      9  C   UNL d   1       1.783   1.750   1.054  0.00  0.00     0.018 C 
ENDBRANCH   1   8
TORSDOF 1
ENDMDL
