MODEL 1
REMARK minimizedAffinity -2.12964225
REMARK minimizedRMSD -1
REMARK  1 active torsions:
REMARK  status: ('A' for Active; 'I' for Inactive)
REMARK    1  A    between atoms: C1_2  and  C2_3 
ROOT
ATOM      1  C2  UNL d   1       0.386   0.221  -0.097  0.00  0.00    -0.076 A 
ATOM      2  C3  UNL d   1       0.023   1.054  -1.170  0.00  0.00     0.004 A 
ATOM      3  C4  UNL d   1      -1.078   0.754  -1.970  0.00  0.00    -0.003 A 
ATOM      4  C5  UNL d   1      -1.835  -0.383  -1.711  0.00  0.00     0.000 A 
ATOM      5  C6  UNL d   1      -1.500  -1.211  -0.640  0.00  0.00     0.000 A 
ATOM      6  C7  UNL d   1      -0.403  -0.915   0.187  0.00  0.00    -0.073 A 
ATOM      7  C8  UNL d   1      -0.084  -1.846   1.324  0.00  0.00     0.078 C 
ENDROOT
BRANCH   1   8
ATOM      8  C1  UNL d   1       1.606   0.581   0.720  0.00  0.00     0.053 C 
ATOM      9  C   UNL d   1       2.409   1.714   0.099  0.00  0.00     0.018 C 
ENDBRANCH   1   8
TORSDOF 1
ENDMDL
