MODEL 1
REMARK minimizedAffinity -1.97758806
REMARK minimizedRMSD -1
REMARK  1 active torsions:
REMARK  status: ('A' for Active; 'I' for Inactive)
REMARK    1  A    between atoms: C1_2  and  C2_3 
ROOT
ATOM      1  C2  UNL d   1       2.722   1.982  -0.150  0.00  0.00    -0.076 A 
ATOM      2  C3  UNL d   1       3.270   2.367  -1.386  0.00  0.00     0.004 A 
ATOM      3  C4  UNL d   1       3.843   3.626  -1.557  0.00  0.00    -0.003 A 
ATOM      4  C5  UNL d   1       3.878   4.521  -0.493  0.00  0.00     0.000 A 
ATOM      5  C6  UNL d   1       3.355   4.150   0.745  0.00  0.00     0.000 A 
ATOM      6  C7  UNL d   1       2.788   2.879   0.938  0.00  0.00    -0.073 A 
ATOM      7  C8  UNL d   1       2.233   2.534   2.293  0.00  0.00     0.078 C 
ENDROOT
BRANCH   1   8
ATOM      8  C1  UNL d   1       2.089   0.614  -0.032  0.00  0.00     0.053 C 
ATOM      9  C   UNL d   1       0.744   0.532  -0.736  0.00  0.00     0.018 C 
ENDBRANCH   1   8
TORSDOF 1
ENDMDL
