MODEL 1
REMARK minimizedAffinity -0.732612908
REMARK minimizedRMSD -1
REMARK  1 active torsions:
REMARK  status: ('A' for Active; 'I' for Inactive)
REMARK    1  A    between atoms: C3_4  and  O_7 
ROOT
ATOM      1  C   UNL d   1       6.000  -0.011  -0.548  0.00  0.00    -0.033 A 
ATOM      2  C1  UNL d   1       5.129  -1.086  -0.358  0.00  0.00     0.039 A 
ATOM      3  C2  UNL d   1       3.749  -0.876  -0.350  0.00  0.00    -0.080 A 
ATOM      4  C3  UNL d   1       3.253   0.412  -0.533  0.00  0.00     0.150 A 
ATOM      5  C4  UNL d   1       4.114   1.487  -0.726  0.00  0.00    -0.007 A 
ATOM      6  C5  UNL d   1       5.492   1.275  -0.733  0.00  0.00     0.039 A 
ENDROOT
BRANCH   4   7
ATOM      7  O   UNL d   1       1.914   0.667  -0.528  0.00  0.00    -0.526 OA
ATOM      8  H5  UNL d   1       1.443  -0.165  -0.355  0.00  0.00     0.418 HD
ENDBRANCH   4   7
TORSDOF 1
ENDMDL
