MODEL 1
REMARK minimizedAffinity 11.7914257
REMARK minimizedRMSD -1
REMARK  1 active torsions:
REMARK  status: ('A' for Active; 'I' for Inactive)
REMARK    1  A    between atoms: C3_4  and  O_7 
ROOT
ATOM      1  C   UNL d   1      -1.772  -4.482  -2.123  0.00  0.00    -0.033 A 
ATOM      2  C1  UNL d   1      -1.095  -3.508  -2.860  0.00  0.00     0.039 A 
ATOM      3  C2  UNL d   1       0.233  -3.199  -2.559  0.00  0.00    -0.080 A 
ATOM      4  C3  UNL d   1       0.872  -3.871  -1.520  0.00  0.00     0.150 A 
ATOM      5  C4  UNL d   1       0.205  -4.846  -0.785  0.00  0.00    -0.007 A 
ATOM      6  C5  UNL d   1      -1.122  -5.152  -1.086  0.00  0.00     0.039 A 
ENDROOT
BRANCH   4   7
ATOM      7  O   UNL d   1       2.165  -3.601  -1.186  0.00  0.00    -0.526 OA
ATOM      8  H5  UNL d   1       2.489  -2.887  -1.760  0.00  0.00     0.418 HD
ENDBRANCH   4   7
TORSDOF 1
ENDMDL
