MODEL 1
REMARK minimizedAffinity 6.45160437
REMARK minimizedRMSD -1
REMARK  1 active torsions:
REMARK  status: ('A' for Active; 'I' for Inactive)
REMARK    1  A    between atoms: C3_4  and  O_7 
ROOT
ATOM      1  C   UNL d   1       1.461  -3.556  -1.076  0.00  0.00    -0.033 A 
ATOM      2  C1  UNL d   1       2.079  -3.046  -2.219  0.00  0.00     0.039 A 
ATOM      3  C2  UNL d   1       2.987  -1.990  -2.112  0.00  0.00    -0.080 A 
ATOM      4  C3  UNL d   1       3.267  -1.455  -0.858  0.00  0.00     0.150 A 
ATOM      5  C4  UNL d   1       2.658  -1.961   0.286  0.00  0.00    -0.007 A 
ATOM      6  C5  UNL d   1       1.751  -3.015   0.177  0.00  0.00     0.039 A 
ENDROOT
BRANCH   4   7
ATOM      7  O   UNL d   1       4.143  -0.421  -0.704  0.00  0.00    -0.526 OA
ATOM      8  H5  UNL d   1       4.464  -0.157  -1.582  0.00  0.00     0.418 HD
ENDBRANCH   4   7
TORSDOF 1
ENDMDL
