MODEL 1
REMARK minimizedAffinity 6.29170179
REMARK minimizedRMSD -1
REMARK  1 active torsions:
REMARK  status: ('A' for Active; 'I' for Inactive)
REMARK    1  A    between atoms: C3_4  and  O_7 
ROOT
ATOM      1  C   UNL d   1       5.193   2.262  -0.725  0.00  0.00    -0.033 A 
ATOM      2  C1  UNL d   1       5.998   1.122  -0.746  0.00  0.00     0.039 A 
ATOM      3  C2  UNL d   1       5.419  -0.141  -0.894  0.00  0.00    -0.080 A 
ATOM      4  C3  UNL d   1       4.037  -0.248  -1.020  0.00  0.00     0.150 A 
ATOM      5  C4  UNL d   1       3.230   0.884  -1.004  0.00  0.00    -0.007 A 
ATOM      6  C5  UNL d   1       3.809   2.144  -0.855  0.00  0.00     0.039 A 
ENDROOT
BRANCH   4   7
ATOM      7  O   UNL d   1       3.427  -1.459  -1.162  0.00  0.00    -0.526 OA
ATOM      8  H5  UNL d   1       4.106  -2.152  -1.127  0.00  0.00     0.418 HD
ENDBRANCH   4   7
TORSDOF 1
ENDMDL
