MODEL 1
REMARK minimizedAffinity 8.35918999
REMARK minimizedRMSD -1
REMARK  1 active torsions:
REMARK  status: ('A' for Active; 'I' for Inactive)
REMARK    1  A    between atoms: C3_4  and  O_7 
ROOT
ATOM      1  C   UNL d   1       0.559  -2.851   3.022  0.00  0.00    -0.033 A 
ATOM      2  C1  UNL d   1       1.867  -2.881   3.510  0.00  0.00     0.039 A 
ATOM      3  C2  UNL d   1       2.221  -3.787   4.512  0.00  0.00    -0.080 A 
ATOM      4  C3  UNL d   1       1.259  -4.657   5.016  0.00  0.00     0.150 A 
ATOM      5  C4  UNL d   1      -0.045  -4.636   4.532  0.00  0.00    -0.007 A 
ATOM      6  C5  UNL d   1      -0.397  -3.730   3.533  0.00  0.00     0.039 A 
ENDROOT
BRANCH   4   7
ATOM      7  O   UNL d   1       1.555  -5.556   5.997  0.00  0.00    -0.526 OA
ATOM      8  H5  UNL d   1       2.485  -5.437   6.253  0.00  0.00     0.418 HD
ENDBRANCH   4   7
TORSDOF 1
ENDMDL
