MODEL 1
REMARK minimizedAffinity -3.7168951
REMARK minimizedRMSD -1
REMARK  3 active torsions:
REMARK  status: ('A' for Active; 'I' for Inactive)
REMARK    1  A    between atoms: C3'_2  and  C2'_3 
REMARK    2  A    between atoms: C2'_3  and  C1'_4 
REMARK    3  A    between atoms: C1'_4  and  C1_5 
ROOT
ATOM      1  C1  N4B d   1       1.611   2.895   1.798  0.00  0.00    -0.075 A 
ATOM      2  C2  N4B d   1       0.320   2.833   1.230  0.00  0.00     0.002 A 
ATOM      3  C3  N4B d   1      -0.043   1.750   0.466  0.00  0.00     0.002 A 
ATOM      4  C4  N4B d   1       0.871   0.731   0.243  0.00  0.00    -0.004 A 
ATOM      5  C5  N4B d   1       2.108   0.787   0.816  0.00  0.00     0.002 A 
ATOM      6  C6  N4B d   1       2.484   1.867   1.589  0.00  0.00     0.002 A 
ENDROOT
BRANCH   1   7
ATOM      7  C1' N4B d   1       2.083   4.098   2.568  0.00  0.00     0.057 C 
BRANCH   7   8
ATOM      8  C2' N4B d   1       3.496   4.457   2.120  0.00  0.00     0.009 C 
BRANCH   8   9
ATOM      9  C3' N4B d   1       3.570   5.859   1.541  0.00  0.00     0.004 C 
ATOM     10  C4' N4B d   1       2.815   5.995   0.252  0.00  0.00     0.003 C 
ENDBRANCH   8   9
ENDBRANCH   7   8
ENDBRANCH   1   7
TORSDOF 3
ENDMDL
