MODEL 1
REMARK minimizedAffinity 5.3791852
REMARK minimizedRMSD -1
REMARK  3 active torsions:
REMARK  status: ('A' for Active; 'I' for Inactive)
REMARK    1  A    between atoms: C3'_2  and  C2'_3 
REMARK    2  A    between atoms: C2'_3  and  C1'_4 
REMARK    3  A    between atoms: C1'_4  and  C1_5 
ROOT
ATOM      1  C1  N4B d   1      -2.164   1.425   0.202  0.00  0.00    -0.075 A 
ATOM      2  C2  N4B d   1      -1.017   2.161  -0.170  0.00  0.00     0.002 A 
ATOM      3  C3  N4B d   1       0.224   1.763   0.263  0.00  0.00     0.002 A 
ATOM      4  C4  N4B d   1       0.341   0.647   1.079  0.00  0.00    -0.004 A 
ATOM      5  C5  N4B d   1      -0.769  -0.073   1.412  0.00  0.00     0.002 A 
ATOM      6  C6  N4B d   1      -2.023   0.314   0.981  0.00  0.00     0.002 A 
ENDROOT
BRANCH   1   7
ATOM      7  C1' N4B d   1      -3.550   1.871  -0.175  0.00  0.00     0.057 C 
BRANCH   7   8
ATOM      8  C2' N4B d   1      -4.570   1.068   0.627  0.00  0.00     0.009 C 
BRANCH   8   9
ATOM      9  C3' N4B d   1      -5.978   1.614   0.463  0.00  0.00     0.004 C 
ATOM     10  C4' N4B d   1      -5.999   3.067   0.096  0.00  0.00     0.003 C 
ENDBRANCH   8   9
ENDBRANCH   7   8
ENDBRANCH   1   7
TORSDOF 3
ENDMDL
