MODEL 1
REMARK minimizedAffinity 9.04434586
REMARK minimizedRMSD -1
REMARK  3 active torsions:
REMARK  status: ('A' for Active; 'I' for Inactive)
REMARK    1  A    between atoms: C3'_2  and  C2'_3 
REMARK    2  A    between atoms: C2'_3  and  C1'_4 
REMARK    3  A    between atoms: C1'_4  and  C1_5 
ROOT
ATOM      1  C1  N4B d   1       3.395   1.484   0.047  0.00  0.00    -0.075 A 
ATOM      2  C2  N4B d   1       3.858   2.485   0.929  0.00  0.00     0.002 A 
ATOM      3  C3  N4B d   1       3.116   2.822   2.034  0.00  0.00     0.002 A 
ATOM      4  C4  N4B d   1       1.906   2.187   2.268  0.00  0.00    -0.004 A 
ATOM      5  C5  N4B d   1       1.478   1.203   1.425  0.00  0.00     0.002 A 
ATOM      6  C6  N4B d   1       2.215   0.852   0.312  0.00  0.00     0.002 A 
ENDROOT
BRANCH   1   7
ATOM      7  C1' N4B d   1       4.129   1.142  -1.222  0.00  0.00     0.057 C 
BRANCH   7   8
ATOM      8  C2' N4B d   1       3.131   0.622  -2.253  0.00  0.00     0.009 C 
BRANCH   8   9
ATOM      9  C3' N4B d   1       3.139   1.457  -3.522  0.00  0.00     0.004 C 
ATOM     10  C4' N4B d   1       1.868   1.331  -4.308  0.00  0.00     0.003 C 
ENDBRANCH   8   9
ENDBRANCH   7   8
ENDBRANCH   1   7
TORSDOF 3
ENDMDL
