MODEL 1
REMARK minimizedAffinity 6.37748861
REMARK minimizedRMSD -1
REMARK  3 active torsions:
REMARK  status: ('A' for Active; 'I' for Inactive)
REMARK    1  A    between atoms: C3'_2  and  C2'_3 
REMARK    2  A    between atoms: C2'_3  and  C1'_4 
REMARK    3  A    between atoms: C1'_4  and  C1_5 
ROOT
ATOM      1  C1  N4B d   1       0.852   2.919   2.257  0.00  0.00    -0.075 A 
ATOM      2  C2  N4B d   1       0.206   3.043   1.007  0.00  0.00     0.002 A 
ATOM      3  C3  N4B d   1      -1.153   2.870   0.916  0.00  0.00     0.002 A 
ATOM      4  C4  N4B d   1      -1.882   2.555   2.054  0.00  0.00    -0.004 A 
ATOM      5  C5  N4B d   1      -1.254   2.462   3.261  0.00  0.00     0.002 A 
ATOM      6  C6  N4B d   1       0.111   2.638   3.368  0.00  0.00     0.002 A 
ENDROOT
BRANCH   1   7
ATOM      7  C1' N4B d   1       2.347   3.015   2.391  0.00  0.00     0.057 C 
BRANCH   7   8
ATOM      8  C2' N4B d   1       2.994   1.869   1.619  0.00  0.00     0.009 C 
BRANCH   8   9
ATOM      9  C3' N4B d   1       1.966   0.865   1.126  0.00  0.00     0.004 C 
ATOM     10  C4' N4B d   1       2.429   0.105  -0.081  0.00  0.00     0.003 C 
ENDBRANCH   8   9
ENDBRANCH   7   8
ENDBRANCH   1   7
TORSDOF 3
ENDMDL
