MODEL 1
REMARK minimizedAffinity 1.75210619
REMARK minimizedRMSD -1
REMARK  3 active torsions:
REMARK  status: ('A' for Active; 'I' for Inactive)
REMARK    1  A    between atoms: C3'_2  and  C2'_3 
REMARK    2  A    between atoms: C2'_3  and  C1'_4 
REMARK    3  A    between atoms: C1'_4  and  C1_5 
ROOT
ATOM      1  C1  N4B d   1       1.453   1.646   1.022  0.00  0.00    -0.075 A 
ATOM      2  C2  N4B d   1       0.460   2.035   1.948  0.00  0.00     0.002 A 
ATOM      3  C3  N4B d   1      -0.865   2.007   1.588  0.00  0.00     0.002 A 
ATOM      4  C4  N4B d   1      -1.218   1.613   0.306  0.00  0.00    -0.004 A 
ATOM      5  C5  N4B d   1      -0.255   1.214  -0.575  0.00  0.00     0.002 A 
ATOM      6  C6  N4B d   1       1.080   1.234  -0.225  0.00  0.00     0.002 A 
ENDROOT
BRANCH   1   7
ATOM      7  C1' N4B d   1       2.919   1.743   1.342  0.00  0.00     0.057 C 
BRANCH   7   8
ATOM      8  C2' N4B d   1       3.149   2.917   2.289  0.00  0.00     0.009 C 
BRANCH   8   9
ATOM      9  C3' N4B d   1       4.333   3.767   1.863  0.00  0.00     0.004 C 
ATOM     10  C4' N4B d   1       4.179   5.209   2.245  0.00  0.00     0.003 C 
ENDBRANCH   8   9
ENDBRANCH   7   8
ENDBRANCH   1   7
TORSDOF 3
ENDMDL
