MODEL 1
REMARK minimizedAffinity -3.10979557
REMARK minimizedRMSD -1
REMARK  3 active torsions:
REMARK  status: ('A' for Active; 'I' for Inactive)
REMARK    1  A    between atoms: C3'_2  and  C2'_3 
REMARK    2  A    between atoms: C2'_3  and  C1'_4 
REMARK    3  A    between atoms: C1'_4  and  C1_5 
ROOT
ATOM      1  C1  N4B d   1       1.729   2.868   2.233  0.00  0.00    -0.075 A 
ATOM      2  C2  N4B d   1       0.324   3.008   2.247  0.00  0.00     0.002 A 
ATOM      3  C3  N4B d   1      -0.461   2.137   1.531  0.00  0.00     0.002 A 
ATOM      4  C4  N4B d   1       0.136   1.135   0.781  0.00  0.00    -0.004 A 
ATOM      5  C5  N4B d   1       1.493   0.990   0.793  0.00  0.00     0.002 A 
ATOM      6  C6  N4B d   1       2.293   1.856   1.511  0.00  0.00     0.002 A 
ENDROOT
BRANCH   1   7
ATOM      7  C1' N4B d   1       2.632   3.847   2.931  0.00  0.00     0.057 C 
BRANCH   7   8
ATOM      8  C2' N4B d   1       2.716   5.127   2.105  0.00  0.00     0.009 C 
BRANCH   8   9
ATOM      9  C3' N4B d   1       3.911   5.979   2.497  0.00  0.00     0.004 C 
ATOM     10  C4' N4B d   1       4.149   6.000   3.978  0.00  0.00     0.003 C 
ENDBRANCH   8   9
ENDBRANCH   7   8
ENDBRANCH   1   7
TORSDOF 3
ENDMDL
