MODEL 1
REMARK minimizedAffinity 7.24138832
REMARK minimizedRMSD -1
REMARK  3 active torsions:
REMARK  status: ('A' for Active; 'I' for Inactive)
REMARK    1  A    between atoms: C3'_2  and  C2'_3 
REMARK    2  A    between atoms: C2'_3  and  C1'_4 
REMARK    3  A    between atoms: C1'_4  and  C1_5 
ROOT
ATOM      1  C1  N4B d   1       0.681   1.610   1.307  0.00  0.00    -0.075 A 
ATOM      2  C2  N4B d   1      -0.690   1.800   1.589  0.00  0.00     0.002 A 
ATOM      3  C3  N4B d   1      -1.072   2.436   2.745  0.00  0.00     0.002 A 
ATOM      4  C4  N4B d   1      -0.105   2.871   3.640  0.00  0.00    -0.004 A 
ATOM      5  C5  N4B d   1       1.217   2.706   3.348  0.00  0.00     0.002 A 
ATOM      6  C6  N4B d   1       1.615   2.073   2.188  0.00  0.00     0.002 A 
ENDROOT
BRANCH   1   7
ATOM      7  C1' N4B d   1       1.144   0.845   0.098  0.00  0.00     0.057 C 
BRANCH   7   8
ATOM      8  C2' N4B d   1       1.883   1.793  -0.842  0.00  0.00     0.009 C 
BRANCH   8   9
ATOM      9  C3' N4B d   1       2.158   1.155  -2.193  0.00  0.00     0.004 C 
ATOM     10  C4' N4B d   1       1.575   1.935  -3.333  0.00  0.00     0.003 C 
ENDBRANCH   8   9
ENDBRANCH   7   8
ENDBRANCH   1   7
TORSDOF 3
ENDMDL
