MODEL 1
REMARK minimizedAffinity 4.16077232
REMARK minimizedRMSD -1
REMARK  3 active torsions:
REMARK  status: ('A' for Active; 'I' for Inactive)
REMARK    1  A    between atoms: C3'_2  and  C2'_3 
REMARK    2  A    between atoms: C2'_3  and  C1'_4 
REMARK    3  A    between atoms: C1'_4  and  C1_5 
ROOT
ATOM      1  C1  N4B d   1       3.623   3.557   1.896  0.00  0.00    -0.075 A 
ATOM      2  C2  N4B d   1       2.882   4.760   1.894  0.00  0.00     0.002 A 
ATOM      3  C3  N4B d   1       3.533   5.967   1.830  0.00  0.00     0.002 A 
ATOM      4  C4  N4B d   1       4.919   5.998   1.785  0.00  0.00    -0.004 A 
ATOM      5  C5  N4B d   1       5.626   4.832   1.761  0.00  0.00     0.002 A 
ATOM      6  C6  N4B d   1       4.985   3.611   1.821  0.00  0.00     0.002 A 
ENDROOT
BRANCH   1   7
ATOM      7  C1' N4B d   1       2.961   2.216   2.051  0.00  0.00     0.057 C 
BRANCH   7   8
ATOM      8  C2' N4B d   1       1.448   2.391   1.958  0.00  0.00     0.009 C 
BRANCH   8   9
ATOM      9  C3' N4B d   1       0.805   1.325   1.088  0.00  0.00     0.004 C 
ATOM     10  C4' N4B d   1      -0.531   1.742   0.550  0.00  0.00     0.003 C 
ENDBRANCH   8   9
ENDBRANCH   7   8
ENDBRANCH   1   7
TORSDOF 3
ENDMDL
