MODEL 1
REMARK minimizedAffinity 0.0572325476
REMARK minimizedRMSD -1
REMARK  3 active torsions:
REMARK  status: ('A' for Active; 'I' for Inactive)
REMARK    1  A    between atoms: C3'_2  and  C2'_3 
REMARK    2  A    between atoms: C2'_3  and  C1'_4 
REMARK    3  A    between atoms: C1'_4  and  C1_5 
ROOT
ATOM      1  C1  N4B d   1       1.396   2.269   1.627  0.00  0.00    -0.075 A 
ATOM      2  C2  N4B d   1       1.000   1.506   0.506  0.00  0.00     0.002 A 
ATOM      3  C3  N4B d   1      -0.310   1.117   0.369  0.00  0.00     0.002 A 
ATOM      4  C4  N4B d   1      -1.234   1.462   1.344  0.00  0.00    -0.004 A 
ATOM      5  C5  N4B d   1      -0.848   2.220   2.411  0.00  0.00     0.002 A 
ATOM      6  C6  N4B d   1       0.464   2.622   2.559  0.00  0.00     0.002 A 
ENDROOT
BRANCH   1   7
ATOM      7  C1' N4B d   1       2.833   2.645   1.864  0.00  0.00     0.057 C 
BRANCH   7   8
ATOM      8  C2' N4B d   1       2.953   4.165   1.908  0.00  0.00     0.009 C 
BRANCH   8   9
ATOM      9  C3' N4B d   1       4.395   4.625   1.786  0.00  0.00     0.004 C 
ATOM     10  C4' N4B d   1       4.519   5.999   1.197  0.00  0.00     0.003 C 
ENDBRANCH   8   9
ENDBRANCH   7   8
ENDBRANCH   1   7
TORSDOF 3
ENDMDL
