MODEL 1
REMARK minimizedAffinity 4.00501871
REMARK minimizedRMSD -1
REMARK  3 active torsions:
REMARK  status: ('A' for Active; 'I' for Inactive)
REMARK    1  A    between atoms: C3'_2  and  C2'_3 
REMARK    2  A    between atoms: C2'_3  and  C1'_4 
REMARK    3  A    between atoms: C1'_4  and  C1_5 
ROOT
ATOM      1  C1  N4B d   1       1.383   1.610   1.221  0.00  0.00    -0.075 A 
ATOM      2  C2  N4B d   1      -0.027   1.674   1.185  0.00  0.00     0.002 A 
ATOM      3  C3  N4B d   1      -0.704   2.441   2.102  0.00  0.00     0.002 A 
ATOM      4  C4  N4B d   1       0.005   3.135   3.071  0.00  0.00    -0.004 A 
ATOM      5  C5  N4B d   1       1.368   3.088   3.084  0.00  0.00     0.002 A 
ATOM      6  C6  N4B d   1       2.061   2.325   2.166  0.00  0.00     0.002 A 
ENDROOT
BRANCH   1   7
ATOM      7  C1' N4B d   1       2.162   0.718   0.294  0.00  0.00     0.057 C 
BRANCH   7   8
ATOM      8  C2' N4B d   1       1.450   0.653  -1.054  0.00  0.00     0.009 C 
BRANCH   8   9
ATOM      9  C3' N4B d   1       2.377   1.007  -2.204  0.00  0.00     0.004 C 
ATOM     10  C4' N4B d   1       1.660   1.653  -3.352  0.00  0.00     0.003 C 
ENDBRANCH   8   9
ENDBRANCH   7   8
ENDBRANCH   1   7
TORSDOF 3
ENDMDL
