MODEL 1
REMARK minimizedAffinity 8.53111362
REMARK minimizedRMSD -1
REMARK  3 active torsions:
REMARK  status: ('A' for Active; 'I' for Inactive)
REMARK    1  A    between atoms: C3'_2  and  C2'_3 
REMARK    2  A    between atoms: C2'_3  and  C1'_4 
REMARK    3  A    between atoms: C1'_4  and  C1_5 
ROOT
ATOM      1  C1  N4B d   1       1.297   2.547   2.340  0.00  0.00    -0.075 A 
ATOM      2  C2  N4B d   1      -0.085   2.830   2.277  0.00  0.00     0.002 A 
ATOM      3  C3  N4B d   1      -0.901   2.087   1.459  0.00  0.00     0.002 A 
ATOM      4  C4  N4B d   1      -0.357   1.073   0.685  0.00  0.00    -0.004 A 
ATOM      5  C5  N4B d   1       0.975   0.790   0.771  0.00  0.00     0.002 A 
ATOM      6  C6  N4B d   1       1.806   1.526   1.591  0.00  0.00     0.002 A 
ENDROOT
BRANCH   1   7
ATOM      7  C1' N4B d   1       2.243   3.387   3.153  0.00  0.00     0.057 C 
BRANCH   7   8
ATOM      8  C2' N4B d   1       3.364   3.896   2.251  0.00  0.00     0.009 C 
BRANCH   8   9
ATOM      9  C3' N4B d   1       3.685   5.357   2.512  0.00  0.00     0.004 C 
ATOM     10  C4' N4B d   1       4.432   5.999   1.381  0.00  0.00     0.003 C 
ENDBRANCH   8   9
ENDBRANCH   7   8
ENDBRANCH   1   7
TORSDOF 3
ENDMDL
