MODEL 1
REMARK minimizedAffinity -4.05677366
REMARK minimizedRMSD -1
REMARK  1 active torsions:
REMARK  status: ('A' for Active; 'I' for Inactive)
REMARK    1  A    between atoms: N_2  and  C1_3 
ROOT
ATOM      1  C1  UNL d   1      -3.035   1.154  -2.917  0.00  0.00     0.143 A 
ATOM      2  C2  UNL d   1      -3.235  -0.035  -2.207  0.00  0.00    -0.057 A 
ATOM      3  C3  UNL d   1      -4.321  -0.188  -1.338  0.00  0.00     0.033 A 
ATOM      4  C4  UNL d   1      -5.214   0.860  -1.140  0.00  0.00    -0.042 A 
ATOM      5  C5  UNL d   1      -5.021   2.060  -1.816  0.00  0.00     0.033 A 
ATOM      6  C6  UNL d   1      -3.938   2.204  -2.689  0.00  0.00    -0.057 A 
ENDROOT
BRANCH   1   7
ATOM      7  N   UNL d   1      -1.919   1.401  -3.721  0.00  0.00    -0.732 N 
ATOM      8  C   UNL d   1      -1.560   2.755  -4.086  0.00  0.00     0.284 C 
ATOM      9  H3  UNL d   1      -1.127   0.812  -3.478  0.00  0.00     0.395 HD
ENDBRANCH   1   7
TORSDOF 1
ENDMDL
