MODEL 1
REMARK minimizedAffinity -1.10875249
REMARK minimizedRMSD -1
REMARK  1 active torsions:
REMARK  status: ('A' for Active; 'I' for Inactive)
REMARK    1  A    between atoms: N_2  and  C1_3 
ROOT
ATOM      1  C1  UNL d   1       1.889  -1.126   3.036  0.00  0.00     0.143 A 
ATOM      2  C2  UNL d   1       2.141  -0.756   1.711  0.00  0.00    -0.057 A 
ATOM      3  C3  UNL d   1       3.442  -0.496   1.264  0.00  0.00     0.033 A 
ATOM      4  C4  UNL d   1       4.515  -0.573   2.146  0.00  0.00    -0.042 A 
ATOM      5  C5  UNL d   1       4.285  -0.915   3.474  0.00  0.00     0.033 A 
ATOM      6  C6  UNL d   1       2.984  -1.180   3.912  0.00  0.00    -0.057 A 
ENDROOT
BRANCH   1   7
ATOM      7  N   UNL d   1       0.608  -1.301   3.564  0.00  0.00    -0.732 N 
ATOM      8  C   UNL d   1       0.401  -1.349   4.996  0.00  0.00     0.284 C 
ATOM      9  H3  UNL d   1      -0.097  -0.768   3.060  0.00  0.00     0.395 HD
ENDBRANCH   1   7
TORSDOF 1
ENDMDL
