MODEL 1
REMARK minimizedAffinity -1.50728214
REMARK minimizedRMSD -1
REMARK  1 active torsions:
REMARK  status: ('A' for Active; 'I' for Inactive)
REMARK    1  A    between atoms: N_2  and  C1_3 
ROOT
ATOM      1  C1  UNL d   1       2.175  -1.006   2.091  0.00  0.00     0.143 A 
ATOM      2  C2  UNL d   1       3.353  -0.512   1.518  0.00  0.00    -0.057 A 
ATOM      3  C3  UNL d   1       4.532  -0.403   2.264  0.00  0.00     0.033 A 
ATOM      4  C4  UNL d   1       4.548  -0.758   3.609  0.00  0.00    -0.042 A 
ATOM      5  C5  UNL d   1       3.383  -1.227   4.206  0.00  0.00     0.033 A 
ATOM      6  C6  UNL d   1       2.210  -1.341   3.454  0.00  0.00    -0.057 A 
ENDROOT
BRANCH   1   7
ATOM      7  N   UNL d   1       0.946  -1.046   1.429  0.00  0.00    -0.732 N 
ATOM      8  C   UNL d   1       0.567   0.008   0.513  0.00  0.00     0.284 C 
ATOM      9  H3  UNL d   1       0.709  -1.982   1.107  0.00  0.00     0.395 HD
ENDBRANCH   1   7
TORSDOF 1
ENDMDL
