MODEL 1
REMARK minimizedAffinity 0.857752264
REMARK minimizedRMSD -1
REMARK  1 active torsions:
REMARK  status: ('A' for Active; 'I' for Inactive)
REMARK    1  A    between atoms: N_2  and  C1_3 
ROOT
ATOM      1  C1  UNL d   1      -3.004   1.687  -3.720  0.00  0.00     0.143 A 
ATOM      2  C2  UNL d   1      -1.651   2.043  -3.693  0.00  0.00    -0.057 A 
ATOM      3  C3  UNL d   1      -1.146   3.040  -4.537  0.00  0.00     0.033 A 
ATOM      4  C4  UNL d   1      -1.982   3.680  -5.446  0.00  0.00    -0.042 A 
ATOM      5  C5  UNL d   1      -3.324   3.324  -5.508  0.00  0.00     0.033 A 
ATOM      6  C6  UNL d   1      -3.824   2.333  -4.658  0.00  0.00    -0.057 A 
ENDROOT
BRANCH   1   7
ATOM      7  N   UNL d   1      -3.546   0.636  -2.977  0.00  0.00    -0.732 N 
ATOM      8  C   UNL d   1      -3.609   0.711  -1.533  0.00  0.00     0.284 C 
ATOM      9  H3  UNL d   1      -4.379   0.244  -3.409  0.00  0.00     0.395 HD
ENDBRANCH   1   7
TORSDOF 1
ENDMDL
