MODEL 1
REMARK minimizedAffinity -2.48939562
REMARK minimizedRMSD -1
REMARK  1 active torsions:
REMARK  status: ('A' for Active; 'I' for Inactive)
REMARK    1  A    between atoms: N_2  and  C1_3 
ROOT
ATOM      1  C1  UNL d   1       0.869  -0.672   1.652  0.00  0.00     0.143 A 
ATOM      2  C2  UNL d   1       0.799  -1.079   2.988  0.00  0.00    -0.057 A 
ATOM      3  C3  UNL d   1       1.418  -2.258   3.421  0.00  0.00     0.033 A 
ATOM      4  C4  UNL d   1       2.095  -3.068   2.516  0.00  0.00    -0.042 A 
ATOM      5  C5  UNL d   1       2.156  -2.696   1.178  0.00  0.00     0.033 A 
ATOM      6  C6  UNL d   1       1.542  -1.514   0.753  0.00  0.00    -0.057 A 
ENDROOT
BRANCH   1   7
ATOM      7  N   UNL d   1       0.191   0.438   1.140  0.00  0.00    -0.732 N 
ATOM      8  C   UNL d   1      -1.162   0.311   0.643  0.00  0.00     0.284 C 
ATOM      9  H3  UNL d   1       0.356   1.279   1.688  0.00  0.00     0.395 HD
ENDBRANCH   1   7
TORSDOF 1
ENDMDL
