MODEL 1
REMARK minimizedAffinity 0.918512225
REMARK minimizedRMSD -1
REMARK  1 active torsions:
REMARK  status: ('A' for Active; 'I' for Inactive)
REMARK    1  A    between atoms: N_2  and  C1_3 
ROOT
ATOM      1  C1  UNL d   1       2.635   4.576   0.573  0.00  0.00     0.143 A 
ATOM      2  C2  UNL d   1       1.820   4.097  -0.458  0.00  0.00    -0.057 A 
ATOM      3  C3  UNL d   1       0.468   4.454  -0.540  0.00  0.00     0.033 A 
ATOM      4  C4  UNL d   1      -0.101   5.275   0.428  0.00  0.00    -0.042 A 
ATOM      5  C5  UNL d   1       0.684   5.742   1.476  0.00  0.00     0.033 A 
ATOM      6  C6  UNL d   1       2.035   5.388   1.549  0.00  0.00    -0.057 A 
ENDROOT
BRANCH   1   7
ATOM      7  N   UNL d   1       3.961   4.179   0.765  0.00  0.00    -0.732 N 
ATOM      8  C   UNL d   1       4.980   4.522  -0.203  0.00  0.00     0.284 C 
ATOM      9  H3  UNL d   1       4.258   4.273   1.733  0.00  0.00     0.395 HD
ENDBRANCH   1   7
TORSDOF 1
ENDMDL
