MODEL 1
REMARK minimizedAffinity 6.08776903
REMARK minimizedRMSD -1
REMARK  1 active torsions:
REMARK  status: ('A' for Active; 'I' for Inactive)
REMARK    1  A    between atoms: N_2  and  C1_3 
ROOT
ATOM      1  C1  UNL d   1       3.193  -0.975   1.798  0.00  0.00     0.143 A 
ATOM      2  C2  UNL d   1       4.549  -0.633   1.764  0.00  0.00    -0.057 A 
ATOM      3  C3  UNL d   1       5.360  -0.767   2.898  0.00  0.00     0.033 A 
ATOM      4  C4  UNL d   1       4.820  -1.219   4.097  0.00  0.00    -0.042 A 
ATOM      5  C5  UNL d   1       3.469  -1.541   4.161  0.00  0.00     0.033 A 
ATOM      6  C6  UNL d   1       2.666  -1.411   3.024  0.00  0.00    -0.057 A 
ENDROOT
BRANCH   1   7
ATOM      7  N   UNL d   1       2.312  -0.771   0.733  0.00  0.00    -0.732 N 
ATOM      8  C   UNL d   1       0.909  -1.102   0.862  0.00  0.00     0.284 C 
ATOM      9  H3  UNL d   1       2.490   0.103   0.244  0.00  0.00     0.395 HD
ENDBRANCH   1   7
TORSDOF 1
ENDMDL
