MODEL 1
REMARK minimizedAffinity 4.63466263
REMARK minimizedRMSD -1
REMARK  1 active torsions:
REMARK  status: ('A' for Active; 'I' for Inactive)
REMARK    1  A    between atoms: N_2  and  C1_3 
ROOT
ATOM      1  C1  UNL d   1       2.484  -1.045   1.465  0.00  0.00     0.143 A 
ATOM      2  C2  UNL d   1       3.696  -0.531   0.992  0.00  0.00    -0.057 A 
ATOM      3  C3  UNL d   1       4.830  -0.477   1.811  0.00  0.00     0.033 A 
ATOM      4  C4  UNL d   1       4.764  -0.910   3.131  0.00  0.00    -0.042 A 
ATOM      5  C5  UNL d   1       3.563  -1.402   3.630  0.00  0.00     0.033 A 
ATOM      6  C6  UNL d   1       2.436  -1.460   2.806  0.00  0.00    -0.057 A 
ENDROOT
BRANCH   1   7
ATOM      7  N   UNL d   1       1.295  -1.035   0.731  0.00  0.00    -0.732 N 
ATOM      8  C   UNL d   1       1.065  -0.030  -0.285  0.00  0.00     0.284 C 
ATOM      9  H3  UNL d   1       0.994  -1.970   0.467  0.00  0.00     0.395 HD
ENDBRANCH   1   7
TORSDOF 1
ENDMDL
