MODEL 1
REMARK minimizedAffinity 2.51547503
REMARK minimizedRMSD -1
REMARK  1 active torsions:
REMARK  status: ('A' for Active; 'I' for Inactive)
REMARK    1  A    between atoms: N_2  and  C1_3 
ROOT
ATOM      1  C1  UNL d   1      -0.672  -2.441   0.572  0.00  0.00     0.143 A 
ATOM      2  C2  UNL d   1      -0.438  -1.149   1.056  0.00  0.00    -0.057 A 
ATOM      3  C3  UNL d   1       0.593  -0.356   0.538  0.00  0.00     0.033 A 
ATOM      4  C4  UNL d   1       1.430  -0.854  -0.455  0.00  0.00    -0.042 A 
ATOM      5  C5  UNL d   1       1.232  -2.144  -0.933  0.00  0.00     0.033 A 
ATOM      6  C6  UNL d   1       0.196  -2.929  -0.417  0.00  0.00    -0.057 A 
ENDROOT
BRANCH   1   7
ATOM      7  N   UNL d   1      -1.618  -3.314   1.114  0.00  0.00    -0.732 N 
ATOM      8  C   UNL d   1      -2.617  -3.935   0.270  0.00  0.00     0.284 C 
ATOM      9  H3  UNL d   1      -1.218  -3.937   1.811  0.00  0.00     0.395 HD
ENDBRANCH   1   7
TORSDOF 1
ENDMDL
