MODEL 1
REMARK minimizedAffinity 6.56198502
REMARK minimizedRMSD -1
REMARK  1 active torsions:
REMARK  status: ('A' for Active; 'I' for Inactive)
REMARK    1  A    between atoms: N_2  and  C1_3 
ROOT
ATOM      1  C1  UNL d   1      -0.510  -2.408   0.688  0.00  0.00     0.143 A 
ATOM      2  C2  UNL d   1       0.860  -2.176   0.523  0.00  0.00    -0.057 A 
ATOM      3  C3  UNL d   1       1.389  -0.881   0.584  0.00  0.00     0.033 A 
ATOM      4  C4  UNL d   1       0.551   0.211   0.782  0.00  0.00    -0.042 A 
ATOM      5  C5  UNL d   1      -0.817   0.006   0.924  0.00  0.00     0.033 A 
ATOM      6  C6  UNL d   1      -1.339  -1.290   0.869  0.00  0.00    -0.057 A 
ENDROOT
BRANCH   1   7
ATOM      7  N   UNL d   1      -1.110  -3.661   0.540  0.00  0.00    -0.732 N 
ATOM      8  C   UNL d   1      -2.379  -3.950   1.173  0.00  0.00     0.284 C 
ATOM      9  H3  UNL d   1      -1.026  -4.023  -0.407  0.00  0.00     0.395 HD
ENDBRANCH   1   7
TORSDOF 1
ENDMDL
