MODEL 1
REMARK minimizedAffinity 4.12578821
REMARK minimizedRMSD -1
REMARK  1 active torsions:
REMARK  status: ('A' for Active; 'I' for Inactive)
REMARK    1  A    between atoms: N_2  and  C1_3 
ROOT
ATOM      1  C1  UNL d   1      -0.870   1.119  -1.613  0.00  0.00     0.143 A 
ATOM      2  C2  UNL d   1       0.260   0.681  -0.913  0.00  0.00    -0.057 A 
ATOM      3  C3  UNL d   1       0.172   0.268   0.422  0.00  0.00     0.033 A 
ATOM      4  C4  UNL d   1      -1.046   0.314   1.092  0.00  0.00    -0.042 A 
ATOM      5  C5  UNL d   1      -2.177   0.769   0.424  0.00  0.00     0.033 A 
ATOM      6  C6  UNL d   1      -2.085   1.173  -0.911  0.00  0.00    -0.057 A 
ENDROOT
BRANCH   1   7
ATOM      7  N   UNL d   1      -0.830   1.634  -2.910  0.00  0.00    -0.732 N 
ATOM      8  C   UNL d   1      -0.473   3.018  -3.143  0.00  0.00     0.284 C 
ATOM      9  H3  UNL d   1      -0.420   0.982  -3.575  0.00  0.00     0.395 HD
ENDBRANCH   1   7
TORSDOF 1
ENDMDL
