MODEL 1
REMARK minimizedAffinity 1.3937633
REMARK minimizedRMSD -1
REMARK  1 active torsions:
REMARK  status: ('A' for Active; 'I' for Inactive)
REMARK    1  A    between atoms: N_2  and  C1_3 
ROOT
ATOM      1  C1  UNL d   1       0.143  -5.466  -5.485  0.00  0.00     0.143 A 
ATOM      2  C2  UNL d   1       0.248  -4.534  -4.447  0.00  0.00    -0.057 A 
ATOM      3  C3  UNL d   1       1.496  -4.111  -3.973  0.00  0.00     0.033 A 
ATOM      4  C4  UNL d   1       2.665  -4.638  -4.511  0.00  0.00    -0.042 A 
ATOM      5  C5  UNL d   1       2.585  -5.585  -5.526  0.00  0.00     0.033 A 
ATOM      6  C6  UNL d   1       1.336  -5.997  -6.000  0.00  0.00    -0.057 A 
ENDROOT
BRANCH   1   7
ATOM      7  N   UNL d   1      -1.068  -5.999  -5.933  0.00  0.00    -0.732 N 
ATOM      8  C   UNL d   1      -2.310  -5.665  -5.270  0.00  0.00     0.284 C 
ATOM      9  H3  UNL d   1      -1.131  -6.021  -6.948  0.00  0.00     0.395 HD
ENDBRANCH   1   7
TORSDOF 1
ENDMDL
