MODEL 1
REMARK minimizedAffinity 1.92931151
REMARK minimizedRMSD -1
REMARK  1 active torsions:
REMARK  status: ('A' for Active; 'I' for Inactive)
REMARK    1  A    between atoms: N_2  and  C1_3 
ROOT
ATOM      1  C1  UNL d   1       1.260  -0.466   1.156  0.00  0.00     0.143 A 
ATOM      2  C2  UNL d   1       2.277  -0.476   0.196  0.00  0.00    -0.057 A 
ATOM      3  C3  UNL d   1       3.585  -0.851   0.529  0.00  0.00     0.033 A 
ATOM      4  C4  UNL d   1       3.905  -1.195   1.838  0.00  0.00    -0.042 A 
ATOM      5  C5  UNL d   1       2.915  -1.167   2.814  0.00  0.00     0.033 A 
ATOM      6  C6  UNL d   1       1.609  -0.798   2.474  0.00  0.00    -0.057 A 
ENDROOT
BRANCH   1   7
ATOM      7  N   UNL d   1      -0.037  -0.008   0.910  0.00  0.00    -0.732 N 
ATOM      8  C   UNL d   1      -0.259   1.282   0.293  0.00  0.00     0.284 C 
ATOM      9  H3  UNL d   1      -0.650  -0.744   0.565  0.00  0.00     0.395 HD
ENDBRANCH   1   7
TORSDOF 1
ENDMDL
