MODEL 1
REMARK minimizedAffinity -4.81435585
REMARK minimizedRMSD -1
REMARK  0 active torsions:
REMARK  status: ('A' for Active; 'I' for Inactive)
ROOT
ATOM      1  C1  BNZ d   1       0.898   1.520  -0.021  0.00  0.00     0.000 A 
ATOM      2  C2  BNZ d   1       0.314   0.282   0.002  0.00  0.00     0.000 A 
ATOM      3  C3  BNZ d   1      -0.975   0.122   0.428  0.00  0.00     0.000 A 
ATOM      4  C4  BNZ d   1      -1.665   1.194   0.868  0.00  0.00     0.000 A 
ATOM      5  C5  BNZ d   1      -1.087   2.448   0.861  0.00  0.00     0.000 A 
ATOM      6  C6  BNZ d   1       0.197   2.611   0.394  0.00  0.00     0.000 A 
ENDROOT
TORSDOF 0
ENDMDL
