MODEL 1
REMARK minimizedAffinity -4.41060066
REMARK minimizedRMSD -1
REMARK  0 active torsions:
REMARK  status: ('A' for Active; 'I' for Inactive)
ROOT
ATOM      1  C1  BNZ d   1       0.066  -0.228   0.117  0.00  0.00     0.000 A 
ATOM      2  C2  BNZ d   1       0.510   0.984  -0.342  0.00  0.00     0.000 A 
ATOM      3  C3  BNZ d   1      -0.068   2.147   0.082  0.00  0.00     0.000 A 
ATOM      4  C4  BNZ d   1      -1.114   2.097   0.933  0.00  0.00     0.000 A 
ATOM      5  C5  BNZ d   1      -1.579   0.883   1.397  0.00  0.00     0.000 A 
ATOM      6  C6  BNZ d   1      -0.969  -0.285   0.998  0.00  0.00     0.000 A 
ENDROOT
TORSDOF 0
ENDMDL
