MODEL 1
REMARK minimizedAffinity -4.46116781
REMARK minimizedRMSD -1
REMARK  0 active torsions:
REMARK  status: ('A' for Active; 'I' for Inactive)
ROOT
ATOM      1  C1  BNZ d   1      -0.480   0.744   0.187  0.00  0.00     0.000 A 
ATOM      2  C2  BNZ d   1       0.860   1.010   0.086  0.00  0.00     0.000 A 
ATOM      3  C3  BNZ d   1       1.339   2.276   0.277  0.00  0.00     0.000 A 
ATOM      4  C4  BNZ d   1       0.475   3.281   0.528  0.00  0.00     0.000 A 
ATOM      5  C5  BNZ d   1      -0.880   3.031   0.623  0.00  0.00     0.000 A 
ATOM      6  C6  BNZ d   1      -1.354   1.748   0.469  0.00  0.00     0.000 A 
ENDROOT
TORSDOF 0
ENDMDL
