MODEL 1
REMARK minimizedAffinity -2.12238407
REMARK minimizedRMSD -1
REMARK  0 active torsions:
REMARK  status: ('A' for Active; 'I' for Inactive)
ROOT
ATOM      1  C1  BNZ d   1      -0.749   2.611   1.140  0.00  0.00     0.000 A 
ATOM      2  C2  BNZ d   1       0.250   1.742   0.789  0.00  0.00     0.000 A 
ATOM      3  C3  BNZ d   1      -0.039   0.467   0.391  0.00  0.00     0.000 A 
ATOM      4  C4  BNZ d   1      -1.321   0.050   0.382  0.00  0.00     0.000 A 
ATOM      5  C5  BNZ d   1      -2.339   0.910   0.742  0.00  0.00     0.000 A 
ATOM      6  C6  BNZ d   1      -2.048   2.205   1.105  0.00  0.00     0.000 A 
ENDROOT
TORSDOF 0
ENDMDL
