MODEL 1
REMARK minimizedAffinity -2.6452837
REMARK minimizedRMSD -1
REMARK  0 active torsions:
REMARK  status: ('A' for Active; 'I' for Inactive)
ROOT
ATOM      1  C1  BNZ d   1      -1.744   0.478   0.890  0.00  0.00     0.000 A 
ATOM      2  C2  BNZ d   1      -1.127  -0.609   0.329  0.00  0.00     0.000 A 
ATOM      3  C3  BNZ d   1       0.068  -0.477  -0.320  0.00  0.00     0.000 A 
ATOM      4  C4  BNZ d   1       0.626   0.745  -0.443  0.00  0.00     0.000 A 
ATOM      5  C5  BNZ d   1       0.012   1.852   0.109  0.00  0.00     0.000 A 
ATOM      6  C6  BNZ d   1      -1.172   1.710   0.795  0.00  0.00     0.000 A 
ENDROOT
TORSDOF 0
ENDMDL
