MODEL 1
REMARK minimizedAffinity -4.39821768
REMARK minimizedRMSD -1
REMARK  0 active torsions:
REMARK  status: ('A' for Active; 'I' for Inactive)
ROOT
ATOM      1  C1  BNZ d   1       0.589   1.988  -0.083  0.00  0.00     0.000 A 
ATOM      2  C2  BNZ d   1       0.468   0.626  -0.018  0.00  0.00     0.000 A 
ATOM      3  C3  BNZ d   1      -0.626   0.047   0.563  0.00  0.00     0.000 A 
ATOM      4  C4  BNZ d   1      -1.576   0.829   1.113  0.00  0.00     0.000 A 
ATOM      5  C5  BNZ d   1      -1.464   2.204   1.064  0.00  0.00     0.000 A 
ATOM      6  C6  BNZ d   1      -0.381   2.784   0.444  0.00  0.00     0.000 A 
ENDROOT
TORSDOF 0
ENDMDL
