MODEL 1
REMARK minimizedAffinity -2.9390142
REMARK minimizedRMSD -1
REMARK  0 active torsions:
REMARK  status: ('A' for Active; 'I' for Inactive)
ROOT
ATOM      1  C1  BNZ d   1      -0.649  -0.499   0.723  0.00  0.00     0.000 A 
ATOM      2  C2  BNZ d   1      -1.690   0.094   1.387  0.00  0.00     0.000 A 
ATOM      3  C3  BNZ d   1      -1.930   1.433   1.258  0.00  0.00     0.000 A 
ATOM      4  C4  BNZ d   1      -1.105   2.185   0.500  0.00  0.00     0.000 A 
ATOM      5  C5  BNZ d   1      -0.046   1.603  -0.167  0.00  0.00     0.000 A 
ATOM      6  C6  BNZ d   1       0.169   0.248  -0.067  0.00  0.00     0.000 A 
ENDROOT
TORSDOF 0
ENDMDL
