MODEL 1
REMARK minimizedAffinity -4.04601574
REMARK minimizedRMSD -1
REMARK  0 active torsions:
REMARK  status: ('A' for Active; 'I' for Inactive)
ROOT
ATOM      1  C1  BNZ d   1      -1.565   1.037   0.696  0.00  0.00     0.000 A 
ATOM      2  C2  BNZ d   1      -0.924  -0.127   0.364  0.00  0.00     0.000 A 
ATOM      3  C3  BNZ d   1       0.341  -0.107  -0.152  0.00  0.00     0.000 A 
ATOM      4  C4  BNZ d   1       0.949   1.077  -0.373  0.00  0.00     0.000 A 
ATOM      5  C5  BNZ d   1       0.312   2.260  -0.052  0.00  0.00     0.000 A 
ATOM      6  C6  BNZ d   1      -0.946   2.234   0.504  0.00  0.00     0.000 A 
ENDROOT
TORSDOF 0
ENDMDL
