MODEL 1
REMARK minimizedAffinity -4.67461967
REMARK minimizedRMSD -1
REMARK  0 active torsions:
REMARK  status: ('A' for Active; 'I' for Inactive)
ROOT
ATOM      1  C1  BNZ d   1      -0.919   1.504   0.971  0.00  0.00     0.000 A 
ATOM      2  C2  BNZ d   1      -0.536   2.783   1.278  0.00  0.00     0.000 A 
ATOM      3  C3  BNZ d   1       0.481   3.392   0.597  0.00  0.00     0.000 A 
ATOM      4  C4  BNZ d   1       1.140   2.708  -0.361  0.00  0.00     0.000 A 
ATOM      5  C5  BNZ d   1       0.773   1.415  -0.675  0.00  0.00     0.000 A 
ATOM      6  C6  BNZ d   1      -0.277   0.819  -0.014  0.00  0.00     0.000 A 
ENDROOT
TORSDOF 0
ENDMDL
