MODEL 1
REMARK minimizedAffinity -4.51163387
REMARK minimizedRMSD -1
REMARK  0 active torsions:
REMARK  status: ('A' for Active; 'I' for Inactive)
ROOT
ATOM      1  C1  BNZ d   1      -0.092   0.780   0.515  0.00  0.00     0.000 A 
ATOM      2  C2  BNZ d   1       1.198   1.209   0.682  0.00  0.00     0.000 A 
ATOM      3  C3  BNZ d   1       1.535   2.516   0.463  0.00  0.00     0.000 A 
ATOM      4  C4  BNZ d   1       0.592   3.382   0.039  0.00  0.00     0.000 A 
ATOM      5  C5  BNZ d   1      -0.711   2.963  -0.143  0.00  0.00     0.000 A 
ATOM      6  C6  BNZ d   1      -1.055   1.656   0.116  0.00  0.00     0.000 A 
ENDROOT
TORSDOF 0
ENDMDL
