MODEL 1
REMARK minimizedAffinity -4.51330423
REMARK minimizedRMSD -1
REMARK  0 active torsions:
REMARK  status: ('A' for Active; 'I' for Inactive)
ROOT
ATOM      1  C1  BNZ d   1       1.431   2.783  -0.130  0.00  0.00     0.000 A 
ATOM      2  C2  BNZ d   1       1.271   1.439  -0.334  0.00  0.00     0.000 A 
ATOM      3  C3  BNZ d   1       0.092   0.820  -0.025  0.00  0.00     0.000 A 
ATOM      4  C4  BNZ d   1      -0.910   1.537   0.524  0.00  0.00     0.000 A 
ATOM      5  C5  BNZ d   1      -0.760   2.892   0.744  0.00  0.00     0.000 A 
ATOM      6  C6  BNZ d   1       0.414   3.519   0.396  0.00  0.00     0.000 A 
ENDROOT
TORSDOF 0
ENDMDL
