MODEL 1
REMARK minimizedAffinity 1.68823946
REMARK minimizedRMSD -1
REMARK  0 active torsions:
REMARK  status: ('A' for Active; 'I' for Inactive)
ROOT
ATOM      1  C1  BNZ d   1      -0.713  -0.507   0.624  0.00  0.00     0.000 A 
ATOM      2  C2  BNZ d   1      -1.812   0.258   0.908  0.00  0.00     0.000 A 
ATOM      3  C3  BNZ d   1      -1.676   1.557   1.313  0.00  0.00     0.000 A 
ATOM      4  C4  BNZ d   1      -0.441   2.075   1.472  0.00  0.00     0.000 A 
ATOM      5  C5  BNZ d   1       0.677   1.314   1.198  0.00  0.00     0.000 A 
ATOM      6  C6  BNZ d   1       0.535   0.020   0.753  0.00  0.00     0.000 A 
ENDROOT
TORSDOF 0
ENDMDL
