MODEL 1
REMARK minimizedAffinity 12.6444798
REMARK minimizedRMSD -1
REMARK  0 active torsions:
REMARK  status: ('A' for Active; 'I' for Inactive)
ROOT
ATOM      1  C   UNL d   1      -4.744  -0.223   1.570  0.00  0.00    -0.002 A 
ATOM      2  C1  UNL d   1      -5.597   0.801   1.185  0.00  0.00     0.010 A 
ATOM      3  C2  UNL d   1      -5.154   1.811   0.328  0.00  0.00     0.041 A 
ATOM      4  C3  UNL d   1      -3.826   1.772  -0.142  0.00  0.00    -0.075 A 
ATOM      5  S   UNL d   1      -3.065   2.900  -1.200  0.00  0.00     0.015 SA
ATOM      6  C4  UNL d   1      -1.589   2.049  -1.167  0.00  0.00     0.022 A 
ATOM      7  C5  UNL d   1      -1.657   0.929  -0.372  0.00  0.00     0.026 A 
ATOM      8  C6  UNL d   1      -2.948   0.751   0.231  0.00  0.00    -0.082 A 
ATOM      9  C7  UNL d   1      -3.427  -0.258   1.102  0.00  0.00     0.045 A 
ENDROOT
TORSDOF 0
ENDMDL
