MODEL 1
REMARK minimizedAffinity 5.05247831
REMARK minimizedRMSD -1
REMARK  0 active torsions:
REMARK  status: ('A' for Active; 'I' for Inactive)
ROOT
ATOM      1  C   UNL d   1       4.499   6.000   4.366  0.00  0.00    -0.002 A 
ATOM      2  C1  UNL d   1       4.486   5.055   5.382  0.00  0.00     0.010 A 
ATOM      3  C2  UNL d   1       4.861   3.734   5.128  0.00  0.00     0.041 A 
ATOM      4  C3  UNL d   1       5.255   3.376   3.823  0.00  0.00    -0.075 A 
ATOM      5  S   UNL d   1       5.756   1.819   3.279  0.00  0.00     0.015 SA
ATOM      6  C4  UNL d   1       6.000   2.371   1.685  0.00  0.00     0.022 A 
ATOM      7  C5  UNL d   1       5.710   3.709   1.554  0.00  0.00     0.026 A 
ATOM      8  C6  UNL d   1       5.277   4.310   2.784  0.00  0.00    -0.082 A 
ATOM      9  C7  UNL d   1       4.890   5.641   3.073  0.00  0.00     0.045 A 
ENDROOT
TORSDOF 0
ENDMDL
