MODEL 1
REMARK minimizedAffinity 8.70331383
REMARK minimizedRMSD -1
REMARK  0 active torsions:
REMARK  status: ('A' for Active; 'I' for Inactive)
ROOT
ATOM      1  C   UNL d   1      -1.484   0.440   0.865  0.00  0.00    -0.002 A 
ATOM      2  C1  UNL d   1      -2.124  -0.659   1.421  0.00  0.00     0.010 A 
ATOM      3  C2  UNL d   1      -3.516  -0.693   1.525  0.00  0.00     0.041 A 
ATOM      4  C3  UNL d   1      -4.261   0.405   1.054  0.00  0.00    -0.075 A 
ATOM      5  S   UNL d   1      -5.976   0.584   1.076  0.00  0.00     0.015 SA
ATOM      6  C4  UNL d   1      -5.900   2.123   0.347  0.00  0.00     0.022 A 
ATOM      7  C5  UNL d   1      -4.606   2.506   0.087  0.00  0.00     0.026 A 
ATOM      8  C6  UNL d   1      -3.640   1.523   0.489  0.00  0.00    -0.082 A 
ATOM      9  C7  UNL d   1      -2.227   1.528   0.399  0.00  0.00     0.045 A 
ENDROOT
TORSDOF 0
ENDMDL
