MODEL 1
REMARK minimizedAffinity 23.8544769
REMARK minimizedRMSD -1
REMARK  0 active torsions:
REMARK  status: ('A' for Active; 'I' for Inactive)
ROOT
ATOM      1  C   UNL d   1      -6.000   5.142  -5.999  0.00  0.00    -0.002 A 
ATOM      2  C1  UNL d   1      -4.923   5.999  -5.823  0.00  0.00     0.010 A 
ATOM      3  C2  UNL d   1      -3.826   5.612  -5.051  0.00  0.00     0.041 A 
ATOM      4  C3  UNL d   1      -3.828   4.335  -4.456  0.00  0.00    -0.075 A 
ATOM      5  S   UNL d   1      -2.593   3.646  -3.470  0.00  0.00     0.015 SA
ATOM      6  C4  UNL d   1      -3.465   2.196  -3.261  0.00  0.00     0.022 A 
ATOM      7  C5  UNL d   1      -4.671   2.221  -3.920  0.00  0.00     0.026 A 
ATOM      8  C6  UNL d   1      -4.900   3.453  -4.620  0.00  0.00    -0.082 A 
ATOM      9  C7  UNL d   1      -5.998   3.876  -5.407  0.00  0.00     0.045 A 
ENDROOT
TORSDOF 0
ENDMDL
