MODEL 1
REMARK minimizedAffinity 14.8641539
REMARK minimizedRMSD -1
REMARK  0 active torsions:
REMARK  status: ('A' for Active; 'I' for Inactive)
ROOT
ATOM      1  C   UNL d   1       2.747   1.733  -1.846  0.00  0.00    -0.002 A 
ATOM      2  C1  UNL d   1       2.724   0.480  -1.250  0.00  0.00     0.010 A 
ATOM      3  C2  UNL d   1       3.397   0.253  -0.048  0.00  0.00     0.041 A 
ATOM      4  C3  UNL d   1       4.099   1.318   0.552  0.00  0.00    -0.075 A 
ATOM      5  S   UNL d   1       4.995   1.273   2.025  0.00  0.00     0.015 SA
ATOM      6  C4  UNL d   1       5.428   2.917   1.898  0.00  0.00     0.022 A 
ATOM      7  C5  UNL d   1       4.910   3.500   0.765  0.00  0.00     0.026 A 
ATOM      8  C6  UNL d   1       4.135   2.589  -0.028  0.00  0.00    -0.082 A 
ATOM      9  C7  UNL d   1       3.444   2.787  -1.248  0.00  0.00     0.045 A 
ENDROOT
TORSDOF 0
ENDMDL
