MODEL 1
REMARK minimizedAffinity 3.03687716
REMARK minimizedRMSD -1
REMARK  0 active torsions:
REMARK  status: ('A' for Active; 'I' for Inactive)
ROOT
ATOM      1  C   UNL d   1       2.585  -5.494  -3.323  0.00  0.00    -0.002 A 
ATOM      2  C1  UNL d   1       2.030  -5.948  -4.511  0.00  0.00     0.010 A 
ATOM      3  C2  UNL d   1       0.645  -5.994  -4.675  0.00  0.00     0.041 A 
ATOM      4  C3  UNL d   1      -0.182  -5.571  -3.616  0.00  0.00    -0.075 A 
ATOM      5  S   UNL d   1      -1.906  -5.538  -3.592  0.00  0.00     0.015 SA
ATOM      6  C4  UNL d   1      -1.946  -4.920  -2.005  0.00  0.00     0.022 A 
ATOM      7  C5  UNL d   1      -0.685  -4.737  -1.490  0.00  0.00     0.026 A 
ATOM      8  C6  UNL d   1       0.353  -5.109  -2.411  0.00  0.00    -0.082 A 
ATOM      9  C7  UNL d   1       1.762  -5.074  -2.274  0.00  0.00     0.045 A 
ENDROOT
TORSDOF 0
ENDMDL
