MODEL 1
REMARK minimizedAffinity 3.8720026
REMARK minimizedRMSD -1
REMARK  0 active torsions:
REMARK  status: ('A' for Active; 'I' for Inactive)
ROOT
ATOM      1  C   UNL d   1       1.225   0.705  -0.258  0.00  0.00    -0.002 A 
ATOM      2  C1  UNL d   1       2.348   1.053   0.479  0.00  0.00     0.010 A 
ATOM      3  C2  UNL d   1       2.224   1.814   1.643  0.00  0.00     0.041 A 
ATOM      4  C3  UNL d   1       0.941   2.220   2.060  0.00  0.00    -0.075 A 
ATOM      5  S   UNL d   1       0.548   3.156   3.453  0.00  0.00     0.015 SA
ATOM      6  C4  UNL d   1      -1.119   3.114   3.103  0.00  0.00     0.022 A 
ATOM      7  C5  UNL d   1      -1.387   2.408   1.955  0.00  0.00     0.026 A 
ATOM      8  C6  UNL d   1      -0.204   1.881   1.334  0.00  0.00    -0.082 A 
ATOM      9  C7  UNL d   1      -0.046   1.110   0.158  0.00  0.00     0.045 A 
ENDROOT
TORSDOF 0
ENDMDL
