MODEL 1
REMARK minimizedAffinity 8.43782902
REMARK minimizedRMSD -1
REMARK  0 active torsions:
REMARK  status: ('A' for Active; 'I' for Inactive)
ROOT
ATOM      1  C   UNL d   1      -0.297   1.497  -4.783  0.00  0.00    -0.002 A 
ATOM      2  C1  UNL d   1      -1.484   0.869  -4.435  0.00  0.00     0.010 A 
ATOM      3  C2  UNL d   1      -2.708   1.522  -4.596  0.00  0.00     0.041 A 
ATOM      4  C3  UNL d   1      -2.718   2.829  -5.121  0.00  0.00    -0.075 A 
ATOM      5  S   UNL d   1      -4.098   3.823  -5.407  0.00  0.00     0.015 SA
ATOM      6  C4  UNL d   1      -3.144   5.105  -6.000  0.00  0.00     0.022 A 
ATOM      7  C5  UNL d   1      -1.803   4.800  -5.986  0.00  0.00     0.026 A 
ATOM      8  C6  UNL d   1      -1.536   3.483  -5.480  0.00  0.00    -0.082 A 
ATOM      9  C7  UNL d   1      -0.312   2.794  -5.303  0.00  0.00     0.045 A 
ENDROOT
TORSDOF 0
ENDMDL
