MODEL 1
REMARK minimizedAffinity 12.6385241
REMARK minimizedRMSD -1
REMARK  0 active torsions:
REMARK  status: ('A' for Active; 'I' for Inactive)
ROOT
ATOM      1  C   UNL d   1       0.251   1.415   1.645  0.00  0.00    -0.002 A 
ATOM      2  C1  UNL d   1      -0.718   1.803   0.730  0.00  0.00     0.010 A 
ATOM      3  C2  UNL d   1      -0.453   1.775  -0.641  0.00  0.00     0.041 A 
ATOM      4  C3  UNL d   1       0.815   1.344  -1.081  0.00  0.00    -0.075 A 
ATOM      5  S   UNL d   1       1.364   1.226  -2.711  0.00  0.00     0.015 SA
ATOM      6  C4  UNL d   1       2.897   0.657  -2.231  0.00  0.00     0.022 A 
ATOM      7  C5  UNL d   1       3.005   0.554  -0.865  0.00  0.00     0.026 A 
ATOM      8  C6  UNL d   1       1.806   0.948  -0.179  0.00  0.00    -0.082 A 
ATOM      9  C7  UNL d   1       1.507   0.989   1.204  0.00  0.00     0.045 A 
ENDROOT
TORSDOF 0
ENDMDL
