MODEL 1
REMARK minimizedAffinity 0.284474999
REMARK minimizedRMSD -1
REMARK  0 active torsions:
REMARK  status: ('A' for Active; 'I' for Inactive)
ROOT
ATOM      1  C1  DEN d   1       2.827  -3.119   2.032  0.00  0.00     0.130 A 
ATOM      2  C2  DEN d   1       2.855  -4.565   2.236  0.00  0.00    -0.031 A 
ATOM      3  C3  DEN d   1       1.557  -4.970   2.812  0.00  0.00     0.027 A 
ATOM      4  C4  DEN d   1      -0.485  -3.507   3.398  0.00  0.00     0.027 A 
ATOM      5  C5  DEN d   1      -0.977  -2.221   3.413  0.00  0.00    -0.003 A 
ATOM      6  C6  DEN d   1      -0.230  -1.148   3.004  0.00  0.00     0.001 A 
ATOM      7  C7  DEN d   1       1.036  -1.348   2.519  0.00  0.00     0.017 A 
ATOM      8  C8  DEN d   1       1.542  -2.641   2.508  0.00  0.00    -0.094 A 
ATOM      9  C9  DEN d   1       0.766  -3.714   2.914  0.00  0.00    -0.072 A 
ENDROOT
TORSDOF 0
ENDMDL
