MODEL 1
REMARK minimizedAffinity -0.238928229
REMARK minimizedRMSD -1
REMARK  0 active torsions:
REMARK  status: ('A' for Active; 'I' for Inactive)
ROOT
ATOM      1  C1  DEN d   1       1.932   3.680  -5.484  0.00  0.00     0.130 A 
ATOM      2  C2  DEN d   1       1.134   4.877  -5.737  0.00  0.00    -0.031 A 
ATOM      3  C3  DEN d   1       2.062   6.000  -5.982  0.00  0.00     0.027 A 
ATOM      4  C4  DEN d   1       4.641   6.000  -6.000  0.00  0.00     0.027 A 
ATOM      5  C5  DEN d   1       5.764   5.222  -5.827  0.00  0.00    -0.003 A 
ATOM      6  C6  DEN d   1       5.690   3.895  -5.497  0.00  0.00     0.001 A 
ATOM      7  C7  DEN d   1       4.466   3.294  -5.374  0.00  0.00     0.017 A 
ATOM      8  C8  DEN d   1       3.328   4.073  -5.539  0.00  0.00    -0.094 A 
ATOM      9  C9  DEN d   1       3.424   5.410  -5.884  0.00  0.00    -0.072 A 
ENDROOT
TORSDOF 0
ENDMDL
