MODEL 1
REMARK minimizedAffinity 11.5851269
REMARK minimizedRMSD -1
REMARK  0 active torsions:
REMARK  status: ('A' for Active; 'I' for Inactive)
ROOT
ATOM      1  C1  DEN d   1      -4.846   4.110   4.922  0.00  0.00     0.130 A 
ATOM      2  C2  DEN d   1      -4.119   4.777   5.999  0.00  0.00    -0.031 A 
ATOM      3  C3  DEN d   1      -2.732   4.268   5.997  0.00  0.00     0.027 A 
ATOM      4  C4  DEN d   1      -1.646   2.525   4.437  0.00  0.00     0.027 A 
ATOM      5  C5  DEN d   1      -1.868   1.673   3.378  0.00  0.00    -0.003 A 
ATOM      6  C6  DEN d   1      -3.097   1.549   2.786  0.00  0.00     0.001 A 
ATOM      7  C7  DEN d   1      -4.141   2.323   3.221  0.00  0.00     0.017 A 
ATOM      8  C8  DEN d   1      -3.926   3.179   4.293  0.00  0.00    -0.094 A 
ATOM      9  C9  DEN d   1      -2.673   3.299   4.870  0.00  0.00    -0.072 A 
ENDROOT
TORSDOF 0
ENDMDL
