MODEL 1
REMARK minimizedAffinity 4.89844513
REMARK minimizedRMSD -1
REMARK  0 active torsions:
REMARK  status: ('A' for Active; 'I' for Inactive)
ROOT
ATOM      1  C1  DEN d   1       0.048  -0.783   3.381  0.00  0.00     0.130 A 
ATOM      2  C2  DEN d   1       1.281  -0.072   3.052  0.00  0.00    -0.031 A 
ATOM      3  C3  DEN d   1       2.017  -0.873   2.054  0.00  0.00     0.027 A 
ATOM      4  C4  DEN d   1       1.369  -3.129   0.986  0.00  0.00     0.027 A 
ATOM      5  C5  DEN d   1       0.419  -4.127   0.959  0.00  0.00    -0.003 A 
ATOM      6  C6  DEN d   1      -0.695  -4.096   1.755  0.00  0.00     0.001 A 
ATOM      7  C7  DEN d   1      -0.910  -3.024   2.581  0.00  0.00     0.017 A 
ATOM      8  C8  DEN d   1       0.047  -2.019   2.619  0.00  0.00    -0.094 A 
ATOM      9  C9  DEN d   1       1.160  -2.062   1.797  0.00  0.00    -0.072 A 
ENDROOT
TORSDOF 0
ENDMDL
