MODEL 1
REMARK minimizedAffinity 13.8888865
REMARK minimizedRMSD -1
REMARK  0 active torsions:
REMARK  status: ('A' for Active; 'I' for Inactive)
ROOT
ATOM      1  C1  DEN d   1       0.305  -1.957   1.990  0.00  0.00     0.130 A 
ATOM      2  C2  DEN d   1       1.157  -0.788   1.787  0.00  0.00    -0.031 A 
ATOM      3  C3  DEN d   1       2.162  -1.128   0.760  0.00  0.00     0.027 A 
ATOM      4  C4  DEN d   1       2.477  -3.338  -0.533  0.00  0.00     0.027 A 
ATOM      5  C5  DEN d   1       2.002  -4.621  -0.695  0.00  0.00    -0.003 A 
ATOM      6  C6  DEN d   1       0.959  -5.113   0.044  0.00  0.00     0.001 A 
ATOM      7  C7  DEN d   1       0.327  -4.302   0.949  0.00  0.00     0.017 A 
ATOM      8  C8  DEN d   1       0.804  -3.009   1.123  0.00  0.00    -0.094 A 
ATOM      9  C9  DEN d   1       1.852  -2.527   0.358  0.00  0.00    -0.072 A 
ENDROOT
TORSDOF 0
ENDMDL
