MODEL 1
REMARK minimizedAffinity 9.38660049
REMARK minimizedRMSD -1
REMARK  0 active torsions:
REMARK  status: ('A' for Active; 'I' for Inactive)
ROOT
ATOM      1  C1  DEN d   1       0.480  -2.689   0.299  0.00  0.00     0.130 A 
ATOM      2  C2  DEN d   1       1.887  -2.702  -0.091  0.00  0.00    -0.031 A 
ATOM      3  C3  DEN d   1       2.613  -1.763   0.788  0.00  0.00     0.027 A 
ATOM      4  C4  DEN d   1       1.701  -0.301   2.707  0.00  0.00     0.027 A 
ATOM      5  C5  DEN d   1       0.568   0.059   3.403  0.00  0.00    -0.003 A 
ATOM      6  C6  DEN d   1      -0.669  -0.442   3.093  0.00  0.00     0.001 A 
ATOM      7  C7  DEN d   1      -0.796  -1.366   2.090  0.00  0.00     0.017 A 
ATOM      8  C8  DEN d   1       0.341  -1.728   1.379  0.00  0.00    -0.094 A 
ATOM      9  C9  DEN d   1       1.584  -1.220   1.715  0.00  0.00    -0.072 A 
ENDROOT
TORSDOF 0
ENDMDL
