MODEL 1
REMARK minimizedAffinity 15.7442141
REMARK minimizedRMSD -1
REMARK  0 active torsions:
REMARK  status: ('A' for Active; 'I' for Inactive)
ROOT
ATOM      1  C1  DEN d   1      -1.578  -0.213   3.008  0.00  0.00     0.130 A 
ATOM      2  C2  DEN d   1      -2.592  -0.840   2.164  0.00  0.00    -0.031 A 
ATOM      3  C3  DEN d   1      -1.904  -1.741   1.218  0.00  0.00     0.027 A 
ATOM      4  C4  DEN d   1       0.618  -2.229   0.983  0.00  0.00     0.027 A 
ATOM      5  C5  DEN d   1       1.870  -1.926   1.471  0.00  0.00    -0.003 A 
ATOM      6  C6  DEN d   1       2.062  -1.013   2.474  0.00  0.00     0.001 A 
ATOM      7  C7  DEN d   1       0.980  -0.404   3.053  0.00  0.00     0.017 A 
ATOM      8  C8  DEN d   1      -0.285  -0.699   2.562  0.00  0.00    -0.094 A 
ATOM      9  C9  DEN d   1      -0.459  -1.634   1.555  0.00  0.00    -0.072 A 
ENDROOT
TORSDOF 0
ENDMDL
