MODEL 1
REMARK minimizedAffinity 17.3127251
REMARK minimizedRMSD -1
REMARK  0 active torsions:
REMARK  status: ('A' for Active; 'I' for Inactive)
ROOT
ATOM      1  C1  DEN d   1      -0.149  -1.786  -0.153  0.00  0.00     0.130 A 
ATOM      2  C2  DEN d   1       0.037  -2.617  -1.339  0.00  0.00    -0.031 A 
ATOM      3  C3  DEN d   1       1.452  -3.038  -1.384  0.00  0.00     0.027 A 
ATOM      4  C4  DEN d   1       3.361  -2.490   0.262  0.00  0.00     0.027 A 
ATOM      5  C5  DEN d   1       3.689  -1.810   1.414  0.00  0.00    -0.003 A 
ATOM      6  C6  DEN d   1       2.777  -1.053   2.100  0.00  0.00     0.001 A 
ATOM      7  C7  DEN d   1       1.479  -0.994   1.665  0.00  0.00     0.017 A 
ATOM      8  C8  DEN d   1       1.142  -1.671   0.500  0.00  0.00    -0.094 A 
ATOM      9  C9  DEN d   1       2.076  -2.441  -0.173  0.00  0.00    -0.072 A 
ENDROOT
TORSDOF 0
ENDMDL
