MODEL 1
REMARK minimizedAffinity 10.6041708
REMARK minimizedRMSD -1
REMARK  2 active torsions:
REMARK  status: ('A' for Active; 'I' for Inactive)
REMARK    1  A    between atoms: C2'_3  and  C1'_4 
REMARK    2  A    between atoms: C1'_4  and  C1_5 
ROOT
ATOM      1  C1  I4B d   1      -0.455   2.236   1.280  0.00  0.00    -0.075 A 
ATOM      2  C2  I4B d   1      -1.492   1.920   2.122  0.00  0.00     0.003 A 
ATOM      3  C3  I4B d   1      -1.236   1.287   3.363  0.00  0.00     0.002 A 
ATOM      4  C4  I4B d   1       0.059   0.946   3.697  0.00  0.00    -0.004 A 
ATOM      5  C5  I4B d   1       1.111   1.288   2.853  0.00  0.00     0.002 A 
ATOM      6  C6  I4B d   1       0.855   1.948   1.642  0.00  0.00     0.003 A 
ENDROOT
BRANCH   1   7
ATOM      7  C1' I4B d   1      -0.765   2.874  -0.037  0.00  0.00     0.060 C 
BRANCH   7   8
ATOM      8  C2' I4B d   1      -0.133   4.251  -0.049  0.00  0.00    -0.013 C 
ATOM      9  C4' I4B d   1       0.763   4.429  -1.246  0.00  0.00     0.013 C 
ATOM     10  C3' I4B d   1      -1.236   5.266  -0.042  0.00  0.00     0.013 C 
ENDBRANCH   7   8
ENDBRANCH   1   7
TORSDOF 2
ENDMDL
