MODEL 1
REMARK minimizedAffinity 7.648283
REMARK minimizedRMSD -1
REMARK  2 active torsions:
REMARK  status: ('A' for Active; 'I' for Inactive)
REMARK    1  A    between atoms: C2'_3  and  C1'_4 
REMARK    2  A    between atoms: C1'_4  and  C1_5 
ROOT
ATOM      1  C1  I4B d   1      -0.274   3.738  -0.550  0.00  0.00    -0.075 A 
ATOM      2  C2  I4B d   1       0.864   4.385  -0.963  0.00  0.00     0.003 A 
ATOM      3  C3  I4B d   1       0.786   5.413  -1.933  0.00  0.00     0.002 A 
ATOM      4  C4  I4B d   1      -0.434   5.726  -2.497  0.00  0.00    -0.004 A 
ATOM      5  C5  I4B d   1      -1.589   5.084  -2.061  0.00  0.00     0.002 A 
ATOM      6  C6  I4B d   1      -1.511   4.093  -1.072  0.00  0.00     0.003 A 
ENDROOT
BRANCH   1   7
ATOM      7  C1' I4B d   1      -0.152   2.634   0.452  0.00  0.00     0.060 C 
BRANCH   7   8
ATOM      8  C2' I4B d   1      -0.119   3.258   1.832  0.00  0.00    -0.013 C 
ATOM      9  C4' I4B d   1      -1.407   3.011   2.573  0.00  0.00     0.013 C 
ATOM     10  C3' I4B d   1       1.051   2.683   2.573  0.00  0.00     0.013 C 
ENDBRANCH   7   8
ENDBRANCH   1   7
TORSDOF 2
ENDMDL
