MODEL 1
REMARK minimizedAffinity 7.84864521
REMARK minimizedRMSD -1
REMARK  2 active torsions:
REMARK  status: ('A' for Active; 'I' for Inactive)
REMARK    1  A    between atoms: C2'_3  and  C1'_4 
REMARK    2  A    between atoms: C1'_4  and  C1_5 
ROOT
ATOM      1  C1  I4B d   1       0.230   3.405  -0.517  0.00  0.00    -0.075 A 
ATOM      2  C2  I4B d   1       1.008   4.523  -0.347  0.00  0.00     0.003 A 
ATOM      3  C3  I4B d   1       0.929   5.593  -1.271  0.00  0.00     0.002 A 
ATOM      4  C4  I4B d   1       0.103   5.482  -2.371  0.00  0.00    -0.004 A 
ATOM      5  C5  I4B d   1      -0.701   4.357  -2.530  0.00  0.00     0.002 A 
ATOM      6  C6  I4B d   1      -0.647   3.317  -1.591  0.00  0.00     0.003 A 
ENDROOT
BRANCH   1   7
ATOM      7  C1' I4B d   1       0.362   2.279   0.459  0.00  0.00     0.060 C 
BRANCH   7   8
ATOM      8  C2' I4B d   1       0.495   2.878   1.845  0.00  0.00    -0.013 C 
ATOM      9  C4' I4B d   1      -0.313   2.103   2.853  0.00  0.00     0.013 C 
ATOM     10  C3' I4B d   1       1.950   2.885   2.208  0.00  0.00     0.013 C 
ENDBRANCH   7   8
ENDBRANCH   1   7
TORSDOF 2
ENDMDL
