MODEL 1
REMARK minimizedAffinity 7.44679117
REMARK minimizedRMSD -1
REMARK  2 active torsions:
REMARK  status: ('A' for Active; 'I' for Inactive)
REMARK    1  A    between atoms: C2'_3  and  C1'_4 
REMARK    2  A    between atoms: C1'_4  and  C1_5 
ROOT
ATOM      1  C1  I4B d   1       0.252   3.192   1.060  0.00  0.00    -0.075 A 
ATOM      2  C2  I4B d   1      -0.754   2.749   0.238  0.00  0.00     0.003 A 
ATOM      3  C3  I4B d   1      -0.977   3.371  -1.014  0.00  0.00     0.002 A 
ATOM      4  C4  I4B d   1      -0.208   4.457  -1.380  0.00  0.00    -0.004 A 
ATOM      5  C5  I4B d   1       0.826   4.890  -0.556  0.00  0.00     0.002 A 
ATOM      6  C6  I4B d   1       1.066   4.246   0.667  0.00  0.00     0.003 A 
ENDROOT
BRANCH   1   7
ATOM      7  C1' I4B d   1       0.438   2.534   2.391  0.00  0.00     0.060 C 
BRANCH   7   8
ATOM      8  C2' I4B d   1       1.926   2.384   2.633  0.00  0.00    -0.013 C 
ATOM      9  C4' I4B d   1       2.357   3.141   3.862  0.00  0.00     0.013 C 
ATOM     10  C3' I4B d   1       2.229   0.921   2.764  0.00  0.00     0.013 C 
ENDBRANCH   7   8
ENDBRANCH   1   7
TORSDOF 2
ENDMDL
