MODEL 1
REMARK minimizedAffinity 13.2134361
REMARK minimizedRMSD -1
REMARK  2 active torsions:
REMARK  status: ('A' for Active; 'I' for Inactive)
REMARK    1  A    between atoms: C2'_3  and  C1'_4 
REMARK    2  A    between atoms: C1'_4  and  C1_5 
ROOT
ATOM      1  C1  I4B d   1       0.135   4.107  -0.621  0.00  0.00    -0.075 A 
ATOM      2  C2  I4B d   1      -0.358   5.223   0.008  0.00  0.00     0.003 A 
ATOM      3  C3  I4B d   1      -1.373   5.997  -0.606  0.00  0.00     0.002 A 
ATOM      4  C4  I4B d   1      -1.826   5.650  -1.863  0.00  0.00    -0.004 A 
ATOM      5  C5  I4B d   1      -1.341   4.505  -2.488  0.00  0.00     0.002 A 
ATOM      6  C6  I4B d   1      -0.363   3.722  -1.859  0.00  0.00     0.003 A 
ENDROOT
BRANCH   1   7
ATOM      7  C1' I4B d   1       1.230   3.332   0.041  0.00  0.00     0.060 C 
BRANCH   7   8
ATOM      8  C2' I4B d   1       0.684   2.768   1.337  0.00  0.00    -0.013 C 
ATOM      9  C4' I4B d   1      -0.474   1.839   1.084  0.00  0.00     0.013 C 
ATOM     10  C3' I4B d   1       1.803   2.060   2.041  0.00  0.00     0.013 C 
ENDBRANCH   7   8
ENDBRANCH   1   7
TORSDOF 2
ENDMDL
