MODEL 1
REMARK minimizedAffinity 7.69321442
REMARK minimizedRMSD -1
REMARK  2 active torsions:
REMARK  status: ('A' for Active; 'I' for Inactive)
REMARK    1  A    between atoms: C2'_3  and  C1'_4 
REMARK    2  A    between atoms: C1'_4  and  C1_5 
ROOT
ATOM      1  C1  I4B d   1       3.443  -3.524  -0.775  0.00  0.00    -0.075 A 
ATOM      2  C2  I4B d   1       3.133  -2.253  -0.360  0.00  0.00     0.003 A 
ATOM      3  C3  I4B d   1       1.785  -1.891  -0.119  0.00  0.00     0.002 A 
ATOM      4  C4  I4B d   1       0.783  -2.810  -0.353  0.00  0.00    -0.004 A 
ATOM      5  C5  I4B d   1       1.101  -4.105  -0.751  0.00  0.00     0.002 A 
ATOM      6  C6  I4B d   1       2.441  -4.469  -0.952  0.00  0.00     0.003 A 
ENDROOT
BRANCH   1   7
ATOM      7  C1' I4B d   1       4.874  -3.863  -1.052  0.00  0.00     0.060 C 
BRANCH   7   8
ATOM      8  C2' I4B d   1       4.953  -5.346  -1.351  0.00  0.00    -0.013 C 
ATOM      9  C4' I4B d   1       5.284  -5.593  -2.800  0.00  0.00     0.013 C 
ATOM     10  C3' I4B d   1       5.989  -5.946  -0.449  0.00  0.00     0.013 C 
ENDBRANCH   7   8
ENDBRANCH   1   7
TORSDOF 2
ENDMDL
