MODEL 1
REMARK minimizedAffinity 4.26253319
REMARK minimizedRMSD -1
REMARK  2 active torsions:
REMARK  status: ('A' for Active; 'I' for Inactive)
REMARK    1  A    between atoms: C2'_3  and  C1'_4 
REMARK    2  A    between atoms: C1'_4  and  C1_5 
ROOT
ATOM      1  C1  I4B d   1       0.369   1.808   2.079  0.00  0.00    -0.075 A 
ATOM      2  C2  I4B d   1      -0.464   1.345   3.067  0.00  0.00     0.003 A 
ATOM      3  C3  I4B d   1      -0.013   0.355   3.973  0.00  0.00     0.002 A 
ATOM      4  C4  I4B d   1       1.252  -0.176   3.825  0.00  0.00    -0.004 A 
ATOM      5  C5  I4B d   1       2.103   0.311   2.837  0.00  0.00     0.002 A 
ATOM      6  C6  I4B d   1       1.663   1.318   1.966  0.00  0.00     0.003 A 
ENDROOT
BRANCH   1   7
ATOM      7  C1' I4B d   1      -0.151   2.830   1.118  0.00  0.00     0.060 C 
BRANCH   7   8
ATOM      8  C2' I4B d   1       0.762   2.842  -0.091  0.00  0.00    -0.013 C 
ATOM      9  C4' I4B d   1       0.082   3.465  -1.281  0.00  0.00     0.013 C 
ATOM     10  C3' I4B d   1       2.007   3.593   0.277  0.00  0.00     0.013 C 
ENDBRANCH   7   8
ENDBRANCH   1   7
TORSDOF 2
ENDMDL
