MODEL 1
REMARK minimizedAffinity 5.80911827
REMARK minimizedRMSD -1
REMARK  2 active torsions:
REMARK  status: ('A' for Active; 'I' for Inactive)
REMARK    1  A    between atoms: C2'_3  and  C1'_4 
REMARK    2  A    between atoms: C1'_4  and  C1_5 
ROOT
ATOM      1  C1  I4B d   1       0.814  -0.125   3.518  0.00  0.00    -0.075 A 
ATOM      2  C2  I4B d   1       1.952   0.494   3.063  0.00  0.00     0.003 A 
ATOM      3  C3  I4B d   1       1.896   1.825   2.585  0.00  0.00     0.002 A 
ATOM      4  C4  I4B d   1       0.681   2.478   2.532  0.00  0.00    -0.004 A 
ATOM      5  C5  I4B d   1      -0.467   1.857   3.015  0.00  0.00     0.002 A 
ATOM      6  C6  I4B d   1      -0.399   0.552   3.522  0.00  0.00     0.003 A 
ENDROOT
BRANCH   1   7
ATOM      7  C1' I4B d   1       0.903  -1.543   3.985  0.00  0.00     0.060 C 
BRANCH   7   8
ATOM      8  C2' I4B d   1       0.852  -1.540   5.499  0.00  0.00    -0.013 C 
ATOM      9  C4' I4B d   1      -0.520  -1.907   6.000  0.00  0.00     0.013 C 
ATOM     10  C3' I4B d   1       1.887  -2.503   5.999  0.00  0.00     0.013 C 
ENDBRANCH   7   8
ENDBRANCH   1   7
TORSDOF 2
ENDMDL
