MODEL 1
REMARK minimizedAffinity 14.0808296
REMARK minimizedRMSD -1
REMARK  2 active torsions:
REMARK  status: ('A' for Active; 'I' for Inactive)
REMARK    1  A    between atoms: C2'_3  and  C1'_4 
REMARK    2  A    between atoms: C1'_4  and  C1_5 
ROOT
ATOM      1  C1  I4B d   1       3.041  -3.634  -0.549  0.00  0.00    -0.075 A 
ATOM      2  C2  I4B d   1       3.828  -2.538  -0.301  0.00  0.00     0.003 A 
ATOM      3  C3  I4B d   1       5.218  -2.584  -0.567  0.00  0.00     0.002 A 
ATOM      4  C4  I4B d   1       5.783  -3.755  -1.030  0.00  0.00    -0.004 A 
ATOM      5  C5  I4B d   1       4.979  -4.858  -1.303  0.00  0.00     0.002 A 
ATOM      6  C6  I4B d   1       3.597  -4.794  -1.073  0.00  0.00     0.003 A 
ENDROOT
BRANCH   1   7
ATOM      7  C1' I4B d   1       1.582  -3.561  -0.226  0.00  0.00     0.060 C 
BRANCH   7   8
ATOM      8  C2' I4B d   1       0.825  -4.297  -1.313  0.00  0.00    -0.013 C 
ATOM      9  C4' I4B d   1       0.474  -5.696  -0.881  0.00  0.00     0.013 C 
ATOM     10  C3' I4B d   1      -0.406  -3.505  -1.638  0.00  0.00     0.013 C 
ENDBRANCH   7   8
ENDBRANCH   1   7
TORSDOF 2
ENDMDL
