MODEL 1
REMARK minimizedAffinity 7.2411356
REMARK minimizedRMSD -1
REMARK  1 active torsions:
REMARK  status: ('A' for Active; 'I' for Inactive)
REMARK    1  A    between atoms: N_2  and  C1_3 
ROOT
ATOM      1  C1  UNL d   1       2.399   5.999   4.974  0.00  0.00     0.143 A 
ATOM      2  C2  UNL d   1       3.350   5.973   6.000  0.00  0.00    -0.057 A 
ATOM      3  C3  UNL d   1       4.722   5.985   5.719  0.00  0.00     0.033 A 
ATOM      4  C4  UNL d   1       5.168   5.993   4.402  0.00  0.00    -0.042 A 
ATOM      5  C5  UNL d   1       4.242   5.994   3.366  0.00  0.00     0.033 A 
ATOM      6  C6  UNL d   1       2.873   5.989   3.652  0.00  0.00    -0.057 A 
ENDROOT
BRANCH   1   7
ATOM      7  N   UNL d   1       1.023   5.890   5.185  0.00  0.00    -0.732 N 
ATOM      8  C   UNL d   1       0.331   4.648   4.912  0.00  0.00     0.284 C 
ATOM      9  H3  UNL d   1       0.724   6.353   6.040  0.00  0.00     0.395 HD
ENDBRANCH   1   7
TORSDOF 1
ENDMDL
