MODEL 1
REMARK minimizedAffinity 4.66329908
REMARK minimizedRMSD -1
REMARK  1 active torsions:
REMARK  status: ('A' for Active; 'I' for Inactive)
REMARK    1  A    between atoms: N_2  and  C1_3 
ROOT
ATOM      1  C1  UNL d   1      -3.362   2.283  -1.325  0.00  0.00     0.143 A 
ATOM      2  C2  UNL d   1      -4.653   2.106  -0.815  0.00  0.00    -0.057 A 
ATOM      3  C3  UNL d   1      -4.863   1.553   0.454  0.00  0.00     0.033 A 
ATOM      4  C4  UNL d   1      -3.782   1.139   1.226  0.00  0.00    -0.042 A 
ATOM      5  C5  UNL d   1      -2.492   1.283   0.729  0.00  0.00     0.033 A 
ATOM      6  C6  UNL d   1      -2.289   1.842  -0.536  0.00  0.00    -0.057 A 
ENDROOT
BRANCH   1   7
ATOM      7  N   UNL d   1      -3.093   2.736  -2.619  0.00  0.00    -0.732 N 
ATOM      8  C   UNL d   1      -3.585   2.011  -3.771  0.00  0.00     0.284 C 
ATOM      9  H3  UNL d   1      -3.168   3.747  -2.700  0.00  0.00     0.395 HD
ENDBRANCH   1   7
TORSDOF 1
ENDMDL
