MODEL 1
REMARK minimizedAffinity -1.14407969
REMARK minimizedRMSD -1
REMARK  1 active torsions:
REMARK  status: ('A' for Active; 'I' for Inactive)
REMARK    1  A    between atoms: N_2  and  C1_3 
ROOT
ATOM      1  C1  UNL d   1      -3.613   1.417   0.309  0.00  0.00     0.143 A 
ATOM      2  C2  UNL d   1      -3.290   0.287   1.068  0.00  0.00    -0.057 A 
ATOM      3  C3  UNL d   1      -2.028  -0.314   0.975  0.00  0.00     0.033 A 
ATOM      4  C4  UNL d   1      -1.075   0.191   0.097  0.00  0.00    -0.042 A 
ATOM      5  C5  UNL d   1      -1.383   1.298  -0.685  0.00  0.00     0.033 A 
ATOM      6  C6  UNL d   1      -2.642   1.897  -0.583  0.00  0.00    -0.057 A 
ENDROOT
BRANCH   1   7
ATOM      7  N   UNL d   1      -4.883   2.000   0.285  0.00  0.00    -0.732 N 
ATOM      8  C   UNL d   1      -6.000   1.361   0.946  0.00  0.00     0.284 C 
ATOM      9  H3  UNL d   1      -4.849   3.009   0.407  0.00  0.00     0.395 HD
ENDBRANCH   1   7
TORSDOF 1
ENDMDL
