MODEL 1
REMARK minimizedAffinity 7.21668005
REMARK minimizedRMSD -1
REMARK  1 active torsions:
REMARK  status: ('A' for Active; 'I' for Inactive)
REMARK    1  A    between atoms: N_2  and  C1_3 
ROOT
ATOM      1  C1  UNL d   1       4.716   5.094   3.511  0.00  0.00     0.143 A 
ATOM      2  C2  UNL d   1       5.532   5.125   4.647  0.00  0.00    -0.057 A 
ATOM      3  C3  UNL d   1       5.038   5.559   5.884  0.00  0.00     0.033 A 
ATOM      4  C4  UNL d   1       3.723   5.997   5.999  0.00  0.00    -0.042 A 
ATOM      5  C5  UNL d   1       2.901   5.998   4.877  0.00  0.00     0.033 A 
ATOM      6  C6  UNL d   1       3.399   5.558   3.647  0.00  0.00    -0.057 A 
ENDROOT
BRANCH   1   7
ATOM      7  N   UNL d   1       5.176   4.767   2.233  0.00  0.00    -0.732 N 
ATOM      8  C   UNL d   1       5.028   3.423   1.717  0.00  0.00     0.284 C 
ATOM      9  H3  UNL d   1       4.981   5.497   1.552  0.00  0.00     0.395 HD
ENDBRANCH   1   7
TORSDOF 1
ENDMDL
