MODEL 1
REMARK minimizedAffinity 15.0200129
REMARK minimizedRMSD -1
REMARK  1 active torsions:
REMARK  status: ('A' for Active; 'I' for Inactive)
REMARK    1  A    between atoms: N_2  and  C1_3 
ROOT
ATOM      1  C1  UNL d   1       4.057   2.180  -0.071  0.00  0.00     0.143 A 
ATOM      2  C2  UNL d   1       3.131   3.025  -0.691  0.00  0.00    -0.057 A 
ATOM      3  C3  UNL d   1       2.189   2.528  -1.600  0.00  0.00     0.033 A 
ATOM      4  C4  UNL d   1       2.176   1.176  -1.927  0.00  0.00    -0.042 A 
ATOM      5  C5  UNL d   1       3.103   0.322  -1.341  0.00  0.00     0.033 A 
ATOM      6  C6  UNL d   1       4.037   0.823  -0.429  0.00  0.00    -0.057 A 
ENDROOT
BRANCH   1   7
ATOM      7  N   UNL d   1       5.081   2.630   0.766  0.00  0.00    -0.732 N 
ATOM      8  C   UNL d   1       4.878   2.724   2.196  0.00  0.00     0.284 C 
ATOM      9  H3  UNL d   1       5.991   2.260   0.499  0.00  0.00     0.395 HD
ENDBRANCH   1   7
TORSDOF 1
ENDMDL
