MODEL 1
REMARK minimizedAffinity -1.66048992
REMARK minimizedRMSD -1
REMARK  1 active torsions:
REMARK  status: ('A' for Active; 'I' for Inactive)
REMARK    1  A    between atoms: N_2  and  C1_3 
ROOT
ATOM      1  C1  UNL d   1      -0.558  -5.224  -2.796  0.00  0.00     0.143 A 
ATOM      2  C2  UNL d   1      -0.398  -5.763  -4.077  0.00  0.00    -0.057 A 
ATOM      3  C3  UNL d   1       0.874  -6.000  -4.612  0.00  0.00     0.033 A 
ATOM      4  C4  UNL d   1       2.013  -5.673  -3.884  0.00  0.00    -0.042 A 
ATOM      5  C5  UNL d   1       1.878  -5.112  -2.618  0.00  0.00     0.033 A 
ATOM      6  C6  UNL d   1       0.605  -4.885  -2.087  0.00  0.00    -0.057 A 
ENDROOT
BRANCH   1   7
ATOM      7  N   UNL d   1      -1.794  -4.874  -2.247  0.00  0.00    -0.732 N 
ATOM      8  C   UNL d   1      -2.128  -5.240  -0.888  0.00  0.00     0.284 C 
ATOM      9  H3  UNL d   1      -2.082  -3.933  -2.507  0.00  0.00     0.395 HD
ENDBRANCH   1   7
TORSDOF 1
ENDMDL
