MODEL 1
REMARK minimizedAffinity 8.35047054
REMARK minimizedRMSD -1
REMARK  1 active torsions:
REMARK  status: ('A' for Active; 'I' for Inactive)
REMARK    1  A    between atoms: N_2  and  C1_3 
ROOT
ATOM      1  C1  UNL d   1       1.623   1.116  -1.641  0.00  0.00     0.143 A 
ATOM      2  C2  UNL d   1       0.465   1.492  -0.952  0.00  0.00    -0.057 A 
ATOM      3  C3  UNL d   1       0.412   1.470   0.447  0.00  0.00     0.033 A 
ATOM      4  C4  UNL d   1       1.511   1.042   1.183  0.00  0.00    -0.042 A 
ATOM      5  C5  UNL d   1       2.665   0.640   0.520  0.00  0.00     0.033 A 
ATOM      6  C6  UNL d   1       2.714   0.671  -0.877  0.00  0.00    -0.057 A 
ENDROOT
BRANCH   1   7
ATOM      7  N   UNL d   1       1.706   1.022  -3.032  0.00  0.00    -0.732 N 
ATOM      8  C   UNL d   1       0.835   1.812  -3.877  0.00  0.00     0.284 C 
ATOM      9  H3  UNL d   1       2.667   0.967  -3.362  0.00  0.00     0.395 HD
ENDBRANCH   1   7
TORSDOF 1
ENDMDL
