MODEL 1
REMARK minimizedAffinity 3.73484373
REMARK minimizedRMSD -1
REMARK  1 active torsions:
REMARK  status: ('A' for Active; 'I' for Inactive)
REMARK    1  A    between atoms: N_2  and  C1_3 
ROOT
ATOM      1  C1  UNL d   1       2.409   1.569   1.346  0.00  0.00     0.143 A 
ATOM      2  C2  UNL d   1       2.012   2.680   2.097  0.00  0.00    -0.057 A 
ATOM      3  C3  UNL d   1       0.683   3.123   2.092  0.00  0.00     0.033 A 
ATOM      4  C4  UNL d   1      -0.269   2.476   1.311  0.00  0.00    -0.042 A 
ATOM      5  C5  UNL d   1       0.108   1.384   0.537  0.00  0.00     0.033 A 
ATOM      6  C6  UNL d   1       1.435   0.943   0.551  0.00  0.00    -0.057 A 
ENDROOT
BRANCH   1   7
ATOM      7  N   UNL d   1       3.733   1.140   1.232  0.00  0.00    -0.732 N 
ATOM      8  C   UNL d   1       4.825   2.008   1.619  0.00  0.00     0.284 C 
ATOM      9  H3  UNL d   1       3.854   0.170   1.514  0.00  0.00     0.395 HD
ENDBRANCH   1   7
TORSDOF 1
ENDMDL
