MODEL 1
REMARK minimizedAffinity 3.18412042
REMARK minimizedRMSD -1
REMARK  1 active torsions:
REMARK  status: ('A' for Active; 'I' for Inactive)
REMARK    1  A    between atoms: N_2  and  C1_3 
ROOT
ATOM      1  C1  UNL d   1       1.840   1.208   0.534  0.00  0.00     0.143 A 
ATOM      2  C2  UNL d   1       2.627   1.915   1.449  0.00  0.00    -0.057 A 
ATOM      3  C3  UNL d   1       2.057   2.830   2.342  0.00  0.00     0.033 A 
ATOM      4  C4  UNL d   1       0.689   3.077   2.315  0.00  0.00    -0.042 A 
ATOM      5  C5  UNL d   1      -0.109   2.405   1.396  0.00  0.00     0.033 A 
ATOM      6  C6  UNL d   1       0.465   1.487   0.512  0.00  0.00    -0.057 A 
ENDROOT
BRANCH   1   7
ATOM      7  N   UNL d   1       2.360   0.358  -0.446  0.00  0.00    -0.732 N 
ATOM      8  C   UNL d   1       1.995   0.525  -1.836  0.00  0.00     0.284 C 
ATOM      9  H3  UNL d   1       3.345   0.151  -0.297  0.00  0.00     0.395 HD
ENDBRANCH   1   7
TORSDOF 1
ENDMDL
