MODEL 1
REMARK minimizedAffinity 2.53165507
REMARK minimizedRMSD -1
REMARK  1 active torsions:
REMARK  status: ('A' for Active; 'I' for Inactive)
REMARK    1  A    between atoms: N_2  and  C1_3 
ROOT
ATOM      1  C1  UNL d   1       1.951   1.548   1.424  0.00  0.00     0.143 A 
ATOM      2  C2  UNL d   1       0.823   1.268   0.644  0.00  0.00    -0.057 A 
ATOM      3  C3  UNL d   1      -0.450   1.710   1.025  0.00  0.00     0.033 A 
ATOM      4  C4  UNL d   1      -0.623   2.415   2.211  0.00  0.00    -0.042 A 
ATOM      5  C5  UNL d   1       0.480   2.683   3.014  0.00  0.00     0.033 A 
ATOM      6  C6  UNL d   1       1.750   2.245   2.625  0.00  0.00    -0.057 A 
ENDROOT
BRANCH   1   7
ATOM      7  N   UNL d   1       3.228   1.052   1.150  0.00  0.00    -0.732 N 
ATOM      8  C   UNL d   1       4.406   1.794   1.543  0.00  0.00     0.284 C 
ATOM      9  H3  UNL d   1       3.297   0.049   1.305  0.00  0.00     0.395 HD
ENDBRANCH   1   7
TORSDOF 1
ENDMDL
