MODEL 1
REMARK minimizedAffinity 8.2253685
REMARK minimizedRMSD -1
REMARK  1 active torsions:
REMARK  status: ('A' for Active; 'I' for Inactive)
REMARK    1  A    between atoms: N_2  and  C1_3 
ROOT
ATOM      1  C1  UNL d   1       1.845   0.481  -1.648  0.00  0.00     0.143 A 
ATOM      2  C2  UNL d   1       3.019   0.895  -1.009  0.00  0.00    -0.057 A 
ATOM      3  C3  UNL d   1       3.072   1.055   0.381  0.00  0.00     0.033 A 
ATOM      4  C4  UNL d   1       1.939   0.831   1.156  0.00  0.00    -0.042 A 
ATOM      5  C5  UNL d   1       0.754   0.442   0.540  0.00  0.00     0.033 A 
ATOM      6  C6  UNL d   1       0.710   0.278  -0.847  0.00  0.00    -0.057 A 
ENDROOT
BRANCH   1   7
ATOM      7  N   UNL d   1       1.702   0.399  -3.035  0.00  0.00    -0.732 N 
ATOM      8  C   UNL d   1       1.418   1.582  -3.818  0.00  0.00     0.284 C 
ATOM      9  H3  UNL d   1       2.383  -0.227  -3.459  0.00  0.00     0.395 HD
ENDBRANCH   1   7
TORSDOF 1
ENDMDL
