MODEL 1
REMARK minimizedAffinity 0.18872577
REMARK minimizedRMSD -1
REMARK  1 active torsions:
REMARK  status: ('A' for Active; 'I' for Inactive)
REMARK    1  A    between atoms: N_2  and  C1_3 
ROOT
ATOM      1  C1  UNL d   1       0.333   2.451   2.056  0.00  0.00     0.143 A 
ATOM      2  C2  UNL d   1       1.658   2.041   1.875  0.00  0.00    -0.057 A 
ATOM      3  C3  UNL d   1       2.026   1.226   0.798  0.00  0.00     0.033 A 
ATOM      4  C4  UNL d   1       1.066   0.782  -0.106  0.00  0.00    -0.042 A 
ATOM      5  C5  UNL d   1      -0.262   1.157   0.068  0.00  0.00     0.033 A 
ATOM      6  C6  UNL d   1      -0.622   1.976   1.142  0.00  0.00    -0.057 A 
ENDROOT
BRANCH   1   7
ATOM      7  N   UNL d   1      -0.112   3.179   3.162  0.00  0.00    -0.732 N 
ATOM      8  C   UNL d   1      -1.527   3.362   3.403  0.00  0.00     0.284 C 
ATOM      9  H3  UNL d   1       0.430   2.983   4.000  0.00  0.00     0.395 HD
ENDBRANCH   1   7
TORSDOF 1
ENDMDL
