MODEL 1
REMARK minimizedAffinity -3.28611469
REMARK minimizedRMSD -1
REMARK  2 active torsions:
REMARK  status: ('A' for Active; 'I' for Inactive)
REMARK    1  A    between atoms: C1_2  and  C2_3 
REMARK    2  A    between atoms: C2_3  and  C3_4 
ROOT
ATOM      1  C3  UNL d   1      -0.146   0.113   0.027  0.00  0.00    -0.075 A 
ATOM      2  C4  UNL d   1       1.167   0.449  -0.333  0.00  0.00     0.002 A 
ATOM      3  C5  UNL d   1       2.099  -0.548  -0.624  0.00  0.00     0.002 A 
ATOM      4  C6  UNL d   1       1.734  -1.890  -0.549  0.00  0.00    -0.004 A 
ATOM      5  C7  UNL d   1       0.437  -2.236  -0.176  0.00  0.00     0.002 A 
ATOM      6  C8  UNL d   1      -0.499  -1.240   0.111  0.00  0.00     0.002 A 
ENDROOT
BRANCH   1   7
ATOM      7  C2  UNL d   1      -1.167   1.188   0.314  0.00  0.00     0.056 C 
BRANCH   7   8
ATOM      8  C1  UNL d   1      -2.578   0.653   0.577  0.00  0.00     0.007 C 
ATOM      9  C   UNL d   1      -3.154   1.106   1.912  0.00  0.00     0.009 C 
ENDBRANCH   7   8
ENDBRANCH   1   7
TORSDOF 2
ENDMDL
