MODEL 1
REMARK minimizedAffinity -3.50526023
REMARK minimizedRMSD -1
REMARK  2 active torsions:
REMARK  status: ('A' for Active; 'I' for Inactive)
REMARK    1  A    between atoms: C1_2  and  C2_3 
REMARK    2  A    between atoms: C2_3  and  C3_4 
ROOT
ATOM      1  C3  UNL d   1       0.781  -0.406  -0.157  0.00  0.00    -0.075 A 
ATOM      2  C4  UNL d   1       1.109   0.948   0.004  0.00  0.00     0.002 A 
ATOM      3  C5  UNL d   1       2.444   1.354   0.034  0.00  0.00     0.002 A 
ATOM      4  C6  UNL d   1       3.464   0.413  -0.088  0.00  0.00    -0.004 A 
ATOM      5  C7  UNL d   1       3.150  -0.936  -0.232  0.00  0.00     0.002 A 
ATOM      6  C8  UNL d   1       1.815  -1.345  -0.266  0.00  0.00     0.002 A 
ENDROOT
BRANCH   1   7
ATOM      7  C2  UNL d   1      -0.662  -0.849  -0.219  0.00  0.00     0.056 C 
BRANCH   7   8
ATOM      8  C1  UNL d   1      -1.200  -1.024  -1.643  0.00  0.00     0.007 C 
ATOM      9  C   UNL d   1      -0.889  -2.391  -2.239  0.00  0.00     0.009 C 
ENDBRANCH   7   8
ENDBRANCH   1   7
TORSDOF 2
ENDMDL
