MODEL 1
REMARK minimizedAffinity -3.6578238
REMARK minimizedRMSD -1
REMARK  2 active torsions:
REMARK  status: ('A' for Active; 'I' for Inactive)
REMARK    1  A    between atoms: C1_2  and  C2_3 
REMARK    2  A    between atoms: C2_3  and  C3_4 
ROOT
ATOM      1  C3  UNL d   1      -0.827  -0.344  -0.666  0.00  0.00    -0.075 A 
ATOM      2  C4  UNL d   1      -0.491  -1.700  -0.784  0.00  0.00     0.002 A 
ATOM      3  C5  UNL d   1       0.846  -2.096  -0.835  0.00  0.00     0.002 A 
ATOM      4  C6  UNL d   1       1.861  -1.143  -0.778  0.00  0.00    -0.004 A 
ATOM      5  C7  UNL d   1       1.538   0.208  -0.678  0.00  0.00     0.002 A 
ATOM      6  C8  UNL d   1       0.201   0.607  -0.622  0.00  0.00     0.002 A 
ENDROOT
BRANCH   1   7
ATOM      7  C2  UNL d   1      -2.272   0.089  -0.580  0.00  0.00     0.056 C 
BRANCH   7   8
ATOM      8  C1  UNL d   1      -2.679   0.636   0.792  0.00  0.00     0.007 C 
ATOM      9  C   UNL d   1      -4.122   0.318   1.161  0.00  0.00     0.009 C 
ENDBRANCH   7   8
ENDBRANCH   1   7
TORSDOF 2
ENDMDL
