MODEL 1
REMARK minimizedAffinity -2.8649435
REMARK minimizedRMSD -1
REMARK  2 active torsions:
REMARK  status: ('A' for Active; 'I' for Inactive)
REMARK    1  A    between atoms: C1_2  and  C2_3 
REMARK    2  A    between atoms: C2_3  and  C3_4 
ROOT
ATOM      1  C3  UNL d   1       0.205   0.009  -0.145  0.00  0.00    -0.075 A 
ATOM      2  C4  UNL d   1       0.331  -1.368  -0.380  0.00  0.00     0.002 A 
ATOM      3  C5  UNL d   1       1.591  -1.954  -0.501  0.00  0.00     0.002 A 
ATOM      4  C6  UNL d   1       2.739  -1.171  -0.399  0.00  0.00    -0.004 A 
ATOM      5  C7  UNL d   1       2.626   0.200  -0.183  0.00  0.00     0.002 A 
ATOM      6  C8  UNL d   1       1.366   0.788  -0.057  0.00  0.00     0.002 A 
ENDROOT
BRANCH   1   7
ATOM      7  C2  UNL d   1      -1.155   0.644   0.016  0.00  0.00     0.056 C 
BRANCH   7   8
ATOM      8  C1  UNL d   1      -1.889   0.231   1.297  0.00  0.00     0.007 C 
ATOM      9  C   UNL d   1      -3.162   1.028   1.543  0.00  0.00     0.009 C 
ENDBRANCH   7   8
ENDBRANCH   1   7
TORSDOF 2
ENDMDL
