MODEL 1
REMARK minimizedAffinity 1.31998885
REMARK minimizedRMSD -1
REMARK  2 active torsions:
REMARK  status: ('A' for Active; 'I' for Inactive)
REMARK    1  A    between atoms: C1_2  and  C2_3 
REMARK    2  A    between atoms: C2_3  and  C3_4 
ROOT
ATOM      1  C3  UNL d   1      -2.029   0.289  -0.091  0.00  0.00    -0.075 A 
ATOM      2  C4  UNL d   1      -3.242   0.614  -0.715  0.00  0.00     0.002 A 
ATOM      3  C5  UNL d   1      -4.404   0.782   0.040  0.00  0.00     0.002 A 
ATOM      4  C6  UNL d   1      -4.369   0.617   1.423  0.00  0.00    -0.004 A 
ATOM      5  C7  UNL d   1      -3.173   0.278   2.051  0.00  0.00     0.002 A 
ATOM      6  C8  UNL d   1      -2.008   0.114   1.299  0.00  0.00     0.002 A 
ENDROOT
BRANCH   1   7
ATOM      7  C2  UNL d   1      -0.762   0.135  -0.899  0.00  0.00     0.056 C 
BRANCH   7   8
ATOM      8  C1  UNL d   1       0.441  -0.354  -0.085  0.00  0.00     0.007 C 
ATOM      9  C   UNL d   1       0.630  -1.864  -0.143  0.00  0.00     0.009 C 
ENDBRANCH   7   8
ENDBRANCH   1   7
TORSDOF 2
ENDMDL
