MODEL 1
REMARK minimizedAffinity 2.61175966
REMARK minimizedRMSD -1
REMARK  0 active torsions:
REMARK  status: ('A' for Active; 'I' for Inactive)
ROOT
ATOM      1  C   UNL d   1      -4.167   2.652   2.184  0.00  0.00     0.172 C 
ATOM      2  N   UNL d   1      -4.353   1.622   1.189  0.00  0.00    -0.070 N 
ATOM      3  C1  UNL d   1      -5.543   1.284   0.603  0.00  0.00    -0.004 A 
ATOM      4  C2  UNL d   1      -5.300   0.261  -0.288  0.00  0.00    -0.047 A 
ATOM      5  C3  UNL d   1      -3.915  -0.026  -0.236  0.00  0.00    -0.047 A 
ATOM      6  C4  UNL d   1      -3.353   0.831   0.687  0.00  0.00    -0.004 A 
ENDROOT
TORSDOF 0
ENDMDL
