MODEL 1
REMARK minimizedAffinity 1.35549796
REMARK minimizedRMSD -1
REMARK  0 active torsions:
REMARK  status: ('A' for Active; 'I' for Inactive)
ROOT
ATOM      1  C   UNL d   1       3.524  -0.114  -0.409  0.00  0.00     0.172 C 
ATOM      2  N   UNL d   1       3.218  -1.425  -0.932  0.00  0.00    -0.070 N 
ATOM      3  C1  UNL d   1       3.226  -1.779  -2.254  0.00  0.00    -0.004 A 
ATOM      4  C2  UNL d   1       2.882  -3.111  -2.337  0.00  0.00    -0.047 A 
ATOM      5  C3  UNL d   1       2.659  -3.573  -1.018  0.00  0.00    -0.047 A 
ATOM      6  C4  UNL d   1       2.874  -2.509  -0.168  0.00  0.00    -0.004 A 
ENDROOT
TORSDOF 0
ENDMDL
