MODEL 1
REMARK minimizedAffinity 2.26360178
REMARK minimizedRMSD -1
REMARK  0 active torsions:
REMARK  status: ('A' for Active; 'I' for Inactive)
ROOT
ATOM      1  C   UNL d   1       2.603   2.313   6.000  0.00  0.00     0.172 C 
ATOM      2  N   UNL d   1       2.212   3.703   5.990  0.00  0.00    -0.070 N 
ATOM      3  C1  UNL d   1       0.925   4.170   5.998  0.00  0.00    -0.004 A 
ATOM      4  C2  UNL d   1       0.975   5.547   5.985  0.00  0.00    -0.047 A 
ATOM      5  C3  UNL d   1       2.340   5.920   5.968  0.00  0.00    -0.047 A 
ATOM      6  C4  UNL d   1       3.084   4.759   5.971  0.00  0.00    -0.004 A 
ENDROOT
TORSDOF 0
ENDMDL
