MODEL 1
REMARK minimizedAffinity 0.780326784
REMARK minimizedRMSD -1
REMARK  0 active torsions:
REMARK  status: ('A' for Active; 'I' for Inactive)
ROOT
ATOM      1  C   UNL d   1      -0.131   5.998   4.129  0.00  0.00     0.172 C 
ATOM      2  N   UNL d   1       0.975   5.247   4.675  0.00  0.00    -0.070 N 
ATOM      3  C1  UNL d   1       0.945   4.505   5.826  0.00  0.00    -0.004 A 
ATOM      4  C2  UNL d   1       2.193   3.946   6.000  0.00  0.00    -0.047 A 
ATOM      5  C3  UNL d   1       3.001   4.368   4.917  0.00  0.00    -0.047 A 
ATOM      6  C4  UNL d   1       2.221   5.172   4.112  0.00  0.00    -0.004 A 
ENDROOT
TORSDOF 0
ENDMDL
