MODEL 1
REMARK minimizedAffinity 0.192883939
REMARK minimizedRMSD -1
REMARK  0 active torsions:
REMARK  status: ('A' for Active; 'I' for Inactive)
ROOT
ATOM      1  C   UNL d   1       2.389   4.476   5.998  0.00  0.00     0.172 C 
ATOM      2  N   UNL d   1       3.364   3.616   5.369  0.00  0.00    -0.070 N 
ATOM      3  C1  UNL d   1       3.762   3.685   4.060  0.00  0.00    -0.004 A 
ATOM      4  C2  UNL d   1       4.702   2.698   3.852  0.00  0.00    -0.047 A 
ATOM      5  C3  UNL d   1       4.874   2.013   5.078  0.00  0.00    -0.047 A 
ATOM      6  C4  UNL d   1       4.034   2.602   6.000  0.00  0.00    -0.004 A 
ENDROOT
TORSDOF 0
ENDMDL
