MODEL 1
REMARK minimizedAffinity -1.69045198
REMARK minimizedRMSD -1
REMARK  0 active torsions:
REMARK  status: ('A' for Active; 'I' for Inactive)
ROOT
ATOM      1  C   UNL d   1       3.376   0.297  -0.835  0.00  0.00     0.172 C 
ATOM      2  N   UNL d   1       4.203   1.140  -0.004  0.00  0.00    -0.070 N 
ATOM      3  C1  UNL d   1       3.748   2.065   0.898  0.00  0.00    -0.004 A 
ATOM      4  C2  UNL d   1       4.846   2.657   1.486  0.00  0.00    -0.047 A 
ATOM      5  C3  UNL d   1       6.000   2.068   0.917  0.00  0.00    -0.047 A 
ATOM      6  C4  UNL d   1       5.573   1.132  -0.002  0.00  0.00    -0.004 A 
ENDROOT
TORSDOF 0
ENDMDL
