MODEL 1
REMARK minimizedAffinity 2.63163042
REMARK minimizedRMSD -1
REMARK  0 active torsions:
REMARK  status: ('A' for Active; 'I' for Inactive)
ROOT
ATOM      1  C   UNL d   1       3.047   0.231  -0.789  0.00  0.00     0.172 C 
ATOM      2  N   UNL d   1       4.077   1.129  -0.323  0.00  0.00    -0.070 N 
ATOM      3  C1  UNL d   1       3.995   2.496  -0.302  0.00  0.00    -0.004 A 
ATOM      4  C2  UNL d   1       5.178   2.982   0.211  0.00  0.00    -0.047 A 
ATOM      5  C3  UNL d   1       6.000   1.869   0.508  0.00  0.00    -0.047 A 
ATOM      6  C4  UNL d   1       5.294   0.735   0.167  0.00  0.00    -0.004 A 
ENDROOT
TORSDOF 0
ENDMDL
