MODEL 1
REMARK minimizedAffinity 4.62224102
REMARK minimizedRMSD -1
REMARK  0 active torsions:
REMARK  status: ('A' for Active; 'I' for Inactive)
ROOT
ATOM      1  C   UNL d   1      -2.368  -0.541  -2.665  0.00  0.00     0.172 C 
ATOM      2  N   UNL d   1      -3.187  -0.046  -3.746  0.00  0.00    -0.070 N 
ATOM      3  C1  UNL d   1      -2.724   0.498  -4.914  0.00  0.00    -0.004 A 
ATOM      4  C2  UNL d   1      -3.815   0.845  -5.680  0.00  0.00    -0.047 A 
ATOM      5  C3  UNL d   1      -4.975   0.499  -4.947  0.00  0.00    -0.047 A 
ATOM      6  C4  UNL d   1      -4.557  -0.051  -3.753  0.00  0.00    -0.004 A 
ENDROOT
TORSDOF 0
ENDMDL
