MODEL 1
REMARK minimizedAffinity -1.93855381
REMARK minimizedRMSD -1
REMARK  0 active torsions:
REMARK  status: ('A' for Active; 'I' for Inactive)
ROOT
ATOM      1  C   UNL d   1       5.489   2.295   0.684  0.00  0.00     0.172 C 
ATOM      2  N   UNL d   1       4.621   1.350   0.021  0.00  0.00    -0.070 N 
ATOM      3  C1  UNL d   1       4.094   1.495  -1.235  0.00  0.00    -0.004 A 
ATOM      4  C2  UNL d   1       3.323   0.384  -1.500  0.00  0.00    -0.047 A 
ATOM      5  C3  UNL d   1       3.389  -0.458  -0.364  0.00  0.00    -0.047 A 
ATOM      6  C4  UNL d   1       4.199   0.165   0.562  0.00  0.00    -0.004 A 
ENDROOT
TORSDOF 0
ENDMDL
