MODEL 1
REMARK minimizedAffinity 1.86423039
REMARK minimizedRMSD -1
REMARK  0 active torsions:
REMARK  status: ('A' for Active; 'I' for Inactive)
ROOT
ATOM      1  C   UNL d   1       6.000   3.187   0.740  0.00  0.00     0.172 C 
ATOM      2  N   UNL d   1       5.324   2.110   0.057  0.00  0.00    -0.070 N 
ATOM      3  C1  UNL d   1       5.927   1.010  -0.494  0.00  0.00    -0.004 A 
ATOM      4  C2  UNL d   1       4.942   0.222  -1.049  0.00  0.00    -0.047 A 
ATOM      5  C3  UNL d   1       3.704   0.871  -0.826  0.00  0.00    -0.047 A 
ATOM      6  C4  UNL d   1       3.970   2.037  -0.140  0.00  0.00    -0.004 A 
ENDROOT
TORSDOF 0
ENDMDL
