MODEL 1
REMARK minimizedAffinity 7.81493473
REMARK minimizedRMSD -1
REMARK  0 active torsions:
REMARK  status: ('A' for Active; 'I' for Inactive)
ROOT
ATOM      1  C   UNL d   1       3.131   1.769   5.988  0.00  0.00     0.172 C 
ATOM      2  N   UNL d   1       2.962   3.203   5.991  0.00  0.00    -0.070 N 
ATOM      3  C1  UNL d   1       3.973   4.127   5.992  0.00  0.00    -0.004 A 
ATOM      4  C2  UNL d   1       3.401   5.380   5.994  0.00  0.00    -0.047 A 
ATOM      5  C3  UNL d   1       1.996   5.204   5.995  0.00  0.00    -0.047 A 
ATOM      6  C4  UNL d   1       1.753   3.847   5.993  0.00  0.00    -0.004 A 
ENDROOT
TORSDOF 0
ENDMDL
