MODEL 1
REMARK minimizedAffinity 1.30568588
REMARK minimizedRMSD -1
REMARK  0 active torsions:
REMARK  status: ('A' for Active; 'I' for Inactive)
ROOT
ATOM      1  C   UNL d   1       3.370  -0.361  -0.386  0.00  0.00     0.172 C 
ATOM      2  N   UNL d   1       4.223   0.761  -0.072  0.00  0.00    -0.070 N 
ATOM      3  C1  UNL d   1       5.548   0.688   0.263  0.00  0.00    -0.004 A 
ATOM      4  C2  UNL d   1       5.999   1.971   0.487  0.00  0.00    -0.047 A 
ATOM      5  C3  UNL d   1       4.906   2.846   0.279  0.00  0.00    -0.047 A 
ATOM      6  C4  UNL d   1       3.819   2.070  -0.066  0.00  0.00    -0.004 A 
ENDROOT
TORSDOF 0
ENDMDL
