MODEL 1
REMARK minimizedAffinity -4.32672596
REMARK minimizedRMSD -1
REMARK  0 active torsions:
REMARK  status: ('A' for Active; 'I' for Inactive)
ROOT
ATOM      1  C   UNL d   1      -1.136   0.163  -0.383  0.00  0.00     0.077 C 
ATOM      2  C1  UNL d   1       0.082  -0.102   0.453  0.00  0.00    -0.074 A 
ATOM      3  C2  UNL d   1       1.098   0.853   0.565  0.00  0.00    -0.005 A 
ATOM      4  C3  UNL d   1       2.219   0.596   1.353  0.00  0.00     0.006 A 
ATOM      5  C4  UNL d   1       2.337  -0.615   2.036  0.00  0.00    -0.005 A 
ATOM      6  C5  UNL d   1       1.331  -1.581   1.936  0.00  0.00    -0.074 A 
ATOM      7  C6  UNL d   1       1.436  -2.885   2.671  0.00  0.00     0.077 C 
ATOM      8  C7  UNL d   1       0.203  -1.313   1.148  0.00  0.00    -0.001 A 
ENDROOT
TORSDOF 0
ENDMDL
