MODEL 1
REMARK minimizedAffinity -3.11937046
REMARK minimizedRMSD -1
REMARK  0 active torsions:
REMARK  status: ('A' for Active; 'I' for Inactive)
ROOT
ATOM      1  C   UNL d   1      -2.986  -0.413  -2.872  0.00  0.00     0.077 C 
ATOM      2  C1  UNL d   1      -2.102  -0.229  -1.675  0.00  0.00    -0.074 A 
ATOM      3  C2  UNL d   1      -2.504  -0.673  -0.410  0.00  0.00    -0.005 A 
ATOM      4  C3  UNL d   1      -1.667  -0.504   0.693  0.00  0.00     0.006 A 
ATOM      5  C4  UNL d   1      -0.423   0.110   0.544  0.00  0.00    -0.005 A 
ATOM      6  C5  UNL d   1      -0.004   0.560  -0.713  0.00  0.00    -0.074 A 
ATOM      7  C6  UNL d   1       1.334   1.213  -0.892  0.00  0.00     0.077 C 
ATOM      8  C7  UNL d   1      -0.848   0.380  -1.818  0.00  0.00    -0.001 A 
ENDROOT
TORSDOF 0
ENDMDL
