MODEL 1
REMARK minimizedAffinity -4.16922235
REMARK minimizedRMSD -1
REMARK  0 active torsions:
REMARK  status: ('A' for Active; 'I' for Inactive)
ROOT
ATOM      1  C   UNL d   1      -1.662  -0.720   0.631  0.00  0.00     0.077 C 
ATOM      2  C1  UNL d   1      -0.357  -0.040   0.340  0.00  0.00    -0.074 A 
ATOM      3  C2  UNL d   1      -0.317   1.163  -0.372  0.00  0.00    -0.005 A 
ATOM      4  C3  UNL d   1       0.904   1.789  -0.627  0.00  0.00     0.006 A 
ATOM      5  C4  UNL d   1       2.094   1.219  -0.172  0.00  0.00    -0.005 A 
ATOM      6  C5  UNL d   1       2.073   0.017   0.542  0.00  0.00    -0.074 A 
ATOM      7  C6  UNL d   1       3.341  -0.604   1.046  0.00  0.00     0.077 C 
ATOM      8  C7  UNL d   1       0.842  -0.602   0.800  0.00  0.00    -0.001 A 
ENDROOT
TORSDOF 0
ENDMDL
