MODEL 1
REMARK minimizedAffinity -4.29112768
REMARK minimizedRMSD -1
REMARK  0 active torsions:
REMARK  status: ('A' for Active; 'I' for Inactive)
ROOT
ATOM      1  C   UNL d   1      -0.940  -2.656   1.605  0.00  0.00     0.077 C 
ATOM      2  C1  UNL d   1      -0.259  -1.379   1.211  0.00  0.00    -0.074 A 
ATOM      3  C2  UNL d   1      -0.981  -0.327   0.639  0.00  0.00    -0.005 A 
ATOM      4  C3  UNL d   1      -0.336   0.859   0.287  0.00  0.00     0.006 A 
ATOM      5  C4  UNL d   1       1.035   1.004   0.503  0.00  0.00    -0.005 A 
ATOM      6  C5  UNL d   1       1.773  -0.037   1.075  0.00  0.00    -0.074 A 
ATOM      7  C6  UNL d   1       3.245   0.106   1.324  0.00  0.00     0.077 C 
ATOM      8  C7  UNL d   1       1.116  -1.223   1.433  0.00  0.00    -0.001 A 
ENDROOT
TORSDOF 0
ENDMDL
