MODEL 1
REMARK minimizedAffinity -1.65440333
REMARK minimizedRMSD -1
REMARK  0 active torsions:
REMARK  status: ('A' for Active; 'I' for Inactive)
ROOT
ATOM      1  C   UNL d   1       3.262  -1.085   1.096  0.00  0.00     0.077 C 
ATOM      2  C1  UNL d   1       2.128  -0.159   0.773  0.00  0.00    -0.074 A 
ATOM      3  C2  UNL d   1       2.258   1.224   0.940  0.00  0.00    -0.005 A 
ATOM      4  C3  UNL d   1       1.197   2.073   0.626  0.00  0.00     0.006 A 
ATOM      5  C4  UNL d   1      -0.002   1.550   0.143  0.00  0.00    -0.005 A 
ATOM      6  C5  UNL d   1      -0.151   0.170  -0.032  0.00  0.00    -0.074 A 
ATOM      7  C6  UNL d   1      -1.430  -0.408  -0.560  0.00  0.00     0.077 C 
ATOM      8  C7  UNL d   1       0.922  -0.676   0.279  0.00  0.00    -0.001 A 
ENDROOT
TORSDOF 0
ENDMDL
