MODEL 1
REMARK minimizedAffinity -1.76009119
REMARK minimizedRMSD -1
REMARK  0 active torsions:
REMARK  status: ('A' for Active; 'I' for Inactive)
ROOT
ATOM      1  C   UNL d   1      -1.325   0.759  -0.790  0.00  0.00     0.077 C 
ATOM      2  C1  UNL d   1      -0.023   0.614  -0.060  0.00  0.00    -0.074 A 
ATOM      3  C2  UNL d   1       1.022   1.521  -0.266  0.00  0.00    -0.005 A 
ATOM      4  C3  UNL d   1       2.223   1.379   0.428  0.00  0.00     0.006 A 
ATOM      5  C4  UNL d   1       2.392   0.330   1.334  0.00  0.00    -0.005 A 
ATOM      6  C5  UNL d   1       1.358  -0.585   1.554  0.00  0.00    -0.074 A 
ATOM      7  C6  UNL d   1       1.519  -1.712   2.531  0.00  0.00     0.077 C 
ATOM      8  C7  UNL d   1       0.151  -0.432   0.858  0.00  0.00    -0.001 A 
ENDROOT
TORSDOF 0
ENDMDL
