MODEL 1
REMARK minimizedAffinity 17.6636391
REMARK minimizedRMSD -1
REMARK  0 active torsions:
REMARK  status: ('A' for Active; 'I' for Inactive)
ROOT
ATOM      1  C   UNL d   1      -1.521   0.384   2.597  0.00  0.00     0.124 A 
ATOM      2  C1  UNL d   1      -2.562   0.716   1.740  0.00  0.00     0.062 A 
ATOM      3  C2  UNL d   1      -3.841   0.214   1.966  0.00  0.00     0.162 A 
ATOM      4  C3  UNL d   1      -4.086  -0.625   3.053  0.00  0.00    -0.034 A 
ATOM      5  C4  UNL d   1      -3.034  -0.955   3.909  0.00  0.00     0.162 A 
ATOM      6  C5  UNL d   1      -1.758  -0.451   3.680  0.00  0.00     0.062 A 
ATOM      7  F   UNL d   1      -0.754  -0.773   4.508  0.00  0.00    -0.097 F 
ATOM      8  F1  UNL d   1      -3.235  -1.759   4.964  0.00  0.00    -0.096 F 
ATOM      9  I   UNL d   1      -5.997  -1.377   3.393  0.00  0.00    -0.060 I 
ATOM     10  F2  UNL d   1      -4.828   0.551   1.122  0.00  0.00    -0.096 F 
ATOM     11  F3  UNL d   1      -2.336   1.521   0.693  0.00  0.00    -0.097 F 
ATOM     12  F4  UNL d   1      -0.292   0.867   2.377  0.00  0.00    -0.092 F 
ENDROOT
TORSDOF 0
ENDMDL
