MODEL 1
REMARK minimizedAffinity 17.2957516
REMARK minimizedRMSD -1
REMARK  0 active torsions:
REMARK  status: ('A' for Active; 'I' for Inactive)
ROOT
ATOM      1  C   UNL d   1       1.620   2.185  -2.807  0.00  0.00     0.124 A 
ATOM      2  C1  UNL d   1       1.459   3.307  -2.007  0.00  0.00     0.062 A 
ATOM      3  C2  UNL d   1       1.772   3.251  -0.652  0.00  0.00     0.162 A 
ATOM      4  C3  UNL d   1       2.251   2.068  -0.088  0.00  0.00    -0.034 A 
ATOM      5  C4  UNL d   1       2.409   0.943  -0.900  0.00  0.00     0.162 A 
ATOM      6  C5  UNL d   1       2.095   1.005  -2.254  0.00  0.00     0.062 A 
ATOM      7  F   UNL d   1       2.251  -0.081  -3.026  0.00  0.00    -0.097 F 
ATOM      8  F1  UNL d   1       2.867  -0.210  -0.391  0.00  0.00    -0.096 F 
ATOM      9  I   UNL d   1       2.720   1.980   1.937  0.00  0.00    -0.060 I 
ATOM     10  F2  UNL d   1       1.607   4.351   0.098  0.00  0.00    -0.096 F 
ATOM     11  F3  UNL d   1       1.000   4.449  -2.539  0.00  0.00    -0.097 F 
ATOM     12  F4  UNL d   1       1.317   2.242  -4.111  0.00  0.00    -0.092 F 
ENDROOT
TORSDOF 0
ENDMDL
