MODEL 1
REMARK minimizedAffinity 20.4565639
REMARK minimizedRMSD -1
REMARK  0 active torsions:
REMARK  status: ('A' for Active; 'I' for Inactive)
ROOT
ATOM      1  C   UNL d   1       1.926  -0.963  -2.233  0.00  0.00     0.124 A 
ATOM      2  C1  UNL d   1       1.967   0.382  -2.572  0.00  0.00     0.062 A 
ATOM      3  C2  UNL d   1       2.725   1.272  -1.816  0.00  0.00     0.162 A 
ATOM      4  C3  UNL d   1       3.450   0.819  -0.713  0.00  0.00    -0.034 A 
ATOM      5  C4  UNL d   1       3.403  -0.536  -0.378  0.00  0.00     0.162 A 
ATOM      6  C5  UNL d   1       2.644  -1.421  -1.137  0.00  0.00     0.062 A 
ATOM      7  F   UNL d   1       2.606  -2.720  -0.808  0.00  0.00    -0.097 F 
ATOM      8  F1  UNL d   1       4.088  -1.005   0.675  0.00  0.00    -0.096 F 
ATOM      9  I   UNL d   1       4.585   2.146   0.420  0.00  0.00    -0.060 I 
ATOM     10  F2  UNL d   1       2.746   2.567  -2.166  0.00  0.00    -0.096 F 
ATOM     11  F3  UNL d   1       1.274   0.827  -3.629  0.00  0.00    -0.097 F 
ATOM     12  F4  UNL d   1       1.196  -1.817  -2.961  0.00  0.00    -0.092 F 
ENDROOT
TORSDOF 0
ENDMDL
