MODEL 1
REMARK minimizedAffinity 21.5226898
REMARK minimizedRMSD -1
REMARK  0 active torsions:
REMARK  status: ('A' for Active; 'I' for Inactive)
ROOT
ATOM      1  C   UNL d   1      -0.032   0.244   2.921  0.00  0.00     0.124 A 
ATOM      2  C1  UNL d   1      -0.948   0.930   2.135  0.00  0.00     0.062 A 
ATOM      3  C2  UNL d   1      -2.313   0.734   2.319  0.00  0.00     0.162 A 
ATOM      4  C3  UNL d   1      -2.772  -0.151   3.295  0.00  0.00    -0.034 A 
ATOM      5  C4  UNL d   1      -1.845  -0.838   4.081  0.00  0.00     0.162 A 
ATOM      6  C5  UNL d   1      -0.482  -0.639   3.893  0.00  0.00     0.062 A 
ATOM      7  F   UNL d   1       0.402  -1.302   4.653  0.00  0.00    -0.097 F 
ATOM      8  F1  UNL d   1      -2.252  -1.696   5.028  0.00  0.00    -0.096 F 
ATOM      9  I   UNL d   1      -4.814  -0.446   3.574  0.00  0.00    -0.060 I 
ATOM     10  F2  UNL d   1      -3.176   1.410   1.546  0.00  0.00    -0.096 F 
ATOM     11  F3  UNL d   1      -0.516   1.782   1.195  0.00  0.00    -0.097 F 
ATOM     12  F4  UNL d   1       1.281   0.433   2.741  0.00  0.00    -0.092 F 
ENDROOT
TORSDOF 0
ENDMDL
