MODEL 1
REMARK minimizedAffinity 16.3415565
REMARK minimizedRMSD -1
REMARK  0 active torsions:
REMARK  status: ('A' for Active; 'I' for Inactive)
ROOT
ATOM      1  C   UNL d   1      -1.403  -0.382   2.335  0.00  0.00     0.124 A 
ATOM      2  C1  UNL d   1      -2.460  -0.039   1.504  0.00  0.00     0.062 A 
ATOM      3  C2  UNL d   1      -3.773  -0.219   1.930  0.00  0.00     0.162 A 
ATOM      4  C3  UNL d   1      -4.037  -0.744   3.195  0.00  0.00    -0.034 A 
ATOM      5  C4  UNL d   1      -2.968  -1.087   4.025  0.00  0.00     0.162 A 
ATOM      6  C5  UNL d   1      -1.658  -0.905   3.595  0.00  0.00     0.062 A 
ATOM      7  F   UNL d   1      -0.638  -1.237   4.400  0.00  0.00    -0.097 F 
ATOM      8  F1  UNL d   1      -3.186  -1.594   5.248  0.00  0.00    -0.096 F 
ATOM      9  I   UNL d   1      -5.998  -1.014   3.835  0.00  0.00    -0.060 I 
ATOM     10  F2  UNL d   1      -4.775   0.121   1.105  0.00  0.00    -0.096 F 
ATOM     11  F3  UNL d   1      -2.217   0.467   0.286  0.00  0.00    -0.097 F 
ATOM     12  F4  UNL d   1      -0.141  -0.208   1.923  0.00  0.00    -0.092 F 
ENDROOT
TORSDOF 0
ENDMDL
