MODEL 1
REMARK minimizedAffinity 16.5544186
REMARK minimizedRMSD -1
REMARK  0 active torsions:
REMARK  status: ('A' for Active; 'I' for Inactive)
ROOT
ATOM      1  C   UNL d   1      -2.814  -0.103   2.879  0.00  0.00     0.124 A 
ATOM      2  C1  UNL d   1      -1.648  -0.636   3.411  0.00  0.00     0.062 A 
ATOM      3  C2  UNL d   1      -0.527  -0.812   2.604  0.00  0.00     0.162 A 
ATOM      4  C3  UNL d   1      -0.566  -0.453   1.257  0.00  0.00    -0.034 A 
ATOM      5  C4  UNL d   1      -1.743   0.081   0.729  0.00  0.00     0.162 A 
ATOM      6  C5  UNL d   1      -2.860   0.255   1.539  0.00  0.00     0.062 A 
ATOM      7  F   UNL d   1      -3.986   0.770   1.023  0.00  0.00    -0.097 F 
ATOM      8  F1  UNL d   1      -1.815   0.436  -0.563  0.00  0.00    -0.096 F 
ATOM      9  I   UNL d   1       1.108  -0.715   0.048  0.00  0.00    -0.060 I 
ATOM     10  F2  UNL d   1       0.586  -1.329   3.145  0.00  0.00    -0.096 F 
ATOM     11  F3  UNL d   1      -1.601  -0.983   4.705  0.00  0.00    -0.097 F 
ATOM     12  F4  UNL d   1      -3.891   0.065   3.656  0.00  0.00    -0.092 F 
ENDROOT
TORSDOF 0
ENDMDL
