MODEL 1
REMARK minimizedAffinity 29.4068165
REMARK minimizedRMSD -1
REMARK  0 active torsions:
REMARK  status: ('A' for Active; 'I' for Inactive)
ROOT
ATOM      1  C   UNL d   1       1.553  -1.745  -3.290  0.00  0.00     0.124 A 
ATOM      2  C1  UNL d   1       2.170  -0.507  -3.402  0.00  0.00     0.062 A 
ATOM      3  C2  UNL d   1       2.743   0.093  -2.284  0.00  0.00     0.162 A 
ATOM      4  C3  UNL d   1       2.702  -0.544  -1.044  0.00  0.00    -0.034 A 
ATOM      5  C4  UNL d   1       2.079  -1.789  -0.939  0.00  0.00     0.162 A 
ATOM      6  C5  UNL d   1       1.508  -2.385  -2.059  0.00  0.00     0.062 A 
ATOM      7  F   UNL d   1       0.913  -3.581  -1.949  0.00  0.00    -0.097 F 
ATOM      8  F1  UNL d   1       2.022  -2.430   0.238  0.00  0.00    -0.096 F 
ATOM      9  I   UNL d   1       3.557   0.350   0.629  0.00  0.00    -0.060 I 
ATOM     10  F2  UNL d   1       3.332   1.290  -2.422  0.00  0.00    -0.096 F 
ATOM     11  F3  UNL d   1       2.214   0.113  -4.590  0.00  0.00    -0.097 F 
ATOM     12  F4  UNL d   1       1.002  -2.320  -4.367  0.00  0.00    -0.092 F 
ENDROOT
TORSDOF 0
ENDMDL
