MODEL 1
REMARK minimizedAffinity 21.6011047
REMARK minimizedRMSD -1
REMARK  0 active torsions:
REMARK  status: ('A' for Active; 'I' for Inactive)
ROOT
ATOM      1  C   UNL d   1       0.569   1.021   2.600  0.00  0.00     0.124 A 
ATOM      2  C1  UNL d   1       0.141  -0.117   3.270  0.00  0.00     0.062 A 
ATOM      3  C2  UNL d   1      -1.202  -0.483   3.241  0.00  0.00     0.162 A 
ATOM      4  C3  UNL d   1      -2.127   0.291   2.539  0.00  0.00    -0.034 A 
ATOM      5  C4  UNL d   1      -1.689   1.434   1.869  0.00  0.00     0.162 A 
ATOM      6  C5  UNL d   1      -0.346   1.795   1.901  0.00  0.00     0.062 A 
ATOM      7  F   UNL d   1       0.066   2.895   1.254  0.00  0.00    -0.097 F 
ATOM      8  F1  UNL d   1      -2.551   2.201   1.185  0.00  0.00    -0.096 F 
ATOM      9  I   UNL d   1      -4.136  -0.252   2.494  0.00  0.00    -0.060 I 
ATOM     10  F2  UNL d   1      -1.588  -1.587   3.897  0.00  0.00    -0.096 F 
ATOM     11  F3  UNL d   1       1.022  -0.867   3.947  0.00  0.00    -0.097 F 
ATOM     12  F4  UNL d   1       1.862   1.370   2.630  0.00  0.00    -0.092 F 
ENDROOT
TORSDOF 0
ENDMDL
