MODEL 1
REMARK minimizedAffinity 30.4909439
REMARK minimizedRMSD -1
REMARK  0 active torsions:
REMARK  status: ('A' for Active; 'I' for Inactive)
ROOT
ATOM      1  C   UNL d   1      -1.271  -0.400   2.798  0.00  0.00     0.124 A 
ATOM      2  C1  UNL d   1      -1.655  -1.142   3.907  0.00  0.00     0.062 A 
ATOM      3  C2  UNL d   1      -3.004  -1.347   4.179  0.00  0.00     0.162 A 
ATOM      4  C3  UNL d   1      -3.981  -0.811   3.339  0.00  0.00    -0.034 A 
ATOM      5  C4  UNL d   1      -3.587  -0.065   2.227  0.00  0.00     0.162 A 
ATOM      6  C5  UNL d   1      -2.237   0.138   1.960  0.00  0.00     0.062 A 
ATOM      7  F   UNL d   1      -1.868   0.855   0.888  0.00  0.00    -0.097 F 
ATOM      8  F1  UNL d   1      -4.500   0.465   1.399  0.00  0.00    -0.096 F 
ATOM      9  I   UNL d   1      -6.000  -1.116   3.742  0.00  0.00    -0.060 I 
ATOM     10  F2  UNL d   1      -3.346  -2.069   5.257  0.00  0.00    -0.096 F 
ATOM     11  F3  UNL d   1      -0.723  -1.662   4.719  0.00  0.00    -0.097 F 
ATOM     12  F4  UNL d   1       0.028  -0.203   2.540  0.00  0.00    -0.092 F 
ENDROOT
TORSDOF 0
ENDMDL
