MODEL 1
REMARK minimizedAffinity 22.3250103
REMARK minimizedRMSD -1
REMARK  0 active torsions:
REMARK  status: ('A' for Active; 'I' for Inactive)
ROOT
ATOM      1  C   UNL d   1      -4.932  -4.902  -3.998  0.00  0.00     0.124 A 
ATOM      2  C1  UNL d   1      -4.795  -3.923  -4.972  0.00  0.00     0.062 A 
ATOM      3  C2  UNL d   1      -3.688  -3.079  -4.965  0.00  0.00     0.162 A 
ATOM      4  C3  UNL d   1      -2.708  -3.212  -3.981  0.00  0.00    -0.034 A 
ATOM      5  C4  UNL d   1      -2.853  -4.199  -3.005  0.00  0.00     0.162 A 
ATOM      6  C5  UNL d   1      -3.961  -5.039  -3.016  0.00  0.00     0.062 A 
ATOM      7  F   UNL d   1      -4.092  -5.985  -2.074  0.00  0.00    -0.097 F 
ATOM      8  F1  UNL d   1      -1.930  -4.354  -2.044  0.00  0.00    -0.096 F 
ATOM      9  I   UNL d   1      -1.051  -1.953  -3.968  0.00  0.00    -0.060 I 
ATOM     10  F2  UNL d   1      -3.581  -2.142  -5.918  0.00  0.00    -0.096 F 
ATOM     11  F3  UNL d   1      -5.732  -3.788  -5.922  0.00  0.00    -0.097 F 
ATOM     12  F4  UNL d   1      -5.999  -5.712  -4.006  0.00  0.00    -0.092 F 
ENDROOT
TORSDOF 0
ENDMDL
