MODEL 1
REMARK minimizedAffinity 16.0778561
REMARK minimizedRMSD -1
REMARK  0 active torsions:
REMARK  status: ('A' for Active; 'I' for Inactive)
ROOT
ATOM      1  C   UNL d   1       2.284  -1.249  -2.130  0.00  0.00     0.124 A 
ATOM      2  C1  UNL d   1       1.359  -1.567  -3.115  0.00  0.00     0.062 A 
ATOM      3  C2  UNL d   1       0.868  -2.865  -3.222  0.00  0.00     0.162 A 
ATOM      4  C3  UNL d   1       1.300  -3.855  -2.340  0.00  0.00    -0.034 A 
ATOM      5  C4  UNL d   1       2.231  -3.528  -1.353  0.00  0.00     0.162 A 
ATOM      6  C5  UNL d   1       2.719  -2.230  -1.250  0.00  0.00     0.062 A 
ATOM      7  F   UNL d   1       3.612  -1.924  -0.298  0.00  0.00    -0.097 F 
ATOM      8  F1  UNL d   1       2.668  -4.456  -0.488  0.00  0.00    -0.096 F 
ATOM      9  I   UNL d   1       0.568  -5.797  -2.496  0.00  0.00    -0.060 I 
ATOM     10  F2  UNL d   1      -0.025  -3.144  -4.184  0.00  0.00    -0.096 F 
ATOM     11  F3  UNL d   1       0.938  -0.621  -3.968  0.00  0.00    -0.097 F 
ATOM     12  F4  UNL d   1       2.755   0.001  -2.031  0.00  0.00    -0.092 F 
ENDROOT
TORSDOF 0
ENDMDL
