MODEL 1
REMARK minimizedAffinity 14.8623915
REMARK minimizedRMSD -1
REMARK  0 active torsions:
REMARK  status: ('A' for Active; 'I' for Inactive)
ROOT
ATOM      1  C   UNL d   1      -2.279  -4.628  -2.682  0.00  0.00     0.124 A 
ATOM      2  C1  UNL d   1      -2.090  -3.789  -3.771  0.00  0.00     0.062 A 
ATOM      3  C2  UNL d   1      -3.149  -3.504  -4.628  0.00  0.00     0.162 A 
ATOM      4  C3  UNL d   1      -4.408  -4.060  -4.399  0.00  0.00    -0.034 A 
ATOM      5  C4  UNL d   1      -4.590  -4.904  -3.302  0.00  0.00     0.162 A 
ATOM      6  C5  UNL d   1      -3.528  -5.185  -2.449  0.00  0.00     0.062 A 
ATOM      7  F   UNL d   1      -3.713  -5.996  -1.397  0.00  0.00    -0.097 F 
ATOM      8  F1  UNL d   1      -5.787  -5.455  -3.053  0.00  0.00    -0.096 F 
ATOM      9  I   UNL d   1      -5.994  -3.637  -5.678  0.00  0.00    -0.060 I 
ATOM     10  F2  UNL d   1      -2.937  -2.690  -5.672  0.00  0.00    -0.096 F 
ATOM     11  F3  UNL d   1      -0.883  -3.250  -3.999  0.00  0.00    -0.097 F 
ATOM     12  F4  UNL d   1      -1.258  -4.901  -1.860  0.00  0.00    -0.092 F 
ENDROOT
TORSDOF 0
ENDMDL
