MODEL 1
REMARK minimizedAffinity 8.46942139
REMARK minimizedRMSD -1
REMARK  0 active torsions:
REMARK  status: ('A' for Active; 'I' for Inactive)
ROOT
ATOM      1  C   UNL d   1       1.551  -2.841  -2.367  0.00  0.00     0.124 A 
ATOM      2  C1  UNL d   1       1.854  -2.071  -3.482  0.00  0.00     0.062 A 
ATOM      3  C2  UNL d   1       2.176  -0.724  -3.336  0.00  0.00     0.162 A 
ATOM      4  C3  UNL d   1       2.197  -0.139  -2.070  0.00  0.00    -0.034 A 
ATOM      5  C4  UNL d   1       1.891  -0.919  -0.954  0.00  0.00     0.162 A 
ATOM      6  C5  UNL d   1       1.570  -2.264  -1.105  0.00  0.00     0.062 A 
ATOM      7  F   UNL d   1       1.278  -3.007  -0.027  0.00  0.00    -0.097 F 
ATOM      8  F1  UNL d   1       1.902  -0.388   0.277  0.00  0.00    -0.096 F 
ATOM      9  I   UNL d   1       2.678   1.874  -1.848  0.00  0.00    -0.060 I 
ATOM     10  F2  UNL d   1       2.464  -0.004  -4.431  0.00  0.00    -0.096 F 
ATOM     11  F3  UNL d   1       1.836  -2.625  -4.703  0.00  0.00    -0.097 F 
ATOM     12  F4  UNL d   1       1.241  -4.135  -2.511  0.00  0.00    -0.092 F 
ENDROOT
TORSDOF 0
ENDMDL
