MODEL 1
REMARK minimizedAffinity 12.5203218
REMARK minimizedRMSD -1
REMARK  0 active torsions:
REMARK  status: ('A' for Active; 'I' for Inactive)
ROOT
ATOM      1  C   UNL d   1      -1.156  -4.500  -3.044  0.00  0.00     0.124 A 
ATOM      2  C1  UNL d   1      -1.956  -5.260  -2.202  0.00  0.00     0.062 A 
ATOM      3  C2  UNL d   1      -3.339  -5.256  -2.358  0.00  0.00     0.162 A 
ATOM      4  C3  UNL d   1      -3.932  -4.489  -3.362  0.00  0.00    -0.034 A 
ATOM      5  C4  UNL d   1      -3.121  -3.726  -4.204  0.00  0.00     0.162 A 
ATOM      6  C5  UNL d   1      -1.739  -3.734  -4.044  0.00  0.00     0.062 A 
ATOM      7  F   UNL d   1      -0.968  -2.999  -4.858  0.00  0.00    -0.097 F 
ATOM      8  F1  UNL d   1      -3.658  -2.978  -5.179  0.00  0.00    -0.096 F 
ATOM      9  I   UNL d   1      -6.000  -4.480  -3.599  0.00  0.00    -0.060 I 
ATOM     10  F2  UNL d   1      -4.088  -6.000  -1.531  0.00  0.00    -0.096 F 
ATOM     11  F3  UNL d   1      -1.396  -6.000  -1.235  0.00  0.00    -0.097 F 
ATOM     12  F4  UNL d   1       0.174  -4.505  -2.891  0.00  0.00    -0.092 F 
ENDROOT
TORSDOF 0
ENDMDL
