MODEL 1
REMARK minimizedAffinity 20.779417
REMARK minimizedRMSD -1
REMARK  0 active torsions:
REMARK  status: ('A' for Active; 'I' for Inactive)
ROOT
ATOM      1  C   UNL d   1      -0.426  -1.057   3.834  0.00  0.00     0.124 A 
ATOM      2  C1  UNL d   1      -1.365  -1.580   4.712  0.00  0.00     0.062 A 
ATOM      3  C2  UNL d   1      -2.724  -1.412   4.464  0.00  0.00     0.162 A 
ATOM      4  C3  UNL d   1      -3.153  -0.720   3.332  0.00  0.00    -0.034 A 
ATOM      5  C4  UNL d   1      -2.202  -0.196   2.454  0.00  0.00     0.162 A 
ATOM      6  C5  UNL d   1      -0.845  -0.366   2.706  0.00  0.00     0.062 A 
ATOM      7  F   UNL d   1       0.061   0.139   1.856  0.00  0.00    -0.097 F 
ATOM      8  F1  UNL d   1      -2.580   0.475   1.355  0.00  0.00    -0.096 F 
ATOM      9  I   UNL d   1      -5.185  -0.467   2.957  0.00  0.00    -0.060 I 
ATOM     10  F2  UNL d   1      -3.610  -1.928   5.330  0.00  0.00    -0.096 F 
ATOM     11  F3  UNL d   1      -0.963  -2.247   5.803  0.00  0.00    -0.097 F 
ATOM     12  F4  UNL d   1       0.882  -1.219   4.076  0.00  0.00    -0.092 F 
ENDROOT
TORSDOF 0
ENDMDL
