MODEL 1
REMARK minimizedAffinity 21.154438
REMARK minimizedRMSD -1
REMARK  0 active torsions:
REMARK  status: ('A' for Active; 'I' for Inactive)
ROOT
ATOM      1  C   UNL d   1       3.546  -2.195  -0.530  0.00  0.00     0.124 A 
ATOM      2  C1  UNL d   1       2.991  -1.116  -1.204  0.00  0.00     0.062 A 
ATOM      3  C2  UNL d   1       1.959  -1.316  -2.116  0.00  0.00     0.162 A 
ATOM      4  C3  UNL d   1       1.473  -2.601  -2.359  0.00  0.00    -0.034 A 
ATOM      5  C4  UNL d   1       2.037  -3.682  -1.678  0.00  0.00     0.162 A 
ATOM      6  C5  UNL d   1       3.068  -3.477  -0.768  0.00  0.00     0.062 A 
ATOM      7  F   UNL d   1       3.603  -4.521  -0.118  0.00  0.00    -0.097 F 
ATOM      8  F1  UNL d   1       1.594  -4.930  -1.888  0.00  0.00    -0.096 F 
ATOM      9  I   UNL d   1      -0.070  -2.904  -3.722  0.00  0.00    -0.060 I 
ATOM     10  F2  UNL d   1       1.442  -0.255  -2.753  0.00  0.00    -0.096 F 
ATOM     11  F3  UNL d   1       3.451   0.122  -0.977  0.00  0.00    -0.097 F 
ATOM     12  F4  UNL d   1       4.539  -2.000   0.346  0.00  0.00    -0.092 F 
ENDROOT
TORSDOF 0
ENDMDL
