MODEL 1
REMARK minimizedAffinity 2.62839389
REMARK minimizedRMSD -1
REMARK  0 active torsions:
REMARK  status: ('A' for Active; 'I' for Inactive)
ROOT
ATOM      1  C   UNL d   1      -0.374  -5.994  -5.753  0.00  0.00     0.023 A 
ATOM      2  C1  UNL d   1       0.108  -6.000  -4.444  0.00  0.00     0.003 A 
ATOM      3  C2  UNL d   1      -0.784  -6.000  -3.369  0.00  0.00     0.048 A 
ATOM      4  C3  UNL d   1      -2.157  -5.995  -3.611  0.00  0.00     0.023 A 
ATOM      5  C4  UNL d   1      -2.645  -5.989  -4.919  0.00  0.00     0.048 A 
ATOM      6  C5  UNL d   1      -1.749  -5.988  -5.990  0.00  0.00     0.003 A 
ATOM      7  I   UNL d   1      -3.487  -5.995  -2.014  0.00  0.00    -0.146 I 
ENDROOT
TORSDOF 0
ENDMDL
