MODEL 1
REMARK minimizedAffinity -0.612034321
REMARK minimizedRMSD -1
REMARK  0 active torsions:
REMARK  status: ('A' for Active; 'I' for Inactive)
ROOT
ATOM      1  C   UNL d   1      -0.145  -5.992  -5.199  0.00  0.00     0.023 A 
ATOM      2  C1  UNL d   1       0.034  -5.998  -3.815  0.00  0.00     0.003 A 
ATOM      3  C2  UNL d   1      -1.076  -6.000  -2.967  0.00  0.00     0.048 A 
ATOM      4  C3  UNL d   1      -2.361  -5.997  -3.509  0.00  0.00     0.023 A 
ATOM      5  C4  UNL d   1      -2.544  -5.991  -4.893  0.00  0.00     0.048 A 
ATOM      6  C5  UNL d   1      -1.432  -5.988  -5.737  0.00  0.00     0.003 A 
ATOM      7  I   UNL d   1      -4.013  -6.000  -2.249  0.00  0.00    -0.146 I 
ENDROOT
TORSDOF 0
ENDMDL
