MODEL 1
REMARK minimizedAffinity -1.42238545
REMARK minimizedRMSD -1
REMARK  0 active torsions:
REMARK  status: ('A' for Active; 'I' for Inactive)
ROOT
ATOM      1  C   UNL d   1      -1.157  -5.976  -5.418  0.00  0.00     0.023 A 
ATOM      2  C1  UNL d   1      -2.516  -5.987  -5.735  0.00  0.00     0.003 A 
ATOM      3  C2  UNL d   1      -3.471  -5.994  -4.716  0.00  0.00     0.048 A 
ATOM      4  C3  UNL d   1      -3.061  -5.988  -3.384  0.00  0.00     0.023 A 
ATOM      5  C4  UNL d   1      -1.703  -5.977  -3.062  0.00  0.00     0.048 A 
ATOM      6  C5  UNL d   1      -0.752  -5.971  -4.083  0.00  0.00     0.003 A 
ATOM      7  I   UNL d   1      -4.482  -5.998  -1.866  0.00  0.00    -0.146 I 
ENDROOT
TORSDOF 0
ENDMDL
