MODEL 1
REMARK minimizedAffinity 2.8039434
REMARK minimizedRMSD -1
REMARK  0 active torsions:
REMARK  status: ('A' for Active; 'I' for Inactive)
ROOT
ATOM      1  C   UNL d   1       0.620  -5.974  -4.392  0.00  0.00     0.023 A 
ATOM      2  C1  UNL d   1      -0.543  -5.977  -5.162  0.00  0.00     0.003 A 
ATOM      3  C2  UNL d   1      -1.794  -5.984  -4.541  0.00  0.00     0.048 A 
ATOM      4  C3  UNL d   1      -1.874  -5.988  -3.149  0.00  0.00     0.023 A 
ATOM      5  C4  UNL d   1      -0.713  -5.985  -2.374  0.00  0.00     0.048 A 
ATOM      6  C5  UNL d   1       0.535  -5.979  -3.000  0.00  0.00     0.003 A 
ATOM      7  I   UNL d   1      -3.734  -5.999  -2.222  0.00  0.00    -0.146 I 
ENDROOT
TORSDOF 0
ENDMDL
