MODEL 1
REMARK minimizedAffinity 0.740442932
REMARK minimizedRMSD -1
REMARK  0 active torsions:
REMARK  status: ('A' for Active; 'I' for Inactive)
ROOT
ATOM      1  C   UNL d   1       0.876  -5.906  -5.185  0.00  0.00     0.023 A 
ATOM      2  C1  UNL d   1       1.075  -5.974  -3.806  0.00  0.00     0.003 A 
ATOM      3  C2  UNL d   1      -0.022  -5.999  -2.942  0.00  0.00     0.048 A 
ATOM      4  C3  UNL d   1      -1.314  -5.957  -3.463  0.00  0.00     0.023 A 
ATOM      5  C4  UNL d   1      -1.518  -5.890  -4.843  0.00  0.00     0.048 A 
ATOM      6  C5  UNL d   1      -0.419  -5.864  -5.703  0.00  0.00     0.003 A 
ATOM      7  I   UNL d   1      -2.948  -5.994  -2.179  0.00  0.00    -0.146 I 
ENDROOT
TORSDOF 0
ENDMDL
