MODEL 1
REMARK minimizedAffinity 13.4538136
REMARK minimizedRMSD -1
REMARK  0 active torsions:
REMARK  status: ('A' for Active; 'I' for Inactive)
ROOT
ATOM      1  C   UNL d   1       0.323   3.813  -3.914  0.00  0.00     0.023 A 
ATOM      2  C1  UNL d   1       0.340   2.499  -3.448  0.00  0.00     0.003 A 
ATOM      3  C2  UNL d   1      -0.858   1.806  -3.262  0.00  0.00     0.048 A 
ATOM      4  C3  UNL d   1      -2.070   2.434  -3.546  0.00  0.00     0.023 A 
ATOM      5  C4  UNL d   1      -2.093   3.749  -4.014  0.00  0.00     0.048 A 
ATOM      6  C5  UNL d   1      -0.892   4.438  -4.197  0.00  0.00     0.003 A 
ATOM      7  I   UNL d   1      -3.855   1.405  -3.271  0.00  0.00    -0.146 I 
ENDROOT
TORSDOF 0
ENDMDL
