MODEL 1
REMARK minimizedAffinity -3.16396642
REMARK minimizedRMSD -1
REMARK  0 active torsions:
REMARK  status: ('A' for Active; 'I' for Inactive)
ROOT
ATOM      1  C   UNL d   1      -2.638  -5.624  -2.487  0.00  0.00     0.023 A 
ATOM      2  C1  UNL d   1      -1.327  -5.998  -2.191  0.00  0.00     0.003 A 
ATOM      3  C2  UNL d   1      -0.357  -6.000  -3.195  0.00  0.00     0.048 A 
ATOM      4  C3  UNL d   1      -0.704  -5.626  -4.493  0.00  0.00     0.023 A 
ATOM      5  C4  UNL d   1      -2.015  -5.250  -4.793  0.00  0.00     0.048 A 
ATOM      6  C5  UNL d   1      -2.981  -5.250  -3.786  0.00  0.00     0.003 A 
ATOM      7  I   UNL d   1       0.738  -5.628  -5.990  0.00  0.00    -0.146 I 
ENDROOT
TORSDOF 0
ENDMDL
