MODEL 1
REMARK minimizedAffinity 1.31240809
REMARK minimizedRMSD -1
REMARK  0 active torsions:
REMARK  status: ('A' for Active; 'I' for Inactive)
ROOT
ATOM      1  C   UNL d   1       1.203  -5.846  -5.118  0.00  0.00     0.023 A 
ATOM      2  C1  UNL d   1       0.014  -5.624  -5.813  0.00  0.00     0.003 A 
ATOM      3  C2  UNL d   1      -1.197  -5.556  -5.122  0.00  0.00     0.048 A 
ATOM      4  C3  UNL d   1      -1.213  -5.710  -3.736  0.00  0.00     0.023 A 
ATOM      5  C4  UNL d   1      -0.026  -5.931  -3.037  0.00  0.00     0.048 A 
ATOM      6  C5  UNL d   1       1.183  -5.999  -3.731  0.00  0.00     0.003 A 
ATOM      7  I   UNL d   1      -3.015  -5.609  -2.706  0.00  0.00    -0.146 I 
ENDROOT
TORSDOF 0
ENDMDL
