MODEL 1
REMARK minimizedAffinity -0.462960005
REMARK minimizedRMSD -1
REMARK  0 active torsions:
REMARK  status: ('A' for Active; 'I' for Inactive)
ROOT
ATOM      1  C   UNL d   1       0.834  -5.996  -5.790  0.00  0.00     0.023 A 
ATOM      2  C1  UNL d   1       1.345  -5.999  -4.492  0.00  0.00     0.003 A 
ATOM      3  C2  UNL d   1       0.476  -5.999  -3.398  0.00  0.00     0.048 A 
ATOM      4  C3  UNL d   1      -0.902  -5.999  -3.610  0.00  0.00     0.023 A 
ATOM      5  C4  UNL d   1      -1.418  -5.997  -4.907  0.00  0.00     0.048 A 
ATOM      6  C5  UNL d   1      -0.545  -5.996  -5.997  0.00  0.00     0.003 A 
ATOM      7  I   UNL d   1      -2.197  -6.000  -1.984  0.00  0.00    -0.146 I 
ENDROOT
TORSDOF 0
ENDMDL
