MODEL 1
REMARK minimizedAffinity -1.37184858
REMARK minimizedRMSD -1
REMARK  0 active torsions:
REMARK  status: ('A' for Active; 'I' for Inactive)
ROOT
ATOM      1  C   UNL d   1      -2.286  -5.678  -2.446  0.00  0.00     0.023 A 
ATOM      2  C1  UNL d   1      -0.978  -5.907  -2.019  0.00  0.00     0.003 A 
ATOM      3  C2  UNL d   1       0.056  -6.000  -2.952  0.00  0.00     0.048 A 
ATOM      4  C3  UNL d   1      -0.224  -5.862  -4.311  0.00  0.00     0.023 A 
ATOM      5  C4  UNL d   1      -1.531  -5.631  -4.743  0.00  0.00     0.048 A 
ATOM      6  C5  UNL d   1      -2.562  -5.540  -3.806  0.00  0.00     0.003 A 
ATOM      7  I   UNL d   1       1.314  -5.999  -5.702  0.00  0.00    -0.146 I 
ENDROOT
TORSDOF 0
ENDMDL
