MODEL 1
REMARK minimizedAffinity -2.54114795
REMARK minimizedRMSD -1
REMARK  0 active torsions:
REMARK  status: ('A' for Active; 'I' for Inactive)
ROOT
ATOM      1  C   UNL d   1      -2.840  -5.985  -3.070  0.00  0.00     0.023 A 
ATOM      2  C1  UNL d   1      -3.008  -5.992  -4.455  0.00  0.00     0.003 A 
ATOM      3  C2  UNL d   1      -1.892  -5.995  -5.294  0.00  0.00     0.048 A 
ATOM      4  C3  UNL d   1      -0.611  -5.993  -4.743  0.00  0.00     0.023 A 
ATOM      5  C4  UNL d   1      -0.439  -5.988  -3.358  0.00  0.00     0.048 A 
ATOM      6  C5  UNL d   1      -1.557  -5.984  -2.522  0.00  0.00     0.003 A 
ATOM      7  I   UNL d   1       1.051  -5.999  -5.990  0.00  0.00    -0.146 I 
ENDROOT
TORSDOF 0
ENDMDL
