MODEL 1
REMARK minimizedAffinity 4.3999486
REMARK minimizedRMSD -1
REMARK  0 active torsions:
REMARK  status: ('A' for Active; 'I' for Inactive)
ROOT
ATOM      1  C   UNL d   1      -0.859  -3.680   2.016  0.00  0.00     0.023 A 
ATOM      2  C1  UNL d   1      -1.407  -2.867   1.023  0.00  0.00     0.003 A 
ATOM      3  C2  UNL d   1      -0.751  -1.697   0.636  0.00  0.00     0.048 A 
ATOM      4  C3  UNL d   1       0.453  -1.346   1.244  0.00  0.00     0.023 A 
ATOM      5  C4  UNL d   1       1.006  -2.156   2.238  0.00  0.00     0.048 A 
ATOM      6  C5  UNL d   1       0.346  -3.325   2.622  0.00  0.00     0.003 A 
ATOM      7  I   UNL d   1       1.432   0.395   0.669  0.00  0.00    -0.146 I 
ENDROOT
TORSDOF 0
ENDMDL
