MODEL 1
REMARK minimizedAffinity 2.65302801
REMARK minimizedRMSD -1
REMARK  0 active torsions:
REMARK  status: ('A' for Active; 'I' for Inactive)
ROOT
ATOM      1  C   UNL d   1       0.160  -5.954  -4.559  0.00  0.00     0.023 A 
ATOM      2  C1  UNL d   1      -1.122  -5.986  -5.106  0.00  0.00     0.003 A 
ATOM      3  C2  UNL d   1      -2.240  -6.000  -4.270  0.00  0.00     0.048 A 
ATOM      4  C3  UNL d   1      -2.069  -5.980  -2.886  0.00  0.00     0.023 A 
ATOM      5  C4  UNL d   1      -0.787  -5.947  -2.333  0.00  0.00     0.048 A 
ATOM      6  C5  UNL d   1       0.327  -5.934  -3.174  0.00  0.00     0.003 A 
ATOM      7  I   UNL d   1      -3.731  -5.999  -1.639  0.00  0.00    -0.146 I 
ENDROOT
TORSDOF 0
ENDMDL
