MODEL 1
REMARK minimizedAffinity 2.91569805
REMARK minimizedRMSD -1
REMARK  0 active torsions:
REMARK  status: ('A' for Active; 'I' for Inactive)
ROOT
ATOM      1  C   UNL d   1       0.725   4.091  -3.807  0.00  0.00     0.023 A 
ATOM      2  C1  UNL d   1      -0.438   4.434  -4.497  0.00  0.00     0.003 A 
ATOM      3  C2  UNL d   1      -1.614   3.710  -4.289  0.00  0.00     0.048 A 
ATOM      4  C3  UNL d   1      -1.621   2.645  -3.389  0.00  0.00     0.023 A 
ATOM      5  C4  UNL d   1      -0.460   2.299  -2.696  0.00  0.00     0.048 A 
ATOM      6  C5  UNL d   1       0.714   3.025  -2.908  0.00  0.00     0.003 A 
ATOM      7  I   UNL d   1      -3.370   1.566  -3.078  0.00  0.00    -0.146 I 
ENDROOT
TORSDOF 0
ENDMDL
