MODEL 1
REMARK minimizedAffinity 3.25803137
REMARK minimizedRMSD -1
REMARK  0 active torsions:
REMARK  status: ('A' for Active; 'I' for Inactive)
ROOT
ATOM      1  C   UNL d   1      -3.379  -5.953  -2.378  0.00  0.00     0.023 A 
ATOM      2  C1  UNL d   1      -2.014  -5.938  -2.091  0.00  0.00     0.003 A 
ATOM      3  C2  UNL d   1      -1.080  -5.950  -3.129  0.00  0.00     0.048 A 
ATOM      4  C3  UNL d   1      -1.519  -5.975  -4.453  0.00  0.00     0.023 A 
ATOM      5  C4  UNL d   1      -2.883  -5.989  -4.745  0.00  0.00     0.048 A 
ATOM      6  C5  UNL d   1      -3.813  -5.978  -3.704  0.00  0.00     0.003 A 
ATOM      7  I   UNL d   1      -0.131  -5.993  -6.000  0.00  0.00    -0.146 I 
ENDROOT
TORSDOF 0
ENDMDL
