MODEL 1
REMARK minimizedAffinity 3.04090762
REMARK minimizedRMSD -1
REMARK  0 active torsions:
REMARK  status: ('A' for Active; 'I' for Inactive)
ROOT
ATOM      1  C   UNL d   1       1.130  -5.999  -5.224  0.00  0.00     0.023 A 
ATOM      2  C1  UNL d   1      -0.101  -5.999  -5.880  0.00  0.00     0.003 A 
ATOM      3  C2  UNL d   1      -1.287  -5.998  -5.143  0.00  0.00     0.048 A 
ATOM      4  C3  UNL d   1      -1.234  -5.998  -3.749  0.00  0.00     0.023 A 
ATOM      5  C4  UNL d   1      -0.004  -5.998  -3.088  0.00  0.00     0.048 A 
ATOM      6  C5  UNL d   1       1.178  -5.999  -3.830  0.00  0.00     0.003 A 
ATOM      7  I   UNL d   1      -2.997  -5.997  -2.649  0.00  0.00    -0.146 I 
ENDROOT
TORSDOF 0
ENDMDL
