MODEL 1
REMARK minimizedAffinity -2.19003606
REMARK minimizedRMSD -1
REMARK  0 active torsions:
REMARK  status: ('A' for Active; 'I' for Inactive)
ROOT
ATOM      1  C   UNL d   1      -3.251  -5.997  -2.153  0.00  0.00     0.023 A 
ATOM      2  C1  UNL d   1      -3.779  -5.999  -3.444  0.00  0.00     0.003 A 
ATOM      3  C2  UNL d   1      -2.926  -6.000  -4.549  0.00  0.00     0.048 A 
ATOM      4  C3  UNL d   1      -1.545  -5.999  -4.356  0.00  0.00     0.023 A 
ATOM      5  C4  UNL d   1      -1.012  -5.997  -3.066  0.00  0.00     0.048 A 
ATOM      6  C5  UNL d   1      -1.869  -5.996  -1.964  0.00  0.00     0.003 A 
ATOM      7  I   UNL d   1      -0.272  -6.000  -5.999  0.00  0.00    -0.146 I 
ENDROOT
TORSDOF 0
ENDMDL
