MODEL 1
REMARK minimizedAffinity -0.133529127
REMARK minimizedRMSD -1
REMARK  1 active torsions:
REMARK  status: ('A' for Active; 'I' for Inactive)
REMARK    1  A    between atoms: C1_2  and  C2_3 
ROOT
ATOM      1  C2  UNL d   1      -0.054  -0.771   2.357  0.00  0.00    -0.077 A 
ATOM      2  C3  UNL d   1       0.629  -1.880   1.840  0.00  0.00     0.002 A 
ATOM      3  C4  UNL d   1       2.018  -1.971   1.955  0.00  0.00     0.002 A 
ATOM      4  C5  UNL d   1       2.733  -0.958   2.589  0.00  0.00    -0.004 A 
ATOM      5  C6  UNL d   1       2.063   0.151   3.105  0.00  0.00     0.002 A 
ATOM      6  C7  UNL d   1       0.675   0.244   2.990  0.00  0.00     0.002 A 
ENDROOT
BRANCH   1   7
ATOM      7  C1  UNL d   1      -1.557  -0.695   2.278  0.00  0.00     0.055 C 
ATOM      8  C   UNL d   1      -2.079   0.595   2.893  0.00  0.00     0.019 C 
ENDBRANCH   1   7
TORSDOF 1
ENDMDL
