MODEL 1
REMARK minimizedAffinity 2.2602787
REMARK minimizedRMSD -1
REMARK  1 active torsions:
REMARK  status: ('A' for Active; 'I' for Inactive)
REMARK    1  A    between atoms: C1_2  and  C2_3 
ROOT
ATOM      1  C2  UNL d   1       1.233  -1.335   2.521  0.00  0.00    -0.077 A 
ATOM      2  C3  UNL d   1       2.179  -2.293   2.912  0.00  0.00     0.002 A 
ATOM      3  C4  UNL d   1       2.949  -2.957   1.956  0.00  0.00     0.002 A 
ATOM      4  C5  UNL d   1       2.784  -2.669   0.603  0.00  0.00    -0.004 A 
ATOM      5  C6  UNL d   1       1.844  -1.720   0.203  0.00  0.00     0.002 A 
ATOM      6  C7  UNL d   1       1.073  -1.055   1.158  0.00  0.00     0.002 A 
ENDROOT
BRANCH   1   7
ATOM      7  C1  UNL d   1       0.437  -0.582   3.554  0.00  0.00     0.055 C 
ATOM      8  C   UNL d   1      -0.958  -0.250   3.044  0.00  0.00     0.019 C 
ENDBRANCH   1   7
TORSDOF 1
ENDMDL
