MODEL 1
REMARK minimizedAffinity 1.76328838
REMARK minimizedRMSD -1
REMARK  1 active torsions:
REMARK  status: ('A' for Active; 'I' for Inactive)
REMARK    1  A    between atoms: C1_2  and  C2_3 
ROOT
ATOM      1  C2  UNL d   1       1.149  -1.473   1.376  0.00  0.00    -0.077 A 
ATOM      2  C3  UNL d   1       1.642  -0.653   2.400  0.00  0.00     0.002 A 
ATOM      3  C4  UNL d   1       0.768  -0.055   3.309  0.00  0.00     0.002 A 
ATOM      4  C5  UNL d   1      -0.604  -0.273   3.205  0.00  0.00    -0.004 A 
ATOM      5  C6  UNL d   1      -1.105  -1.085   2.188  0.00  0.00     0.002 A 
ATOM      6  C7  UNL d   1      -0.232  -1.683   1.278  0.00  0.00     0.002 A 
ENDROOT
BRANCH   1   7
ATOM      7  C1  UNL d   1       2.094  -2.158   0.424  0.00  0.00     0.055 C 
ATOM      8  C   UNL d   1       3.414  -2.497   1.103  0.00  0.00     0.019 C 
ENDBRANCH   1   7
TORSDOF 1
ENDMDL
