MODEL 1
REMARK minimizedAffinity -4.27799273
REMARK minimizedRMSD -1
REMARK  0 active torsions:
REMARK  status: ('A' for Active; 'I' for Inactive)
ROOT
ATOM      1  C   UNL d   1       0.548   0.188   0.446  0.00  0.00     0.078 C 
ATOM      2  C1  UNL d   1      -0.691  -0.636   0.256  0.00  0.00    -0.077 A 
ATOM      3  C2  UNL d   1      -0.951  -1.746   1.070  0.00  0.00    -0.001 A 
ATOM      4  C3  UNL d   1      -2.103  -2.509   0.875  0.00  0.00     0.003 A 
ATOM      5  C4  UNL d   1      -3.003  -2.172  -0.134  0.00  0.00    -0.005 A 
ATOM      6  C5  UNL d   1      -2.752  -1.071  -0.950  0.00  0.00     0.003 A 
ATOM      7  C6  UNL d   1      -1.600  -0.306  -0.756  0.00  0.00    -0.001 A 
ENDROOT
TORSDOF 0
ENDMDL
