MODEL 1
REMARK minimizedAffinity -5.25621939
REMARK minimizedRMSD -1
REMARK  0 active torsions:
REMARK  status: ('A' for Active; 'I' for Inactive)
ROOT
ATOM      1  C   UNL d   1       1.288   0.266   0.108  0.00  0.00     0.078 C 
ATOM      2  C1  UNL d   1      -0.087  -0.325   0.010  0.00  0.00    -0.077 A 
ATOM      3  C2  UNL d   1      -0.578  -1.180   1.004  0.00  0.00    -0.001 A 
ATOM      4  C3  UNL d   1      -1.856  -1.729   0.895  0.00  0.00     0.003 A 
ATOM      5  C4  UNL d   1      -2.654  -1.431  -0.208  0.00  0.00    -0.005 A 
ATOM      6  C5  UNL d   1      -2.173  -0.583  -1.204  0.00  0.00     0.003 A 
ATOM      7  C6  UNL d   1      -0.895  -0.033  -1.096  0.00  0.00    -0.001 A 
ENDROOT
TORSDOF 0
ENDMDL
