MODEL 1
REMARK minimizedAffinity -5.35557413
REMARK minimizedRMSD -1
REMARK  0 active torsions:
REMARK  status: ('A' for Active; 'I' for Inactive)
ROOT
ATOM      1  C   UNL d   1      -3.339  -1.251   0.802  0.00  0.00     0.078 C 
ATOM      2  C1  UNL d   1      -1.958  -0.873   0.358  0.00  0.00    -0.077 A 
ATOM      3  C2  UNL d   1      -0.840  -1.168   1.148  0.00  0.00    -0.001 A 
ATOM      4  C3  UNL d   1       0.439  -0.802   0.727  0.00  0.00     0.003 A 
ATOM      5  C4  UNL d   1       0.613  -0.139  -0.486  0.00  0.00    -0.005 A 
ATOM      6  C5  UNL d   1      -0.493   0.161  -1.278  0.00  0.00     0.003 A 
ATOM      7  C6  UNL d   1      -1.773  -0.204  -0.859  0.00  0.00    -0.001 A 
ENDROOT
TORSDOF 0
ENDMDL
