MODEL 1
REMARK minimizedAffinity -3.72944593
REMARK minimizedRMSD -1
REMARK  0 active torsions:
REMARK  status: ('A' for Active; 'I' for Inactive)
ROOT
ATOM      1  C   UNL d   1       0.487   0.142  -0.006  0.00  0.00     0.078 C 
ATOM      2  C1  UNL d   1      -0.735  -0.641   0.371  0.00  0.00    -0.077 A 
ATOM      3  C2  UNL d   1      -0.755  -1.435   1.525  0.00  0.00    -0.001 A 
ATOM      4  C3  UNL d   1      -1.896  -2.167   1.858  0.00  0.00     0.003 A 
ATOM      5  C4  UNL d   1      -3.025  -2.113   1.042  0.00  0.00    -0.005 A 
ATOM      6  C5  UNL d   1      -3.013  -1.328  -0.109  0.00  0.00     0.003 A 
ATOM      7  C6  UNL d   1      -1.873  -0.595  -0.444  0.00  0.00    -0.001 A 
ENDROOT
TORSDOF 0
ENDMDL
