MODEL 1
REMARK minimizedAffinity -5.42834616
REMARK minimizedRMSD -1
REMARK  0 active torsions:
REMARK  status: ('A' for Active; 'I' for Inactive)
ROOT
ATOM      1  C   UNL d   1       0.952  -0.030   0.061  0.00  0.00     0.078 C 
ATOM      2  C1  UNL d   1      -0.461  -0.466   0.311  0.00  0.00    -0.077 A 
ATOM      3  C2  UNL d   1      -0.786  -1.258   1.419  0.00  0.00    -0.001 A 
ATOM      4  C3  UNL d   1      -2.104  -1.664   1.634  0.00  0.00     0.003 A 
ATOM      5  C4  UNL d   1      -3.107  -1.284   0.746  0.00  0.00    -0.005 A 
ATOM      6  C5  UNL d   1      -2.793  -0.497  -0.361  0.00  0.00     0.003 A 
ATOM      7  C6  UNL d   1      -1.476  -0.090  -0.578  0.00  0.00    -0.001 A 
ENDROOT
TORSDOF 0
ENDMDL
