MODEL 1
REMARK minimizedAffinity -2.09121394
REMARK minimizedRMSD -1
REMARK  0 active torsions:
REMARK  status: ('A' for Active; 'I' for Inactive)
ROOT
ATOM      1  C   UNL d   1       0.229  -2.039   1.575  0.00  0.00     0.078 C 
ATOM      2  C1  UNL d   1      -0.064  -1.107   0.437  0.00  0.00    -0.077 A 
ATOM      3  C2  UNL d   1      -1.190  -1.292  -0.375  0.00  0.00    -0.001 A 
ATOM      4  C3  UNL d   1      -1.446  -0.423  -1.436  0.00  0.00     0.003 A 
ATOM      5  C4  UNL d   1      -0.579   0.637  -1.697  0.00  0.00    -0.005 A 
ATOM      6  C5  UNL d   1       0.545   0.828  -0.895  0.00  0.00     0.003 A 
ATOM      7  C6  UNL d   1       0.802  -0.040   0.167  0.00  0.00    -0.001 A 
ENDROOT
TORSDOF 0
ENDMDL
