MODEL 1
REMARK minimizedAffinity -4.07065678
REMARK minimizedRMSD -1
REMARK  0 active torsions:
REMARK  status: ('A' for Active; 'I' for Inactive)
ROOT
ATOM      1  C   UNL d   1       0.660   0.096   0.251  0.00  0.00     0.078 C 
ATOM      2  C1  UNL d   1      -0.671  -0.593   0.195  0.00  0.00    -0.077 A 
ATOM      3  C2  UNL d   1      -1.028  -1.549   1.153  0.00  0.00    -0.001 A 
ATOM      4  C3  UNL d   1      -2.266  -2.190   1.083  0.00  0.00     0.003 A 
ATOM      5  C4  UNL d   1      -3.156  -1.882   0.057  0.00  0.00    -0.005 A 
ATOM      6  C5  UNL d   1      -2.809  -0.933  -0.902  0.00  0.00     0.003 A 
ATOM      7  C6  UNL d   1      -1.571  -0.291  -0.834  0.00  0.00    -0.001 A 
ENDROOT
TORSDOF 0
ENDMDL
