MODEL 1
REMARK minimizedAffinity -0.132278025
REMARK minimizedRMSD -1
REMARK  0 active torsions:
REMARK  status: ('A' for Active; 'I' for Inactive)
ROOT
ATOM      1  C   UNL d   1       0.601   0.029   0.190  0.00  0.00     0.078 C 
ATOM      2  C1  UNL d   1       1.332   1.260   0.637  0.00  0.00    -0.077 A 
ATOM      3  C2  UNL d   1       1.038   1.866   1.865  0.00  0.00    -0.001 A 
ATOM      4  C3  UNL d   1       1.720   3.017   2.265  0.00  0.00     0.003 A 
ATOM      5  C4  UNL d   1       2.698   3.572   1.442  0.00  0.00    -0.005 A 
ATOM      6  C5  UNL d   1       2.995   2.977   0.218  0.00  0.00     0.003 A 
ATOM      7  C6  UNL d   1       2.315   1.826  -0.183  0.00  0.00    -0.001 A 
ENDROOT
TORSDOF 0
ENDMDL
