MODEL 1
REMARK minimizedAffinity -1.16533995
REMARK minimizedRMSD -1
REMARK  0 active torsions:
REMARK  status: ('A' for Active; 'I' for Inactive)
ROOT
ATOM      1  C   UNL d   1       0.607  -1.861   1.033  0.00  0.00     0.078 C 
ATOM      2  C1  UNL d   1       0.284  -0.905  -0.077  0.00  0.00    -0.077 A 
ATOM      3  C2  UNL d   1       0.813   0.391  -0.089  0.00  0.00    -0.001 A 
ATOM      4  C3  UNL d   1       0.497   1.273  -1.123  0.00  0.00     0.003 A 
ATOM      5  C4  UNL d   1      -0.351   0.869  -2.153  0.00  0.00    -0.005 A 
ATOM      6  C5  UNL d   1      -0.884  -0.418  -2.148  0.00  0.00     0.003 A 
ATOM      7  C6  UNL d   1      -0.569  -1.302  -1.115  0.00  0.00    -0.001 A 
ENDROOT
TORSDOF 0
ENDMDL
