MODEL 1
REMARK minimizedAffinity -4.31248856
REMARK minimizedRMSD -1
REMARK  0 active torsions:
REMARK  status: ('A' for Active; 'I' for Inactive)
ROOT
ATOM      1  C   UNL d   1      -3.111  -1.839  -0.734  0.00  0.00     0.078 C 
ATOM      2  C1  UNL d   1      -1.822  -1.411  -0.100  0.00  0.00    -0.077 A 
ATOM      3  C2  UNL d   1      -1.140  -0.273  -0.549  0.00  0.00    -0.001 A 
ATOM      4  C3  UNL d   1       0.065   0.108   0.045  0.00  0.00     0.003 A 
ATOM      5  C4  UNL d   1       0.598  -0.644   1.090  0.00  0.00    -0.005 A 
ATOM      6  C5  UNL d   1      -0.072  -1.778   1.542  0.00  0.00     0.003 A 
ATOM      7  C6  UNL d   1      -1.277  -2.161   0.950  0.00  0.00    -0.001 A 
ENDROOT
TORSDOF 0
ENDMDL
