MODEL 1
REMARK minimizedAffinity -5.63793039
REMARK minimizedRMSD -1
REMARK  0 active torsions:
REMARK  status: ('A' for Active; 'I' for Inactive)
ROOT
ATOM      1  C   UNL d   1      -4.198  -2.142   0.209  0.00  0.00     0.078 C 
ATOM      2  C1  UNL d   1      -2.980  -1.342  -0.145  0.00  0.00    -0.077 A 
ATOM      3  C2  UNL d   1      -1.812  -1.430   0.622  0.00  0.00    -0.001 A 
ATOM      4  C3  UNL d   1      -0.689  -0.671   0.286  0.00  0.00     0.003 A 
ATOM      5  C4  UNL d   1      -0.724   0.181  -0.816  0.00  0.00    -0.005 A 
ATOM      6  C5  UNL d   1      -1.883   0.276  -1.583  0.00  0.00     0.003 A 
ATOM      7  C6  UNL d   1      -3.007  -0.481  -1.249  0.00  0.00    -0.001 A 
ENDROOT
TORSDOF 0
ENDMDL
