MODEL 1
REMARK minimizedAffinity -5.63420534
REMARK minimizedRMSD -1
REMARK  0 active torsions:
REMARK  status: ('A' for Active; 'I' for Inactive)
ROOT
ATOM      1  C   UNL d   1       0.372  -0.109  -0.233  0.00  0.00     0.078 C 
ATOM      2  C1  UNL d   1      -0.860  -0.832   0.222  0.00  0.00    -0.077 A 
ATOM      3  C2  UNL d   1      -0.780  -2.115   0.779  0.00  0.00    -0.001 A 
ATOM      4  C3  UNL d   1      -1.936  -2.780   1.190  0.00  0.00     0.003 A 
ATOM      5  C4  UNL d   1      -3.181  -2.171   1.047  0.00  0.00    -0.005 A 
ATOM      6  C5  UNL d   1      -3.271  -0.896   0.491  0.00  0.00     0.003 A 
ATOM      7  C6  UNL d   1      -2.116  -0.230   0.080  0.00  0.00    -0.001 A 
ENDROOT
TORSDOF 0
ENDMDL
