MODEL 1
REMARK minimizedAffinity -4.16602516
REMARK minimizedRMSD -1
REMARK  0 active torsions:
REMARK  status: ('A' for Active; 'I' for Inactive)
ROOT
ATOM      1  C   UNL d   1       0.127  -0.110  -0.019  0.00  0.00     0.078 C 
ATOM      2  C1  UNL d   1      -1.187  -0.822  -0.144  0.00  0.00    -0.077 A 
ATOM      3  C2  UNL d   1      -1.667  -1.236  -1.392  0.00  0.00    -0.001 A 
ATOM      4  C3  UNL d   1      -2.896  -1.889  -1.495  0.00  0.00     0.003 A 
ATOM      5  C4  UNL d   1      -3.656  -2.133  -0.353  0.00  0.00    -0.005 A 
ATOM      6  C5  UNL d   1      -3.188  -1.722   0.894  0.00  0.00     0.003 A 
ATOM      7  C6  UNL d   1      -1.959  -1.069   0.998  0.00  0.00    -0.001 A 
ENDROOT
TORSDOF 0
ENDMDL
