MODEL 1
REMARK minimizedAffinity -2.38292384
REMARK minimizedRMSD -1
REMARK  0 active torsions:
REMARK  status: ('A' for Active; 'I' for Inactive)
ROOT
ATOM      1  C   UNL d   1      -2.889  -1.029  -0.166  0.00  0.00     0.078 C 
ATOM      2  C1  UNL d   1      -1.466  -0.563  -0.074  0.00  0.00    -0.077 A 
ATOM      3  C2  UNL d   1      -0.698  -0.814   1.070  0.00  0.00    -0.001 A 
ATOM      4  C3  UNL d   1       0.621  -0.366   1.146  0.00  0.00     0.003 A 
ATOM      5  C4  UNL d   1       1.184   0.337   0.083  0.00  0.00    -0.005 A 
ATOM      6  C5  UNL d   1       0.427   0.594  -1.058  0.00  0.00     0.003 A 
ATOM      7  C6  UNL d   1      -0.893   0.146  -1.136  0.00  0.00    -0.001 A 
ENDROOT
TORSDOF 0
ENDMDL
