MODEL 1
REMARK minimizedAffinity 12.5575657
REMARK minimizedRMSD -1
REMARK  1 active torsions:
REMARK  status: ('A' for Active; 'I' for Inactive)
REMARK    1  A    between atoms: C1_2  and  C2_3 
ROOT
ATOM      1  C2  UNL d   1       0.924  -0.870   1.227  0.00  0.00    -0.081 A 
ATOM      2  C3  UNL d   1      -0.366  -0.339   1.348  0.00  0.00     0.006 A 
ATOM      3  C4  UNL d   1      -1.408  -0.823   0.553  0.00  0.00     0.002 A 
ATOM      4  C5  UNL d   1      -1.180  -1.849  -0.369  0.00  0.00    -0.080 A 
ATOM      5  C6  UNL d   1      -2.297  -2.398  -1.207  0.00  0.00     0.076 C 
ATOM      6  C7  UNL d   1       0.112  -2.368  -0.503  0.00  0.00     0.002 A 
ATOM      7  C8  UNL d   1       1.155  -1.885   0.291  0.00  0.00     0.006 A 
ENDROOT
BRANCH   1   8
ATOM      8  C1  UNL d   1       2.035  -0.396   2.128  0.00  0.00     0.054 C 
ATOM      9  C   UNL d   1       2.486  -1.497   3.077  0.00  0.00     0.018 C 
ENDBRANCH   1   8
TORSDOF 1
ENDMDL
