MODEL 1
REMARK minimizedAffinity 3.3491106
REMARK minimizedRMSD -1
REMARK  1 active torsions:
REMARK  status: ('A' for Active; 'I' for Inactive)
REMARK    1  A    between atoms: C1_2  and  C2_3 
ROOT
ATOM      1  C2  UNL d   1       3.784  -2.324   4.823  0.00  0.00    -0.081 A 
ATOM      2  C3  UNL d   1       4.440  -1.757   3.723  0.00  0.00     0.006 A 
ATOM      3  C4  UNL d   1       3.708  -1.191   2.677  0.00  0.00     0.002 A 
ATOM      4  C5  UNL d   1       2.309  -1.174   2.716  0.00  0.00    -0.080 A 
ATOM      5  C6  UNL d   1       1.512  -0.542   1.614  0.00  0.00     0.076 C 
ATOM      6  C7  UNL d   1       1.654  -1.756   3.807  0.00  0.00     0.002 A 
ATOM      7  C8  UNL d   1       2.385  -2.323   4.853  0.00  0.00     0.006 A 
ENDROOT
BRANCH   1   8
ATOM      8  C1  UNL d   1       4.571  -2.878   5.983  0.00  0.00     0.054 C 
ATOM      9  C   UNL d   1       6.000  -2.352   5.983  0.00  0.00     0.018 C 
ENDBRANCH   1   8
TORSDOF 1
ENDMDL
