MODEL 1
REMARK minimizedAffinity 14.0597658
REMARK minimizedRMSD -1
REMARK  1 active torsions:
REMARK  status: ('A' for Active; 'I' for Inactive)
REMARK    1  A    between atoms: C1_2  and  C2_3 
ROOT
ATOM      1  C2  UNL d   1       3.646  -2.434   4.882  0.00  0.00    -0.081 A 
ATOM      2  C3  UNL d   1       4.166  -1.474   4.006  0.00  0.00     0.006 A 
ATOM      3  C4  UNL d   1       3.363  -0.916   3.008  0.00  0.00     0.002 A 
ATOM      4  C5  UNL d   1       2.025  -1.303   2.875  0.00  0.00    -0.080 A 
ATOM      5  C6  UNL d   1       1.144  -0.689   1.828  0.00  0.00     0.076 C 
ATOM      6  C7  UNL d   1       1.510  -2.274   3.739  0.00  0.00     0.002 A 
ATOM      7  C8  UNL d   1       2.312  -2.833   4.737  0.00  0.00     0.006 A 
ENDROOT
BRANCH   1   8
ATOM      8  C1  UNL d   1       4.490  -2.990   6.000  0.00  0.00     0.054 C 
ATOM      9  C   UNL d   1       5.883  -2.376   5.998  0.00  0.00     0.018 C 
ENDBRANCH   1   8
TORSDOF 1
ENDMDL
