MODEL 1
REMARK minimizedAffinity 5.37487221
REMARK minimizedRMSD -1
REMARK  1 active torsions:
REMARK  status: ('A' for Active; 'I' for Inactive)
REMARK    1  A    between atoms: C1_2  and  C2_3 
ROOT
ATOM      1  C2  UNL d   1       2.258  -2.930  -0.918  0.00  0.00    -0.081 A 
ATOM      2  C3  UNL d   1       3.016  -2.619  -2.054  0.00  0.00     0.006 A 
ATOM      3  C4  UNL d   1       3.763  -3.607  -2.699  0.00  0.00     0.002 A 
ATOM      4  C5  UNL d   1       3.760  -4.923  -2.224  0.00  0.00    -0.080 A 
ATOM      5  C6  UNL d   1       4.534  -6.000  -2.925  0.00  0.00     0.076 C 
ATOM      6  C7  UNL d   1       3.017  -5.230  -1.079  0.00  0.00     0.002 A 
ATOM      7  C8  UNL d   1       2.270  -4.243  -0.434  0.00  0.00     0.006 A 
ENDROOT
BRANCH   1   8
ATOM      8  C1  UNL d   1       1.400  -1.881  -0.258  0.00  0.00     0.054 C 
ATOM      9  C   UNL d   1      -0.076  -2.247  -0.331  0.00  0.00     0.018 C 
ENDBRANCH   1   8
TORSDOF 1
ENDMDL
