MODEL 1
REMARK minimizedAffinity 11.6815538
REMARK minimizedRMSD -1
REMARK  1 active torsions:
REMARK  status: ('A' for Active; 'I' for Inactive)
REMARK    1  A    between atoms: C1_2  and  C2_3 
ROOT
ATOM      1  C2  UNL d   1       3.085   0.984   1.732  0.00  0.00    -0.081 A 
ATOM      2  C3  UNL d   1       2.609   1.691   2.843  0.00  0.00     0.006 A 
ATOM      3  C4  UNL d   1       2.046   1.013   3.926  0.00  0.00     0.002 A 
ATOM      4  C5  UNL d   1       1.957  -0.383   3.921  0.00  0.00    -0.080 A 
ATOM      5  C6  UNL d   1       1.382  -1.126   5.090  0.00  0.00     0.076 C 
ATOM      6  C7  UNL d   1       2.416  -1.089   2.803  0.00  0.00     0.002 A 
ATOM      7  C8  UNL d   1       2.979  -0.411   1.719  0.00  0.00     0.006 A 
ENDROOT
BRANCH   1   8
ATOM      8  C1  UNL d   1       3.751   1.709   0.590  0.00  0.00     0.054 C 
ATOM      9  C   UNL d   1       3.009   2.990   0.240  0.00  0.00     0.018 C 
ENDBRANCH   1   8
TORSDOF 1
ENDMDL
