MODEL 1
REMARK minimizedAffinity 0.970511019
REMARK minimizedRMSD -1
REMARK  1 active torsions:
REMARK  status: ('A' for Active; 'I' for Inactive)
REMARK    1  A    between atoms: C1_2  and  C2_3 
ROOT
ATOM      1  C2  UNL d   1       1.691  -3.715   4.247  0.00  0.00    -0.081 A 
ATOM      2  C3  UNL d   1       2.346  -3.955   3.033  0.00  0.00     0.006 A 
ATOM      3  C4  UNL d   1       2.748  -2.890   2.223  0.00  0.00     0.002 A 
ATOM      4  C5  UNL d   1       2.509  -1.569   2.617  0.00  0.00    -0.080 A 
ATOM      5  C6  UNL d   1       2.963  -0.416   1.771  0.00  0.00     0.076 C 
ATOM      6  C7  UNL d   1       1.839  -1.330   3.821  0.00  0.00     0.002 A 
ATOM      7  C8  UNL d   1       1.436  -2.394   4.631  0.00  0.00     0.006 A 
ENDROOT
BRANCH   1   8
ATOM      8  C1  UNL d   1       1.313  -4.859   5.153  0.00  0.00     0.054 C 
ATOM      9  C   UNL d   1      -0.121  -4.725   5.645  0.00  0.00     0.018 C 
ENDBRANCH   1   8
TORSDOF 1
ENDMDL
