MODEL 1
REMARK minimizedAffinity 8.39288712
REMARK minimizedRMSD -1
REMARK  2 active torsions:
REMARK  status: ('A' for Active; 'I' for Inactive)
REMARK    1  A    between atoms: C1_2  and  C2_3 
REMARK    2  A    between atoms: C2_3  and  C3_4 
ROOT
ATOM      1  C3  UNL d   1      -0.975  -1.553  -0.911  0.00  0.00    -0.075 A 
ATOM      2  C4  UNL d   1      -1.171  -0.212  -0.550  0.00  0.00     0.002 A 
ATOM      3  C5  UNL d   1      -0.418   0.800  -1.146  0.00  0.00     0.002 A 
ATOM      4  C6  UNL d   1       0.546   0.484  -2.101  0.00  0.00    -0.004 A 
ATOM      5  C7  UNL d   1       0.761  -0.846  -2.456  0.00  0.00     0.002 A 
ATOM      6  C8  UNL d   1       0.006  -1.860  -1.864  0.00  0.00     0.002 A 
ENDROOT
BRANCH   1   7
ATOM      7  C2  UNL d   1      -1.807  -2.650  -0.291  0.00  0.00     0.056 C 
BRANCH   7   8
ATOM      8  C1  UNL d   1      -1.328  -4.065  -0.632  0.00  0.00     0.007 C 
ATOM      9  C   UNL d   1      -2.363  -5.139  -0.327  0.00  0.00     0.009 C 
ENDBRANCH   7   8
ENDBRANCH   1   7
TORSDOF 2
ENDMDL
