MODEL 1
REMARK minimizedAffinity 0.913038135
REMARK minimizedRMSD -1
REMARK  2 active torsions:
REMARK  status: ('A' for Active; 'I' for Inactive)
REMARK    1  A    between atoms: C1_2  and  C2_3 
REMARK    2  A    between atoms: C2_3  and  C3_4 
ROOT
ATOM      1  C3  UNL d   1       5.883   2.747   4.676  0.00  0.00    -0.075 A 
ATOM      2  C4  UNL d   1       5.870   4.070   5.144  0.00  0.00     0.002 A 
ATOM      3  C5  UNL d   1       5.839   5.138   4.247  0.00  0.00     0.002 A 
ATOM      4  C6  UNL d   1       5.831   4.899   2.875  0.00  0.00    -0.004 A 
ATOM      5  C7  UNL d   1       5.861   3.590   2.399  0.00  0.00     0.002 A 
ATOM      6  C8  UNL d   1       5.887   2.519   3.294  0.00  0.00     0.002 A 
ENDROOT
BRANCH   1   7
ATOM      7  C2  UNL d   1       5.886   1.587   5.642  0.00  0.00     0.056 C 
BRANCH   7   8
ATOM      8  C1  UNL d   1       5.987   0.214   4.968  0.00  0.00     0.007 C 
ATOM      9  C   UNL d   1       5.245  -0.881   5.722  0.00  0.00     0.009 C 
ENDBRANCH   7   8
ENDBRANCH   1   7
TORSDOF 2
ENDMDL
