MODEL 1
REMARK minimizedAffinity 2.47016597
REMARK minimizedRMSD -1
REMARK  2 active torsions:
REMARK  status: ('A' for Active; 'I' for Inactive)
REMARK    1  A    between atoms: C1_2  and  C2_3 
REMARK    2  A    between atoms: C2_3  and  C3_4 
ROOT
ATOM      1  C3  UNL d   1       1.821   0.215  -1.657  0.00  0.00    -0.075 A 
ATOM      2  C4  UNL d   1       1.111  -0.994  -1.611  0.00  0.00     0.002 A 
ATOM      3  C5  UNL d   1       0.462  -1.390  -0.441  0.00  0.00     0.002 A 
ATOM      4  C6  UNL d   1       0.522  -0.589   0.697  0.00  0.00    -0.004 A 
ATOM      5  C7  UNL d   1       1.237   0.606   0.668  0.00  0.00     0.002 A 
ATOM      6  C8  UNL d   1       1.885   1.006  -0.502  0.00  0.00     0.002 A 
ENDROOT
BRANCH   1   7
ATOM      7  C2  UNL d   1       2.501   0.664  -2.928  0.00  0.00     0.056 C 
BRANCH   7   8
ATOM      8  C1  UNL d   1       1.640   0.506  -4.186  0.00  0.00     0.007 C 
ATOM      9  C   UNL d   1       1.721   1.704  -5.123  0.00  0.00     0.009 C 
ENDBRANCH   7   8
ENDBRANCH   1   7
TORSDOF 2
ENDMDL
