MODEL 1
REMARK minimizedAffinity -3.95947266
REMARK minimizedRMSD -1
REMARK  2 active torsions:
REMARK  status: ('A' for Active; 'I' for Inactive)
REMARK    1  A    between atoms: C1_2  and  C2_3 
REMARK    2  A    between atoms: C2_3  and  C3_4 
ROOT
ATOM      1  C3  UNL d   1       5.968   3.002   4.375  0.00  0.00    -0.075 A 
ATOM      2  C4  UNL d   1       5.990   2.559   5.705  0.00  0.00     0.002 A 
ATOM      3  C5  UNL d   1       5.989   1.194   5.997  0.00  0.00     0.002 A 
ATOM      4  C6  UNL d   1       5.956   0.258   4.965  0.00  0.00    -0.004 A 
ATOM      5  C7  UNL d   1       5.918   0.688   3.641  0.00  0.00     0.002 A 
ATOM      6  C8  UNL d   1       5.923   2.052   3.346  0.00  0.00     0.002 A 
ENDROOT
BRANCH   1   7
ATOM      7  C2  UNL d   1       5.999   4.477   4.051  0.00  0.00     0.056 C 
BRANCH   7   8
ATOM      8  C1  UNL d   1       5.261   4.848   2.761  0.00  0.00     0.007 C 
ATOM      9  C   UNL d   1       5.999   5.885   1.924  0.00  0.00     0.009 C 
ENDBRANCH   7   8
ENDBRANCH   1   7
TORSDOF 2
ENDMDL
