MODEL 1
REMARK minimizedAffinity -2.10564828
REMARK minimizedRMSD -1
REMARK  2 active torsions:
REMARK  status: ('A' for Active; 'I' for Inactive)
REMARK    1  A    between atoms: C1_2  and  C2_3 
REMARK    2  A    between atoms: C2_3  and  C3_4 
ROOT
ATOM      1  C3  UNL d   1       5.862   2.686   4.510  0.00  0.00    -0.075 A 
ATOM      2  C4  UNL d   1       5.928   1.761   5.562  0.00  0.00     0.002 A 
ATOM      3  C5  UNL d   1       5.983   0.392   5.299  0.00  0.00     0.002 A 
ATOM      4  C6  UNL d   1       5.962  -0.069   3.985  0.00  0.00    -0.004 A 
ATOM      5  C7  UNL d   1       5.879   0.840   2.932  0.00  0.00     0.002 A 
ATOM      6  C8  UNL d   1       5.828   2.211   3.193  0.00  0.00     0.002 A 
ENDROOT
BRANCH   1   7
ATOM      7  C2  UNL d   1       5.832   4.170   4.787  0.00  0.00     0.056 C 
BRANCH   7   8
ATOM      8  C1  UNL d   1       5.093   4.989   3.723  0.00  0.00     0.007 C 
ATOM      9  C   UNL d   1       5.987   5.997   3.014  0.00  0.00     0.009 C 
ENDBRANCH   7   8
ENDBRANCH   1   7
TORSDOF 2
ENDMDL
