MODEL 1
REMARK minimizedAffinity -4.97070503
REMARK minimizedRMSD -1
REMARK  2 active torsions:
REMARK  status: ('A' for Active; 'I' for Inactive)
REMARK    1  A    between atoms: C1_2  and  C2_3 
REMARK    2  A    between atoms: C2_3  and  C3_4 
ROOT
ATOM      1  C3  UNL d   1       5.793   1.911   4.055  0.00  0.00    -0.075 A 
ATOM      2  C4  UNL d   1       6.000   2.464   2.783  0.00  0.00     0.002 A 
ATOM      3  C5  UNL d   1       5.838   3.834   2.572  0.00  0.00     0.002 A 
ATOM      4  C6  UNL d   1       5.459   4.664   3.624  0.00  0.00    -0.004 A 
ATOM      5  C7  UNL d   1       5.235   4.123   4.888  0.00  0.00     0.002 A 
ATOM      6  C8  UNL d   1       5.400   2.753   5.104  0.00  0.00     0.002 A 
ENDROOT
BRANCH   1   7
ATOM      7  C2  UNL d   1       5.995   0.434   4.297  0.00  0.00     0.056 C 
BRANCH   7   8
ATOM      8  C1  UNL d   1       5.617  -0.451   3.105  0.00  0.00     0.007 C 
ATOM      9  C   UNL d   1       5.496  -1.925   3.467  0.00  0.00     0.009 C 
ENDBRANCH   7   8
ENDBRANCH   1   7
TORSDOF 2
ENDMDL
