MODEL 1
REMARK minimizedAffinity 3.0649085
REMARK minimizedRMSD -1
REMARK  2 active torsions:
REMARK  status: ('A' for Active; 'I' for Inactive)
REMARK    1  A    between atoms: C1_2  and  C2_3 
REMARK    2  A    between atoms: C2_3  and  C3_4 
ROOT
ATOM      1  C3  UNL d   1       3.947   3.247  -2.025  0.00  0.00    -0.075 A 
ATOM      2  C4  UNL d   1       3.437   4.485  -1.606  0.00  0.00     0.002 A 
ATOM      3  C5  UNL d   1       3.491   5.595  -2.450  0.00  0.00     0.002 A 
ATOM      4  C6  UNL d   1       4.063   5.485  -3.715  0.00  0.00    -0.004 A 
ATOM      5  C7  UNL d   1       4.588   4.264  -4.135  0.00  0.00     0.002 A 
ATOM      6  C8  UNL d   1       4.531   3.151  -3.295  0.00  0.00     0.002 A 
ENDROOT
BRANCH   1   7
ATOM      7  C2  UNL d   1       3.864   2.035  -1.128  0.00  0.00     0.056 C 
BRANCH   7   8
ATOM      8  C1  UNL d   1       3.139   2.288   0.198  0.00  0.00     0.007 C 
ATOM      9  C   UNL d   1       4.058   2.205   1.410  0.00  0.00     0.009 C 
ENDBRANCH   7   8
ENDBRANCH   1   7
TORSDOF 2
ENDMDL
