MODEL 1
REMARK minimizedAffinity -2.1808455
REMARK minimizedRMSD -1
REMARK  2 active torsions:
REMARK  status: ('A' for Active; 'I' for Inactive)
REMARK    1  A    between atoms: C1_2  and  C2_3 
REMARK    2  A    between atoms: C2_3  and  C3_4 
ROOT
ATOM      1  C3  UNL d   1       4.999   1.936   4.238  0.00  0.00    -0.075 A 
ATOM      2  C4  UNL d   1       4.913   1.094   5.357  0.00  0.00     0.002 A 
ATOM      3  C5  UNL d   1       5.379  -0.219   5.292  0.00  0.00     0.002 A 
ATOM      4  C6  UNL d   1       5.925  -0.711   4.109  0.00  0.00    -0.004 A 
ATOM      5  C7  UNL d   1       6.000   0.111   2.986  0.00  0.00     0.002 A 
ATOM      6  C8  UNL d   1       5.539   1.428   3.049  0.00  0.00     0.002 A 
ENDROOT
BRANCH   1   7
ATOM      7  C2  UNL d   1       4.524   3.368   4.310  0.00  0.00     0.056 C 
BRANCH   7   8
ATOM      8  C1  UNL d   1       5.638   4.381   4.595  0.00  0.00     0.007 C 
ATOM      9  C   UNL d   1       5.999   5.232   3.385  0.00  0.00     0.009 C 
ENDBRANCH   7   8
ENDBRANCH   1   7
TORSDOF 2
ENDMDL
