MODEL 1
REMARK minimizedAffinity -3.05932641
REMARK minimizedRMSD -1
REMARK  2 active torsions:
REMARK  status: ('A' for Active; 'I' for Inactive)
REMARK    1  A    between atoms: C1_2  and  C2_3 
REMARK    2  A    between atoms: C2_3  and  C3_4 
ROOT
ATOM      1  C3  UNL d   1       5.982   2.892   4.496  0.00  0.00    -0.075 A 
ATOM      2  C4  UNL d   1       6.000   4.209   4.976  0.00  0.00     0.002 A 
ATOM      3  C5  UNL d   1       6.000   5.286   4.089  0.00  0.00     0.002 A 
ATOM      4  C6  UNL d   1       5.992   5.060   2.715  0.00  0.00    -0.004 A 
ATOM      5  C7  UNL d   1       5.991   3.756   2.227  0.00  0.00     0.002 A 
ATOM      6  C8  UNL d   1       5.987   2.676   3.112  0.00  0.00     0.002 A 
ENDROOT
BRANCH   1   7
ATOM      7  C2  UNL d   1       5.953   1.722   5.451  0.00  0.00     0.056 C 
BRANCH   7   8
ATOM      8  C1  UNL d   1       5.693   0.372   4.775  0.00  0.00     0.007 C 
ATOM      9  C   UNL d   1       5.817  -0.810   5.728  0.00  0.00     0.009 C 
ENDBRANCH   7   8
ENDBRANCH   1   7
TORSDOF 2
ENDMDL
