MODEL 1
REMARK minimizedAffinity -1.93645597
REMARK minimizedRMSD -1
REMARK  2 active torsions:
REMARK  status: ('A' for Active; 'I' for Inactive)
REMARK    1  A    between atoms: C1_2  and  C2_3 
REMARK    2  A    between atoms: C2_3  and  C3_4 
ROOT
ATOM      1  C3  UNL d   1       5.976   2.297   4.061  0.00  0.00    -0.075 A 
ATOM      2  C4  UNL d   1       5.980   2.865   2.778  0.00  0.00     0.002 A 
ATOM      3  C5  UNL d   1       5.996   4.251   2.617  0.00  0.00     0.002 A 
ATOM      4  C6  UNL d   1       6.000   5.085   3.733  0.00  0.00    -0.004 A 
ATOM      5  C7  UNL d   1       5.980   4.532   5.012  0.00  0.00     0.002 A 
ATOM      6  C8  UNL d   1       5.968   3.145   5.176  0.00  0.00     0.002 A 
ENDROOT
BRANCH   1   7
ATOM      7  C2  UNL d   1       5.988   0.798   4.242  0.00  0.00     0.056 C 
BRANCH   7   8
ATOM      8  C1  UNL d   1       5.317   0.321   5.534  0.00  0.00     0.007 C 
ATOM      9  C   UNL d   1       5.228  -1.196   5.640  0.00  0.00     0.009 C 
ENDBRANCH   7   8
ENDBRANCH   1   7
TORSDOF 2
ENDMDL
