MODEL 1
REMARK minimizedAffinity -0.32418263
REMARK minimizedRMSD -1
REMARK  2 active torsions:
REMARK  status: ('A' for Active; 'I' for Inactive)
REMARK    1  A    between atoms: C1_2  and  C2_3 
REMARK    2  A    between atoms: C2_3  and  C3_4 
ROOT
ATOM      1  C3  UNL d   1       5.827   2.519   4.687  0.00  0.00    -0.075 A 
ATOM      2  C4  UNL d   1       5.988   1.745   3.529  0.00  0.00     0.002 A 
ATOM      3  C5  UNL d   1       5.994   0.352   3.604  0.00  0.00     0.002 A 
ATOM      4  C6  UNL d   1       5.848  -0.283   4.835  0.00  0.00    -0.004 A 
ATOM      5  C7  UNL d   1       5.704   0.476   5.994  0.00  0.00     0.002 A 
ATOM      6  C8  UNL d   1       5.694   1.870   5.922  0.00  0.00     0.002 A 
ENDROOT
BRANCH   1   7
ATOM      7  C2  UNL d   1       5.791   4.027   4.610  0.00  0.00     0.056 C 
BRANCH   7   8
ATOM      8  C1  UNL d   1       5.497   4.573   3.209  0.00  0.00     0.007 C 
ATOM      9  C   UNL d   1       5.988   6.000   3.005  0.00  0.00     0.009 C 
ENDBRANCH   7   8
ENDBRANCH   1   7
TORSDOF 2
ENDMDL
