MODEL 1
REMARK minimizedAffinity -4.18499565
REMARK minimizedRMSD -1
REMARK  2 active torsions:
REMARK  status: ('A' for Active; 'I' for Inactive)
REMARK    1  A    between atoms: C1_2  and  C2_3 
REMARK    2  A    between atoms: C2_3  and  C3_4 
ROOT
ATOM      1  C3  UNL d   1       5.800   2.719   3.599  0.00  0.00    -0.075 A 
ATOM      2  C4  UNL d   1       5.791   3.369   2.356  0.00  0.00     0.002 A 
ATOM      3  C5  UNL d   1       5.895   4.758   2.282  0.00  0.00     0.002 A 
ATOM      4  C6  UNL d   1       5.998   5.515   3.447  0.00  0.00    -0.004 A 
ATOM      5  C7  UNL d   1       5.991   4.881   4.688  0.00  0.00     0.002 A 
ATOM      6  C8  UNL d   1       5.892   3.491   4.765  0.00  0.00     0.002 A 
ENDROOT
BRANCH   1   7
ATOM      7  C2  UNL d   1       5.718   1.214   3.685  0.00  0.00     0.056 C 
BRANCH   7   8
ATOM      8  C1  UNL d   1       5.706   0.670   5.117  0.00  0.00     0.007 C 
ATOM      9  C   UNL d   1       5.999  -0.822   5.196  0.00  0.00     0.009 C 
ENDBRANCH   7   8
ENDBRANCH   1   7
TORSDOF 2
ENDMDL
