MODEL 1
REMARK minimizedAffinity -3.99962711
REMARK minimizedRMSD -1
REMARK  2 active torsions:
REMARK  status: ('A' for Active; 'I' for Inactive)
REMARK    1  A    between atoms: C1_2  and  C2_3 
REMARK    2  A    between atoms: C2_3  and  C3_4 
ROOT
ATOM      1  C3  UNL d   1       5.668   3.240   3.062  0.00  0.00    -0.075 A 
ATOM      2  C4  UNL d   1       5.990   3.911   1.873  0.00  0.00     0.002 A 
ATOM      3  C5  UNL d   1       5.741   5.277   1.741  0.00  0.00     0.002 A 
ATOM      4  C6  UNL d   1       5.158   5.987   2.789  0.00  0.00    -0.004 A 
ATOM      5  C7  UNL d   1       4.819   5.327   3.969  0.00  0.00     0.002 A 
ATOM      6  C8  UNL d   1       5.071   3.961   4.105  0.00  0.00     0.002 A 
ENDROOT
BRANCH   1   7
ATOM      7  C2  UNL d   1       5.962   1.768   3.222  0.00  0.00     0.056 C 
BRANCH   7   8
ATOM      8  C1  UNL d   1       4.983   1.033   4.144  0.00  0.00     0.007 C 
ATOM      9  C   UNL d   1       5.603  -0.171   4.841  0.00  0.00     0.009 C 
ENDBRANCH   7   8
ENDBRANCH   1   7
TORSDOF 2
ENDMDL
