MODEL 1
REMARK minimizedAffinity 12.4457273
REMARK minimizedRMSD -1
REMARK  1 active torsions:
REMARK  status: ('A' for Active; 'I' for Inactive)
REMARK    1  A    between atoms: C1_2  and  C2_3 
ROOT
ATOM      1  C2  UNL d   1       1.714  -2.723   0.965  0.00  0.00    -0.077 A 
ATOM      2  C3  UNL d   1       2.616  -1.877   1.625  0.00  0.00     0.002 A 
ATOM      3  C4  UNL d   1       2.152  -0.891   2.498  0.00  0.00     0.002 A 
ATOM      4  C5  UNL d   1       0.785  -0.744   2.721  0.00  0.00    -0.004 A 
ATOM      5  C6  UNL d   1      -0.121  -1.579   2.068  0.00  0.00     0.002 A 
ATOM      6  C7  UNL d   1       0.341  -2.564   1.194  0.00  0.00     0.002 A 
ENDROOT
BRANCH   1   7
ATOM      7  C1  UNL d   1       2.215  -3.819   0.062  0.00  0.00     0.055 C 
ATOM      8  C   UNL d   1       2.086  -5.183   0.723  0.00  0.00     0.019 C 
ENDBRANCH   1   7
TORSDOF 1
ENDMDL
