MODEL 1
REMARK minimizedAffinity 11.6411448
REMARK minimizedRMSD -1
REMARK  1 active torsions:
REMARK  status: ('A' for Active; 'I' for Inactive)
REMARK    1  A    between atoms: C1_2  and  C2_3 
ROOT
ATOM      1  C2  UNL d   1      -3.641   3.381  -3.739  0.00  0.00    -0.077 A 
ATOM      2  C3  UNL d   1      -4.417   2.342  -4.270  0.00  0.00     0.002 A 
ATOM      3  C4  UNL d   1      -4.378   1.068  -3.698  0.00  0.00     0.002 A 
ATOM      4  C5  UNL d   1      -3.570   0.825  -2.590  0.00  0.00    -0.004 A 
ATOM      5  C6  UNL d   1      -2.794   1.852  -2.055  0.00  0.00     0.002 A 
ATOM      6  C7  UNL d   1      -2.830   3.125  -2.626  0.00  0.00     0.002 A 
ENDROOT
BRANCH   1   7
ATOM      7  C1  UNL d   1      -3.719   4.768  -4.323  0.00  0.00     0.055 C 
ATOM      8  C   UNL d   1      -4.442   5.724  -3.387  0.00  0.00     0.019 C 
ENDBRANCH   1   7
TORSDOF 1
ENDMDL
