MODEL 1
REMARK minimizedAffinity 7.84687519
REMARK minimizedRMSD -1
REMARK  1 active torsions:
REMARK  status: ('A' for Active; 'I' for Inactive)
REMARK    1  A    between atoms: C1_2  and  C2_3 
ROOT
ATOM      1  C2  UNL d   1       1.503  -2.181   1.203  0.00  0.00    -0.077 A 
ATOM      2  C3  UNL d   1       2.544  -1.602   1.943  0.00  0.00     0.002 A 
ATOM      3  C4  UNL d   1       2.262  -0.817   3.062  0.00  0.00     0.002 A 
ATOM      4  C5  UNL d   1       0.941  -0.607   3.454  0.00  0.00    -0.004 A 
ATOM      5  C6  UNL d   1      -0.100  -1.177   2.723  0.00  0.00     0.002 A 
ATOM      6  C7  UNL d   1       0.179  -1.961   1.603  0.00  0.00     0.002 A 
ENDROOT
BRANCH   1   7
ATOM      7  C1  UNL d   1       1.807  -3.068   0.024  0.00  0.00     0.055 C 
ATOM      8  C   UNL d   1       1.993  -4.516   0.454  0.00  0.00     0.019 C 
ENDBRANCH   1   7
TORSDOF 1
ENDMDL
