MODEL 1
REMARK minimizedAffinity 21.2069855
REMARK minimizedRMSD -1
REMARK  0 active torsions:
REMARK  status: ('A' for Active; 'I' for Inactive)
ROOT
ATOM      1  C   UNL d   1       2.725  -0.323   3.120  0.00  0.00     0.020 A 
ATOM      2  C1  UNL d   1       1.566  -0.341   2.346  0.00  0.00     0.020 A 
ATOM      3  C2  UNL d   1       1.501  -1.140   1.203  0.00  0.00     0.034 A 
ATOM      4  C3  UNL d   1       2.597  -1.926   0.831  0.00  0.00     0.017 A 
ATOM      5  C4  UNL d   1       3.761  -1.908   1.608  0.00  0.00     0.017 A 
ATOM      6  C5  UNL d   1       3.821  -1.105   2.751  0.00  0.00     0.034 A 
ATOM      7 Cl   UNL d   1       5.155  -2.850   1.212  0.00  0.00    -0.070 Cl
ATOM      8 Cl1  UNL d   1       2.447  -2.891  -0.594  0.00  0.00    -0.070 Cl
ENDROOT
TORSDOF 0
ENDMDL
