MODEL 1
REMARK minimizedAffinity 17.784832
REMARK minimizedRMSD -1
REMARK  0 active torsions:
REMARK  status: ('A' for Active; 'I' for Inactive)
ROOT
ATOM      1  C   UNL d   1       1.410  -4.101  -3.040  0.00  0.00     0.020 A 
ATOM      2  C1  UNL d   1       1.820  -4.805  -1.908  0.00  0.00     0.020 A 
ATOM      3  C2  UNL d   1       3.174  -5.081  -1.710  0.00  0.00     0.034 A 
ATOM      4  C3  UNL d   1       4.124  -4.652  -2.645  0.00  0.00     0.017 A 
ATOM      5  C4  UNL d   1       3.711  -3.946  -3.781  0.00  0.00     0.017 A 
ATOM      6  C5  UNL d   1       2.354  -3.673  -3.974  0.00  0.00     0.034 A 
ATOM      7 Cl   UNL d   1       4.824  -3.385  -4.978  0.00  0.00    -0.070 Cl
ATOM      8 Cl1  UNL d   1       5.782  -5.028  -2.336  0.00  0.00    -0.070 Cl
ENDROOT
TORSDOF 0
ENDMDL
