MODEL 1
REMARK minimizedAffinity 15.0513144
REMARK minimizedRMSD -1
REMARK  0 active torsions:
REMARK  status: ('A' for Active; 'I' for Inactive)
ROOT
ATOM      1  C   UNL d   1       1.842  -3.956  -1.195  0.00  0.00     0.020 A 
ATOM      2  C1  UNL d   1       1.252  -2.739  -0.856  0.00  0.00     0.020 A 
ATOM      3  C2  UNL d   1       1.869  -1.898   0.073  0.00  0.00     0.034 A 
ATOM      4  C3  UNL d   1       3.080  -2.274   0.666  0.00  0.00     0.017 A 
ATOM      5  C4  UNL d   1       3.672  -3.495   0.325  0.00  0.00     0.017 A 
ATOM      6  C5  UNL d   1       3.050  -4.333  -0.605  0.00  0.00     0.034 A 
ATOM      7 Cl   UNL d   1       5.165  -4.026   1.015  0.00  0.00    -0.070 Cl
ATOM      8 Cl1  UNL d   1       3.788  -1.185   1.807  0.00  0.00    -0.070 Cl
ENDROOT
TORSDOF 0
ENDMDL
