MODEL 1
REMARK minimizedAffinity 15.2550449
REMARK minimizedRMSD -1
REMARK  0 active torsions:
REMARK  status: ('A' for Active; 'I' for Inactive)
ROOT
ATOM      1  C   UNL d   1       0.715  -3.419  -1.767  0.00  0.00     0.020 A 
ATOM      2  C1  UNL d   1       1.668  -4.133  -1.041  0.00  0.00     0.020 A 
ATOM      3  C2  UNL d   1       2.417  -3.491  -0.052  0.00  0.00     0.034 A 
ATOM      4  C3  UNL d   1       2.215  -2.132   0.213  0.00  0.00     0.017 A 
ATOM      5  C4  UNL d   1       1.258  -1.416  -0.516  0.00  0.00     0.017 A 
ATOM      6  C5  UNL d   1       0.511  -2.064  -1.505  0.00  0.00     0.034 A 
ATOM      7 Cl   UNL d   1       0.951   0.263  -0.245  0.00  0.00    -0.070 Cl
ATOM      8 Cl1  UNL d   1       3.176  -1.403   1.450  0.00  0.00    -0.070 Cl
ENDROOT
TORSDOF 0
ENDMDL
