MODEL 1
REMARK minimizedAffinity 11.5778112
REMARK minimizedRMSD -1
REMARK  0 active torsions:
REMARK  status: ('A' for Active; 'I' for Inactive)
ROOT
ATOM      1  C   UNL d   1       5.847  -3.984   0.805  0.00  0.00     0.020 A 
ATOM      2  C1  UNL d   1       5.991  -2.708   1.349  0.00  0.00     0.020 A 
ATOM      3  C2  UNL d   1       4.960  -1.775   1.223  0.00  0.00     0.034 A 
ATOM      4  C3  UNL d   1       3.780  -2.115   0.552  0.00  0.00     0.017 A 
ATOM      5  C4  UNL d   1       3.637  -3.396   0.006  0.00  0.00     0.017 A 
ATOM      6  C5  UNL d   1       4.672  -4.327   0.135  0.00  0.00     0.034 A 
ATOM      7 Cl   UNL d   1       2.210  -3.890  -0.836  0.00  0.00    -0.070 Cl
ATOM      8 Cl1  UNL d   1       2.547  -0.912   0.434  0.00  0.00    -0.070 Cl
ENDROOT
TORSDOF 0
ENDMDL
