MODEL 1
REMARK minimizedAffinity 15.7884293
REMARK minimizedRMSD -1
REMARK  0 active torsions:
REMARK  status: ('A' for Active; 'I' for Inactive)
ROOT
ATOM      1  C   UNL d   1       2.251  -5.108  -2.221  0.00  0.00     0.020 A 
ATOM      2  C1  UNL d   1       1.316  -4.088  -2.047  0.00  0.00     0.020 A 
ATOM      3  C2  UNL d   1       1.490  -3.148  -1.029  0.00  0.00     0.034 A 
ATOM      4  C3  UNL d   1       2.601  -3.226  -0.181  0.00  0.00     0.017 A 
ATOM      5  C4  UNL d   1       3.539  -4.250  -0.356  0.00  0.00     0.017 A 
ATOM      6  C5  UNL d   1       3.360  -5.189  -1.377  0.00  0.00     0.034 A 
ATOM      7 Cl   UNL d   1       4.935  -4.411   0.650  0.00  0.00    -0.070 Cl
ATOM      8 Cl1  UNL d   1       2.753  -2.030   1.057  0.00  0.00    -0.070 Cl
ENDROOT
TORSDOF 0
ENDMDL
