MODEL 1
REMARK minimizedAffinity 2.89597583
REMARK minimizedRMSD -1
REMARK  0 active torsions:
REMARK  status: ('A' for Active; 'I' for Inactive)
ROOT
ATOM      1  C   UNL d   1      -1.574   4.685  -4.123  0.00  0.00     0.020 A 
ATOM      2  C1  UNL d   1      -1.848   3.362  -3.776  0.00  0.00     0.020 A 
ATOM      3  C2  UNL d   1      -3.077   2.792  -4.115  0.00  0.00     0.034 A 
ATOM      4  C3  UNL d   1      -4.036   3.544  -4.803  0.00  0.00     0.017 A 
ATOM      5  C4  UNL d   1      -3.760   4.872  -5.150  0.00  0.00     0.017 A 
ATOM      6  C5  UNL d   1      -2.528   5.438  -4.809  0.00  0.00     0.034 A 
ATOM      7 Cl   UNL d   1      -4.894   5.862  -5.999  0.00  0.00    -0.070 Cl
ATOM      8 Cl1  UNL d   1      -5.534   2.775  -5.190  0.00  0.00    -0.070 Cl
ENDROOT
TORSDOF 0
ENDMDL
