MODEL 1
REMARK minimizedAffinity 19.5500946
REMARK minimizedRMSD -1
REMARK  0 active torsions:
REMARK  status: ('A' for Active; 'I' for Inactive)
ROOT
ATOM      1  C   UNL d   1       1.349   2.108   3.575  0.00  0.00     0.020 A 
ATOM      2  C1  UNL d   1       0.216   1.296   3.552  0.00  0.00     0.020 A 
ATOM      3  C2  UNL d   1      -0.581   1.241   2.406  0.00  0.00     0.034 A 
ATOM      4  C3  UNL d   1      -0.246   2.000   1.279  0.00  0.00     0.017 A 
ATOM      5  C4  UNL d   1       0.891   2.815   1.303  0.00  0.00     0.017 A 
ATOM      6  C5  UNL d   1       1.685   2.867   2.453  0.00  0.00     0.034 A 
ATOM      7 Cl   UNL d   1       1.368   3.781  -0.049  0.00  0.00    -0.070 Cl
ATOM      8 Cl1  UNL d   1      -1.276   1.883  -0.103  0.00  0.00    -0.070 Cl
ENDROOT
TORSDOF 0
ENDMDL
