MODEL 1
REMARK minimizedAffinity 12.8941441
REMARK minimizedRMSD -1
REMARK  0 active torsions:
REMARK  status: ('A' for Active; 'I' for Inactive)
ROOT
ATOM      1  C   UNL d   1       5.134  -2.278   1.445  0.00  0.00     0.020 A 
ATOM      2  C1  UNL d   1       4.968  -3.628   1.139  0.00  0.00     0.020 A 
ATOM      3  C2  UNL d   1       3.815  -4.058   0.478  0.00  0.00     0.034 A 
ATOM      4  C3  UNL d   1       2.824  -3.137   0.121  0.00  0.00     0.017 A 
ATOM      5  C4  UNL d   1       2.991  -1.782   0.428  0.00  0.00     0.017 A 
ATOM      6  C5  UNL d   1       4.148  -1.357   1.090  0.00  0.00     0.034 A 
ATOM      7 Cl   UNL d   1       1.812  -0.586   0.019  0.00  0.00    -0.070 Cl
ATOM      8 Cl1  UNL d   1       1.425  -3.738  -0.695  0.00  0.00    -0.070 Cl
ENDROOT
TORSDOF 0
ENDMDL
