MODEL 1
REMARK minimizedAffinity 7.47931623
REMARK minimizedRMSD -1
REMARK  0 active torsions:
REMARK  status: ('A' for Active; 'I' for Inactive)
ROOT
ATOM      1  C   UNL d   1       6.000  -2.626   1.131  0.00  0.00     0.020 A 
ATOM      2  C1  UNL d   1       4.838  -1.855   1.153  0.00  0.00     0.020 A 
ATOM      3  C2  UNL d   1       3.655  -2.360   0.611  0.00  0.00     0.034 A 
ATOM      4  C3  UNL d   1       3.630  -3.639   0.044  0.00  0.00     0.017 A 
ATOM      5  C4  UNL d   1       4.797  -4.412   0.021  0.00  0.00     0.017 A 
ATOM      6  C5  UNL d   1       5.979  -3.902   0.566  0.00  0.00     0.034 A 
ATOM      7 Cl   UNL d   1       4.844  -5.999  -0.661  0.00  0.00    -0.070 Cl
ATOM      8 Cl1  UNL d   1       2.131  -4.201  -0.608  0.00  0.00    -0.070 Cl
ENDROOT
TORSDOF 0
ENDMDL
