MODEL 1
REMARK minimizedAffinity 11.3144274
REMARK minimizedRMSD -1
REMARK  0 active torsions:
REMARK  status: ('A' for Active; 'I' for Inactive)
ROOT
ATOM      1  C   UNL d   1      -2.359  -0.124   3.296  0.00  0.00     0.020 A 
ATOM      2  C1  UNL d   1      -2.770   1.118   2.815  0.00  0.00     0.020 A 
ATOM      3  C2  UNL d   1      -1.947   1.837   1.945  0.00  0.00     0.034 A 
ATOM      4  C3  UNL d   1      -0.709   1.314   1.554  0.00  0.00     0.017 A 
ATOM      5  C4  UNL d   1      -0.297   0.067   2.037  0.00  0.00     0.017 A 
ATOM      6  C5  UNL d   1      -1.125  -0.648   2.908  0.00  0.00     0.034 A 
ATOM      7 Cl   UNL d   1       1.216  -0.643   1.600  0.00  0.00    -0.070 Cl
ATOM      8 Cl1  UNL d   1       0.256   2.258   0.475  0.00  0.00    -0.070 Cl
ENDROOT
TORSDOF 0
ENDMDL
