MODEL 1
REMARK minimizedAffinity 16.2043705
REMARK minimizedRMSD -1
REMARK  0 active torsions:
REMARK  status: ('A' for Active; 'I' for Inactive)
ROOT
ATOM      1  C   UNL d   1      -5.937  -5.201   2.046  0.00  0.00     0.020 A 
ATOM      2  C1  UNL d   1      -5.544  -3.865   1.968  0.00  0.00     0.020 A 
ATOM      3  C2  UNL d   1      -5.211  -3.167   3.130  0.00  0.00     0.034 A 
ATOM      4  C3  UNL d   1      -5.269  -3.803   4.375  0.00  0.00     0.017 A 
ATOM      5  C4  UNL d   1      -5.664  -5.144   4.452  0.00  0.00     0.017 A 
ATOM      6  C5  UNL d   1      -5.996  -5.839   3.285  0.00  0.00     0.034 A 
ATOM      7 Cl   UNL d   1      -5.760  -5.997   5.952  0.00  0.00    -0.070 Cl
ATOM      8 Cl1  UNL d   1      -4.843  -2.879   5.771  0.00  0.00    -0.070 Cl
ENDROOT
TORSDOF 0
ENDMDL
