MODEL 1
REMARK minimizedAffinity 7.74146843
REMARK minimizedRMSD -1
REMARK  0 active torsions:
REMARK  status: ('A' for Active; 'I' for Inactive)
ROOT
ATOM      1  C   UNL d   1       5.737  -5.315   1.069  0.00  0.00     0.020 A 
ATOM      2  C1  UNL d   1       5.527  -5.993  -0.131  0.00  0.00     0.020 A 
ATOM      3  C2  UNL d   1       4.593  -5.512  -1.051  0.00  0.00     0.034 A 
ATOM      4  C3  UNL d   1       3.866  -4.349  -0.772  0.00  0.00     0.017 A 
ATOM      5  C4  UNL d   1       4.077  -3.669   0.432  0.00  0.00     0.017 A 
ATOM      6  C5  UNL d   1       5.014  -4.155   1.350  0.00  0.00     0.034 A 
ATOM      7 Cl   UNL d   1       3.218  -2.227   0.847  0.00  0.00    -0.070 Cl
ATOM      8 Cl1  UNL d   1       2.727  -3.810  -1.955  0.00  0.00    -0.070 Cl
ENDROOT
TORSDOF 0
ENDMDL
