MODEL 1
REMARK minimizedAffinity 4.62430239
REMARK minimizedRMSD -1
REMARK  0 active torsions:
REMARK  status: ('A' for Active; 'I' for Inactive)
ROOT
ATOM      1  C   UNL d   1      -0.245  -4.319   5.542  0.00  0.00     0.020 A 
ATOM      2  C1  UNL d   1      -0.591  -5.128   4.460  0.00  0.00     0.020 A 
ATOM      3  C2  UNL d   1      -1.829  -4.967   3.836  0.00  0.00     0.034 A 
ATOM      4  C3  UNL d   1      -2.727  -3.996   4.292  0.00  0.00     0.017 A 
ATOM      5  C4  UNL d   1      -2.379  -3.184   5.379  0.00  0.00     0.017 A 
ATOM      6  C5  UNL d   1      -1.138  -3.349   6.000  0.00  0.00     0.034 A 
ATOM      7 Cl   UNL d   1      -3.434  -1.964   5.999  0.00  0.00    -0.070 Cl
ATOM      8 Cl1  UNL d   1      -4.241  -3.852   3.473  0.00  0.00    -0.070 Cl
ENDROOT
TORSDOF 0
ENDMDL
