MODEL 1
REMARK minimizedAffinity 14.2920141
REMARK minimizedRMSD -1
REMARK  0 active torsions:
REMARK  status: ('A' for Active; 'I' for Inactive)
ROOT
ATOM      1  C   UNL d   1      -1.536   2.144  -2.628  0.00  0.00     0.020 A 
ATOM      2  C1  UNL d   1      -0.979   3.345  -3.065  0.00  0.00     0.020 A 
ATOM      3  C2  UNL d   1      -0.066   4.027  -2.256  0.00  0.00     0.034 A 
ATOM      4  C3  UNL d   1       0.291   3.508  -1.006  0.00  0.00     0.017 A 
ATOM      5  C4  UNL d   1      -0.269   2.302  -0.569  0.00  0.00     0.017 A 
ATOM      6  C5  UNL d   1      -1.182   1.624  -1.382  0.00  0.00     0.034 A 
ATOM      7 Cl   UNL d   1       0.123   1.600   0.961  0.00  0.00    -0.070 Cl
ATOM      8 Cl1  UNL d   1       1.425   4.404  -0.059  0.00  0.00    -0.070 Cl
ENDROOT
TORSDOF 0
ENDMDL
