MODEL 1
REMARK minimizedAffinity 5.34077215
REMARK minimizedRMSD -1
REMARK  0 active torsions:
REMARK  status: ('A' for Active; 'I' for Inactive)
ROOT
ATOM      1  C   UNL d   1       0.999   3.345  -1.570  0.00  0.00     0.020 A 
ATOM      2  C1  UNL d   1       0.541   4.617  -1.914  0.00  0.00     0.020 A 
ATOM      3  C2  UNL d   1      -0.530   5.184  -1.221  0.00  0.00     0.034 A 
ATOM      4  C3  UNL d   1      -1.147   4.480  -0.180  0.00  0.00     0.017 A 
ATOM      5  C4  UNL d   1      -0.687   3.204   0.164  0.00  0.00     0.017 A 
ATOM      6  C5  UNL d   1       0.386   2.641  -0.533  0.00  0.00     0.034 A 
ATOM      7 Cl   UNL d   1      -1.398   2.275   1.436  0.00  0.00    -0.070 Cl
ATOM      8 Cl1  UNL d   1      -2.467   5.243   0.634  0.00  0.00    -0.070 Cl
ENDROOT
TORSDOF 0
ENDMDL
