MODEL 1
REMARK minimizedAffinity 18.8706112
REMARK minimizedRMSD -1
REMARK  0 active torsions:
REMARK  status: ('A' for Active; 'I' for Inactive)
ROOT
ATOM      1  C   UNL d   1       1.470   0.961  -5.999  0.00  0.00     0.020 A 
ATOM      2  C1  UNL d   1       2.364   0.437  -5.066  0.00  0.00     0.020 A 
ATOM      3  C2  UNL d   1       2.258   0.792  -3.720  0.00  0.00     0.034 A 
ATOM      4  C3  UNL d   1       1.255   1.675  -3.302  0.00  0.00     0.017 A 
ATOM      5  C4  UNL d   1       0.358   2.201  -4.239  0.00  0.00     0.017 A 
ATOM      6  C5  UNL d   1       0.469   1.842  -5.586  0.00  0.00     0.034 A 
ATOM      7 Cl   UNL d   1      -0.905   3.296  -3.799  0.00  0.00    -0.070 Cl
ATOM      8 Cl1  UNL d   1       1.182   2.070  -1.622  0.00  0.00    -0.070 Cl
ENDROOT
TORSDOF 0
ENDMDL
