MODEL 1
REMARK minimizedAffinity 17.1202145
REMARK minimizedRMSD -1
REMARK  0 active torsions:
REMARK  status: ('A' for Active; 'I' for Inactive)
ROOT
ATOM      1  C   UNL d   1      -0.491   1.782   2.154  0.00  0.00     0.020 A 
ATOM      2  C1  UNL d   1       0.313   1.481   1.055  0.00  0.00     0.020 A 
ATOM      3  C2  UNL d   1      -0.016   1.980  -0.207  0.00  0.00     0.034 A 
ATOM      4  C3  UNL d   1      -1.151   2.782  -0.374  0.00  0.00     0.017 A 
ATOM      5  C4  UNL d   1      -1.957   3.082   0.730  0.00  0.00     0.017 A 
ATOM      6  C5  UNL d   1      -1.624   2.580   1.992  0.00  0.00     0.034 A 
ATOM      7 Cl   UNL d   1      -3.374   4.064   0.602  0.00  0.00    -0.070 Cl
ATOM      8 Cl1  UNL d   1      -1.496   3.364  -1.963  0.00  0.00    -0.070 Cl
ENDROOT
TORSDOF 0
ENDMDL
