MODEL 1
REMARK minimizedAffinity 24.222084
REMARK minimizedRMSD -1
REMARK  0 active torsions:
REMARK  status: ('A' for Active; 'I' for Inactive)
ROOT
ATOM      1  C   UNL d   1      -1.395   2.942   0.076  0.00  0.00     0.020 A 
ATOM      2  C1  UNL d   1      -0.095   3.413   0.257  0.00  0.00     0.020 A 
ATOM      3  C2  UNL d   1       0.674   2.947   1.325  0.00  0.00     0.034 A 
ATOM      4  C3  UNL d   1       0.144   2.007   2.217  0.00  0.00     0.017 A 
ATOM      5  C4  UNL d   1      -1.161   1.536   2.035  0.00  0.00     0.017 A 
ATOM      6  C5  UNL d   1      -1.927   2.006   0.963  0.00  0.00     0.034 A 
ATOM      7 Cl   UNL d   1      -1.884   0.376   3.093  0.00  0.00    -0.070 Cl
ATOM      8 Cl1  UNL d   1       1.151   1.474   3.516  0.00  0.00    -0.070 Cl
ENDROOT
TORSDOF 0
ENDMDL
