MODEL 1
REMARK minimizedAffinity 11.5912991
REMARK minimizedRMSD -1
REMARK  0 active torsions:
REMARK  status: ('A' for Active; 'I' for Inactive)
ROOT
ATOM      1  C   UNL d   1      -0.501   4.508  -2.046  0.00  0.00     0.020 A 
ATOM      2  C1  UNL d   1       0.254   4.644  -0.881  0.00  0.00     0.020 A 
ATOM      3  C2  UNL d   1       0.279   3.612   0.059  0.00  0.00     0.034 A 
ATOM      4  C3  UNL d   1      -0.452   2.439  -0.163  0.00  0.00     0.017 A 
ATOM      5  C4  UNL d   1      -1.209   2.303  -1.332  0.00  0.00     0.017 A 
ATOM      6  C5  UNL d   1      -1.231   3.340  -2.271  0.00  0.00     0.034 A 
ATOM      7 Cl   UNL d   1      -2.136   0.886  -1.676  0.00  0.00    -0.070 Cl
ATOM      8 Cl1  UNL d   1      -0.374   1.204   1.042  0.00  0.00    -0.070 Cl
ENDROOT
TORSDOF 0
ENDMDL
