MODEL 1
REMARK minimizedAffinity 1.59443521
REMARK minimizedRMSD -1
REMARK  1 active torsions:
REMARK  status: ('A' for Active; 'I' for Inactive)
REMARK    1  A    between atoms: C3_4  and  O_7 
ROOT
ATOM      1  C   UNL d   1       2.276   0.213  -1.452  0.00  0.00    -0.033 A 
ATOM      2  C1  UNL d   1       3.004   0.804  -0.418  0.00  0.00     0.039 A 
ATOM      3  C2  UNL d   1       3.311   0.071   0.730  0.00  0.00    -0.080 A 
ATOM      4  C3  UNL d   1       2.885  -1.251   0.830  0.00  0.00     0.150 A 
ATOM      5  C4  UNL d   1       2.162  -1.847  -0.198  0.00  0.00    -0.007 A 
ATOM      6  C5  UNL d   1       1.855  -1.113  -1.343  0.00  0.00     0.039 A 
ENDROOT
BRANCH   4   7
ATOM      7  O   UNL d   1       3.156  -2.005   1.933  0.00  0.00    -0.526 OA
ATOM      8  H5  UNL d   1       3.637  -1.453   2.573  0.00  0.00     0.418 HD
ENDBRANCH   4   7
TORSDOF 1
ENDMDL
