MODEL 1
REMARK minimizedAffinity 2.70171666
REMARK minimizedRMSD -1
REMARK  1 active torsions:
REMARK  status: ('A' for Active; 'I' for Inactive)
REMARK    1  A    between atoms: C3_4  and  O_7 
ROOT
ATOM      1  C   UNL d   1      -5.994   4.953   4.155  0.00  0.00    -0.033 A 
ATOM      2  C1  UNL d   1      -5.983   5.585   5.400  0.00  0.00     0.039 A 
ATOM      3  C2  UNL d   1      -4.770   5.943   5.992  0.00  0.00    -0.080 A 
ATOM      4  C3  UNL d   1      -3.578   5.665   5.329  0.00  0.00     0.150 A 
ATOM      5  C4  UNL d   1      -3.582   5.039   4.086  0.00  0.00    -0.007 A 
ATOM      6  C5  UNL d   1      -4.794   4.682   3.497  0.00  0.00     0.039 A 
ENDROOT
BRANCH   4   7
ATOM      7  O   UNL d   1      -2.369   5.991   5.869  0.00  0.00    -0.526 OA
ATOM      8  H5  UNL d   1      -2.520   6.390   6.742  0.00  0.00     0.418 HD
ENDBRANCH   4   7
TORSDOF 1
ENDMDL
