MODEL 1
REMARK minimizedAffinity 1.68423116
REMARK minimizedRMSD -1
REMARK  1 active torsions:
REMARK  status: ('A' for Active; 'I' for Inactive)
REMARK    1  A    between atoms: C3_4  and  O_7 
ROOT
ATOM      1  C   UNL d   1      -4.569   5.960   5.965  0.00  0.00    -0.033 A 
ATOM      2  C1  UNL d   1      -5.729   5.188   5.881  0.00  0.00     0.039 A 
ATOM      3  C2  UNL d   1      -5.999   4.455   4.723  0.00  0.00    -0.080 A 
ATOM      4  C3  UNL d   1      -5.102   4.503   3.659  0.00  0.00     0.150 A 
ATOM      5  C4  UNL d   1      -3.943   5.268   3.738  0.00  0.00    -0.007 A 
ATOM      6  C5  UNL d   1      -3.675   5.999   4.894  0.00  0.00     0.039 A 
ENDROOT
BRANCH   4   7
ATOM      7  O   UNL d   1      -5.325   3.809   2.507  0.00  0.00    -0.526 OA
ATOM      8  H5  UNL d   1      -6.177   3.349   2.585  0.00  0.00     0.418 HD
ENDBRANCH   4   7
TORSDOF 1
ENDMDL
