MODEL 1
REMARK minimizedAffinity -0.6841048
REMARK minimizedRMSD -1
REMARK  1 active torsions:
REMARK  status: ('A' for Active; 'I' for Inactive)
REMARK    1  A    between atoms: C3_4  and  O_7 
ROOT
ATOM      1  C   UNL d   1      -4.915   5.969   5.718  0.00  0.00    -0.033 A 
ATOM      2  C1  UNL d   1      -3.830   6.000   4.839  0.00  0.00     0.039 A 
ATOM      3  C2  UNL d   1      -3.824   5.184   3.706  0.00  0.00    -0.080 A 
ATOM      4  C3  UNL d   1      -4.908   4.344   3.463  0.00  0.00     0.150 A 
ATOM      5  C4  UNL d   1      -5.993   4.311   4.332  0.00  0.00    -0.007 A 
ATOM      6  C5  UNL d   1      -5.997   5.126   5.463  0.00  0.00     0.039 A 
ENDROOT
BRANCH   4   7
ATOM      7  O   UNL d   1      -4.945   3.526   2.373  0.00  0.00    -0.526 OA
ATOM      8  H5  UNL d   1      -4.115   3.634   1.879  0.00  0.00     0.418 HD
ENDBRANCH   4   7
TORSDOF 1
ENDMDL
