MODEL 1
REMARK minimizedAffinity 1.98442149
REMARK minimizedRMSD -1
REMARK  1 active torsions:
REMARK  status: ('A' for Active; 'I' for Inactive)
REMARK    1  A    between atoms: C3_4  and  O_7 
ROOT
ATOM      1  C   UNL d   1      -4.889   5.989   5.696  0.00  0.00    -0.033 A 
ATOM      2  C1  UNL d   1      -5.990   5.177   5.416  0.00  0.00     0.039 A 
ATOM      3  C2  UNL d   1      -5.997   4.377   4.272  0.00  0.00    -0.080 A 
ATOM      4  C3  UNL d   1      -4.898   4.398   3.417  0.00  0.00     0.150 A 
ATOM      5  C4  UNL d   1      -3.796   5.201   3.692  0.00  0.00    -0.007 A 
ATOM      6  C5  UNL d   1      -3.792   6.000   4.834  0.00  0.00     0.039 A 
ENDROOT
BRANCH   4   7
ATOM      7  O   UNL d   1      -4.861   3.638   2.286  0.00  0.00    -0.526 OA
ATOM      8  H5  UNL d   1      -5.702   3.156   2.211  0.00  0.00     0.418 HD
ENDBRANCH   4   7
TORSDOF 1
ENDMDL
