MODEL 1
REMARK minimizedAffinity -0.815699041
REMARK minimizedRMSD -1
REMARK  1 active torsions:
REMARK  status: ('A' for Active; 'I' for Inactive)
REMARK    1  A    between atoms: C3_4  and  O_7 
ROOT
ATOM      1  C   UNL d   1      -4.348   5.765   5.879  0.00  0.00    -0.033 A 
ATOM      2  C1  UNL d   1      -5.459   4.928   5.999  0.00  0.00     0.039 A 
ATOM      3  C2  UNL d   1      -6.000   4.315   4.867  0.00  0.00    -0.080 A 
ATOM      4  C3  UNL d   1      -5.420   4.546   3.623  0.00  0.00     0.150 A 
ATOM      5  C4  UNL d   1      -4.311   5.376   3.496  0.00  0.00    -0.007 A 
ATOM      6  C5  UNL d   1      -3.773   5.988   4.627  0.00  0.00     0.039 A 
ENDROOT
BRANCH   4   7
ATOM      7  O   UNL d   1      -5.915   3.974   2.489  0.00  0.00    -0.526 OA
ATOM      8  H5  UNL d   1      -6.699   3.450   2.725  0.00  0.00     0.418 HD
ENDBRANCH   4   7
TORSDOF 1
ENDMDL
