MODEL 1
REMARK minimizedAffinity 0.16936475
REMARK minimizedRMSD -1
REMARK  1 active torsions:
REMARK  status: ('A' for Active; 'I' for Inactive)
REMARK    1  A    between atoms: C3_4  and  O_7 
ROOT
ATOM      1  C   UNL d   1      -5.981   4.629   5.129  0.00  0.00    -0.033 A 
ATOM      2  C1  UNL d   1      -5.246   5.476   5.960  0.00  0.00     0.039 A 
ATOM      3  C2  UNL d   1      -3.997   5.948   5.550  0.00  0.00    -0.080 A 
ATOM      4  C3  UNL d   1      -3.497   5.567   4.308  0.00  0.00     0.150 A 
ATOM      5  C4  UNL d   1      -4.227   4.727   3.473  0.00  0.00    -0.007 A 
ATOM      6  C5  UNL d   1      -5.473   4.256   3.885  0.00  0.00     0.039 A 
ENDROOT
BRANCH   4   7
ATOM      7  O   UNL d   1      -2.282   5.999   3.866  0.00  0.00    -0.526 OA
ATOM      8  H5  UNL d   1      -1.880   6.548   4.559  0.00  0.00     0.418 HD
ENDBRANCH   4   7
TORSDOF 1
ENDMDL
