MODEL 1
REMARK minimizedAffinity 3.95704794
REMARK minimizedRMSD -1
REMARK  1 active torsions:
REMARK  status: ('A' for Active; 'I' for Inactive)
REMARK    1  A    between atoms: C3_4  and  O_7 
ROOT
ATOM      1  C   UNL d   1       2.118   0.244   0.595  0.00  0.00    -0.033 A 
ATOM      2  C1  UNL d   1       3.504   0.273   0.757  0.00  0.00     0.039 A 
ATOM      3  C2  UNL d   1       4.319   0.752  -0.271  0.00  0.00    -0.080 A 
ATOM      4  C3  UNL d   1       3.736   1.200  -1.453  0.00  0.00     0.150 A 
ATOM      5  C4  UNL d   1       2.355   1.177  -1.620  0.00  0.00    -0.007 A 
ATOM      6  C5  UNL d   1       1.543   0.697  -0.593  0.00  0.00     0.039 A 
ENDROOT
BRANCH   4   7
ATOM      7  O   UNL d   1       4.490   1.672  -2.486  0.00  0.00    -0.526 OA
ATOM      8  H5  UNL d   1       5.428   1.601  -2.239  0.00  0.00     0.418 HD
ENDBRANCH   4   7
TORSDOF 1
ENDMDL
