MODEL 1
REMARK minimizedAffinity -0.236342445
REMARK minimizedRMSD -1
REMARK  1 active torsions:
REMARK  status: ('A' for Active; 'I' for Inactive)
REMARK    1  A    between atoms: C3_4  and  O_7 
ROOT
ATOM      1  C   UNL d   1      -5.999   5.139   4.191  0.00  0.00    -0.033 A 
ATOM      2  C1  UNL d   1      -5.884   5.690   5.469  0.00  0.00     0.039 A 
ATOM      3  C2  UNL d   1      -4.625   5.988   5.992  0.00  0.00    -0.080 A 
ATOM      4  C3  UNL d   1      -3.489   5.731   5.229  0.00  0.00     0.150 A 
ATOM      5  C4  UNL d   1      -3.597   5.186   3.953  0.00  0.00    -0.007 A 
ATOM      6  C5  UNL d   1      -4.856   4.889   3.433  0.00  0.00     0.039 A 
ENDROOT
BRANCH   4   7
ATOM      7  O   UNL d   1      -2.238   6.000   5.699  0.00  0.00    -0.526 OA
ATOM      8  H5  UNL d   1      -2.317   6.346   6.603  0.00  0.00     0.418 HD
ENDBRANCH   4   7
TORSDOF 1
ENDMDL
