MODEL 1
REMARK minimizedAffinity 8.84785175
REMARK minimizedRMSD -1
REMARK  1 active torsions:
REMARK  status: ('A' for Active; 'I' for Inactive)
REMARK    1  A    between atoms: C3_4  and  O_7 
ROOT
ATOM      1  C   UNL d   1       2.462  -0.213   0.739  0.00  0.00    -0.033 A 
ATOM      2  C1  UNL d   1       1.950  -0.368  -0.550  0.00  0.00     0.039 A 
ATOM      3  C2  UNL d   1       2.517   0.332  -1.617  0.00  0.00    -0.080 A 
ATOM      4  C3  UNL d   1       3.594   1.181  -1.382  0.00  0.00     0.150 A 
ATOM      5  C4  UNL d   1       4.112   1.337  -0.101  0.00  0.00    -0.007 A 
ATOM      6  C5  UNL d   1       3.544   0.639   0.964  0.00  0.00     0.039 A 
ENDROOT
BRANCH   4   7
ATOM      7  O   UNL d   1       4.177   1.889  -2.391  0.00  0.00    -0.526 OA
ATOM      8  H5  UNL d   1       3.696   1.703  -3.215  0.00  0.00     0.418 HD
ENDBRANCH   4   7
TORSDOF 1
ENDMDL
