MODEL 1
REMARK minimizedAffinity 3.42622876
REMARK minimizedRMSD -1
REMARK  1 active torsions:
REMARK  status: ('A' for Active; 'I' for Inactive)
REMARK    1  A    between atoms: C3_4  and  O_7 
ROOT
ATOM      1  C   UNL d   1       2.479  -0.330   1.000  0.00  0.00    -0.033 A 
ATOM      2  C1  UNL d   1       2.053  -0.626  -0.296  0.00  0.00     0.039 A 
ATOM      3  C2  UNL d   1       2.683  -0.034  -1.392  0.00  0.00    -0.080 A 
ATOM      4  C3  UNL d   1       3.736   0.851  -1.179  0.00  0.00     0.150 A 
ATOM      5  C4  UNL d   1       4.169   1.148   0.109  0.00  0.00    -0.007 A 
ATOM      6  C5  UNL d   1       3.538   0.556   1.203  0.00  0.00     0.039 A 
ENDROOT
BRANCH   4   7
ATOM      7  O   UNL d   1       4.379   1.457  -2.218  0.00  0.00    -0.526 OA
ATOM      8  H5  UNL d   1       3.954   1.179  -3.047  0.00  0.00     0.418 HD
ENDBRANCH   4   7
TORSDOF 1
ENDMDL
