MODEL 1
REMARK minimizedAffinity -1.9956938
REMARK minimizedRMSD -1
REMARK  1 active torsions:
REMARK  status: ('A' for Active; 'I' for Inactive)
REMARK    1  A    between atoms: N_2  and  C1_3 
ROOT
ATOM      1  C1  UNL d   1       0.030  -0.400   0.010  0.00  0.00     0.143 A 
ATOM      2  C2  UNL d   1      -0.362   0.472   1.032  0.00  0.00    -0.057 A 
ATOM      3  C3  UNL d   1       0.561   1.322   1.655  0.00  0.00     0.033 A 
ATOM      4  C4  UNL d   1       1.902   1.292   1.285  0.00  0.00    -0.042 A 
ATOM      5  C5  UNL d   1       2.318   0.416   0.290  0.00  0.00     0.033 A 
ATOM      6  C6  UNL d   1       1.390  -0.425  -0.333  0.00  0.00    -0.057 A 
ENDROOT
BRANCH   1   7
ATOM      7  N   UNL d   1      -0.821  -1.338  -0.579  0.00  0.00    -0.732 N 
ATOM      8  C   UNL d   1      -1.429  -1.076  -1.866  0.00  0.00     0.284 C 
ATOM      9  H3  UNL d   1      -0.486  -2.292  -0.465  0.00  0.00     0.395 HD
ENDBRANCH   1   7
TORSDOF 1
ENDMDL
