MODEL 1
REMARK minimizedAffinity -3.17977452
REMARK minimizedRMSD -1
REMARK  1 active torsions:
REMARK  status: ('A' for Active; 'I' for Inactive)
REMARK    1  A    between atoms: N_2  and  C1_3 
ROOT
ATOM      1  C1  UNL d   1      -0.639   0.090  -0.038  0.00  0.00     0.143 A 
ATOM      2  C2  UNL d   1      -0.378   0.193   1.333  0.00  0.00    -0.057 A 
ATOM      3  C3  UNL d   1       0.469   1.187   1.838  0.00  0.00     0.033 A 
ATOM      4  C4  UNL d   1       1.096   2.080   0.976  0.00  0.00    -0.042 A 
ATOM      5  C5  UNL d   1       0.871   1.981  -0.393  0.00  0.00     0.033 A 
ATOM      6  C6  UNL d   1       0.019   0.990  -0.891  0.00  0.00    -0.057 A 
ENDROOT
BRANCH   1   7
ATOM      7  N   UNL d   1      -1.394  -0.936  -0.611  0.00  0.00    -0.732 N 
ATOM      8  C   UNL d   1      -1.614  -0.979  -2.040  0.00  0.00     0.284 C 
ATOM      9  H3  UNL d   1      -1.197  -1.843  -0.193  0.00  0.00     0.395 HD
ENDBRANCH   1   7
TORSDOF 1
ENDMDL
