MODEL 1
REMARK minimizedAffinity -4.9978137
REMARK minimizedRMSD -1
REMARK  1 active torsions:
REMARK  status: ('A' for Active; 'I' for Inactive)
REMARK    1  A    between atoms: N_2  and  C1_3 
ROOT
ATOM      1  C1  UNL d   1       0.820   0.169   0.154  0.00  0.00     0.143 A 
ATOM      2  C2  UNL d   1       0.038   0.702   1.184  0.00  0.00    -0.057 A 
ATOM      3  C3  UNL d   1       0.392   1.898   1.820  0.00  0.00     0.033 A 
ATOM      4  C4  UNL d   1       1.555   2.569   1.456  0.00  0.00    -0.042 A 
ATOM      5  C5  UNL d   1       2.361   2.045   0.452  0.00  0.00     0.033 A 
ATOM      6  C6  UNL d   1       1.998   0.854  -0.185  0.00  0.00    -0.057 A 
ENDROOT
BRANCH   1   7
ATOM      7  N   UNL d   1       0.574  -1.066  -0.451  0.00  0.00    -0.732 N 
ATOM      8  C   UNL d   1      -0.683  -1.322  -1.120  0.00  0.00     0.284 C 
ATOM      9  H3  UNL d   1       1.389  -1.427  -0.943  0.00  0.00     0.395 HD
ENDBRANCH   1   7
TORSDOF 1
ENDMDL
