MODEL 1
REMARK minimizedAffinity -4.37762213
REMARK minimizedRMSD -1
REMARK  1 active torsions:
REMARK  status: ('A' for Active; 'I' for Inactive)
REMARK    1  A    between atoms: N_2  and  C1_3 
ROOT
ATOM      1  C1  UNL d   1       1.032   0.705  -0.332  0.00  0.00     0.143 A 
ATOM      2  C2  UNL d   1       0.648   1.870   0.340  0.00  0.00    -0.057 A 
ATOM      3  C3  UNL d   1       1.598   2.740   0.889  0.00  0.00     0.033 A 
ATOM      4  C4  UNL d   1       2.954   2.443   0.800  0.00  0.00    -0.042 A 
ATOM      5  C5  UNL d   1       3.359   1.277   0.159  0.00  0.00     0.033 A 
ATOM      6  C6  UNL d   1       2.405   0.417  -0.393  0.00  0.00    -0.057 A 
ENDROOT
BRANCH   1   7
ATOM      7  N   UNL d   1       0.132  -0.249  -0.813  0.00  0.00    -0.732 N 
ATOM      8  C   UNL d   1      -0.765  -0.937   0.091  0.00  0.00     0.284 C 
ATOM      9  H3  UNL d   1      -0.297   0.030  -1.692  0.00  0.00     0.395 HD
ENDBRANCH   1   7
TORSDOF 1
ENDMDL
