MODEL 1
REMARK minimizedAffinity -3.71178675
REMARK minimizedRMSD -1
REMARK  1 active torsions:
REMARK  status: ('A' for Active; 'I' for Inactive)
REMARK    1  A    between atoms: N_2  and  C1_3 
ROOT
ATOM      1  C1  UNL d   1      -0.869  -1.556  -1.278  0.00  0.00     0.143 A 
ATOM      2  C2  UNL d   1       0.496  -1.755  -1.515  0.00  0.00    -0.057 A 
ATOM      3  C3  UNL d   1       1.467  -1.229  -0.654  0.00  0.00     0.033 A 
ATOM      4  C4  UNL d   1       1.090  -0.469   0.447  0.00  0.00    -0.042 A 
ATOM      5  C5  UNL d   1      -0.260  -0.237   0.689  0.00  0.00     0.033 A 
ATOM      6  C6  UNL d   1      -1.225  -0.770  -0.171  0.00  0.00    -0.057 A 
ENDROOT
BRANCH   1   7
ATOM      7  N   UNL d   1      -1.878  -1.969  -2.150  0.00  0.00    -0.732 N 
ATOM      8  C   UNL d   1      -2.592  -1.005  -2.960  0.00  0.00     0.284 C 
ATOM      9  H3  UNL d   1      -1.641  -2.829  -2.640  0.00  0.00     0.395 HD
ENDBRANCH   1   7
TORSDOF 1
ENDMDL
