MODEL 1
REMARK minimizedAffinity -5.27647591
REMARK minimizedRMSD -1
REMARK  1 active torsions:
REMARK  status: ('A' for Active; 'I' for Inactive)
REMARK    1  A    between atoms: N_2  and  C1_3 
ROOT
ATOM      1  C1  UNL d   1       0.683   0.185   0.068  0.00  0.00     0.143 A 
ATOM      2  C2  UNL d   1       0.014   0.772   1.147  0.00  0.00    -0.057 A 
ATOM      3  C3  UNL d   1       0.552   1.874   1.823  0.00  0.00     0.033 A 
ATOM      4  C4  UNL d   1       1.788   2.391   1.449  0.00  0.00    -0.042 A 
ATOM      5  C5  UNL d   1       2.483   1.808   0.395  0.00  0.00     0.033 A 
ATOM      6  C6  UNL d   1       1.937   0.712  -0.280  0.00  0.00    -0.057 A 
ENDROOT
BRANCH   1   7
ATOM      7  N   UNL d   1       0.247  -0.973  -0.581  0.00  0.00    -0.732 N 
ATOM      8  C   UNL d   1      -1.166  -1.256  -0.714  0.00  0.00     0.284 C 
ATOM      9  H3  UNL d   1       0.793  -1.180  -1.414  0.00  0.00     0.395 HD
ENDBRANCH   1   7
TORSDOF 1
ENDMDL
