MODEL 1
REMARK minimizedAffinity -5.17323256
REMARK minimizedRMSD -1
REMARK  1 active torsions:
REMARK  status: ('A' for Active; 'I' for Inactive)
REMARK    1  A    between atoms: N_2  and  C1_3 
ROOT
ATOM      1  C1  UNL d   1       1.447   0.047   0.093  0.00  0.00     0.143 A 
ATOM      2  C2  UNL d   1       2.832   0.240   0.130  0.00  0.00    -0.057 A 
ATOM      3  C3  UNL d   1       3.386   1.526   0.129  0.00  0.00     0.033 A 
ATOM      4  C4  UNL d   1       2.562   2.645   0.061  0.00  0.00    -0.042 A 
ATOM      5  C5  UNL d   1       1.183   2.476  -0.002  0.00  0.00     0.033 A 
ATOM      6  C6  UNL d   1       0.636   1.190   0.006  0.00  0.00    -0.057 A 
ENDROOT
BRANCH   1   7
ATOM      7  N   UNL d   1       0.839  -1.207  -0.008  0.00  0.00    -0.732 N 
ATOM      8  C   UNL d   1      -0.473  -1.344  -0.604  0.00  0.00     0.284 C 
ATOM      9  H3  UNL d   1       1.495  -1.937  -0.275  0.00  0.00     0.395 HD
ENDBRANCH   1   7
TORSDOF 1
ENDMDL
