MODEL 1
REMARK minimizedAffinity -5.48685312
REMARK minimizedRMSD -1
REMARK  1 active torsions:
REMARK  status: ('A' for Active; 'I' for Inactive)
REMARK    1  A    between atoms: N_2  and  C1_3 
ROOT
ATOM      1  C1  UNL d   1       0.724   0.778   0.749  0.00  0.00     0.143 A 
ATOM      2  C2  UNL d   1       0.679   1.734   1.769  0.00  0.00    -0.057 A 
ATOM      3  C3  UNL d   1       1.700   2.680   1.924  0.00  0.00     0.033 A 
ATOM      4  C4  UNL d   1       2.801   2.669   1.074  0.00  0.00    -0.042 A 
ATOM      5  C5  UNL d   1       2.879   1.712   0.068  0.00  0.00     0.033 A 
ATOM      6  C6  UNL d   1       1.853   0.774  -0.085  0.00  0.00    -0.057 A 
ENDROOT
BRANCH   1   7
ATOM      7  N   UNL d   1      -0.210  -0.250   0.604  0.00  0.00    -0.732 N 
ATOM      8  C   UNL d   1      -0.238  -1.058  -0.596  0.00  0.00     0.284 C 
ATOM      9  H3  UNL d   1      -0.342  -0.778   1.464  0.00  0.00     0.395 HD
ENDBRANCH   1   7
TORSDOF 1
ENDMDL
