MODEL 1
REMARK minimizedAffinity -4.52055454
REMARK minimizedRMSD -1
REMARK  1 active torsions:
REMARK  status: ('A' for Active; 'I' for Inactive)
REMARK    1  A    between atoms: N_2  and  C1_3 
ROOT
ATOM      1  C1  UNL d   1       0.681   0.859   0.243  0.00  0.00     0.143 A 
ATOM      2  C2  UNL d   1       0.875   1.869   1.191  0.00  0.00    -0.057 A 
ATOM      3  C3  UNL d   1       2.117   2.500   1.336  0.00  0.00     0.033 A 
ATOM      4  C4  UNL d   1       3.198   2.109   0.553  0.00  0.00    -0.042 A 
ATOM      5  C5  UNL d   1       3.035   1.090  -0.378  0.00  0.00     0.033 A 
ATOM      6  C6  UNL d   1       1.790   0.468  -0.523  0.00  0.00    -0.057 A 
ENDROOT
BRANCH   1   7
ATOM      7  N   UNL d   1      -0.502   0.126   0.119  0.00  0.00    -0.732 N 
ATOM      8  C   UNL d   1      -0.473  -1.250  -0.330  0.00  0.00     0.284 C 
ATOM      9  H3  UNL d   1      -1.149   0.300   0.884  0.00  0.00     0.395 HD
ENDBRANCH   1   7
TORSDOF 1
ENDMDL
