MODEL 1
REMARK minimizedAffinity -2.40282416
REMARK minimizedRMSD -1
REMARK  1 active torsions:
REMARK  status: ('A' for Active; 'I' for Inactive)
REMARK    1  A    between atoms: N_2  and  C1_3 
ROOT
ATOM      1  C1  UNL d   1       0.163  -1.163  -0.194  0.00  0.00     0.143 A 
ATOM      2  C2  UNL d   1       1.499  -1.328  -0.575  0.00  0.00    -0.057 A 
ATOM      3  C3  UNL d   1       2.502  -0.478  -0.093  0.00  0.00     0.033 A 
ATOM      4  C4  UNL d   1       2.181   0.574   0.758  0.00  0.00    -0.042 A 
ATOM      5  C5  UNL d   1       0.856   0.773   1.130  0.00  0.00     0.033 A 
ATOM      6  C6  UNL d   1      -0.140  -0.084   0.651  0.00  0.00    -0.057 A 
ENDROOT
BRANCH   1   7
ATOM      7  N   UNL d   1      -0.893  -1.913  -0.716  0.00  0.00    -0.732 N 
ATOM      8  C   UNL d   1      -1.503  -1.550  -1.977  0.00  0.00     0.284 C 
ATOM      9  H3  UNL d   1      -0.756  -2.914  -0.593  0.00  0.00     0.395 HD
ENDBRANCH   1   7
TORSDOF 1
ENDMDL
