MODEL 1
REMARK minimizedAffinity 5.65185404
REMARK minimizedRMSD -1
REMARK  1 active torsions:
REMARK  status: ('A' for Active; 'I' for Inactive)
REMARK    1  A    between atoms: N_2  and  C1_3 
ROOT
ATOM      1  C1  UNL d   1       1.662  -0.752  -1.701  0.00  0.00     0.143 A 
ATOM      2  C2  UNL d   1       2.598  -1.414  -2.502  0.00  0.00    -0.057 A 
ATOM      3  C3  UNL d   1       2.286  -1.812  -3.808  0.00  0.00     0.033 A 
ATOM      4  C4  UNL d   1       1.016  -1.579  -4.327  0.00  0.00    -0.042 A 
ATOM      5  C5  UNL d   1       0.062  -0.944  -3.540  0.00  0.00     0.033 A 
ATOM      6  C6  UNL d   1       0.382  -0.544  -2.239  0.00  0.00    -0.057 A 
ENDROOT
BRANCH   1   7
ATOM      7  N   UNL d   1       1.880  -0.420  -0.362  0.00  0.00    -0.732 N 
ATOM      8  C   UNL d   1       2.789   0.648  -0.006  0.00  0.00     0.284 C 
ATOM      9  H3  UNL d   1       1.023  -0.437   0.187  0.00  0.00     0.395 HD
ENDBRANCH   1   7
TORSDOF 1
ENDMDL
