MODEL 1
REMARK minimizedAffinity -4.07864857
REMARK minimizedRMSD -1
REMARK  1 active torsions:
REMARK  status: ('A' for Active; 'I' for Inactive)
REMARK    1  A    between atoms: C3_4  and  O_7 
ROOT
ATOM      1  C   UNL d   1      -5.603   6.000  -0.117  0.00  0.00    -0.033 A 
ATOM      2  C1  UNL d   1      -5.098   5.997   1.185  0.00  0.00     0.039 A 
ATOM      3  C2  UNL d   1      -4.814   4.788   1.823  0.00  0.00    -0.080 A 
ATOM      4  C3  UNL d   1      -5.037   3.591   1.150  0.00  0.00     0.150 A 
ATOM      5  C4  UNL d   1      -5.536   3.586  -0.149  0.00  0.00    -0.007 A 
ATOM      6  C5  UNL d   1      -5.821   4.794  -0.784  0.00  0.00     0.039 A 
ENDROOT
BRANCH   4   7
ATOM      7  O   UNL d   1      -4.780   2.386   1.733  0.00  0.00    -0.526 OA
ATOM      8  H5  UNL d   1      -4.467   2.544   2.639  0.00  0.00     0.418 HD
ENDBRANCH   4   7
TORSDOF 1
ENDMDL
