MODEL 1
REMARK minimizedAffinity -3.13122559
REMARK minimizedRMSD -1
REMARK  1 active torsions:
REMARK  status: ('A' for Active; 'I' for Inactive)
REMARK    1  A    between atoms: C3_4  and  O_7 
ROOT
ATOM      1  C   UNL d   1      -2.308  -3.713  -1.950  0.00  0.00    -0.033 A 
ATOM      2  C1  UNL d   1      -2.824  -2.571  -2.565  0.00  0.00     0.039 A 
ATOM      3  C2  UNL d   1      -2.672  -1.321  -1.961  0.00  0.00    -0.080 A 
ATOM      4  C3  UNL d   1      -2.001  -1.228  -0.745  0.00  0.00     0.150 A 
ATOM      5  C4  UNL d   1      -1.481  -2.361  -0.129  0.00  0.00    -0.007 A 
ATOM      6  C5  UNL d   1      -1.635  -3.608  -0.733  0.00  0.00     0.039 A 
ENDROOT
BRANCH   4   7
ATOM      7  O   UNL d   1      -1.832  -0.031  -0.115  0.00  0.00    -0.526 OA
ATOM      8  H5  UNL d   1      -2.268   0.659  -0.642  0.00  0.00     0.418 HD
ENDBRANCH   4   7
TORSDOF 1
ENDMDL
