MODEL 1
REMARK minimizedAffinity -4.66440964
REMARK minimizedRMSD -1
REMARK  1 active torsions:
REMARK  status: ('A' for Active; 'I' for Inactive)
REMARK    1  A    between atoms: C3_4  and  O_7 
ROOT
ATOM      1  C   UNL d   1      -1.419  -2.041  -0.456  0.00  0.00    -0.033 A 
ATOM      2  C1  UNL d   1      -1.990  -1.125  -1.341  0.00  0.00     0.039 A 
ATOM      3  C2  UNL d   1      -2.513  -1.562  -2.560  0.00  0.00    -0.080 A 
ATOM      4  C3  UNL d   1      -2.459  -2.916  -2.880  0.00  0.00     0.150 A 
ATOM      5  C4  UNL d   1      -1.894  -3.834  -2.002  0.00  0.00    -0.007 A 
ATOM      6  C5  UNL d   1      -1.372  -3.396  -0.786  0.00  0.00     0.039 A 
ENDROOT
BRANCH   4   7
ATOM      7  O   UNL d   1      -2.952  -3.389  -4.060  0.00  0.00    -0.526 OA
ATOM      8  H5  UNL d   1      -3.285  -2.637  -4.578  0.00  0.00     0.418 HD
ENDBRANCH   4   7
TORSDOF 1
ENDMDL
