MODEL 1
REMARK minimizedAffinity -0.269519329
REMARK minimizedRMSD -1
REMARK  1 active torsions:
REMARK  status: ('A' for Active; 'I' for Inactive)
REMARK    1  A    between atoms: C3_4  and  O_7 
ROOT
ATOM      1  C   UNL d   1      -2.615  -3.130  -1.165  0.00  0.00    -0.033 A 
ATOM      2  C1  UNL d   1      -1.776  -2.773  -0.108  0.00  0.00     0.039 A 
ATOM      3  C2  UNL d   1      -1.052  -1.580  -0.162  0.00  0.00    -0.080 A 
ATOM      4  C3  UNL d   1      -1.177  -0.754  -1.276  0.00  0.00     0.150 A 
ATOM      5  C4  UNL d   1      -2.014  -1.102  -2.331  0.00  0.00    -0.007 A 
ATOM      6  C5  UNL d   1      -2.736  -2.294  -2.276  0.00  0.00     0.039 A 
ENDROOT
BRANCH   4   7
ATOM      7  O   UNL d   1      -0.486   0.417  -1.376  0.00  0.00    -0.526 OA
ATOM      8  H5  UNL d   1       0.073   0.512  -0.587  0.00  0.00     0.418 HD
ENDBRANCH   4   7
TORSDOF 1
ENDMDL
