MODEL 1
REMARK minimizedAffinity -0.673697233
REMARK minimizedRMSD -1
REMARK  1 active torsions:
REMARK  status: ('A' for Active; 'I' for Inactive)
REMARK    1  A    between atoms: C3_4  and  O_7 
ROOT
ATOM      1  C   UNL d   1      -4.797   5.794   1.781  0.00  0.00    -0.033 A 
ATOM      2  C1  UNL d   1      -6.000   5.919   2.479  0.00  0.00     0.039 A 
ATOM      3  C2  UNL d   1      -5.996   5.990   3.873  0.00  0.00    -0.080 A 
ATOM      4  C3  UNL d   1      -4.784   5.937   4.557  0.00  0.00     0.150 A 
ATOM      5  C4  UNL d   1      -3.582   5.817   3.868  0.00  0.00    -0.007 A 
ATOM      6  C5  UNL d   1      -3.588   5.744   2.475  0.00  0.00     0.039 A 
ENDROOT
BRANCH   4   7
ATOM      7  O   UNL d   1      -4.731   5.998   5.917  0.00  0.00    -0.526 OA
ATOM      8  H5  UNL d   1      -5.639   6.051   6.259  0.00  0.00     0.418 HD
ENDBRANCH   4   7
TORSDOF 1
ENDMDL
