MODEL 1
REMARK minimizedAffinity 0.479127765
REMARK minimizedRMSD -1
REMARK  1 active torsions:
REMARK  status: ('A' for Active; 'I' for Inactive)
REMARK    1  A    between atoms: C3_4  and  O_7 
ROOT
ATOM      1  C   UNL d   1       3.809   4.168  -0.760  0.00  0.00    -0.033 A 
ATOM      2  C1  UNL d   1       4.506   4.627   0.359  0.00  0.00     0.039 A 
ATOM      3  C2  UNL d   1       4.086   4.268   1.642  0.00  0.00    -0.080 A 
ATOM      4  C3  UNL d   1       2.970   3.450   1.791  0.00  0.00     0.150 A 
ATOM      5  C4  UNL d   1       2.273   2.985   0.680  0.00  0.00    -0.007 A 
ATOM      6  C5  UNL d   1       2.693   3.346  -0.599  0.00  0.00     0.039 A 
ENDROOT
BRANCH   4   7
ATOM      7  O   UNL d   1       2.520   3.076   3.022  0.00  0.00    -0.526 OA
ATOM      8  H5  UNL d   1       3.082   3.495   3.695  0.00  0.00     0.418 HD
ENDBRANCH   4   7
TORSDOF 1
ENDMDL
