MODEL 1
REMARK minimizedAffinity -0.164012387
REMARK minimizedRMSD -1
REMARK  1 active torsions:
REMARK  status: ('A' for Active; 'I' for Inactive)
REMARK    1  A    between atoms: C3_4  and  O_7 
ROOT
ATOM      1  C   UNL d   1      -4.730   5.164   4.013  0.00  0.00    -0.033 A 
ATOM      2  C1  UNL d   1      -3.640   5.720   3.341  0.00  0.00     0.039 A 
ATOM      3  C2  UNL d   1      -3.727   5.998   1.976  0.00  0.00    -0.080 A 
ATOM      4  C3  UNL d   1      -4.908   5.717   1.295  0.00  0.00     0.150 A 
ATOM      5  C4  UNL d   1      -6.000   5.167   1.959  0.00  0.00    -0.007 A 
ATOM      6  C5  UNL d   1      -5.911   4.889   3.323  0.00  0.00     0.039 A 
ENDROOT
BRANCH   4   7
ATOM      7  O   UNL d   1      -5.039   5.966  -0.039  0.00  0.00    -0.526 OA
ATOM      8  H5  UNL d   1      -4.196   6.318  -0.370  0.00  0.00     0.418 HD
ENDBRANCH   4   7
TORSDOF 1
ENDMDL
