MODEL 1
REMARK minimizedAffinity -3.88294673
REMARK minimizedRMSD -1
REMARK  1 active torsions:
REMARK  status: ('A' for Active; 'I' for Inactive)
REMARK    1  A    between atoms: C3_4  and  O_7 
ROOT
ATOM      1  C   UNL d   1      -3.845   0.384   5.607  0.00  0.00    -0.033 A 
ATOM      2  C1  UNL d   1      -4.937  -0.394   5.997  0.00  0.00     0.039 A 
ATOM      3  C2  UNL d   1      -4.978  -1.753   5.679  0.00  0.00    -0.080 A 
ATOM      4  C3  UNL d   1      -3.921  -2.321   4.973  0.00  0.00     0.150 A 
ATOM      5  C4  UNL d   1      -2.828  -1.553   4.586  0.00  0.00    -0.007 A 
ATOM      6  C5  UNL d   1      -2.790  -0.196   4.903  0.00  0.00     0.039 A 
ENDROOT
BRANCH   4   7
ATOM      7  O   UNL d   1      -3.917  -3.642   4.636  0.00  0.00    -0.526 OA
ATOM      8  H5  UNL d   1      -4.748  -4.040   4.945  0.00  0.00     0.418 HD
ENDBRANCH   4   7
TORSDOF 1
ENDMDL
