MODEL 1
REMARK minimizedAffinity 0.797243655
REMARK minimizedRMSD -1
REMARK  1 active torsions:
REMARK  status: ('A' for Active; 'I' for Inactive)
REMARK    1  A    between atoms: C3_4  and  O_7 
ROOT
ATOM      1  C   UNL d   1      -4.897   5.390   4.087  0.00  0.00    -0.033 A 
ATOM      2  C1  UNL d   1      -3.801   4.917   3.361  0.00  0.00     0.039 A 
ATOM      3  C2  UNL d   1      -3.804   4.982   1.967  0.00  0.00    -0.080 A 
ATOM      4  C3  UNL d   1      -4.907   5.523   1.311  0.00  0.00     0.150 A 
ATOM      5  C4  UNL d   1      -6.000   6.000   2.027  0.00  0.00    -0.007 A 
ATOM      6  C5  UNL d   1      -5.995   5.933   3.420  0.00  0.00     0.039 A 
ENDROOT
BRANCH   4   7
ATOM      7  O   UNL d   1      -4.958   5.604  -0.049  0.00  0.00    -0.526 OA
ATOM      8  H5  UNL d   1      -4.146   5.210  -0.411  0.00  0.00     0.418 HD
ENDBRANCH   4   7
TORSDOF 1
ENDMDL
