MODEL 1
REMARK minimizedAffinity 0.187225714
REMARK minimizedRMSD -1
REMARK  1 active torsions:
REMARK  status: ('A' for Active; 'I' for Inactive)
REMARK    1  A    between atoms: C3_4  and  O_7 
ROOT
ATOM      1  C   UNL d   1       1.712   0.685   5.075  0.00  0.00    -0.033 A 
ATOM      2  C1  UNL d   1       2.996   1.220   5.192  0.00  0.00     0.039 A 
ATOM      3  C2  UNL d   1       3.380   2.300   4.394  0.00  0.00    -0.080 A 
ATOM      4  C3  UNL d   1       2.472   2.836   3.486  0.00  0.00     0.150 A 
ATOM      5  C4  UNL d   1       1.189   2.311   3.367  0.00  0.00    -0.007 A 
ATOM      6  C5  UNL d   1       0.808   1.232   4.163  0.00  0.00     0.039 A 
ENDROOT
BRANCH   4   7
ATOM      7  O   UNL d   1       2.803   3.887   2.683  0.00  0.00    -0.526 OA
ATOM      8  H5  UNL d   1       3.729   4.125   2.855  0.00  0.00     0.418 HD
ENDBRANCH   4   7
TORSDOF 1
ENDMDL
