MODEL 1
REMARK minimizedAffinity -1.67795289
REMARK minimizedRMSD -1
REMARK  1 active torsions:
REMARK  status: ('A' for Active; 'I' for Inactive)
REMARK    1  A    between atoms: C3_4  and  O_7 
ROOT
ATOM      1  C   UNL d   1      -5.989   5.813   2.505  0.00  0.00    -0.033 A 
ATOM      2  C1  UNL d   1      -4.883   5.253   1.863  0.00  0.00     0.039 A 
ATOM      3  C2  UNL d   1      -3.758   4.882   2.602  0.00  0.00    -0.080 A 
ATOM      4  C3  UNL d   1      -3.752   5.075   3.981  0.00  0.00     0.150 A 
ATOM      5  C4  UNL d   1      -4.852   5.629   4.628  0.00  0.00    -0.007 A 
ATOM      6  C5  UNL d   1      -5.974   6.000   3.888  0.00  0.00     0.039 A 
ENDROOT
BRANCH   4   7
ATOM      7  O   UNL d   1      -2.676   4.732   4.744  0.00  0.00    -0.526 OA
ATOM      8  H5  UNL d   1      -1.980   4.389   4.158  0.00  0.00     0.418 HD
ENDBRANCH   4   7
TORSDOF 1
ENDMDL
