MODEL 1
REMARK minimizedAffinity -3.98074055
REMARK minimizedRMSD -1
REMARK  1 active torsions:
REMARK  status: ('A' for Active; 'I' for Inactive)
REMARK    1  A    between atoms: C3_4  and  O_7 
ROOT
ATOM      1  C   UNL d   1      -4.423   4.292   3.663  0.00  0.00    -0.033 A 
ATOM      2  C1  UNL d   1      -4.841   3.947   4.950  0.00  0.00     0.039 A 
ATOM      3  C2  UNL d   1      -4.989   2.604   5.301  0.00  0.00    -0.080 A 
ATOM      4  C3  UNL d   1      -4.716   1.617   4.358  0.00  0.00     0.150 A 
ATOM      5  C4  UNL d   1      -4.296   1.953   3.075  0.00  0.00    -0.007 A 
ATOM      6  C5  UNL d   1      -4.149   3.295   2.726  0.00  0.00     0.039 A 
ENDROOT
BRANCH   4   7
ATOM      7  O   UNL d   1      -4.851   0.293   4.653  0.00  0.00    -0.526 OA
ATOM      8  H5  UNL d   1      -5.176   0.212   5.565  0.00  0.00     0.418 HD
ENDBRANCH   4   7
TORSDOF 1
ENDMDL
