MODEL 1
REMARK minimizedAffinity 1.97238123
REMARK minimizedRMSD -1
REMARK  1 active torsions:
REMARK  status: ('A' for Active; 'I' for Inactive)
REMARK    1  A    between atoms: C3_4  and  O_7 
ROOT
ATOM      1  C   UNL d   1       1.369   1.265   5.015  0.00  0.00    -0.033 A 
ATOM      2  C1  UNL d   1       2.609   1.888   5.170  0.00  0.00     0.039 A 
ATOM      3  C2  UNL d   1       3.174   2.597   4.108  0.00  0.00    -0.080 A 
ATOM      4  C3  UNL d   1       2.489   2.678   2.899  0.00  0.00     0.150 A 
ATOM      5  C4  UNL d   1       1.251   2.063   2.739  0.00  0.00    -0.007 A 
ATOM      6  C5  UNL d   1       0.689   1.354   3.800  0.00  0.00     0.039 A 
ENDROOT
BRANCH   4   7
ATOM      7  O   UNL d   1       3.001   3.355   1.833  0.00  0.00    -0.526 OA
ATOM      8  H5  UNL d   1       3.874   3.703   2.080  0.00  0.00     0.418 HD
ENDBRANCH   4   7
TORSDOF 1
ENDMDL
