MODEL 1
REMARK minimizedAffinity -0.438523084
REMARK minimizedRMSD -1
REMARK  1 active torsions:
REMARK  status: ('A' for Active; 'I' for Inactive)
REMARK    1  A    between atoms: C3_4  and  O_7 
ROOT
ATOM      1  C   UNL d   1      -5.530   5.910   1.387  0.00  0.00    -0.033 A 
ATOM      2  C1  UNL d   1      -4.465   5.066   1.068  0.00  0.00     0.039 A 
ATOM      3  C2  UNL d   1      -3.864   4.291   2.062  0.00  0.00    -0.080 A 
ATOM      4  C3  UNL d   1      -4.338   4.368   3.368  0.00  0.00     0.150 A 
ATOM      5  C4  UNL d   1      -5.402   5.204   3.693  0.00  0.00    -0.007 A 
ATOM      6  C5  UNL d   1      -6.000   5.978   2.699  0.00  0.00     0.039 A 
ENDROOT
BRANCH   4   7
ATOM      7  O   UNL d   1      -3.781   3.635   4.373  0.00  0.00    -0.526 OA
ATOM      8  H5  UNL d   1      -3.039   3.125   4.007  0.00  0.00     0.418 HD
ENDBRANCH   4   7
TORSDOF 1
ENDMDL
