MODEL 1
REMARK minimizedAffinity -0.499484837
REMARK minimizedRMSD -1
REMARK  1 active torsions:
REMARK  status: ('A' for Active; 'I' for Inactive)
REMARK    1  A    between atoms: C3_4  and  O_7 
ROOT
ATOM      1  C   UNL d   1      -5.135   4.468   4.170  0.00  0.00    -0.033 A 
ATOM      2  C1  UNL d   1      -4.194   3.957   3.274  0.00  0.00     0.039 A 
ATOM      3  C2  UNL d   1      -4.118   4.463   1.975  0.00  0.00    -0.080 A 
ATOM      4  C3  UNL d   1      -4.987   5.478   1.585  0.00  0.00     0.150 A 
ATOM      5  C4  UNL d   1      -5.925   5.994   2.473  0.00  0.00    -0.007 A 
ATOM      6  C5  UNL d   1      -6.000   5.487   3.770  0.00  0.00     0.039 A 
ENDROOT
BRANCH   4   7
ATOM      7  O   UNL d   1      -4.954   6.000   0.326  0.00  0.00    -0.526 OA
ATOM      8  H5  UNL d   1      -4.277   5.527  -0.186  0.00  0.00     0.418 HD
ENDBRANCH   4   7
TORSDOF 1
ENDMDL
