MODEL 1
REMARK minimizedAffinity 4.14987278
REMARK minimizedRMSD -1
REMARK  0 active torsions:
REMARK  status: ('A' for Active; 'I' for Inactive)
ROOT
ATOM      1  N1  IND d   1       1.833  -0.866   1.268  0.00  0.00    -0.196 N 
ATOM      2  C2  IND d   1       2.857  -0.300   0.561  0.00  0.00     0.054 A 
ATOM      3  C3  IND d   1       2.370   0.416  -0.478  0.00  0.00    -0.031 A 
ATOM      4  C4  IND d   1      -0.073   0.879  -1.145  0.00  0.00     0.051 A 
ATOM      5  C5  IND d   1      -1.359   0.546  -0.823  0.00  0.00    -0.031 A 
ATOM      6  C6  IND d   1      -1.652  -0.288   0.236  0.00  0.00     0.015 A 
ATOM      7  C7  IND d   1      -0.667  -0.815   1.023  0.00  0.00    -0.016 A 
ATOM      8  C8  IND d   1       0.640  -0.485   0.694  0.00  0.00    -0.047 A 
ATOM      9  C9  IND d   1       0.947   0.327  -0.405  0.00  0.00    -0.096 A 
ATOM     10  HN1 IND d   1       1.920  -1.374   1.957  0.00  0.00     0.298 HD
ENDROOT
TORSDOF 0
ENDMDL
