MODEL 1
REMARK minimizedAffinity 3.88641548
REMARK minimizedRMSD -1
REMARK  0 active torsions:
REMARK  status: ('A' for Active; 'I' for Inactive)
ROOT
ATOM      1  N1  IND d   1       0.986   1.337  -3.636  0.00  0.00    -0.196 N 
ATOM      2  C2  IND d   1      -0.209   0.761  -3.967  0.00  0.00     0.054 A 
ATOM      3  C3  IND d   1      -0.682   0.031  -2.932  0.00  0.00    -0.031 A 
ATOM      4  C4  IND d   1       0.290  -0.275  -0.568  0.00  0.00     0.051 A 
ATOM      5  C5  IND d   1       1.383   0.026   0.195  0.00  0.00    -0.031 A 
ATOM      6  C6  IND d   1       2.419   0.798  -0.289  0.00  0.00     0.015 A 
ATOM      7  C7  IND d   1       2.396   1.308  -1.556  0.00  0.00    -0.016 A 
ATOM      8  C8  IND d   1       1.290   0.999  -2.336  0.00  0.00    -0.047 A 
ATOM      9  C9  IND d   1       0.255   0.181  -1.864  0.00  0.00    -0.096 A 
ATOM     10  HN1 IND d   1       1.466   1.828  -4.153  0.00  0.00     0.298 HD
ENDROOT
TORSDOF 0
ENDMDL
