MODEL 1
REMARK minimizedAffinity 3.92221141
REMARK minimizedRMSD -1
REMARK  0 active torsions:
REMARK  status: ('A' for Active; 'I' for Inactive)
ROOT
ATOM      1  N1  IND d   1       0.650   0.847  -0.903  0.00  0.00    -0.196 N 
ATOM      2  C2  IND d   1       0.047  -0.204  -0.270  0.00  0.00     0.054 A 
ATOM      3  C3  IND d   1      -0.489  -1.053  -1.176  0.00  0.00    -0.031 A 
ATOM      4  C4  IND d   1      -0.409  -0.967  -3.747  0.00  0.00     0.051 A 
ATOM      5  C5  IND d   1      -0.002  -0.177  -4.786  0.00  0.00    -0.031 A 
ATOM      6  C6  IND d   1       0.659   1.016  -4.580  0.00  0.00     0.015 A 
ATOM      7  C7  IND d   1       0.948   1.462  -3.321  0.00  0.00    -0.016 A 
ATOM      8  C8  IND d   1       0.531   0.667  -2.264  0.00  0.00    -0.047 A 
ATOM      9  C9  IND d   1      -0.178  -0.525  -2.466  0.00  0.00    -0.096 A 
ATOM     10  HN1 IND d   1       1.038   1.510  -0.517  0.00  0.00     0.298 HD
ENDROOT
TORSDOF 0
ENDMDL
