MODEL 1
REMARK minimizedAffinity -5.46052361
REMARK minimizedRMSD -1
REMARK  0 active torsions:
REMARK  status: ('A' for Active; 'I' for Inactive)
ROOT
ATOM      1  N1  IND d   1      -0.843   0.270   0.006  0.00  0.00    -0.196 N 
ATOM      2  C2  IND d   1      -2.064   0.725   0.421  0.00  0.00     0.054 A 
ATOM      3  C3  IND d   1      -2.041   0.988   1.747  0.00  0.00    -0.031 A 
ATOM      4  C4  IND d   1      -0.081   0.843   3.410  0.00  0.00     0.051 A 
ATOM      5  C5  IND d   1       1.223   0.444   3.506  0.00  0.00    -0.031 A 
ATOM      6  C6  IND d   1       1.920  -0.040   2.418  0.00  0.00     0.015 A 
ATOM      7  C7  IND d   1       1.339  -0.133   1.185  0.00  0.00    -0.016 A 
ATOM      8  C8  IND d   1       0.013   0.264   1.085  0.00  0.00    -0.047 A 
ATOM      9  C9  IND d   1      -0.712   0.716   2.195  0.00  0.00    -0.096 A 
ATOM     10  HN1 IND d   1      -0.644   0.029  -0.795  0.00  0.00     0.298 HD
ENDROOT
TORSDOF 0
ENDMDL
