MODEL 1
REMARK minimizedAffinity -1.27460277
REMARK minimizedRMSD -1
REMARK  0 active torsions:
REMARK  status: ('A' for Active; 'I' for Inactive)
ROOT
ATOM      1  N1  IND d   1       1.695  -0.423   2.379  0.00  0.00    -0.196 N 
ATOM      2  C2  IND d   1       2.093  -0.851   1.143  0.00  0.00     0.054 A 
ATOM      3  C3  IND d   1       1.101  -0.674   0.242  0.00  0.00    -0.031 A 
ATOM      4  C4  IND d   1      -1.220   0.394   0.554  0.00  0.00     0.051 A 
ATOM      5  C5  IND d   1      -2.052   0.902   1.512  0.00  0.00    -0.031 A 
ATOM      6  C6  IND d   1      -1.669   0.999   2.834  0.00  0.00     0.015 A 
ATOM      7  C7  IND d   1      -0.429   0.600   3.247  0.00  0.00    -0.016 A 
ATOM      8  C8  IND d   1       0.416   0.077   2.278  0.00  0.00    -0.047 A 
ATOM      9  C9  IND d   1       0.017  -0.063   0.943  0.00  0.00    -0.096 A 
ATOM     10  HN1 IND d   1       2.165  -0.459   3.098  0.00  0.00     0.298 HD
ENDROOT
TORSDOF 0
ENDMDL
