MODEL 1
REMARK minimizedAffinity -2.90709424
REMARK minimizedRMSD -1
REMARK  0 active torsions:
REMARK  status: ('A' for Active; 'I' for Inactive)
ROOT
ATOM      1  N1  IND d   1      -2.236   0.370   1.960  0.00  0.00    -0.196 N 
ATOM      2  C2  IND d   1      -2.883   0.377   0.755  0.00  0.00     0.054 A 
ATOM      3  C3  IND d   1      -2.017   0.101  -0.245  0.00  0.00    -0.031 A 
ATOM      4  C4  IND d   1       0.485  -0.496  -0.125  0.00  0.00     0.051 A 
ATOM      5  C5  IND d   1       1.528  -0.594   0.752  0.00  0.00    -0.031 A 
ATOM      6  C6  IND d   1       1.366  -0.374   2.105  0.00  0.00     0.015 A 
ATOM      7  C7  IND d   1       0.146  -0.058   2.634  0.00  0.00    -0.016 A 
ATOM      8  C8  IND d   1      -0.914   0.050   1.745  0.00  0.00    -0.047 A 
ATOM      9  C9  IND d   1      -0.746  -0.130   0.366  0.00  0.00    -0.096 A 
ATOM     10  HN1 IND d   1      -2.595   0.536   2.723  0.00  0.00     0.298 HD
ENDROOT
TORSDOF 0
ENDMDL
