MODEL 1
REMARK minimizedAffinity -3.58390021
REMARK minimizedRMSD -1
REMARK  0 active torsions:
REMARK  status: ('A' for Active; 'I' for Inactive)
ROOT
ATOM      1  N1  IND d   1       0.774  -0.580  -0.525  0.00  0.00    -0.196 N 
ATOM      2  C2  IND d   1       1.915  -0.272   0.163  0.00  0.00     0.054 A 
ATOM      3  C3  IND d   1       2.854   0.215  -0.678  0.00  0.00    -0.031 A 
ATOM      4  C4  IND d   1       2.700   0.687  -3.204  0.00  0.00     0.051 A 
ATOM      5  C5  IND d   1       1.871   0.535  -4.280  0.00  0.00    -0.031 A 
ATOM      6  C6  IND d   1       0.608  -0.005  -4.156  0.00  0.00     0.015 A 
ATOM      7  C7  IND d   1       0.119  -0.404  -2.944  0.00  0.00    -0.016 A 
ATOM      8  C8  IND d   1       0.961  -0.258  -1.851  0.00  0.00    -0.047 A 
ATOM      9  C9  IND d   1       2.260   0.250  -1.977  0.00  0.00    -0.096 A 
ATOM     10  HN1 IND d   1       0.060  -0.918  -0.186  0.00  0.00     0.298 HD
ENDROOT
TORSDOF 0
ENDMDL
