MODEL 1
REMARK minimizedAffinity -5.79817486
REMARK minimizedRMSD -1
REMARK  0 active torsions:
REMARK  status: ('A' for Active; 'I' for Inactive)
ROOT
ATOM      1  N1  IND d   1       0.752  -0.493  -0.478  0.00  0.00    -0.196 N 
ATOM      2  C2  IND d   1      -0.364  -0.508  -1.269  0.00  0.00     0.054 A 
ATOM      3  C3  IND d   1      -1.424  -0.007  -0.596  0.00  0.00    -0.031 A 
ATOM      4  C4  IND d   1      -1.533   0.991   1.775  0.00  0.00     0.051 A 
ATOM      5  C5  IND d   1      -0.777   1.190   2.896  0.00  0.00    -0.031 A 
ATOM      6  C6  IND d   1       0.555   0.832   2.950  0.00  0.00     0.015 A 
ATOM      7  C7  IND d   1       1.186   0.271   1.876  0.00  0.00    -0.016 A 
ATOM      8  C8  IND d   1       0.420   0.062   0.738  0.00  0.00    -0.047 A 
ATOM      9  C9  IND d   1      -0.943   0.383   0.692  0.00  0.00    -0.096 A 
ATOM     10  HN1 IND d   1       1.530  -0.782  -0.703  0.00  0.00     0.298 HD
ENDROOT
TORSDOF 0
ENDMDL
