MODEL 1
REMARK minimizedAffinity 0.401741177
REMARK minimizedRMSD -1
REMARK  0 active torsions:
REMARK  status: ('A' for Active; 'I' for Inactive)
ROOT
ATOM      1  N1  IND d   1       2.133  -0.655   0.934  0.00  0.00    -0.196 N 
ATOM      2  C2  IND d   1       1.960  -0.601  -0.421  0.00  0.00     0.054 A 
ATOM      3  C3  IND d   1       0.686  -0.262  -0.720  0.00  0.00    -0.031 A 
ATOM      4  C4  IND d   1      -1.256   0.349   0.856  0.00  0.00     0.051 A 
ATOM      5  C5  IND d   1      -1.592   0.406   2.180  0.00  0.00    -0.031 A 
ATOM      6  C6  IND d   1      -0.684   0.110   3.176  0.00  0.00     0.015 A 
ATOM      7  C7  IND d   1       0.602  -0.246   2.884  0.00  0.00    -0.016 A 
ATOM      8  C8  IND d   1       0.945  -0.312   1.541  0.00  0.00    -0.047 A 
ATOM      9  C9  IND d   1       0.016  -0.054   0.525  0.00  0.00    -0.096 A 
ATOM     10  HN1 IND d   1       2.861  -0.867   1.338  0.00  0.00     0.298 HD
ENDROOT
TORSDOF 0
ENDMDL
