MODEL 1
REMARK minimizedAffinity -3.86813974
REMARK minimizedRMSD -1
REMARK  0 active torsions:
REMARK  status: ('A' for Active; 'I' for Inactive)
ROOT
ATOM      1  N1  IND d   1      -0.922   0.656  -0.326  0.00  0.00    -0.196 N 
ATOM      2  C2  IND d   1       0.272   0.604  -0.990  0.00  0.00     0.054 A 
ATOM      3  C3  IND d   1       1.296   0.525  -0.110  0.00  0.00    -0.031 A 
ATOM      4  C4  IND d   1       1.236   0.364   2.458  0.00  0.00     0.051 A 
ATOM      5  C5  IND d   1       0.378   0.409   3.521  0.00  0.00    -0.031 A 
ATOM      6  C6  IND d   1      -0.985   0.538   3.352  0.00  0.00     0.015 A 
ATOM      7  C7  IND d   1      -1.545   0.617   2.108  0.00  0.00    -0.016 A 
ATOM      8  C8  IND d   1      -0.676   0.578   1.027  0.00  0.00    -0.047 A 
ATOM      9  C9  IND d   1       0.713   0.490   1.193  0.00  0.00    -0.096 A 
ATOM     10  HN1 IND d   1      -1.697   0.725  -0.693  0.00  0.00     0.298 HD
ENDROOT
TORSDOF 0
ENDMDL
