MODEL 1
REMARK minimizedAffinity -1.68225932
REMARK minimizedRMSD -1
REMARK  0 active torsions:
REMARK  status: ('A' for Active; 'I' for Inactive)
ROOT
ATOM      1  C   UNL d   1       2.605  -0.708   6.000  0.00  0.00     0.077 C 
ATOM      2  C1  UNL d   1       3.382  -1.748   5.248  0.00  0.00    -0.074 A 
ATOM      3  C2  UNL d   1       3.226  -1.903   3.867  0.00  0.00    -0.005 A 
ATOM      4  C3  UNL d   1       3.963  -2.868   3.180  0.00  0.00     0.006 A 
ATOM      5  C4  UNL d   1       4.861  -3.686   3.866  0.00  0.00    -0.005 A 
ATOM      6  C5  UNL d   1       5.031  -3.545   5.247  0.00  0.00    -0.074 A 
ATOM      7  C6  UNL d   1       5.999  -4.410   5.998  0.00  0.00     0.077 C 
ATOM      8  C7  UNL d   1       4.292  -2.568   5.929  0.00  0.00    -0.001 A 
ENDROOT
TORSDOF 0
ENDMDL
