MODEL 1
REMARK minimizedAffinity 0.889348805
REMARK minimizedRMSD -1
REMARK  0 active torsions:
REMARK  status: ('A' for Active; 'I' for Inactive)
ROOT
ATOM      1  C   UNL d   1       5.999   5.978  -1.489  0.00  0.00     0.077 C 
ATOM      2  C1  UNL d   1       5.417   5.365  -2.728  0.00  0.00    -0.074 A 
ATOM      3  C2  UNL d   1       4.385   6.000  -3.427  0.00  0.00    -0.005 A 
ATOM      4  C3  UNL d   1       3.859   5.423  -4.583  0.00  0.00     0.006 A 
ATOM      5  C4  UNL d   1       4.360   4.207  -5.051  0.00  0.00    -0.005 A 
ATOM      6  C5  UNL d   1       5.392   3.559  -4.367  0.00  0.00    -0.074 A 
ATOM      7  C6  UNL d   1       5.948   2.257  -4.862  0.00  0.00     0.077 C 
ATOM      8  C7  UNL d   1       5.920   4.148  -3.210  0.00  0.00    -0.001 A 
ENDROOT
TORSDOF 0
ENDMDL
