MODEL 1
REMARK minimizedAffinity 6.42000866
REMARK minimizedRMSD -1
REMARK  0 active torsions:
REMARK  status: ('A' for Active; 'I' for Inactive)
ROOT
ATOM      1  C   UNL d   1       2.104   5.882  -4.218  0.00  0.00     0.077 C 
ATOM      2  C1  UNL d   1       3.414   5.316  -3.755  0.00  0.00    -0.074 A 
ATOM      3  C2  UNL d   1       4.004   4.235  -4.417  0.00  0.00    -0.005 A 
ATOM      4  C3  UNL d   1       5.227   3.726  -3.980  0.00  0.00     0.006 A 
ATOM      5  C4  UNL d   1       5.871   4.291  -2.879  0.00  0.00    -0.005 A 
ATOM      6  C5  UNL d   1       5.296   5.373  -2.205  0.00  0.00    -0.074 A 
ATOM      7  C6  UNL d   1       5.980   5.999  -1.026  0.00  0.00     0.077 C 
ATOM      8  C7  UNL d   1       4.071   5.884  -2.654  0.00  0.00    -0.001 A 
ENDROOT
TORSDOF 0
ENDMDL
