MODEL 1
REMARK minimizedAffinity 3.73760462
REMARK minimizedRMSD -1
REMARK  0 active torsions:
REMARK  status: ('A' for Active; 'I' for Inactive)
ROOT
ATOM      1  C   UNL d   1       5.889   5.932  -1.442  0.00  0.00     0.077 C 
ATOM      2  C1  UNL d   1       5.321   5.306  -2.681  0.00  0.00    -0.074 A 
ATOM      3  C2  UNL d   1       5.849   4.116  -3.191  0.00  0.00    -0.005 A 
ATOM      4  C3  UNL d   1       5.304   3.541  -4.339  0.00  0.00     0.006 A 
ATOM      5  C4  UNL d   1       4.228   4.149  -4.987  0.00  0.00    -0.005 A 
ATOM      6  C5  UNL d   1       3.687   5.339  -4.491  0.00  0.00    -0.074 A 
ATOM      7  C6  UNL d   1       2.524   6.000  -5.169  0.00  0.00     0.077 C 
ATOM      8  C7  UNL d   1       4.235   5.907  -3.333  0.00  0.00    -0.001 A 
ENDROOT
TORSDOF 0
ENDMDL
