MODEL 1
REMARK minimizedAffinity 1.1220988
REMARK minimizedRMSD -1
REMARK  0 active torsions:
REMARK  status: ('A' for Active; 'I' for Inactive)
ROOT
ATOM      1  C   UNL d   1       5.140   4.823  -1.449  0.00  0.00     0.077 C 
ATOM      2  C1  UNL d   1       5.353   4.842  -2.933  0.00  0.00    -0.074 A 
ATOM      3  C2  UNL d   1       5.796   5.999  -3.581  0.00  0.00    -0.005 A 
ATOM      4  C3  UNL d   1       5.999   5.999  -4.961  0.00  0.00     0.006 A 
ATOM      5  C4  UNL d   1       5.763   4.843  -5.706  0.00  0.00    -0.005 A 
ATOM      6  C5  UNL d   1       5.321   3.675  -5.075  0.00  0.00    -0.074 A 
ATOM      7  C6  UNL d   1       5.072   2.421  -5.859  0.00  0.00     0.077 C 
ATOM      8  C7  UNL d   1       5.126   3.682  -3.687  0.00  0.00    -0.001 A 
ENDROOT
TORSDOF 0
ENDMDL
