MODEL 1
REMARK minimizedAffinity 0.977936208
REMARK minimizedRMSD -1
REMARK  0 active torsions:
REMARK  status: ('A' for Active; 'I' for Inactive)
ROOT
ATOM      1  C   UNL d   1       5.790   5.991  -1.619  0.00  0.00     0.077 C 
ATOM      2  C1  UNL d   1       5.387   5.357  -2.917  0.00  0.00    -0.074 A 
ATOM      3  C2  UNL d   1       5.999   4.182  -3.364  0.00  0.00    -0.005 A 
ATOM      4  C3  UNL d   1       5.607   3.599  -4.569  0.00  0.00     0.006 A 
ATOM      5  C4  UNL d   1       4.600   4.184  -5.338  0.00  0.00    -0.005 A 
ATOM      6  C5  UNL d   1       3.975   5.359  -4.906  0.00  0.00    -0.074 A 
ATOM      7  C6  UNL d   1       2.885   5.996  -5.715  0.00  0.00     0.077 C 
ATOM      8  C7  UNL d   1       4.370   5.935  -3.691  0.00  0.00    -0.001 A 
ENDROOT
TORSDOF 0
ENDMDL
