MODEL 1
REMARK minimizedAffinity 0.849398494
REMARK minimizedRMSD -1
REMARK  0 active torsions:
REMARK  status: ('A' for Active; 'I' for Inactive)
ROOT
ATOM      1  C   UNL d   1       1.955   5.996  -3.355  0.00  0.00     0.077 C 
ATOM      2  C1  UNL d   1       3.369   5.509  -3.468  0.00  0.00    -0.074 A 
ATOM      3  C2  UNL d   1       4.365   5.991  -2.613  0.00  0.00    -0.005 A 
ATOM      4  C3  UNL d   1       5.674   5.522  -2.723  0.00  0.00     0.006 A 
ATOM      5  C4  UNL d   1       6.000   4.568  -3.689  0.00  0.00    -0.005 A 
ATOM      6  C5  UNL d   1       5.016   4.074  -4.552  0.00  0.00    -0.074 A 
ATOM      7  C6  UNL d   1       5.347   3.041  -5.588  0.00  0.00     0.077 C 
ATOM      8  C7  UNL d   1       3.702   4.545  -4.429  0.00  0.00    -0.001 A 
ENDROOT
TORSDOF 0
ENDMDL
