MODEL 1
REMARK minimizedAffinity -2.52191973
REMARK minimizedRMSD -1
REMARK  0 active torsions:
REMARK  status: ('A' for Active; 'I' for Inactive)
ROOT
ATOM      1  C   UNL d   1       6.000  -2.196   5.862  0.00  0.00     0.077 C 
ATOM      2  C1  UNL d   1       4.803  -3.000   5.448  0.00  0.00    -0.074 A 
ATOM      3  C2  UNL d   1       4.560  -4.262   6.000  0.00  0.00    -0.005 A 
ATOM      4  C3  UNL d   1       3.438  -4.994   5.613  0.00  0.00     0.006 A 
ATOM      5  C4  UNL d   1       2.549  -4.473   4.672  0.00  0.00    -0.005 A 
ATOM      6  C5  UNL d   1       2.776  -3.213   4.110  0.00  0.00    -0.074 A 
ATOM      7  C6  UNL d   1       1.825  -2.634   3.105  0.00  0.00     0.077 C 
ATOM      8  C7  UNL d   1       3.902  -2.480   4.509  0.00  0.00    -0.001 A 
ENDROOT
TORSDOF 0
ENDMDL
