MODEL 1
REMARK minimizedAffinity 1.94499409
REMARK minimizedRMSD -1
REMARK  0 active torsions:
REMARK  status: ('A' for Active; 'I' for Inactive)
ROOT
ATOM      1  C   UNL d   1       4.857   2.388  -5.320  0.00  0.00     0.077 C 
ATOM      2  C1  UNL d   1       4.819   3.644  -4.501  0.00  0.00    -0.074 A 
ATOM      3  C2  UNL d   1       6.000   4.276  -4.099  0.00  0.00    -0.005 A 
ATOM      4  C3  UNL d   1       5.948   5.448  -3.345  0.00  0.00     0.006 A 
ATOM      5  C4  UNL d   1       4.717   6.000  -2.987  0.00  0.00    -0.005 A 
ATOM      6  C5  UNL d   1       3.526   5.382  -3.381  0.00  0.00    -0.074 A 
ATOM      7  C6  UNL d   1       2.195   5.967  -3.013  0.00  0.00     0.077 C 
ATOM      8  C7  UNL d   1       3.586   4.208  -4.144  0.00  0.00    -0.001 A 
ENDROOT
TORSDOF 0
ENDMDL
