MODEL 1
REMARK minimizedAffinity 7.12576771
REMARK minimizedRMSD -1
REMARK  0 active torsions:
REMARK  status: ('A' for Active; 'I' for Inactive)
ROOT
ATOM      1  C   UNL d   1       2.177   6.000  -3.789  0.00  0.00     0.077 C 
ATOM      2  C1  UNL d   1       3.513   5.463  -3.368  0.00  0.00    -0.074 A 
ATOM      3  C2  UNL d   1       4.170   5.972  -2.244  0.00  0.00    -0.005 A 
ATOM      4  C3  UNL d   1       5.408   5.457  -1.859  0.00  0.00     0.006 A 
ATOM      5  C4  UNL d   1       6.000   4.429  -2.594  0.00  0.00    -0.005 A 
ATOM      6  C5  UNL d   1       5.357   3.907  -3.721  0.00  0.00    -0.074 A 
ATOM      7  C6  UNL d   1       5.975   2.796  -4.516  0.00  0.00     0.077 C 
ATOM      8  C7  UNL d   1       4.111   4.425  -4.097  0.00  0.00    -0.001 A 
ENDROOT
TORSDOF 0
ENDMDL
