MODEL 1
REMARK minimizedAffinity -2.68280768
REMARK minimizedRMSD -1
REMARK  0 active torsions:
REMARK  status: ('A' for Active; 'I' for Inactive)
ROOT
ATOM      1  C   UNL d   1       5.999  -5.107   5.931  0.00  0.00     0.077 C 
ATOM      2  C1  UNL d   1       5.133  -4.177   5.135  0.00  0.00    -0.074 A 
ATOM      3  C2  UNL d   1       4.943  -4.369   3.762  0.00  0.00    -0.005 A 
ATOM      4  C3  UNL d   1       4.127  -3.501   3.037  0.00  0.00     0.006 A 
ATOM      5  C4  UNL d   1       3.494  -2.434   3.675  0.00  0.00    -0.005 A 
ATOM      6  C5  UNL d   1       3.671  -2.227   5.047  0.00  0.00    -0.074 A 
ATOM      7  C6  UNL d   1       2.990  -1.090   5.750  0.00  0.00     0.077 C 
ATOM      8  C7  UNL d   1       4.487  -3.107   5.770  0.00  0.00    -0.001 A 
ENDROOT
TORSDOF 0
ENDMDL
