MODEL 1
REMARK minimizedAffinity 17.2319393
REMARK minimizedRMSD -1
REMARK  0 active torsions:
REMARK  status: ('A' for Active; 'I' for Inactive)
ROOT
ATOM      1  C   UNL d   1       3.128   4.547   0.230  0.00  0.00     0.077 C 
ATOM      2  C1  UNL d   1       1.817   4.739   0.932  0.00  0.00    -0.074 A 
ATOM      3  C2  UNL d   1       1.611   5.829   1.785  0.00  0.00    -0.005 A 
ATOM      4  C3  UNL d   1       0.383   5.999   2.424  0.00  0.00     0.006 A 
ATOM      5  C4  UNL d   1      -0.649   5.084   2.217  0.00  0.00    -0.005 A 
ATOM      6  C5  UNL d   1      -0.462   3.989   1.368  0.00  0.00    -0.074 A 
ATOM      7  C6  UNL d   1      -1.565   3.002   1.127  0.00  0.00     0.077 C 
ATOM      8  C7  UNL d   1       0.772   3.828   0.724  0.00  0.00    -0.001 A 
ENDROOT
TORSDOF 0
ENDMDL
