MODEL 1
REMARK minimizedAffinity -2.74811673
REMARK minimizedRMSD -1
REMARK  0 active torsions:
REMARK  status: ('A' for Active; 'I' for Inactive)
ROOT
ATOM      1  C   UNL d   1       6.000  -5.840   5.817  0.00  0.00     0.077 C 
ATOM      2  C1  UNL d   1       5.262  -4.732   5.127  0.00  0.00    -0.074 A 
ATOM      3  C2  UNL d   1       4.899  -4.839   3.781  0.00  0.00    -0.005 A 
ATOM      4  C3  UNL d   1       4.204  -3.804   3.155  0.00  0.00     0.006 A 
ATOM      5  C4  UNL d   1       3.865  -2.653   3.868  0.00  0.00    -0.005 A 
ATOM      6  C5  UNL d   1       4.219  -2.528   5.215  0.00  0.00    -0.074 A 
ATOM      7  C6  UNL d   1       3.854  -1.302   5.999  0.00  0.00     0.077 C 
ATOM      8  C7  UNL d   1       4.911  -3.576   5.839  0.00  0.00    -0.001 A 
ENDROOT
TORSDOF 0
ENDMDL
