MODEL 1
REMARK minimizedAffinity 3.09591889
REMARK minimizedRMSD -1
REMARK  0 active torsions:
REMARK  status: ('A' for Active; 'I' for Inactive)
ROOT
ATOM      1  C   UNL d   1       6.000  -3.848   5.917  0.00  0.00     0.077 C 
ATOM      2  C1  UNL d   1       4.952  -3.072   5.176  0.00  0.00    -0.074 A 
ATOM      3  C2  UNL d   1       4.905  -3.081   3.778  0.00  0.00    -0.005 A 
ATOM      4  C3  UNL d   1       3.919  -2.362   3.103  0.00  0.00     0.006 A 
ATOM      5  C4  UNL d   1       2.971  -1.628   3.818  0.00  0.00    -0.005 A 
ATOM      6  C5  UNL d   1       3.002  -1.607   5.216  0.00  0.00    -0.074 A 
ATOM      7  C6  UNL d   1       1.985  -0.831   5.999  0.00  0.00     0.077 C 
ATOM      8  C7  UNL d   1       3.992  -2.338   5.887  0.00  0.00    -0.001 A 
ENDROOT
TORSDOF 0
ENDMDL
