MODEL 1
REMARK minimizedAffinity -2.75066686
REMARK minimizedRMSD -1
REMARK  0 active torsions:
REMARK  status: ('A' for Active; 'I' for Inactive)
ROOT
ATOM      1  C   UNL d   1       6.000   5.549  -1.545  0.00  0.00     0.077 C 
ATOM      2  C1  UNL d   1       5.205   5.219  -2.773  0.00  0.00    -0.074 A 
ATOM      3  C2  UNL d   1       4.107   5.999  -3.150  0.00  0.00    -0.005 A 
ATOM      4  C3  UNL d   1       3.383   5.685  -4.300  0.00  0.00     0.006 A 
ATOM      5  C4  UNL d   1       3.749   4.589  -5.083  0.00  0.00    -0.005 A 
ATOM      6  C5  UNL d   1       4.844   3.798  -4.722  0.00  0.00    -0.074 A 
ATOM      7  C6  UNL d   1       5.256   2.623  -5.558  0.00  0.00     0.077 C 
ATOM      8  C7  UNL d   1       5.571   4.125  -3.569  0.00  0.00    -0.001 A 
ENDROOT
TORSDOF 0
ENDMDL
