MODEL 1
REMARK minimizedAffinity 3.47968817
REMARK minimizedRMSD -1
REMARK  0 active torsions:
REMARK  status: ('A' for Active; 'I' for Inactive)
ROOT
ATOM      1  C   UNL d   1       2.323  -0.774   6.000  0.00  0.00     0.077 C 
ATOM      2  C1  UNL d   1       3.151  -1.779   5.255  0.00  0.00    -0.074 A 
ATOM      3  C2  UNL d   1       2.959  -1.996   3.887  0.00  0.00    -0.005 A 
ATOM      4  C3  UNL d   1       3.744  -2.926   3.205  0.00  0.00     0.006 A 
ATOM      5  C4  UNL d   1       4.726  -3.649   3.884  0.00  0.00    -0.005 A 
ATOM      6  C5  UNL d   1       4.932  -3.445   5.252  0.00  0.00    -0.074 A 
ATOM      7  C6  UNL d   1       5.990  -4.206   5.995  0.00  0.00     0.077 C 
ATOM      8  C7  UNL d   1       4.145  -2.503   5.928  0.00  0.00    -0.001 A 
ENDROOT
TORSDOF 0
ENDMDL
