MODEL 1
REMARK minimizedAffinity 16.9287205
REMARK minimizedRMSD -1
REMARK  0 active torsions:
REMARK  status: ('A' for Active; 'I' for Inactive)
ROOT
ATOM      1  C   UNL d   1       6.000  -5.398   5.289  0.00  0.00     0.023 A 
ATOM      2  C1  UNL d   1       5.843  -4.206   5.997  0.00  0.00     0.003 A 
ATOM      3  C2  UNL d   1       5.680  -3.001   5.310  0.00  0.00     0.048 A 
ATOM      4  C3  UNL d   1       5.674  -2.996   3.915  0.00  0.00     0.023 A 
ATOM      5  C4  UNL d   1       5.829  -4.186   3.203  0.00  0.00     0.048 A 
ATOM      6  C5  UNL d   1       5.993  -5.388   3.894  0.00  0.00     0.003 A 
ATOM      7  I   UNL d   1       5.431  -1.204   2.891  0.00  0.00    -0.146 I 
ENDROOT
TORSDOF 0
ENDMDL
