MODEL 1
REMARK minimizedAffinity 11.6776762
REMARK minimizedRMSD -1
REMARK  0 active torsions:
REMARK  status: ('A' for Active; 'I' for Inactive)
ROOT
ATOM      1  C   UNL d   1      -1.303   1.813   1.997  0.00  0.00     0.023 A 
ATOM      2  C1  UNL d   1      -0.957   0.465   1.912  0.00  0.00     0.003 A 
ATOM      3  C2  UNL d   1      -1.935  -0.493   1.633  0.00  0.00     0.048 A 
ATOM      4  C3  UNL d   1      -3.257  -0.094   1.439  0.00  0.00     0.023 A 
ATOM      5  C4  UNL d   1      -3.608   1.254   1.522  0.00  0.00     0.048 A 
ATOM      6  C5  UNL d   1      -2.627   2.207   1.802  0.00  0.00     0.003 A 
ATOM      7  I   UNL d   1      -4.714  -1.517   1.024  0.00  0.00    -0.146 I 
ENDROOT
TORSDOF 0
ENDMDL
