MODEL 1
REMARK minimizedAffinity 8.01145363
REMARK minimizedRMSD -1
REMARK  0 active torsions:
REMARK  status: ('A' for Active; 'I' for Inactive)
ROOT
ATOM      1  C   UNL d   1      -3.517  -4.088  -0.330  0.00  0.00     0.023 A 
ATOM      2  C1  UNL d   1      -4.502  -3.336   0.310  0.00  0.00     0.003 A 
ATOM      3  C2  UNL d   1      -5.215  -3.883   1.379  0.00  0.00     0.048 A 
ATOM      4  C3  UNL d   1      -4.937  -5.182   1.802  0.00  0.00     0.023 A 
ATOM      5  C4  UNL d   1      -3.951  -5.938   1.165  0.00  0.00     0.048 A 
ATOM      6  C5  UNL d   1      -3.241  -5.387   0.097  0.00  0.00     0.003 A 
ATOM      7  I   UNL d   1      -5.997  -5.999   3.393  0.00  0.00    -0.146 I 
ENDROOT
TORSDOF 0
ENDMDL
