MODEL 1
REMARK minimizedAffinity 5.42858839
REMARK minimizedRMSD -1
REMARK  0 active torsions:
REMARK  status: ('A' for Active; 'I' for Inactive)
ROOT
ATOM      1  C   UNL d   1      -2.033  -1.971   1.230  0.00  0.00     0.023 A 
ATOM      2  C1  UNL d   1      -3.404  -1.719   1.261  0.00  0.00     0.003 A 
ATOM      3  C2  UNL d   1      -3.872  -0.410   1.392  0.00  0.00     0.048 A 
ATOM      4  C3  UNL d   1      -2.962   0.643   1.490  0.00  0.00     0.023 A 
ATOM      5  C4  UNL d   1      -1.589   0.395   1.458  0.00  0.00     0.048 A 
ATOM      6  C5  UNL d   1      -1.126  -0.916   1.328  0.00  0.00     0.003 A 
ATOM      7  I   UNL d   1      -3.656   2.592   1.684  0.00  0.00    -0.146 I 
ENDROOT
TORSDOF 0
ENDMDL
