MODEL 1
REMARK minimizedAffinity 6.31613255
REMARK minimizedRMSD -1
REMARK  0 active torsions:
REMARK  status: ('A' for Active; 'I' for Inactive)
ROOT
ATOM      1  C   UNL d   1      -5.971  -4.435  -5.264  0.00  0.00     0.023 A 
ATOM      2  C1  UNL d   1      -4.846  -5.164  -5.650  0.00  0.00     0.003 A 
ATOM      3  C2  UNL d   1      -3.629  -4.512  -5.861  0.00  0.00     0.048 A 
ATOM      4  C3  UNL d   1      -3.544  -3.132  -5.685  0.00  0.00     0.023 A 
ATOM      5  C4  UNL d   1      -4.666  -2.398  -5.299  0.00  0.00     0.048 A 
ATOM      6  C5  UNL d   1      -5.881  -3.054  -5.089  0.00  0.00     0.003 A 
ATOM      7  I   UNL d   1      -1.733  -2.160  -6.000  0.00  0.00    -0.146 I 
ENDROOT
TORSDOF 0
ENDMDL
