MODEL 1
REMARK minimizedAffinity 8.83610725
REMARK minimizedRMSD -1
REMARK  0 active torsions:
REMARK  status: ('A' for Active; 'I' for Inactive)
ROOT
ATOM      1  C   UNL d   1      -1.502  -2.345  -5.999  0.00  0.00     0.023 A 
ATOM      2  C1  UNL d   1      -1.702  -1.019  -5.615  0.00  0.00     0.003 A 
ATOM      3  C2  UNL d   1      -0.714  -0.343  -4.896  0.00  0.00     0.048 A 
ATOM      4  C3  UNL d   1       0.471  -0.999  -4.564  0.00  0.00     0.023 A 
ATOM      5  C4  UNL d   1       0.675  -2.326  -4.947  0.00  0.00     0.048 A 
ATOM      6  C5  UNL d   1      -0.316  -2.998  -5.666  0.00  0.00     0.003 A 
ATOM      7  I   UNL d   1       1.942   0.005  -3.494  0.00  0.00    -0.146 I 
ENDROOT
TORSDOF 0
ENDMDL
