MODEL 1
REMARK minimizedAffinity 8.4443388
REMARK minimizedRMSD -1
REMARK  0 active torsions:
REMARK  status: ('A' for Active; 'I' for Inactive)
ROOT
ATOM      1  C   UNL d   1      -0.868  -0.022   2.352  0.00  0.00     0.023 A 
ATOM      2  C1  UNL d   1      -2.146  -0.354   2.803  0.00  0.00     0.003 A 
ATOM      3  C2  UNL d   1      -3.193   0.560   2.672  0.00  0.00     0.048 A 
ATOM      4  C3  UNL d   1      -2.956   1.804   2.088  0.00  0.00     0.023 A 
ATOM      5  C4  UNL d   1      -1.680   2.140   1.635  0.00  0.00     0.048 A 
ATOM      6  C5  UNL d   1      -0.635   1.223   1.768  0.00  0.00     0.003 A 
ATOM      7  I   UNL d   1      -4.514   3.166   1.892  0.00  0.00    -0.146 I 
ENDROOT
TORSDOF 0
ENDMDL
