MODEL 1
REMARK minimizedAffinity 15.4439201
REMARK minimizedRMSD -1
REMARK  0 active torsions:
REMARK  status: ('A' for Active; 'I' for Inactive)
ROOT
ATOM      1  C   UNL d   1       1.293   0.538  -2.504  0.00  0.00     0.023 A 
ATOM      2  C1  UNL d   1       1.496   1.750  -1.843  0.00  0.00     0.003 A 
ATOM      3  C2  UNL d   1       2.297   2.736  -2.423  0.00  0.00     0.048 A 
ATOM      4  C3  UNL d   1       2.891   2.504  -3.663  0.00  0.00     0.023 A 
ATOM      5  C4  UNL d   1       2.690   1.294  -4.328  0.00  0.00     0.048 A 
ATOM      6  C5  UNL d   1       1.889   0.310  -3.744  0.00  0.00     0.003 A 
ATOM      7  I   UNL d   1       4.084   3.971  -4.527  0.00  0.00    -0.146 I 
ENDROOT
TORSDOF 0
ENDMDL
