MODEL 1
REMARK minimizedAffinity 14.0722027
REMARK minimizedRMSD -1
REMARK  0 active torsions:
REMARK  status: ('A' for Active; 'I' for Inactive)
ROOT
ATOM      1  C   UNL d   1       2.842   5.840  -4.411  0.00  0.00     0.023 A 
ATOM      2  C1  UNL d   1       2.247   5.247  -5.525  0.00  0.00     0.003 A 
ATOM      3  C2  UNL d   1       2.700   4.008  -5.983  0.00  0.00     0.048 A 
ATOM      4  C3  UNL d   1       3.746   3.366  -5.321  0.00  0.00     0.023 A 
ATOM      5  C4  UNL d   1       4.343   3.956  -4.205  0.00  0.00     0.048 A 
ATOM      6  C5  UNL d   1       3.888   5.195  -3.752  0.00  0.00     0.003 A 
ATOM      7  I   UNL d   1       4.421   1.522  -6.000  0.00  0.00    -0.146 I 
ENDROOT
TORSDOF 0
ENDMDL
