MODEL 1
REMARK minimizedAffinity 8.47380543
REMARK minimizedRMSD -1
REMARK  0 active torsions:
REMARK  status: ('A' for Active; 'I' for Inactive)
ROOT
ATOM      1  C   UNL d   1       2.407  -0.882  -4.235  0.00  0.00     0.023 A 
ATOM      2  C1  UNL d   1       2.656   0.090  -3.266  0.00  0.00     0.003 A 
ATOM      3  C2  UNL d   1       3.109   1.355  -3.645  0.00  0.00     0.048 A 
ATOM      4  C3  UNL d   1       3.309   1.643  -4.994  0.00  0.00     0.023 A 
ATOM      5  C4  UNL d   1       3.060   0.674  -5.968  0.00  0.00     0.048 A 
ATOM      6  C5  UNL d   1       2.608  -0.591  -5.584  0.00  0.00     0.003 A 
ATOM      7  I   UNL d   1       3.982   3.526  -5.561  0.00  0.00    -0.146 I 
ENDROOT
TORSDOF 0
ENDMDL
