MODEL 1
REMARK minimizedAffinity 9.60953617
REMARK minimizedRMSD -1
REMARK  0 active torsions:
REMARK  status: ('A' for Active; 'I' for Inactive)
ROOT
ATOM      1  C   UNL d   1      -1.064  -0.366   1.531  0.00  0.00     0.023 A 
ATOM      2  C1  UNL d   1      -2.154  -0.635   2.358  0.00  0.00     0.003 A 
ATOM      3  C2  UNL d   1      -3.184   0.300   2.484  0.00  0.00     0.048 A 
ATOM      4  C3  UNL d   1      -3.118   1.501   1.778  0.00  0.00     0.023 A 
ATOM      5  C4  UNL d   1      -2.030   1.774   0.948  0.00  0.00     0.048 A 
ATOM      6  C5  UNL d   1      -1.002   0.837   0.827  0.00  0.00     0.003 A 
ATOM      7  I   UNL d   1      -4.650   2.893   1.964  0.00  0.00    -0.146 I 
ENDROOT
TORSDOF 0
ENDMDL
