MODEL 1
REMARK minimizedAffinity 15.345336
REMARK minimizedRMSD -1
REMARK  0 active torsions:
REMARK  status: ('A' for Active; 'I' for Inactive)
ROOT
ATOM      1  C   UNL d   1      -1.099   1.366   2.183  0.00  0.00     0.023 A 
ATOM      2  C1  UNL d   1      -2.366   1.908   2.397  0.00  0.00     0.003 A 
ATOM      3  C2  UNL d   1      -3.488   1.077   2.412  0.00  0.00     0.048 A 
ATOM      4  C3  UNL d   1      -3.336  -0.295   2.213  0.00  0.00     0.023 A 
ATOM      5  C4  UNL d   1      -2.069  -0.841   1.999  0.00  0.00     0.048 A 
ATOM      6  C5  UNL d   1      -0.950  -0.007   1.984  0.00  0.00     0.003 A 
ATOM      7  I   UNL d   1      -5.005  -1.534   2.234  0.00  0.00    -0.146 I 
ENDROOT
TORSDOF 0
ENDMDL
