MODEL 1
REMARK minimizedAffinity 9.67821503
REMARK minimizedRMSD -1
REMARK  0 active torsions:
REMARK  status: ('A' for Active; 'I' for Inactive)
ROOT
ATOM      1  C   UNL d   1      -2.637  -3.443  -0.204  0.00  0.00     0.023 A 
ATOM      2  C1  UNL d   1      -3.681  -2.518  -0.161  0.00  0.00     0.003 A 
ATOM      3  C2  UNL d   1      -3.484  -1.269   0.430  0.00  0.00     0.048 A 
ATOM      4  C3  UNL d   1      -2.240  -0.950   0.975  0.00  0.00     0.023 A 
ATOM      5  C4  UNL d   1      -1.193  -1.872   0.934  0.00  0.00     0.048 A 
ATOM      6  C5  UNL d   1      -1.395  -3.121   0.342  0.00  0.00     0.003 A 
ATOM      7  I   UNL d   1      -1.945   0.909   1.856  0.00  0.00    -0.146 I 
ENDROOT
TORSDOF 0
ENDMDL
