MODEL 1
REMARK minimizedAffinity 13.3911428
REMARK minimizedRMSD -1
REMARK  0 active torsions:
REMARK  status: ('A' for Active; 'I' for Inactive)
ROOT
ATOM      1  C   UNL d   1      -1.282   1.044   0.667  0.00  0.00     0.023 A 
ATOM      2  C1  UNL d   1      -0.403   0.262   1.417  0.00  0.00     0.003 A 
ATOM      3  C2  UNL d   1      -0.820  -0.290   2.630  0.00  0.00     0.048 A 
ATOM      4  C3  UNL d   1      -2.117  -0.058   3.086  0.00  0.00     0.023 A 
ATOM      5  C4  UNL d   1      -3.000   0.723   2.339  0.00  0.00     0.048 A 
ATOM      6  C5  UNL d   1      -2.578   1.274   1.127  0.00  0.00     0.003 A 
ATOM      7  I   UNL d   1      -2.739  -0.879   4.891  0.00  0.00    -0.146 I 
ENDROOT
TORSDOF 0
ENDMDL
