MODEL 1
REMARK minimizedAffinity 6.79957199
REMARK minimizedRMSD -1
REMARK  0 active torsions:
REMARK  status: ('A' for Active; 'I' for Inactive)
ROOT
ATOM      1  C   UNL d   1       2.069   0.029   3.302  0.00  0.00     0.023 A 
ATOM      2  C1  UNL d   1       1.830   1.206   2.593  0.00  0.00     0.003 A 
ATOM      3  C2  UNL d   1       0.545   1.495   2.129  0.00  0.00     0.048 A 
ATOM      4  C3  UNL d   1      -0.497   0.602   2.378  0.00  0.00     0.023 A 
ATOM      5  C4  UNL d   1      -0.263  -0.576   3.088  0.00  0.00     0.048 A 
ATOM      6  C5  UNL d   1       1.024  -0.861   3.549  0.00  0.00     0.003 A 
ATOM      7  I   UNL d   1      -2.411   1.030   1.689  0.00  0.00    -0.146 I 
ENDROOT
TORSDOF 0
ENDMDL
