MODEL 1
REMARK minimizedAffinity 3.46783948
REMARK minimizedRMSD -1
REMARK  0 active torsions:
REMARK  status: ('A' for Active; 'I' for Inactive)
ROOT
ATOM      1  C   UNL d   1      -3.371   0.477   1.888  0.00  0.00     0.023 A 
ATOM      2  C1  UNL d   1      -3.471   1.865   1.982  0.00  0.00     0.003 A 
ATOM      3  C2  UNL d   1      -2.344   2.628   2.296  0.00  0.00     0.048 A 
ATOM      4  C3  UNL d   1      -1.120   1.996   2.513  0.00  0.00     0.023 A 
ATOM      5  C4  UNL d   1      -1.015   0.607   2.419  0.00  0.00     0.048 A 
ATOM      6  C5  UNL d   1      -2.145  -0.152   2.106  0.00  0.00     0.003 A 
ATOM      7  I   UNL d   1       0.558   3.129   2.980  0.00  0.00    -0.146 I 
ENDROOT
TORSDOF 0
ENDMDL
