MODEL 1
REMARK minimizedAffinity 4.15208054
REMARK minimizedRMSD -1
REMARK  0 active torsions:
REMARK  status: ('A' for Active; 'I' for Inactive)
ROOT
ATOM      1  C   UNL d   1       3.717  -1.113  -5.069  0.00  0.00     0.023 A 
ATOM      2  C1  UNL d   1       2.962  -0.394  -4.142  0.00  0.00     0.003 A 
ATOM      3  C2  UNL d   1       3.001   1.001  -4.140  0.00  0.00     0.048 A 
ATOM      4  C3  UNL d   1       3.796   1.672  -5.069  0.00  0.00     0.023 A 
ATOM      5  C4  UNL d   1       4.552   0.958  -5.999  0.00  0.00     0.048 A 
ATOM      6  C5  UNL d   1       4.511  -0.438  -5.996  0.00  0.00     0.003 A 
ATOM      7  I   UNL d   1       3.855   3.750  -5.068  0.00  0.00    -0.146 I 
ENDROOT
TORSDOF 0
ENDMDL
