MODEL 1
REMARK minimizedAffinity -4.58973312
REMARK minimizedRMSD -1
REMARK  1 active torsions:
REMARK  status: ('A' for Active; 'I' for Inactive)
REMARK    1  A    between atoms: C3_4  and  O_7 
ROOT
ATOM      1  C   UNL d   1       4.930  -4.664  -1.277  0.00  0.00    -0.033 A 
ATOM      2  C1  UNL d   1       4.984  -3.482  -0.536  0.00  0.00     0.039 A 
ATOM      3  C2  UNL d   1       4.504  -2.290  -1.084  0.00  0.00    -0.080 A 
ATOM      4  C3  UNL d   1       3.974  -2.294  -2.371  0.00  0.00     0.150 A 
ATOM      5  C4  UNL d   1       3.913  -3.469  -3.113  0.00  0.00    -0.007 A 
ATOM      6  C5  UNL d   1       4.393  -4.658  -2.565  0.00  0.00     0.039 A 
ENDROOT
BRANCH   4   7
ATOM      7  O   UNL d   1       3.498  -1.155  -2.949  0.00  0.00    -0.526 OA
ATOM      8  H5  UNL d   1       3.631  -0.417  -2.331  0.00  0.00     0.418 HD
ENDBRANCH   4   7
TORSDOF 1
ENDMDL
