MODEL 1
REMARK minimizedAffinity 2.39209914
REMARK minimizedRMSD -1
REMARK  1 active torsions:
REMARK  status: ('A' for Active; 'I' for Inactive)
REMARK    1  A    between atoms: C3_4  and  O_7 
ROOT
ATOM      1  C   UNL d   1      -0.996   3.188  -1.537  0.00  0.00    -0.033 A 
ATOM      2  C1  UNL d   1      -2.115   3.447  -2.330  0.00  0.00     0.039 A 
ATOM      3  C2  UNL d   1      -3.032   2.429  -2.600  0.00  0.00    -0.080 A 
ATOM      4  C3  UNL d   1      -2.819   1.159  -2.071  0.00  0.00     0.150 A 
ATOM      5  C4  UNL d   1      -1.708   0.896  -1.277  0.00  0.00    -0.007 A 
ATOM      6  C5  UNL d   1      -0.793   1.913  -1.009  0.00  0.00     0.039 A 
ENDROOT
BRANCH   4   7
ATOM      7  O   UNL d   1      -3.683   0.133  -2.311  0.00  0.00    -0.526 OA
ATOM      8  H5  UNL d   1      -4.388   0.455  -2.898  0.00  0.00     0.418 HD
ENDBRANCH   4   7
TORSDOF 1
ENDMDL
