MODEL 1
REMARK minimizedAffinity 0.496996343
REMARK minimizedRMSD -1
REMARK  1 active torsions:
REMARK  status: ('A' for Active; 'I' for Inactive)
REMARK    1  A    between atoms: C3_4  and  O_7 
ROOT
ATOM      1  C   UNL d   1       4.455  -5.604  -1.759  0.00  0.00    -0.033 A 
ATOM      2  C1  UNL d   1       5.312  -5.112  -0.772  0.00  0.00     0.039 A 
ATOM      3  C2  UNL d   1       5.192  -3.790  -0.337  0.00  0.00    -0.080 A 
ATOM      4  C3  UNL d   1       4.214  -2.973  -0.896  0.00  0.00     0.150 A 
ATOM      5  C4  UNL d   1       3.355  -3.458  -1.877  0.00  0.00    -0.007 A 
ATOM      6  C5  UNL d   1       3.476  -4.778  -2.310  0.00  0.00     0.039 A 
ENDROOT
BRANCH   4   7
ATOM      7  O   UNL d   1       4.062  -1.675  -0.508  0.00  0.00    -0.526 OA
ATOM      8  H5  UNL d   1       4.743  -1.471   0.155  0.00  0.00     0.418 HD
ENDBRANCH   4   7
TORSDOF 1
ENDMDL
