MODEL 1
REMARK minimizedAffinity 4.51184034
REMARK minimizedRMSD -1
REMARK  1 active torsions:
REMARK  status: ('A' for Active; 'I' for Inactive)
REMARK    1  A    between atoms: C3_4  and  O_7 
ROOT
ATOM      1  C   UNL d   1       4.332  -2.586  -1.131  0.00  0.00    -0.033 A 
ATOM      2  C1  UNL d   1       4.376  -3.114  -2.422  0.00  0.00     0.039 A 
ATOM      3  C2  UNL d   1       3.596  -4.224  -2.751  0.00  0.00    -0.080 A 
ATOM      4  C3  UNL d   1       2.777  -4.796  -1.781  0.00  0.00     0.150 A 
ATOM      5  C4  UNL d   1       2.726  -4.272  -0.493  0.00  0.00    -0.007 A 
ATOM      6  C5  UNL d   1       3.506  -3.164  -0.167  0.00  0.00     0.039 A 
ENDROOT
BRANCH   4   7
ATOM      7  O   UNL d   1       2.002  -5.883  -2.054  0.00  0.00    -0.526 OA
ATOM      8  H5  UNL d   1       2.162  -6.153  -2.974  0.00  0.00     0.418 HD
ENDBRANCH   4   7
TORSDOF 1
ENDMDL
