MODEL 1
REMARK minimizedAffinity -1.51923883
REMARK minimizedRMSD -1
REMARK  1 active torsions:
REMARK  status: ('A' for Active; 'I' for Inactive)
REMARK    1  A    between atoms: C3_4  and  O_7 
ROOT
ATOM      1  C   UNL d   1       4.152  -5.077  -3.047  0.00  0.00    -0.033 A 
ATOM      2  C1  UNL d   1       3.428  -3.904  -3.264  0.00  0.00     0.039 A 
ATOM      3  C2  UNL d   1       3.528  -2.842  -2.363  0.00  0.00    -0.080 A 
ATOM      4  C3  UNL d   1       4.355  -2.966  -1.250  0.00  0.00     0.150 A 
ATOM      5  C4  UNL d   1       5.083  -4.130  -1.029  0.00  0.00    -0.007 A 
ATOM      6  C5  UNL d   1       4.981  -5.190  -1.930  0.00  0.00     0.039 A 
ENDROOT
BRANCH   4   7
ATOM      7  O   UNL d   1       4.481  -1.958  -0.341  0.00  0.00    -0.526 OA
ATOM      8  H5  UNL d   1       3.899  -1.228  -0.608  0.00  0.00     0.418 HD
ENDBRANCH   4   7
TORSDOF 1
ENDMDL
