MODEL 1
REMARK minimizedAffinity -2.2800262
REMARK minimizedRMSD -1
REMARK  1 active torsions:
REMARK  status: ('A' for Active; 'I' for Inactive)
REMARK    1  A    between atoms: C3_4  and  O_7 
ROOT
ATOM      1  C   UNL d   1       5.066  -2.144  -0.348  0.00  0.00    -0.033 A 
ATOM      2  C1  UNL d   1       5.677  -3.268  -0.906  0.00  0.00     0.039 A 
ATOM      3  C2  UNL d   1       4.897  -4.322  -1.388  0.00  0.00    -0.080 A 
ATOM      4  C3  UNL d   1       3.510  -4.237  -1.307  0.00  0.00     0.150 A 
ATOM      5  C4  UNL d   1       2.895  -3.118  -0.756  0.00  0.00    -0.007 A 
ATOM      6  C5  UNL d   1       3.675  -2.068  -0.275  0.00  0.00     0.039 A 
ENDROOT
BRANCH   4   7
ATOM      7  O   UNL d   1       2.707  -5.242  -1.760  0.00  0.00    -0.526 OA
ATOM      8  H5  UNL d   1       3.271  -5.962  -2.087  0.00  0.00     0.418 HD
ENDBRANCH   4   7
TORSDOF 1
ENDMDL
