MODEL 1
REMARK minimizedAffinity -2.04295921
REMARK minimizedRMSD -1
REMARK  1 active torsions:
REMARK  status: ('A' for Active; 'I' for Inactive)
REMARK    1  A    between atoms: C3_4  and  O_7 
ROOT
ATOM      1  C   UNL d   1       4.129  -5.129  -3.111  0.00  0.00    -0.033 A 
ATOM      2  C1  UNL d   1       3.498  -3.954  -3.524  0.00  0.00     0.039 A 
ATOM      3  C2  UNL d   1       3.605  -2.795  -2.754  0.00  0.00    -0.080 A 
ATOM      4  C3  UNL d   1       4.345  -2.823  -1.575  0.00  0.00     0.150 A 
ATOM      5  C4  UNL d   1       4.979  -3.988  -1.160  0.00  0.00    -0.007 A 
ATOM      6  C5  UNL d   1       4.871  -5.146  -1.929  0.00  0.00     0.039 A 
ENDROOT
BRANCH   4   7
ATOM      7  O   UNL d   1       4.473  -1.717  -0.788  0.00  0.00    -0.526 OA
ATOM      8  H5  UNL d   1       3.958  -0.995  -1.186  0.00  0.00     0.418 HD
ENDBRANCH   4   7
TORSDOF 1
ENDMDL
