MODEL 1
REMARK minimizedAffinity 0.798621416
REMARK minimizedRMSD -1
REMARK  1 active torsions:
REMARK  status: ('A' for Active; 'I' for Inactive)
REMARK    1  A    between atoms: C3_4  and  O_7 
ROOT
ATOM      1  C   UNL d   1       4.851  -5.798  -1.880  0.00  0.00    -0.033 A 
ATOM      2  C1  UNL d   1       3.994  -5.113  -2.744  0.00  0.00     0.039 A 
ATOM      3  C2  UNL d   1       3.738  -3.755  -2.545  0.00  0.00    -0.080 A 
ATOM      4  C3  UNL d   1       4.346  -3.094  -1.482  0.00  0.00     0.150 A 
ATOM      5  C4  UNL d   1       5.204  -3.768  -0.619  0.00  0.00    -0.007 A 
ATOM      6  C5  UNL d   1       5.458  -5.125  -0.819  0.00  0.00     0.039 A 
ENDROOT
BRANCH   4   7
ATOM      7  O   UNL d   1       4.123  -1.770  -1.245  0.00  0.00    -0.526 OA
ATOM      8  H5  UNL d   1       3.487  -1.442  -1.903  0.00  0.00     0.418 HD
ENDBRANCH   4   7
TORSDOF 1
ENDMDL
