MODEL 1
REMARK minimizedAffinity 4.56782579
REMARK minimizedRMSD -1
REMARK  1 active torsions:
REMARK  status: ('A' for Active; 'I' for Inactive)
REMARK    1  A    between atoms: N_2  and  C1_3 
ROOT
ATOM      1  C1  UNL d   1      -4.267  -0.080   4.766  0.00  0.00     0.143 A 
ATOM      2  C2  UNL d   1      -3.850  -0.016   3.432  0.00  0.00    -0.057 A 
ATOM      3  C3  UNL d   1      -4.301  -0.943   2.485  0.00  0.00     0.033 A 
ATOM      4  C4  UNL d   1      -5.157  -1.972   2.863  0.00  0.00    -0.042 A 
ATOM      5  C5  UNL d   1      -5.565  -2.070   4.189  0.00  0.00     0.033 A 
ATOM      6  C6  UNL d   1      -5.116  -1.137   5.129  0.00  0.00    -0.057 A 
ENDROOT
BRANCH   1   7
ATOM      7  N   UNL d   1      -3.777   0.753   5.775  0.00  0.00    -0.732 N 
ATOM      8  C   UNL d   1      -2.373   1.099   5.828  0.00  0.00     0.284 C 
ATOM      9  H3  UNL d   1      -4.404   1.528   5.977  0.00  0.00     0.395 HD
ENDBRANCH   1   7
TORSDOF 1
ENDMDL
