MODEL 1
REMARK minimizedAffinity 14.1679506
REMARK minimizedRMSD -1
REMARK  1 active torsions:
REMARK  status: ('A' for Active; 'I' for Inactive)
REMARK    1  A    between atoms: N_2  and  C1_3 
ROOT
ATOM      1  C1  UNL d   1      -5.838   0.046  -2.414  0.00  0.00     0.143 A 
ATOM      2  C2  UNL d   1      -5.578  -0.727  -1.277  0.00  0.00    -0.057 A 
ATOM      3  C3  UNL d   1      -5.326  -0.131  -0.036  0.00  0.00     0.033 A 
ATOM      4  C4  UNL d   1      -5.300   1.254   0.085  0.00  0.00    -0.042 A 
ATOM      5  C5  UNL d   1      -5.531   2.043  -1.036  0.00  0.00     0.033 A 
ATOM      6  C6  UNL d   1      -5.789   1.442  -2.272  0.00  0.00    -0.057 A 
ENDROOT
BRANCH   1   7
ATOM      7  N   UNL d   1      -5.999  -0.485  -3.696  0.00  0.00    -0.732 N 
ATOM      8  C   UNL d   1      -5.999   0.380  -4.857  0.00  0.00     0.284 C 
ATOM      9  H3  UNL d   1      -5.484  -1.353  -3.824  0.00  0.00     0.395 HD
ENDBRANCH   1   7
TORSDOF 1
ENDMDL
