MODEL 1
REMARK minimizedAffinity 15.4573193
REMARK minimizedRMSD -1
REMARK  1 active torsions:
REMARK  status: ('A' for Active; 'I' for Inactive)
REMARK    1  A    between atoms: N_2  and  C1_3 
ROOT
ATOM      1  C1  UNL d   1       2.324  -0.564   2.083  0.00  0.00     0.143 A 
ATOM      2  C2  UNL d   1       2.375  -1.603   3.018  0.00  0.00    -0.057 A 
ATOM      3  C3  UNL d   1       1.224  -2.317   3.374  0.00  0.00     0.033 A 
ATOM      4  C4  UNL d   1      -0.007  -1.982   2.822  0.00  0.00    -0.042 A 
ATOM      5  C5  UNL d   1      -0.086  -0.936   1.909  0.00  0.00     0.033 A 
ATOM      6  C6  UNL d   1       1.068  -0.232   1.552  0.00  0.00    -0.057 A 
ENDROOT
BRANCH   1   7
ATOM      7  N   UNL d   1       3.415   0.247   1.761  0.00  0.00    -0.732 N 
ATOM      8  C   UNL d   1       3.250   1.398   0.900  0.00  0.00     0.284 C 
ATOM      9  H3  UNL d   1       4.027   0.409   2.558  0.00  0.00     0.395 HD
ENDBRANCH   1   7
TORSDOF 1
ENDMDL
