MODEL 1
REMARK minimizedAffinity 12.6460209
REMARK minimizedRMSD -1
REMARK  1 active torsions:
REMARK  status: ('A' for Active; 'I' for Inactive)
REMARK    1  A    between atoms: N_2  and  C1_3 
ROOT
ATOM      1  C1  UNL d   1       3.059   3.076  -3.733  0.00  0.00     0.143 A 
ATOM      2  C2  UNL d   1       1.734   3.525  -3.700  0.00  0.00    -0.057 A 
ATOM      3  C3  UNL d   1       0.870   3.161  -2.660  0.00  0.00     0.033 A 
ATOM      4  C4  UNL d   1       1.308   2.314  -1.647  0.00  0.00    -0.042 A 
ATOM      5  C5  UNL d   1       2.613   1.835  -1.673  0.00  0.00     0.033 A 
ATOM      6  C6  UNL d   1       3.474   2.208  -2.710  0.00  0.00    -0.057 A 
ENDROOT
BRANCH   1   7
ATOM      7  N   UNL d   1       3.938   3.322  -4.790  0.00  0.00    -0.732 N 
ATOM      8  C   UNL d   1       5.205   3.982  -4.557  0.00  0.00     0.284 C 
ATOM      9  H3  UNL d   1       3.988   2.544  -5.443  0.00  0.00     0.395 HD
ENDBRANCH   1   7
TORSDOF 1
ENDMDL
