MODEL 1
REMARK minimizedAffinity 16.0063305
REMARK minimizedRMSD -1
REMARK  1 active torsions:
REMARK  status: ('A' for Active; 'I' for Inactive)
REMARK    1  A    between atoms: N_2  and  C1_3 
ROOT
ATOM      1  C1  UNL d   1       4.883   2.430   0.670  0.00  0.00     0.143 A 
ATOM      2  C2  UNL d   1       4.958   1.230  -0.044  0.00  0.00    -0.057 A 
ATOM      3  C3  UNL d   1       3.801   0.540  -0.427  0.00  0.00     0.033 A 
ATOM      4  C4  UNL d   1       2.546   1.025  -0.074  0.00  0.00    -0.042 A 
ATOM      5  C5  UNL d   1       2.449   2.203   0.658  0.00  0.00     0.033 A 
ATOM      6  C6  UNL d   1       3.607   2.891   1.031  0.00  0.00    -0.057 A 
ENDROOT
BRANCH   1   7
ATOM      7  N   UNL d   1       5.998   3.112   1.164  0.00  0.00    -0.732 N 
ATOM      8  C   UNL d   1       5.976   3.701   2.486  0.00  0.00     0.284 C 
ATOM      9  H3  UNL d   1       6.873   2.647   0.931  0.00  0.00     0.395 HD
ENDBRANCH   1   7
TORSDOF 1
ENDMDL
