MODEL 1
REMARK minimizedAffinity 4.1437788
REMARK minimizedRMSD -1
REMARK  1 active torsions:
REMARK  status: ('A' for Active; 'I' for Inactive)
REMARK    1  A    between atoms: N_2  and  C1_3 
ROOT
ATOM      1  C1  UNL d   1       0.175  -1.506   2.659  0.00  0.00     0.143 A 
ATOM      2  C2  UNL d   1      -0.820  -1.359   1.687  0.00  0.00    -0.057 A 
ATOM      3  C3  UNL d   1      -1.886  -0.469   1.867  0.00  0.00     0.033 A 
ATOM      4  C4  UNL d   1      -1.991   0.271   3.040  0.00  0.00    -0.042 A 
ATOM      5  C5  UNL d   1      -1.027   0.123   4.031  0.00  0.00     0.033 A 
ATOM      6  C6  UNL d   1       0.039  -0.762   3.842  0.00  0.00    -0.057 A 
ENDROOT
BRANCH   1   7
ATOM      7  N   UNL d   1       1.206  -2.446   2.581  0.00  0.00    -0.732 N 
ATOM      8  C   UNL d   1       2.310  -2.408   3.516  0.00  0.00     0.284 C 
ATOM      9  H3  UNL d   1       0.863  -3.382   2.381  0.00  0.00     0.395 HD
ENDBRANCH   1   7
TORSDOF 1
ENDMDL
