MODEL 1
REMARK minimizedAffinity 5.55365562
REMARK minimizedRMSD -1
REMARK  1 active torsions:
REMARK  status: ('A' for Active; 'I' for Inactive)
REMARK    1  A    between atoms: N_2  and  C1_3 
ROOT
ATOM      1  C1  UNL d   1      -5.156  -3.574   3.817  0.00  0.00     0.143 A 
ATOM      2  C2  UNL d   1      -5.570  -3.380   5.139  0.00  0.00    -0.057 A 
ATOM      3  C3  UNL d   1      -5.806  -4.463   5.993  0.00  0.00     0.033 A 
ATOM      4  C4  UNL d   1      -5.659  -5.767   5.529  0.00  0.00    -0.042 A 
ATOM      5  C5  UNL d   1      -5.273  -5.985   4.212  0.00  0.00     0.033 A 
ATOM      6  C6  UNL d   1      -5.032  -4.898   3.365  0.00  0.00    -0.057 A 
ENDROOT
BRANCH   1   7
ATOM      7  N   UNL d   1      -5.001  -2.541   2.890  0.00  0.00    -0.732 N 
ATOM      8  C   UNL d   1      -3.849  -2.502   2.015  0.00  0.00     0.284 C 
ATOM      9  H3  UNL d   1      -5.877  -2.292   2.435  0.00  0.00     0.395 HD
ENDBRANCH   1   7
TORSDOF 1
ENDMDL
