MODEL 1
REMARK minimizedAffinity 4.56923914
REMARK minimizedRMSD -1
REMARK  1 active torsions:
REMARK  status: ('A' for Active; 'I' for Inactive)
REMARK    1  A    between atoms: N_2  and  C1_3 
ROOT
ATOM      1  C1  UNL d   1       0.330  -2.115   2.863  0.00  0.00     0.143 A 
ATOM      2  C2  UNL d   1      -0.723  -1.211   3.037  0.00  0.00    -0.057 A 
ATOM      3  C3  UNL d   1      -1.892  -1.301   2.271  0.00  0.00     0.033 A 
ATOM      4  C4  UNL d   1      -2.016  -2.284   1.294  0.00  0.00    -0.042 A 
ATOM      5  C5  UNL d   1      -0.971  -3.178   1.087  0.00  0.00     0.033 A 
ATOM      6  C6  UNL d   1       0.190  -3.087   1.860  0.00  0.00    -0.057 A 
ENDROOT
BRANCH   1   7
ATOM      7  N   UNL d   1       1.557  -2.017   3.525  0.00  0.00    -0.732 N 
ATOM      8  C   UNL d   1       2.744  -1.588   2.817  0.00  0.00     0.284 C 
ATOM      9  H3  UNL d   1       1.464  -1.623   4.458  0.00  0.00     0.395 HD
ENDBRANCH   1   7
TORSDOF 1
ENDMDL
