MODEL 1
REMARK minimizedAffinity 3.11958027
REMARK minimizedRMSD -1
REMARK  1 active torsions:
REMARK  status: ('A' for Active; 'I' for Inactive)
REMARK    1  A    between atoms: N_2  and  C1_3 
ROOT
ATOM      1  C1  UNL d   1      -3.494   5.906  -3.296  0.00  0.00     0.143 A 
ATOM      2  C2  UNL d   1      -4.410   5.992  -4.351  0.00  0.00    -0.057 A 
ATOM      3  C3  UNL d   1      -3.983   5.994  -5.684  0.00  0.00     0.033 A 
ATOM      4  C4  UNL d   1      -2.627   5.939  -5.987  0.00  0.00    -0.042 A 
ATOM      5  C5  UNL d   1      -1.697   5.879  -4.955  0.00  0.00     0.033 A 
ATOM      6  C6  UNL d   1      -2.130   5.870  -3.625  0.00  0.00    -0.057 A 
ENDROOT
BRANCH   1   7
ATOM      7  N   UNL d   1      -3.849   5.999  -1.948  0.00  0.00    -0.732 N 
ATOM      8  C   UNL d   1      -5.237   5.921  -1.544  0.00  0.00     0.284 C 
ATOM      9  H3  UNL d   1      -3.210   5.489  -1.342  0.00  0.00     0.395 HD
ENDBRANCH   1   7
TORSDOF 1
ENDMDL
