MODEL 1
REMARK minimizedAffinity 10.670598
REMARK minimizedRMSD -1
REMARK  1 active torsions:
REMARK  status: ('A' for Active; 'I' for Inactive)
REMARK    1  A    between atoms: N_2  and  C1_3 
ROOT
ATOM      1  C1  UNL d   1       2.150   4.972  -2.391  0.00  0.00     0.143 A 
ATOM      2  C2  UNL d   1       1.509   3.910  -3.038  0.00  0.00    -0.057 A 
ATOM      3  C3  UNL d   1       2.233   2.964  -3.774  0.00  0.00     0.033 A 
ATOM      4  C4  UNL d   1       3.613   3.081  -3.900  0.00  0.00    -0.042 A 
ATOM      5  C5  UNL d   1       4.269   4.142  -3.287  0.00  0.00     0.033 A 
ATOM      6  C6  UNL d   1       3.541   5.080  -2.547  0.00  0.00    -0.057 A 
ENDROOT
BRANCH   1   7
ATOM      7  N   UNL d   1       1.476   6.000  -1.727  0.00  0.00    -0.732 N 
ATOM      8  C   UNL d   1       0.032   5.998  -1.640  0.00  0.00     0.284 C 
ATOM      9  H3  UNL d   1       1.944   6.279  -0.868  0.00  0.00     0.395 HD
ENDBRANCH   1   7
TORSDOF 1
ENDMDL
