MODEL 1
REMARK minimizedAffinity 9.38536263
REMARK minimizedRMSD -1
REMARK  1 active torsions:
REMARK  status: ('A' for Active; 'I' for Inactive)
REMARK    1  A    between atoms: N_2  and  C1_3 
ROOT
ATOM      1  C1  UNL d   1       2.817   3.971  -3.045  0.00  0.00     0.143 A 
ATOM      2  C2  UNL d   1       2.937   3.237  -4.230  0.00  0.00    -0.057 A 
ATOM      3  C3  UNL d   1       4.157   3.157  -4.913  0.00  0.00     0.033 A 
ATOM      4  C4  UNL d   1       5.274   3.835  -4.437  0.00  0.00    -0.042 A 
ATOM      5  C5  UNL d   1       5.171   4.591  -3.274  0.00  0.00     0.033 A 
ATOM      6  C6  UNL d   1       3.952   4.662  -2.593  0.00  0.00    -0.057 A 
ENDROOT
BRANCH   1   7
ATOM      7  N   UNL d   1       1.608   4.170  -2.373  0.00  0.00    -0.732 N 
ATOM      8  C   UNL d   1       0.957   5.462  -2.395  0.00  0.00     0.284 C 
ATOM      9  H3  UNL d   1       0.973   3.383  -2.475  0.00  0.00     0.395 HD
ENDBRANCH   1   7
TORSDOF 1
ENDMDL
