MODEL 1
REMARK minimizedAffinity -3.42711163
REMARK minimizedRMSD -1
REMARK  0 active torsions:
REMARK  status: ('A' for Active; 'I' for Inactive)
ROOT
ATOM      1  C1  BNZ d   1      -0.380  -0.922   1.163  0.00  0.00     0.000 A 
ATOM      2  C2  BNZ d   1       0.195   0.318   1.240  0.00  0.00     0.000 A 
ATOM      3  C3  BNZ d   1       0.376   1.076   0.117  0.00  0.00     0.000 A 
ATOM      4  C4  BNZ d   1       0.020   0.577  -1.085  0.00  0.00     0.000 A 
ATOM      5  C5  BNZ d   1      -0.552  -0.676  -1.179  0.00  0.00     0.000 A 
ATOM      6  C6  BNZ d   1      -0.769  -1.420  -0.042  0.00  0.00     0.000 A 
ENDROOT
TORSDOF 0
ENDMDL
