MODEL 1
REMARK minimizedAffinity -2.47597671
REMARK minimizedRMSD -1
REMARK  0 active torsions:
REMARK  status: ('A' for Active; 'I' for Inactive)
ROOT
ATOM      1  C1  BNZ d   1      -0.948  -1.749   1.023  0.00  0.00     0.000 A 
ATOM      2  C2  BNZ d   1      -0.763  -0.401   1.177  0.00  0.00     0.000 A 
ATOM      3  C3  BNZ d   1      -0.291   0.363   0.146  0.00  0.00     0.000 A 
ATOM      4  C4  BNZ d   1       0.033  -0.228  -1.022  0.00  0.00     0.000 A 
ATOM      5  C5  BNZ d   1      -0.139  -1.587  -1.190  0.00  0.00     0.000 A 
ATOM      6  C6  BNZ d   1      -0.651  -2.347  -0.163  0.00  0.00     0.000 A 
ENDROOT
TORSDOF 0
ENDMDL
