MODEL 1
REMARK minimizedAffinity -2.09419775
REMARK minimizedRMSD -1
REMARK  0 active torsions:
REMARK  status: ('A' for Active; 'I' for Inactive)
ROOT
ATOM      1  C1  BNZ d   1      -0.337   3.686   0.913  0.00  0.00     0.000 A 
ATOM      2  C2  BNZ d   1      -0.256   2.482   0.265  0.00  0.00     0.000 A 
ATOM      3  C3  BNZ d   1       0.956   1.912  -0.005  0.00  0.00     0.000 A 
ATOM      4  C4  BNZ d   1       2.086   2.565   0.335  0.00  0.00     0.000 A 
ATOM      5  C5  BNZ d   1       2.022   3.784   0.980  0.00  0.00     0.000 A 
ATOM      6  C6  BNZ d   1       0.799   4.336   1.286  0.00  0.00     0.000 A 
ENDROOT
TORSDOF 0
ENDMDL
