MODEL 1
REMARK minimizedAffinity -4.54518366
REMARK minimizedRMSD -1
REMARK  0 active torsions:
REMARK  status: ('A' for Active; 'I' for Inactive)
ROOT
ATOM      1  C1  BNZ d   1      -0.917  -2.362   0.690  0.00  0.00     0.000 A 
ATOM      2  C2  BNZ d   1      -0.391  -1.504  -0.239  0.00  0.00     0.000 A 
ATOM      3  C3  BNZ d   1      -0.158  -0.194   0.073  0.00  0.00     0.000 A 
ATOM      4  C4  BNZ d   1      -0.486   0.266   1.297  0.00  0.00     0.000 A 
ATOM      5  C5  BNZ d   1      -1.025  -0.585   2.242  0.00  0.00     0.000 A 
ATOM      6  C6  BNZ d   1      -1.223  -1.913   1.937  0.00  0.00     0.000 A 
ENDROOT
TORSDOF 0
ENDMDL
