MODEL 1
REMARK minimizedAffinity -3.23977256
REMARK minimizedRMSD -1
REMARK  0 active torsions:
REMARK  status: ('A' for Active; 'I' for Inactive)
ROOT
ATOM      1  C1  BNZ d   1      -0.035  -0.441  -1.701  0.00  0.00     0.000 A 
ATOM      2  C2  BNZ d   1      -0.280  -1.398  -0.753  0.00  0.00     0.000 A 
ATOM      3  C3  BNZ d   1      -0.576  -1.049   0.535  0.00  0.00     0.000 A 
ATOM      4  C4  BNZ d   1      -0.588   0.255   0.882  0.00  0.00     0.000 A 
ATOM      5  C5  BNZ d   1      -0.334   1.231  -0.060  0.00  0.00     0.000 A 
ATOM      6  C6  BNZ d   1      -0.074   0.877  -1.364  0.00  0.00     0.000 A 
ENDROOT
TORSDOF 0
ENDMDL
