MODEL 1
REMARK minimizedAffinity -1.36385262
REMARK minimizedRMSD -1
REMARK  0 active torsions:
REMARK  status: ('A' for Active; 'I' for Inactive)
ROOT
ATOM      1  C1  BNZ d   1       1.149   2.626   0.054  0.00  0.00     0.000 A 
ATOM      2  C2  BNZ d   1       2.375   2.985   0.547  0.00  0.00     0.000 A 
ATOM      3  C3  BNZ d   1       2.567   4.210   1.123  0.00  0.00     0.000 A 
ATOM      4  C4  BNZ d   1       1.544   5.088   1.168  0.00  0.00     0.000 A 
ATOM      5  C5  BNZ d   1       0.305   4.745   0.667  0.00  0.00     0.000 A 
ATOM      6  C6  BNZ d   1       0.105   3.497   0.123  0.00  0.00     0.000 A 
ENDROOT
TORSDOF 0
ENDMDL
