MODEL 1
REMARK minimizedAffinity -2.18826509
REMARK minimizedRMSD -1
REMARK  0 active torsions:
REMARK  status: ('A' for Active; 'I' for Inactive)
ROOT
ATOM      1  C1  BNZ d   1       0.451  -0.717   0.478  0.00  0.00     0.000 A 
ATOM      2  C2  BNZ d   1       1.178   0.280  -0.116  0.00  0.00     0.000 A 
ATOM      3  C3  BNZ d   1       0.617   1.500  -0.368  0.00  0.00     0.000 A 
ATOM      4  C4  BNZ d   1      -0.680   1.710  -0.063  0.00  0.00     0.000 A 
ATOM      5  C5  BNZ d   1      -1.429   0.712   0.529  0.00  0.00     0.000 A 
ATOM      6  C6  BNZ d   1      -0.850  -0.503   0.816  0.00  0.00     0.000 A 
ENDROOT
TORSDOF 0
ENDMDL
