MODEL 1
REMARK minimizedAffinity -4.53838921
REMARK minimizedRMSD -1
REMARK  0 active torsions:
REMARK  status: ('A' for Active; 'I' for Inactive)
ROOT
ATOM      1  C1  BNZ d   1       0.063  -3.678  -0.462  0.00  0.00     0.000 A 
ATOM      2  C2  BNZ d   1       0.315  -2.976   0.687  0.00  0.00     0.000 A 
ATOM      3  C3  BNZ d   1       0.482  -1.619   0.656  0.00  0.00     0.000 A 
ATOM      4  C4  BNZ d   1       0.437  -0.973  -0.527  0.00  0.00     0.000 A 
ATOM      5  C5  BNZ d   1       0.193  -1.668  -1.695  0.00  0.00     0.000 A 
ATOM      6  C6  BNZ d   1      -0.013  -3.027  -1.655  0.00  0.00     0.000 A 
ENDROOT
TORSDOF 0
ENDMDL
