MODEL 1
REMARK minimizedAffinity -4.72266483
REMARK minimizedRMSD -1
REMARK  0 active torsions:
REMARK  status: ('A' for Active; 'I' for Inactive)
ROOT
ATOM      1  C1  BNZ d   1      -0.163  -3.492  -0.611  0.00  0.00     0.000 A 
ATOM      2  C2  BNZ d   1      -0.136  -2.845   0.597  0.00  0.00     0.000 A 
ATOM      3  C3  BNZ d   1       0.035  -1.491   0.662  0.00  0.00     0.000 A 
ATOM      4  C4  BNZ d   1       0.218  -0.790  -0.476  0.00  0.00     0.000 A 
ATOM      5  C5  BNZ d   1       0.202  -1.429  -1.700  0.00  0.00     0.000 A 
ATOM      6  C6  BNZ d   1      -0.009  -2.787  -1.764  0.00  0.00     0.000 A 
ENDROOT
TORSDOF 0
ENDMDL
