MODEL 1
REMARK minimizedAffinity -2.26286793
REMARK minimizedRMSD -1
REMARK  0 active torsions:
REMARK  status: ('A' for Active; 'I' for Inactive)
ROOT
ATOM      1  C1  BNZ d   1       1.165  -0.759   0.495  0.00  0.00     0.000 A 
ATOM      2  C2  BNZ d   1       1.442  -2.089   0.320  0.00  0.00     0.000 A 
ATOM      3  C3  BNZ d   1       0.454  -3.028   0.420  0.00  0.00     0.000 A 
ATOM      4  C4  BNZ d   1      -0.800  -2.641   0.732  0.00  0.00     0.000 A 
ATOM      5  C5  BNZ d   1      -1.093  -1.305   0.921  0.00  0.00     0.000 A 
ATOM      6  C6  BNZ d   1      -0.104  -0.359   0.781  0.00  0.00     0.000 A 
ENDROOT
TORSDOF 0
ENDMDL
