MODEL 1
REMARK minimizedAffinity -4.65237761
REMARK minimizedRMSD -1
REMARK  0 active torsions:
REMARK  status: ('A' for Active; 'I' for Inactive)
ROOT
ATOM      1  C1  BNZ d   1      -1.289  -2.051   0.840  0.00  0.00     0.000 A 
ATOM      2  C2  BNZ d   1      -1.057  -0.716   0.643  0.00  0.00     0.000 A 
ATOM      3  C3  BNZ d   1       0.102  -0.286   0.059  0.00  0.00     0.000 A 
ATOM      4  C4  BNZ d   1       1.042  -1.187  -0.291  0.00  0.00     0.000 A 
ATOM      5  C5  BNZ d   1       0.826  -2.536  -0.091  0.00  0.00     0.000 A 
ATOM      6  C6  BNZ d   1      -0.358  -2.968   0.462  0.00  0.00     0.000 A 
ENDROOT
TORSDOF 0
ENDMDL
