MODEL 1
REMARK minimizedAffinity -4.63052034
REMARK minimizedRMSD -1
REMARK  0 active torsions:
REMARK  status: ('A' for Active; 'I' for Inactive)
ROOT
ATOM      1  C1  BNZ d   1      -0.378  -1.565   0.982  0.00  0.00     0.000 A 
ATOM      2  C2  BNZ d   1      -0.633  -2.911   0.972  0.00  0.00     0.000 A 
ATOM      3  C3  BNZ d   1      -0.461  -3.647  -0.168  0.00  0.00     0.000 A 
ATOM      4  C4  BNZ d   1      -0.075  -3.030  -1.303  0.00  0.00     0.000 A 
ATOM      5  C5  BNZ d   1       0.176  -1.673  -1.311  0.00  0.00     0.000 A 
ATOM      6  C6  BNZ d   1       0.040  -0.942  -0.153  0.00  0.00     0.000 A 
ENDROOT
TORSDOF 0
ENDMDL
