MODEL 1
REMARK minimizedAffinity -3.32491755
REMARK minimizedRMSD -1
REMARK  0 active torsions:
REMARK  status: ('A' for Active; 'I' for Inactive)
ROOT
ATOM      1  C1  BNZ d   1      -0.868  -1.728   1.087  0.00  0.00     0.000 A 
ATOM      2  C2  BNZ d   1      -0.845  -0.408   1.450  0.00  0.00     0.000 A 
ATOM      3  C3  BNZ d   1      -0.421   0.551   0.574  0.00  0.00     0.000 A 
ATOM      4  C4  BNZ d   1       0.018   0.186  -0.648  0.00  0.00     0.000 A 
ATOM      5  C5  BNZ d   1       0.010  -1.142  -1.025  0.00  0.00     0.000 A 
ATOM      6  C6  BNZ d   1      -0.454  -2.101  -0.155  0.00  0.00     0.000 A 
ENDROOT
TORSDOF 0
ENDMDL
