MODEL 1
REMARK minimizedAffinity -4.59235954
REMARK minimizedRMSD -1
REMARK  0 active torsions:
REMARK  status: ('A' for Active; 'I' for Inactive)
ROOT
ATOM      1  C1  BNZ d   1       0.089  -3.049  -2.074  0.00  0.00     0.000 A 
ATOM      2  C2  BNZ d   1      -0.257  -3.547  -0.846  0.00  0.00     0.000 A 
ATOM      3  C3  BNZ d   1      -0.352  -2.724   0.241  0.00  0.00     0.000 A 
ATOM      4  C4  BNZ d   1      -0.062  -1.413   0.108  0.00  0.00     0.000 A 
ATOM      5  C5  BNZ d   1       0.297  -0.898  -1.121  0.00  0.00     0.000 A 
ATOM      6  C6  BNZ d   1       0.354  -1.722  -2.221  0.00  0.00     0.000 A 
ENDROOT
TORSDOF 0
ENDMDL
