MODEL 1
REMARK minimizedAffinity -3.21157002
REMARK minimizedRMSD -1
REMARK  0 active torsions:
REMARK  status: ('A' for Active; 'I' for Inactive)
ROOT
ATOM      1  C1  BNZ d   1      -0.886  -3.074  -1.049  0.00  0.00     0.000 A 
ATOM      2  C2  BNZ d   1      -1.083  -2.575   0.211  0.00  0.00     0.000 A 
ATOM      3  C3  BNZ d   1      -0.802  -1.268   0.498  0.00  0.00     0.000 A 
ATOM      4  C4  BNZ d   1      -0.287  -0.474  -0.463  0.00  0.00     0.000 A 
ATOM      5  C5  BNZ d   1      -0.074  -0.965  -1.736  0.00  0.00     0.000 A 
ATOM      6  C6  BNZ d   1      -0.395  -2.270  -2.031  0.00  0.00     0.000 A 
ENDROOT
TORSDOF 0
ENDMDL
