MODEL 1
REMARK minimizedAffinity -3.17961955
REMARK minimizedRMSD -1
REMARK  0 active torsions:
REMARK  status: ('A' for Active; 'I' for Inactive)
ROOT
ATOM      1  C1  BNZ d   1       1.485   2.693  -0.922  0.00  0.00     0.000 A 
ATOM      2  C2  BNZ d   1       2.203   3.773  -0.482  0.00  0.00     0.000 A 
ATOM      3  C3  BNZ d   1       1.880   4.397   0.690  0.00  0.00     0.000 A 
ATOM      4  C4  BNZ d   1       0.817   3.967   1.400  0.00  0.00     0.000 A 
ATOM      5  C5  BNZ d   1       0.077   2.886   0.964  0.00  0.00     0.000 A 
ATOM      6  C6  BNZ d   1       0.429   2.235  -0.196  0.00  0.00     0.000 A 
ENDROOT
TORSDOF 0
ENDMDL
