MODEL 1
REMARK minimizedAffinity -2.97879291
REMARK minimizedRMSD -1
REMARK  0 active torsions:
REMARK  status: ('A' for Active; 'I' for Inactive)
ROOT
ATOM      1  C1  BNZ d   1       0.038   1.440  -0.834  0.00  0.00     0.000 A 
ATOM      2  C2  BNZ d   1      -0.456   0.198  -0.535  0.00  0.00     0.000 A 
ATOM      3  C3  BNZ d   1      -0.143  -0.414   0.647  0.00  0.00     0.000 A 
ATOM      4  C4  BNZ d   1       0.695   0.198   1.508  0.00  0.00     0.000 A 
ATOM      5  C5  BNZ d   1       1.209   1.446   1.217  0.00  0.00     0.000 A 
ATOM      6  C6  BNZ d   1       0.860   2.076   0.044  0.00  0.00     0.000 A 
ENDROOT
TORSDOF 0
ENDMDL
