MODEL 1
REMARK minimizedAffinity -3.6535213
REMARK minimizedRMSD -1
REMARK  1 active torsions:
REMARK  status: ('A' for Active; 'I' for Inactive)
REMARK    1  A    between atoms: C1_2  and  C2_3 
ROOT
ATOM      1  C2  UNL d   1      -0.635   0.489   0.358  0.00  0.00    -0.077 A 
ATOM      2  C3  UNL d   1       0.374   1.225   0.995  0.00  0.00     0.002 A 
ATOM      3  C4  UNL d   1       0.244   1.589   2.337  0.00  0.00     0.002 A 
ATOM      4  C5  UNL d   1      -0.891   1.217   3.054  0.00  0.00    -0.004 A 
ATOM      5  C6  UNL d   1      -1.901   0.487   2.429  0.00  0.00     0.002 A 
ATOM      6  C7  UNL d   1      -1.773   0.124   1.088  0.00  0.00     0.002 A 
ENDROOT
BRANCH   1   7
ATOM      7  C1  UNL d   1      -0.474   0.054  -1.075  0.00  0.00     0.055 C 
ATOM      8  C   UNL d   1       0.854  -0.656  -1.292  0.00  0.00     0.019 C 
ENDBRANCH   1   7
TORSDOF 1
ENDMDL
