MODEL 1
REMARK minimizedAffinity -4.07891893
REMARK minimizedRMSD -1
REMARK  1 active torsions:
REMARK  status: ('A' for Active; 'I' for Inactive)
REMARK    1  A    between atoms: C1_2  and  C2_3 
ROOT
ATOM      1  C2  UNL d   1       0.057  -0.227  -0.071  0.00  0.00    -0.077 A 
ATOM      2  C3  UNL d   1       0.559  -0.340   1.233  0.00  0.00     0.002 A 
ATOM      3  C4  UNL d   1      -0.212   0.064   2.325  0.00  0.00     0.002 A 
ATOM      4  C5  UNL d   1      -1.491   0.580   2.124  0.00  0.00    -0.004 A 
ATOM      5  C6  UNL d   1      -1.998   0.698   0.831  0.00  0.00     0.002 A 
ATOM      6  C7  UNL d   1      -1.229   0.296  -0.262  0.00  0.00     0.002 A 
ENDROOT
BRANCH   1   7
ATOM      7  C1  UNL d   1       0.868  -0.707  -1.246  0.00  0.00     0.055 C 
ATOM      8  C   UNL d   1       1.234   0.442  -2.173  0.00  0.00     0.019 C 
ENDBRANCH   1   7
TORSDOF 1
ENDMDL
