MODEL 1
REMARK minimizedAffinity -4.21433163
REMARK minimizedRMSD -1
REMARK  1 active torsions:
REMARK  status: ('A' for Active; 'I' for Inactive)
REMARK    1  A    between atoms: C1_2  and  C2_3 
ROOT
ATOM      1  C2  UNL d   1      -0.528   0.492   0.119  0.00  0.00    -0.077 A 
ATOM      2  C3  UNL d   1       0.272   1.119   1.084  0.00  0.00     0.002 A 
ATOM      3  C4  UNL d   1      -0.198   1.294   2.387  0.00  0.00     0.002 A 
ATOM      4  C5  UNL d   1      -1.468   0.840   2.738  0.00  0.00    -0.004 A 
ATOM      5  C6  UNL d   1      -2.272   0.216   1.785  0.00  0.00     0.002 A 
ATOM      6  C7  UNL d   1      -1.804   0.042   0.482  0.00  0.00     0.002 A 
ENDROOT
BRANCH   1   7
ATOM      7  C1  UNL d   1      -0.003   0.258  -1.273  0.00  0.00     0.055 C 
ATOM      8  C   UNL d   1       0.799  -1.032  -1.354  0.00  0.00     0.019 C 
ENDBRANCH   1   7
TORSDOF 1
ENDMDL
