MODEL 1
REMARK minimizedAffinity -5.0624814
REMARK minimizedRMSD -1
REMARK  1 active torsions:
REMARK  status: ('A' for Active; 'I' for Inactive)
REMARK    1  A    between atoms: C1_2  and  C2_3 
ROOT
ATOM      1  C2  UNL d   1       0.054   0.240  -0.967  0.00  0.00    -0.077 A 
ATOM      2  C3  UNL d   1      -0.460   1.345  -1.661  0.00  0.00     0.002 A 
ATOM      3  C4  UNL d   1      -0.308   1.443  -3.045  0.00  0.00     0.002 A 
ATOM      4  C5  UNL d   1       0.355   0.439  -3.748  0.00  0.00    -0.004 A 
ATOM      5  C6  UNL d   1       0.873  -0.662  -3.067  0.00  0.00     0.002 A 
ATOM      6  C7  UNL d   1       0.722  -0.761  -1.683  0.00  0.00     0.002 A 
ENDROOT
BRANCH   1   7
ATOM      7  C1  UNL d   1      -0.152   0.108   0.519  0.00  0.00     0.055 C 
ATOM      8  C   UNL d   1      -1.563   0.513   0.920  0.00  0.00     0.019 C 
ENDBRANCH   1   7
TORSDOF 1
ENDMDL
