MODEL 1
REMARK minimizedAffinity -2.16804194
REMARK minimizedRMSD -1
REMARK  1 active torsions:
REMARK  status: ('A' for Active; 'I' for Inactive)
REMARK    1  A    between atoms: C1_2  and  C2_3 
ROOT
ATOM      1  C2  UNL d   1       0.105   0.040   2.305  0.00  0.00    -0.077 A 
ATOM      2  C3  UNL d   1       0.641  -0.264   1.046  0.00  0.00     0.002 A 
ATOM      3  C4  UNL d   1      -0.085   0.005  -0.115  0.00  0.00     0.002 A 
ATOM      4  C5  UNL d   1      -1.350   0.584  -0.029  0.00  0.00    -0.004 A 
ATOM      5  C6  UNL d   1      -1.893   0.889   1.218  0.00  0.00     0.002 A 
ATOM      6  C7  UNL d   1      -1.169   0.619   2.380  0.00  0.00     0.002 A 
ENDROOT
BRANCH   1   7
ATOM      7  C1  UNL d   1       0.907  -0.204   3.557  0.00  0.00     0.055 C 
ATOM      8  C   UNL d   1       2.319  -0.666   3.227  0.00  0.00     0.019 C 
ENDBRANCH   1   7
TORSDOF 1
ENDMDL
