MODEL 1
REMARK minimizedAffinity -0.397777915
REMARK minimizedRMSD -1
REMARK  1 active torsions:
REMARK  status: ('A' for Active; 'I' for Inactive)
REMARK    1  A    between atoms: C1_2  and  C2_3 
ROOT
ATOM      1  C2  UNL d   1       0.547  -0.722   3.579  0.00  0.00    -0.073 A 
ATOM      2  C3  UNL d   1       1.482  -0.815   2.542  0.00  0.00    -0.002 A 
ATOM      3  C4  UNL d   1       1.120  -0.486   1.235  0.00  0.00     0.004 A 
ATOM      4  C5  UNL d   1      -0.175  -0.054   0.952  0.00  0.00    -0.004 A 
ATOM      5  C6  UNL d   1      -1.121   0.058   1.977  0.00  0.00    -0.075 A 
ATOM      6  C7  UNL d   1      -2.519   0.519   1.689  0.00  0.00     0.076 C 
ATOM      7  C8  UNL d   1      -0.751  -0.277   3.286  0.00  0.00     0.001 A 
ENDROOT
BRANCH   1   8
ATOM      8  C1  UNL d   1       0.934  -1.070   4.993  0.00  0.00     0.053 C 
ATOM      9  C   UNL d   1       2.130  -2.007   5.041  0.00  0.00     0.018 C 
ENDBRANCH   1   8
TORSDOF 1
ENDMDL
