MODEL 1
REMARK minimizedAffinity -0.657241285
REMARK minimizedRMSD -1
REMARK  1 active torsions:
REMARK  status: ('A' for Active; 'I' for Inactive)
REMARK    1  A    between atoms: C1_2  and  C2_3 
ROOT
ATOM      1  C2  UNL d   1       0.138  -1.298   3.567  0.00  0.00    -0.073 A 
ATOM      2  C3  UNL d   1       0.465  -0.578   2.413  0.00  0.00    -0.002 A 
ATOM      3  C4  UNL d   1      -0.540  -0.072   1.588  0.00  0.00     0.004 A 
ATOM      4  C5  UNL d   1      -1.882  -0.275   1.912  0.00  0.00    -0.004 A 
ATOM      5  C6  UNL d   1      -2.229  -0.981   3.068  0.00  0.00    -0.075 A 
ATOM      6  C7  UNL d   1      -3.668  -1.209   3.429  0.00  0.00     0.076 C 
ATOM      7  C8  UNL d   1      -1.214  -1.488   3.889  0.00  0.00     0.001 A 
ENDROOT
BRANCH   1   8
ATOM      8  C1  UNL d   1       1.220  -1.840   4.464  0.00  0.00     0.053 C 
ATOM      9  C   UNL d   1       2.610  -1.519   3.938  0.00  0.00     0.018 C 
ENDBRANCH   1   8
TORSDOF 1
ENDMDL
