MODEL 1
REMARK minimizedAffinity 1.53232777
REMARK minimizedRMSD -1
REMARK  1 active torsions:
REMARK  status: ('A' for Active; 'I' for Inactive)
REMARK    1  A    between atoms: C1_2  and  C2_3 
ROOT
ATOM      1  C2  UNL d   1      -2.127  -0.465   2.193  0.00  0.00    -0.073 A 
ATOM      2  C3  UNL d   1      -3.198  -1.213   2.696  0.00  0.00    -0.002 A 
ATOM      3  C4  UNL d   1      -3.034  -1.998   3.838  0.00  0.00     0.004 A 
ATOM      4  C5  UNL d   1      -1.803  -2.039   4.491  0.00  0.00    -0.004 A 
ATOM      5  C6  UNL d   1      -0.724  -1.290   4.011  0.00  0.00    -0.075 A 
ATOM      6  C7  UNL d   1       0.608  -1.325   4.701  0.00  0.00     0.076 C 
ATOM      7  C8  UNL d   1      -0.895  -0.506   2.862  0.00  0.00     0.001 A 
ENDROOT
BRANCH   1   8
ATOM      8  C1  UNL d   1      -2.301   0.390   0.964  0.00  0.00     0.053 C 
ATOM      9  C   UNL d   1      -2.094  -0.403  -0.316  0.00  0.00     0.018 C 
ENDBRANCH   1   8
TORSDOF 1
ENDMDL
