MODEL 1
REMARK minimizedAffinity 2.61563396
REMARK minimizedRMSD -1
REMARK  1 active torsions:
REMARK  status: ('A' for Active; 'I' for Inactive)
REMARK    1  A    between atoms: C1_2  and  C2_3 
ROOT
ATOM      1  C2  UNL d   1      -0.603  -0.433   1.757  0.00  0.00    -0.073 A 
ATOM      2  C3  UNL d   1       0.421  -0.299   0.813  0.00  0.00    -0.002 A 
ATOM      3  C4  UNL d   1       1.738  -0.611   1.152  0.00  0.00     0.004 A 
ATOM      4  C5  UNL d   1       2.044  -1.066   2.434  0.00  0.00    -0.004 A 
ATOM      5  C6  UNL d   1       1.033  -1.218   3.388  0.00  0.00    -0.075 A 
ATOM      6  C7  UNL d   1       1.346  -1.705   4.773  0.00  0.00     0.076 C 
ATOM      7  C8  UNL d   1      -0.287  -0.900   3.041  0.00  0.00     0.001 A 
ENDROOT
BRANCH   1   8
ATOM      8  C1  UNL d   1      -2.028  -0.103   1.394  0.00  0.00     0.053 C 
ATOM      9  C   UNL d   1      -2.264  -0.174  -0.106  0.00  0.00     0.018 C 
ENDBRANCH   1   8
TORSDOF 1
ENDMDL
