MODEL 1
REMARK minimizedAffinity -2.17392325
REMARK minimizedRMSD -1
REMARK  1 active torsions:
REMARK  status: ('A' for Active; 'I' for Inactive)
REMARK    1  A    between atoms: C1_2  and  C2_3 
ROOT
ATOM      1  C2  UNL d   1      -0.467  -0.344   2.146  0.00  0.00    -0.073 A 
ATOM      2  C3  UNL d   1       0.686  -0.507   1.369  0.00  0.00    -0.002 A 
ATOM      3  C4  UNL d   1       1.867  -0.971   1.949  0.00  0.00     0.004 A 
ATOM      4  C5  UNL d   1       1.906  -1.283   3.308  0.00  0.00    -0.004 A 
ATOM      5  C6  UNL d   1       0.761  -1.139   4.099  0.00  0.00    -0.075 A 
ATOM      6  C7  UNL d   1       0.787  -1.468   5.562  0.00  0.00     0.076 C 
ATOM      7  C8  UNL d   1      -0.421  -0.670   3.509  0.00  0.00     0.001 A 
ENDROOT
BRANCH   1   8
ATOM      8  C1  UNL d   1      -1.747   0.151   1.522  0.00  0.00     0.053 C 
ATOM      9  C   UNL d   1      -1.863  -0.255   0.062  0.00  0.00     0.018 C 
ENDBRANCH   1   8
TORSDOF 1
ENDMDL
