MODEL 1
REMARK minimizedAffinity 7.77118635
REMARK minimizedRMSD -1
REMARK  1 active torsions:
REMARK  status: ('A' for Active; 'I' for Inactive)
REMARK    1  A    between atoms: C1_2  and  C2_3 
ROOT
ATOM      1  C2  UNL d   1      -0.440  -0.504   2.851  0.00  0.00    -0.073 A 
ATOM      2  C3  UNL d   1       0.323  -0.342   1.689  0.00  0.00    -0.002 A 
ATOM      3  C4  UNL d   1       1.698  -0.580   1.710  0.00  0.00     0.004 A 
ATOM      4  C5  UNL d   1       2.322  -0.988   2.888  0.00  0.00    -0.004 A 
ATOM      5  C6  UNL d   1       1.575  -1.167   4.057  0.00  0.00    -0.075 A 
ATOM      6  C7  UNL d   1       2.232  -1.604   5.334  0.00  0.00     0.076 C 
ATOM      7  C8  UNL d   1       0.195  -0.923   4.029  0.00  0.00     0.001 A 
ENDROOT
BRANCH   1   8
ATOM      8  C1  UNL d   1      -1.926  -0.254   2.832  0.00  0.00     0.053 C 
ATOM      9  C   UNL d   1      -2.367   0.462   1.566  0.00  0.00     0.018 C 
ENDBRANCH   1   8
TORSDOF 1
ENDMDL
