MODEL 1
REMARK minimizedAffinity -1.95989072
REMARK minimizedRMSD -1
REMARK  1 active torsions:
REMARK  status: ('A' for Active; 'I' for Inactive)
REMARK    1  A    between atoms: C1_2  and  C2_3 
ROOT
ATOM      1  C2  UNL d   1      -1.849  -0.435   3.098  0.00  0.00    -0.073 A 
ATOM      2  C3  UNL d   1      -2.760  -1.197   3.839  0.00  0.00    -0.002 A 
ATOM      3  C4  UNL d   1      -2.304  -2.101   4.800  0.00  0.00     0.004 A 
ATOM      4  C5  UNL d   1      -0.937  -2.247   5.034  0.00  0.00    -0.004 A 
ATOM      5  C6  UNL d   1      -0.012  -1.487   4.311  0.00  0.00    -0.075 A 
ATOM      6  C7  UNL d   1       1.462  -1.634   4.550  0.00  0.00     0.076 C 
ATOM      7  C8  UNL d   1      -0.477  -0.583   3.346  0.00  0.00     0.001 A 
ENDROOT
BRANCH   1   8
ATOM      8  C1  UNL d   1      -2.336   0.547   2.064  0.00  0.00     0.053 C 
ATOM      9  C   UNL d   1      -2.326  -0.047   0.664  0.00  0.00     0.018 C 
ENDBRANCH   1   8
TORSDOF 1
ENDMDL
