MODEL 1
REMARK minimizedAffinity 3.23989749
REMARK minimizedRMSD -1
REMARK  1 active torsions:
REMARK  status: ('A' for Active; 'I' for Inactive)
REMARK    1  A    between atoms: C1_2  and  C2_3 
ROOT
ATOM      1  C2  UNL d   1      -0.403  -0.499   2.494  0.00  0.00    -0.073 A 
ATOM      2  C3  UNL d   1       0.678  -0.433   1.608  0.00  0.00    -0.002 A 
ATOM      3  C4  UNL d   1       1.962  -0.773   2.036  0.00  0.00     0.004 A 
ATOM      4  C5  UNL d   1       2.177  -1.190   3.350  0.00  0.00    -0.004 A 
ATOM      5  C6  UNL d   1       1.107  -1.274   4.247  0.00  0.00    -0.075 A 
ATOM      6  C7  UNL d   1       1.321  -1.718   5.664  0.00  0.00     0.076 C 
ATOM      7  C8  UNL d   1      -0.179  -0.928   3.810  0.00  0.00     0.001 A 
ENDROOT
BRANCH   1   8
ATOM      8  C1  UNL d   1      -1.792  -0.139   2.034  0.00  0.00     0.053 C 
ATOM      9  C   UNL d   1      -1.845   0.134   0.539  0.00  0.00     0.018 C 
ENDBRANCH   1   8
TORSDOF 1
ENDMDL
