MODEL 1
REMARK minimizedAffinity -3.75060105
REMARK minimizedRMSD -1
REMARK  1 active torsions:
REMARK  status: ('A' for Active; 'I' for Inactive)
REMARK    1  A    between atoms: C1_2  and  C2_3 
ROOT
ATOM      1  C2  UNL d   1       1.482  -1.110   3.522  0.00  0.00    -0.073 A 
ATOM      2  C3  UNL d   1       2.119  -0.935   2.288  0.00  0.00    -0.002 A 
ATOM      3  C4  UNL d   1       1.440  -0.346   1.221  0.00  0.00     0.004 A 
ATOM      4  C5  UNL d   1       0.121   0.081   1.378  0.00  0.00    -0.004 A 
ATOM      5  C6  UNL d   1      -0.529  -0.073   2.607  0.00  0.00    -0.075 A 
ATOM      6  C7  UNL d   1      -1.947   0.379   2.791  0.00  0.00     0.076 C 
ATOM      7  C8  UNL d   1       0.159  -0.668   3.673  0.00  0.00     0.001 A 
ENDROOT
BRANCH   1   8
ATOM      8  C1  UNL d   1       2.213  -1.740   4.679  0.00  0.00     0.053 C 
ATOM      9  C   UNL d   1       1.878  -1.066   6.000  0.00  0.00     0.018 C 
ENDBRANCH   1   8
TORSDOF 1
ENDMDL
