MODEL 1
REMARK minimizedAffinity -3.2909677
REMARK minimizedRMSD -1
REMARK  0 active torsions:
REMARK  status: ('A' for Active; 'I' for Inactive)
ROOT
ATOM      1  C   UNL d   1       1.237   1.176  -0.113  0.00  0.00     0.124 A 
ATOM      2  C1  UNL d   1       0.826  -0.149  -0.063  0.00  0.00     0.062 A 
ATOM      3  C2  UNL d   1      -0.419  -0.476   0.469  0.00  0.00     0.162 A 
ATOM      4  C3  UNL d   1      -1.261   0.524   0.954  0.00  0.00    -0.034 A 
ATOM      5  C4  UNL d   1      -0.840   1.854   0.901  0.00  0.00     0.162 A 
ATOM      6  C5  UNL d   1       0.404   2.176   0.369  0.00  0.00     0.062 A 
ATOM      7  F   UNL d   1       0.800   3.456   0.321  0.00  0.00    -0.097 F 
ATOM      8  F1  UNL d   1      -1.625   2.840   1.359  0.00  0.00    -0.096 F 
ATOM      9  I   UNL d   1      -3.122   0.040   1.749  0.00  0.00    -0.060 I 
ATOM     10  F2  UNL d   1      -0.790  -1.764   0.504  0.00  0.00    -0.096 F 
ATOM     11  F3  UNL d   1       1.629  -1.117  -0.527  0.00  0.00    -0.097 F 
ATOM     12  F4  UNL d   1       2.435   1.487  -0.624  0.00  0.00    -0.092 F 
ENDROOT
TORSDOF 0
ENDMDL
