MODEL 1
REMARK minimizedAffinity -3.43918681
REMARK minimizedRMSD -1
REMARK  0 active torsions:
REMARK  status: ('A' for Active; 'I' for Inactive)
ROOT
ATOM      1  C   UNL d   1       0.363   1.916   0.628  0.00  0.00     0.124 A 
ATOM      2  C1  UNL d   1      -0.953   1.624   0.299  0.00  0.00     0.062 A 
ATOM      3  C2  UNL d   1      -1.321   0.322  -0.028  0.00  0.00     0.162 A 
ATOM      4  C3  UNL d   1      -0.370  -0.699  -0.028  0.00  0.00    -0.034 A 
ATOM      5  C4  UNL d   1       0.952  -0.398   0.303  0.00  0.00     0.162 A 
ATOM      6  C5  UNL d   1       1.315   0.905   0.629  0.00  0.00     0.062 A 
ATOM      7  F   UNL d   1       2.587   1.185   0.947  0.00  0.00    -0.097 F 
ATOM      8  F1  UNL d   1       1.892  -1.355   0.314  0.00  0.00    -0.096 F 
ATOM      9  I   UNL d   1      -0.915  -2.647  -0.516  0.00  0.00    -0.060 I 
ATOM     10  F2  UNL d   1      -2.600   0.068  -0.342  0.00  0.00    -0.096 F 
ATOM     11  F3  UNL d   1      -1.874   2.598   0.296  0.00  0.00    -0.097 F 
ATOM     12  F4  UNL d   1       0.714   3.169   0.941  0.00  0.00    -0.092 F 
ENDROOT
TORSDOF 0
ENDMDL
