MODEL 1
REMARK minimizedAffinity 1.01295269
REMARK minimizedRMSD -1
REMARK  0 active torsions:
REMARK  status: ('A' for Active; 'I' for Inactive)
ROOT
ATOM      1  C   UNL d   1       1.271  -1.752  -0.034  0.00  0.00     0.124 A 
ATOM      2  C1  UNL d   1      -0.026  -1.315  -0.263  0.00  0.00     0.062 A 
ATOM      3  C2  UNL d   1      -0.328   0.043  -0.206  0.00  0.00     0.162 A 
ATOM      4  C3  UNL d   1       0.671   0.974   0.080  0.00  0.00    -0.034 A 
ATOM      5  C4  UNL d   1       1.973   0.526   0.311  0.00  0.00     0.162 A 
ATOM      6  C5  UNL d   1       2.269  -0.832   0.253  0.00  0.00     0.062 A 
ATOM      7  F   UNL d   1       3.523  -1.252   0.475  0.00  0.00    -0.097 F 
ATOM      8  F1  UNL d   1       2.957   1.394   0.589  0.00  0.00    -0.096 F 
ATOM      9  I   UNL d   1       0.224   3.005   0.166  0.00  0.00    -0.060 I 
ATOM     10  F2  UNL d   1      -1.590   0.437  -0.432  0.00  0.00    -0.096 F 
ATOM     11  F3  UNL d   1      -0.992  -2.203  -0.540  0.00  0.00    -0.097 F 
ATOM     12  F4  UNL d   1       1.558  -3.059  -0.089  0.00  0.00    -0.092 F 
ENDROOT
TORSDOF 0
ENDMDL
