MODEL 1
REMARK minimizedAffinity -4.78212738
REMARK minimizedRMSD -1
REMARK  0 active torsions:
REMARK  status: ('A' for Active; 'I' for Inactive)
ROOT
ATOM      1  C   UNL d   1       1.308   3.056   0.559  0.00  0.00     0.124 A 
ATOM      2  C1  UNL d   1      -0.028   2.759   0.327  0.00  0.00     0.062 A 
ATOM      3  C2  UNL d   1      -0.439   1.434   0.207  0.00  0.00     0.162 A 
ATOM      4  C3  UNL d   1       0.487   0.397   0.320  0.00  0.00    -0.034 A 
ATOM      5  C4  UNL d   1       1.828   0.704   0.552  0.00  0.00     0.162 A 
ATOM      6  C5  UNL d   1       2.234   2.030   0.671  0.00  0.00     0.062 A 
ATOM      7  F   UNL d   1       3.525   2.315   0.894  0.00  0.00    -0.097 F 
ATOM      8  F1  UNL d   1       2.745  -0.268   0.665  0.00  0.00    -0.096 F 
ATOM      9  I   UNL d   1      -0.124  -1.585   0.141  0.00  0.00    -0.060 I 
ATOM     10  F2  UNL d   1      -1.736   1.176  -0.016  0.00  0.00    -0.096 F 
ATOM     11  F3  UNL d   1      -0.925   3.749   0.218  0.00  0.00    -0.097 F 
ATOM     12  F4  UNL d   1       1.701   4.332   0.673  0.00  0.00    -0.092 F 
ENDROOT
TORSDOF 0
ENDMDL
