MODEL 1
REMARK minimizedAffinity 0.936703682
REMARK minimizedRMSD -1
REMARK  0 active torsions:
REMARK  status: ('A' for Active; 'I' for Inactive)
ROOT
ATOM      1  C   UNL d   1      -0.177   0.151   0.687  0.00  0.00     0.124 A 
ATOM      2  C1  UNL d   1      -0.801  -1.070   0.902  0.00  0.00     0.062 A 
ATOM      3  C2  UNL d   1      -0.711  -2.080  -0.052  0.00  0.00     0.162 A 
ATOM      4  C3  UNL d   1       0.006  -1.873  -1.230  0.00  0.00    -0.034 A 
ATOM      5  C4  UNL d   1       0.630  -0.642  -1.440  0.00  0.00     0.162 A 
ATOM      6  C5  UNL d   1       0.538   0.364  -0.484  0.00  0.00     0.062 A 
ATOM      7  F   UNL d   1       1.141   1.543  -0.694  0.00  0.00    -0.097 F 
ATOM      8  F1  UNL d   1       1.328  -0.410  -2.562  0.00  0.00    -0.096 F 
ATOM      9  I   UNL d   1       0.143  -3.381  -2.659  0.00  0.00    -0.060 I 
ATOM     10  F2  UNL d   1      -1.324  -3.250   0.183  0.00  0.00    -0.096 F 
ATOM     11  F3  UNL d   1      -1.493  -1.278   2.032  0.00  0.00    -0.097 F 
ATOM     12  F4  UNL d   1      -0.266   1.121   1.606  0.00  0.00    -0.092 F 
ENDROOT
TORSDOF 0
ENDMDL
