MODEL 1
REMARK minimizedAffinity -0.661371529
REMARK minimizedRMSD -1
REMARK  0 active torsions:
REMARK  status: ('A' for Active; 'I' for Inactive)
ROOT
ATOM      1  C   UNL d   1      -1.155   2.290   0.132  0.00  0.00     0.124 A 
ATOM      2  C1  UNL d   1       0.221   2.332  -0.051  0.00  0.00     0.062 A 
ATOM      3  C2  UNL d   1       0.967   1.158  -0.025  0.00  0.00     0.162 A 
ATOM      4  C3  UNL d   1       0.340  -0.070   0.184  0.00  0.00    -0.034 A 
ATOM      5  C4  UNL d   1      -1.043  -0.105   0.369  0.00  0.00     0.162 A 
ATOM      6  C5  UNL d   1      -1.785   1.071   0.342  0.00  0.00     0.062 A 
ATOM      7  F   UNL d   1      -3.114   1.028   0.520  0.00  0.00    -0.097 F 
ATOM      8  F1  UNL d   1      -1.678  -1.269   0.573  0.00  0.00    -0.096 F 
ATOM      9  I   UNL d   1       1.453  -1.829   0.223  0.00  0.00    -0.060 I 
ATOM     10  F2  UNL d   1       2.294   1.229  -0.206  0.00  0.00    -0.096 F 
ATOM     11  F3  UNL d   1       0.832   3.508  -0.254  0.00  0.00    -0.097 F 
ATOM     12  F4  UNL d   1      -1.870   3.421   0.108  0.00  0.00    -0.092 F 
ENDROOT
TORSDOF 0
ENDMDL
