MODEL 1
REMARK minimizedAffinity -2.56876516
REMARK minimizedRMSD -1
REMARK  0 active torsions:
REMARK  status: ('A' for Active; 'I' for Inactive)
ROOT
ATOM      1  C   UNL d   1      -0.707  -0.278   0.199  0.00  0.00     0.124 A 
ATOM      2  C1  UNL d   1      -1.217   0.941   0.623  0.00  0.00     0.062 A 
ATOM      3  C2  UNL d   1      -0.363   1.923   1.118  0.00  0.00     0.162 A 
ATOM      4  C3  UNL d   1       1.010   1.690   1.191  0.00  0.00    -0.034 A 
ATOM      5  C4  UNL d   1       1.516   0.461   0.764  0.00  0.00     0.162 A 
ATOM      6  C5  UNL d   1       0.659  -0.517   0.270  0.00  0.00     0.062 A 
ATOM      7  F   UNL d   1       1.153  -1.694  -0.140  0.00  0.00    -0.097 F 
ATOM      8  F1  UNL d   1       2.831   0.204   0.820  0.00  0.00    -0.096 F 
ATOM      9  I   UNL d   1       2.289   3.155   1.931  0.00  0.00    -0.060 I 
ATOM     10  F2  UNL d   1      -0.884   3.091   1.521  0.00  0.00    -0.096 F 
ATOM     11  F3  UNL d   1      -2.536   1.174   0.557  0.00  0.00    -0.097 F 
ATOM     12  F4  UNL d   1      -1.530  -1.222  -0.276  0.00  0.00    -0.092 F 
ENDROOT
TORSDOF 0
ENDMDL
