MODEL 1
REMARK minimizedAffinity -1.90288961
REMARK minimizedRMSD -1
REMARK  0 active torsions:
REMARK  status: ('A' for Active; 'I' for Inactive)
ROOT
ATOM      1  C   UNL d   1      -1.265   0.797   0.351  0.00  0.00     0.124 A 
ATOM      2  C1  UNL d   1      -0.419  -0.295   0.488  0.00  0.00     0.062 A 
ATOM      3  C2  UNL d   1       0.945  -0.158   0.249  0.00  0.00     0.162 A 
ATOM      4  C3  UNL d   1       1.473   1.076  -0.130  0.00  0.00    -0.034 A 
ATOM      5  C4  UNL d   1       0.616   2.170  -0.267  0.00  0.00     0.162 A 
ATOM      6  C5  UNL d   1      -0.747   2.028  -0.027  0.00  0.00     0.062 A 
ATOM      7  F   UNL d   1      -1.562   3.084  -0.161  0.00  0.00    -0.097 F 
ATOM      8  F1  UNL d   1       1.091   3.371  -0.630  0.00  0.00    -0.096 F 
ATOM      9  I   UNL d   1       3.513   1.285  -0.488  0.00  0.00    -0.060 I 
ATOM     10  F2  UNL d   1       1.739  -1.230   0.390  0.00  0.00    -0.096 F 
ATOM     11  F3  UNL d   1      -0.918  -1.485   0.852  0.00  0.00    -0.097 F 
ATOM     12  F4  UNL d   1      -2.577   0.663   0.580  0.00  0.00    -0.092 F 
ENDROOT
TORSDOF 0
ENDMDL
