MODEL 1
REMARK minimizedAffinity -2.61075068
REMARK minimizedRMSD -1
REMARK  0 active torsions:
REMARK  status: ('A' for Active; 'I' for Inactive)
ROOT
ATOM      1  C   UNL d   1       2.351  -0.749   0.587  0.00  0.00     0.124 A 
ATOM      2  C1  UNL d   1       2.381   0.586   0.207  0.00  0.00     0.062 A 
ATOM      3  C2  UNL d   1       1.195   1.306   0.086  0.00  0.00     0.162 A 
ATOM      4  C3  UNL d   1      -0.030   0.693   0.348  0.00  0.00    -0.034 A 
ATOM      5  C4  UNL d   1      -0.052  -0.650   0.729  0.00  0.00     0.162 A 
ATOM      6  C5  UNL d   1       1.135  -1.365   0.848  0.00  0.00     0.062 A 
ATOM      7  F   UNL d   1       1.105  -2.654   1.216  0.00  0.00    -0.097 F 
ATOM      8  F1  UNL d   1      -1.212  -1.270   0.988  0.00  0.00    -0.096 F 
ATOM      9  I   UNL d   1      -1.804   1.766   0.169  0.00  0.00    -0.060 I 
ATOM     10  F2  UNL d   1       1.254   2.594  -0.283  0.00  0.00    -0.096 F 
ATOM     11  F3  UNL d   1       3.554   1.184  -0.046  0.00  0.00    -0.097 F 
ATOM     12  F4  UNL d   1       3.493  -1.439   0.702  0.00  0.00    -0.092 F 
ENDROOT
TORSDOF 0
ENDMDL
