MODEL 1
REMARK minimizedAffinity -2.75130057
REMARK minimizedRMSD -1
REMARK  0 active torsions:
REMARK  status: ('A' for Active; 'I' for Inactive)
ROOT
ATOM      1  C   UNL d   1       0.153   2.133  -0.065  0.00  0.00     0.124 A 
ATOM      2  C1  UNL d   1       1.091   1.151  -0.353  0.00  0.00     0.062 A 
ATOM      3  C2  UNL d   1       0.707  -0.185  -0.427  0.00  0.00     0.162 A 
ATOM      4  C3  UNL d   1      -0.624  -0.547  -0.214  0.00  0.00    -0.034 A 
ATOM      5  C4  UNL d   1      -1.561   0.446   0.075  0.00  0.00     0.162 A 
ATOM      6  C5  UNL d   1      -1.172   1.780   0.148  0.00  0.00     0.062 A 
ATOM      7  F   UNL d   1      -2.079   2.727   0.426  0.00  0.00    -0.097 F 
ATOM      8  F1  UNL d   1      -2.848   0.133   0.285  0.00  0.00    -0.096 F 
ATOM      9  I   UNL d   1      -1.203  -2.542  -0.325  0.00  0.00    -0.060 I 
ATOM     10  F2  UNL d   1       1.634  -1.112  -0.707  0.00  0.00    -0.096 F 
ATOM     11  F3  UNL d   1       2.372   1.489  -0.559  0.00  0.00    -0.097 F 
ATOM     12  F4  UNL d   1       0.526   3.417   0.006  0.00  0.00    -0.092 F 
ENDROOT
TORSDOF 0
ENDMDL
