MODEL 1
REMARK minimizedAffinity -0.85083276
REMARK minimizedRMSD -1
REMARK  0 active torsions:
REMARK  status: ('A' for Active; 'I' for Inactive)
ROOT
ATOM      1  C   UNL d   1       0.292   2.362   0.108  0.00  0.00     0.124 A 
ATOM      2  C1  UNL d   1       1.233   1.444  -0.339  0.00  0.00     0.062 A 
ATOM      3  C2  UNL d   1       0.899   0.098  -0.452  0.00  0.00     0.162 A 
ATOM      4  C3  UNL d   1      -0.382  -0.340  -0.118  0.00  0.00    -0.034 A 
ATOM      5  C4  UNL d   1      -1.323   0.589   0.332  0.00  0.00     0.162 A 
ATOM      6  C5  UNL d   1      -0.984   1.933   0.443  0.00  0.00     0.062 A 
ATOM      7  F   UNL d   1      -1.894   2.818   0.876  0.00  0.00    -0.097 F 
ATOM      8  F1  UNL d   1      -2.564   0.202   0.662  0.00  0.00    -0.096 F 
ATOM      9  I   UNL d   1      -0.886  -2.352  -0.285  0.00  0.00    -0.060 I 
ATOM     10  F2  UNL d   1       1.828  -0.766  -0.887  0.00  0.00    -0.096 F 
ATOM     11  F3  UNL d   1       2.468   1.856  -0.663  0.00  0.00    -0.097 F 
ATOM     12  F4  UNL d   1       0.617   3.657   0.217  0.00  0.00    -0.092 F 
ENDROOT
TORSDOF 0
ENDMDL
