MODEL 1
REMARK minimizedAffinity -0.06912449
REMARK minimizedRMSD -1
REMARK  0 active torsions:
REMARK  status: ('A' for Active; 'I' for Inactive)
ROOT
ATOM      1  C   UNL d   1       0.779  -1.683   0.388  0.00  0.00     0.124 A 
ATOM      2  C1  UNL d   1      -0.502  -1.181   0.200  0.00  0.00     0.062 A 
ATOM      3  C2  UNL d   1      -0.706   0.190   0.083  0.00  0.00     0.162 A 
ATOM      4  C3  UNL d   1       0.374   1.071   0.152  0.00  0.00    -0.034 A 
ATOM      5  C4  UNL d   1       1.658   0.559   0.341  0.00  0.00     0.162 A 
ATOM      6  C5  UNL d   1       1.857  -0.813   0.458  0.00  0.00     0.062 A 
ATOM      7  F   UNL d   1       3.095  -1.296   0.639  0.00  0.00    -0.097 F 
ATOM      8  F1  UNL d   1       2.719   1.377   0.412  0.00  0.00    -0.096 F 
ATOM      9  I   UNL d   1       0.072   3.123  -0.024  0.00  0.00    -0.060 I 
ATOM     10  F2  UNL d   1      -1.954   0.647  -0.098  0.00  0.00    -0.096 F 
ATOM     11  F3  UNL d   1      -1.546  -2.020   0.133  0.00  0.00    -0.097 F 
ATOM     12  F4  UNL d   1       0.972  -3.003   0.502  0.00  0.00    -0.092 F 
ENDROOT
TORSDOF 0
ENDMDL
