MODEL 1
REMARK minimizedAffinity -4.18814373
REMARK minimizedRMSD -1
REMARK  0 active torsions:
REMARK  status: ('A' for Active; 'I' for Inactive)
ROOT
ATOM      1  C   UNL d   1       0.073   2.204   0.255  0.00  0.00     0.124 A 
ATOM      2  C1  UNL d   1      -1.227   1.736   0.387  0.00  0.00     0.062 A 
ATOM      3  C2  UNL d   1      -1.535   0.422   0.051  0.00  0.00     0.162 A 
ATOM      4  C3  UNL d   1      -0.541  -0.436  -0.421  0.00  0.00    -0.034 A 
ATOM      5  C4  UNL d   1       0.764   0.042  -0.552  0.00  0.00     0.162 A 
ATOM      6  C5  UNL d   1       1.067   1.357  -0.214  0.00  0.00     0.062 A 
ATOM      7  F   UNL d   1       2.324   1.808  -0.343  0.00  0.00    -0.097 F 
ATOM      8  F1  UNL d   1       1.744  -0.755  -1.002  0.00  0.00    -0.096 F 
ATOM      9  I   UNL d   1      -0.998  -2.403  -0.925  0.00  0.00    -0.060 I 
ATOM     10  F2  UNL d   1      -2.800  -0.004   0.188  0.00  0.00    -0.096 F 
ATOM     11  F3  UNL d   1      -2.189   2.553   0.840  0.00  0.00    -0.097 F 
ATOM     12  F4  UNL d   1       0.367   3.470   0.579  0.00  0.00    -0.092 F 
ENDROOT
TORSDOF 0
ENDMDL
