MODEL 1
REMARK minimizedAffinity -2.91199565
REMARK minimizedRMSD -1
REMARK  0 active torsions:
REMARK  status: ('A' for Active; 'I' for Inactive)
ROOT
ATOM      1  C   UNL d   1       0.830   2.240   0.673  0.00  0.00     0.124 A 
ATOM      2  C1  UNL d   1       1.776   1.224   0.694  0.00  0.00     0.062 A 
ATOM      3  C2  UNL d   1       1.406  -0.083   0.390  0.00  0.00     0.162 A 
ATOM      4  C3  UNL d   1       0.083  -0.382   0.061  0.00  0.00    -0.034 A 
ATOM      5  C4  UNL d   1      -0.862   0.645   0.043  0.00  0.00     0.162 A 
ATOM      6  C5  UNL d   1      -0.487   1.950   0.347  0.00  0.00     0.062 A 
ATOM      7  F   UNL d   1      -1.402   2.930   0.327  0.00  0.00    -0.097 F 
ATOM      8  F1  UNL d   1      -2.142   0.393  -0.269  0.00  0.00    -0.096 F 
ATOM      9  I   UNL d   1      -0.474  -2.335  -0.393  0.00  0.00    -0.060 I 
ATOM     10  F2  UNL d   1       2.340  -1.045   0.418  0.00  0.00    -0.096 F 
ATOM     11  F3  UNL d   1       3.049   1.501   1.009  0.00  0.00    -0.097 F 
ATOM     12  F4  UNL d   1       1.189   3.496   0.966  0.00  0.00    -0.092 F 
ENDROOT
TORSDOF 0
ENDMDL
