MODEL 1
REMARK minimizedAffinity -0.803711951
REMARK minimizedRMSD -1
REMARK  0 active torsions:
REMARK  status: ('A' for Active; 'I' for Inactive)
ROOT
ATOM      1  C   UNL d   1      -0.596   2.131   0.384  0.00  0.00     0.124 A 
ATOM      2  C1  UNL d   1       0.752   1.986   0.087  0.00  0.00     0.062 A 
ATOM      3  C2  UNL d   1       1.295   0.719  -0.103  0.00  0.00     0.162 A 
ATOM      4  C3  UNL d   1       0.489  -0.415   0.002  0.00  0.00    -0.034 A 
ATOM      5  C4  UNL d   1      -0.866  -0.261   0.301  0.00  0.00     0.162 A 
ATOM      6  C5  UNL d   1      -1.403   1.008   0.491  0.00  0.00     0.062 A 
ATOM      7  F   UNL d   1      -2.706   1.146   0.778  0.00  0.00    -0.097 F 
ATOM      8  F1  UNL d   1      -1.670  -1.330   0.410  0.00  0.00    -0.096 F 
ATOM      9  I   UNL d   1       1.296  -2.312  -0.282  0.00  0.00    -0.060 I 
ATOM     10  F2  UNL d   1       2.601   0.608  -0.389  0.00  0.00    -0.096 F 
ATOM     11  F3  UNL d   1       1.535   3.070  -0.016  0.00  0.00    -0.097 F 
ATOM     12  F4  UNL d   1      -1.115   3.352   0.568  0.00  0.00    -0.092 F 
ENDROOT
TORSDOF 0
ENDMDL
