MODEL 1
REMARK minimizedAffinity -0.811885715
REMARK minimizedRMSD -1
REMARK  0 active torsions:
REMARK  status: ('A' for Active; 'I' for Inactive)
ROOT
ATOM      1  C   UNL d   1       0.049   1.471   0.739  0.00  0.00     0.124 A 
ATOM      2  C1  UNL d   1       0.651   1.533  -0.510  0.00  0.00     0.062 A 
ATOM      3  C2  UNL d   1       0.631   0.426  -1.353  0.00  0.00     0.162 A 
ATOM      4  C3  UNL d   1       0.007  -0.755  -0.949  0.00  0.00    -0.034 A 
ATOM      5  C4  UNL d   1      -0.595  -0.810   0.309  0.00  0.00     0.162 A 
ATOM      6  C5  UNL d   1      -0.573   0.300   1.147  0.00  0.00     0.062 A 
ATOM      7  F   UNL d   1      -1.155   0.237   2.354  0.00  0.00    -0.097 F 
ATOM      8  F1  UNL d   1      -1.204  -1.929   0.728  0.00  0.00    -0.096 F 
ATOM      9  I   UNL d   1      -0.025  -2.413  -2.206  0.00  0.00    -0.060 I 
ATOM     10  F2  UNL d   1       1.221   0.514  -2.554  0.00  0.00    -0.096 F 
ATOM     11  F3  UNL d   1       1.254   2.664  -0.907  0.00  0.00    -0.097 F 
ATOM     12  F4  UNL d   1       0.071   2.538   1.548  0.00  0.00    -0.092 F 
ENDROOT
TORSDOF 0
ENDMDL
