MODEL 1
REMARK minimizedAffinity -3.39589453
REMARK minimizedRMSD -1
REMARK  0 active torsions:
REMARK  status: ('A' for Active; 'I' for Inactive)
ROOT
ATOM      1  C   UNL d   1       0.592   2.076   0.742  0.00  0.00     0.124 A 
ATOM      2  C1  UNL d   1       1.522   1.052   0.626  0.00  0.00     0.062 A 
ATOM      3  C2  UNL d   1       1.106  -0.239   0.311  0.00  0.00     0.162 A 
ATOM      4  C3  UNL d   1      -0.247  -0.513   0.110  0.00  0.00    -0.034 A 
ATOM      5  C4  UNL d   1      -1.176   0.522   0.230  0.00  0.00     0.162 A 
ATOM      6  C5  UNL d   1      -0.755   1.810   0.545  0.00  0.00     0.062 A 
ATOM      7  F   UNL d   1      -1.655   2.798   0.657  0.00  0.00    -0.097 F 
ATOM      8  F1  UNL d   1      -2.484   0.293   0.043  0.00  0.00    -0.096 F 
ATOM      9  I   UNL d   1      -0.872  -2.441  -0.361  0.00  0.00    -0.060 I 
ATOM     10  F2  UNL d   1       2.026  -1.209   0.204  0.00  0.00    -0.096 F 
ATOM     11  F3  UNL d   1       2.824   1.306   0.817  0.00  0.00    -0.097 F 
ATOM     12  F4  UNL d   1       0.995   3.316   1.046  0.00  0.00    -0.092 F 
ENDROOT
TORSDOF 0
ENDMDL
