MODEL 1
REMARK minimizedAffinity -2.16417956
REMARK minimizedRMSD -1
REMARK  0 active torsions:
REMARK  status: ('A' for Active; 'I' for Inactive)
ROOT
ATOM      1  C   UNL d   1       1.306   2.314   1.154  0.00  0.00     0.124 A 
ATOM      2  C1  UNL d   1       2.113   1.188   1.241  0.00  0.00     0.062 A 
ATOM      3  C2  UNL d   1       1.611  -0.062   0.890  0.00  0.00     0.162 A 
ATOM      4  C3  UNL d   1       0.295  -0.193   0.446  0.00  0.00    -0.034 A 
ATOM      5  C4  UNL d   1      -0.510   0.944   0.362  0.00  0.00     0.162 A 
ATOM      6  C5  UNL d   1      -0.004   2.191   0.714  0.00  0.00     0.062 A 
ATOM      7  F   UNL d   1      -0.786   3.278   0.629  0.00  0.00    -0.097 F 
ATOM      8  F1  UNL d   1      -1.780   0.854  -0.061  0.00  0.00    -0.096 F 
ATOM      9  I   UNL d   1      -0.458  -2.060  -0.080  0.00  0.00    -0.060 I 
ATOM     10  F2  UNL d   1       2.414  -1.133   0.984  0.00  0.00    -0.096 F 
ATOM     11  F3  UNL d   1       3.379   1.304   1.667  0.00  0.00    -0.097 F 
ATOM     12  F4  UNL d   1       1.791   3.515   1.494  0.00  0.00    -0.092 F 
ENDROOT
TORSDOF 0
ENDMDL
