MODEL 1
REMARK minimizedAffinity 4.65684366
REMARK minimizedRMSD -1
REMARK  0 active torsions:
REMARK  status: ('A' for Active; 'I' for Inactive)
ROOT
ATOM      1  C   UNL d   1       0.759   1.856   0.803  0.00  0.00    -0.002 A 
ATOM      2  C1  UNL d   1       0.845   0.507   1.116  0.00  0.00     0.010 A 
ATOM      3  C2  UNL d   1      -0.187  -0.129   1.809  0.00  0.00     0.041 A 
ATOM      4  C3  UNL d   1      -1.320   0.621   2.183  0.00  0.00    -0.075 A 
ATOM      5  S   UNL d   1      -2.706   0.054   3.037  0.00  0.00     0.015 SA
ATOM      6  C4  UNL d   1      -3.447   1.589   3.004  0.00  0.00     0.022 A 
ATOM      7  C5  UNL d   1      -2.668   2.523   2.362  0.00  0.00     0.026 A 
ATOM      8  C6  UNL d   1      -1.430   1.981   1.878  0.00  0.00    -0.082 A 
ATOM      9  C7  UNL d   1      -0.366   2.597   1.176  0.00  0.00     0.045 A 
ENDROOT
TORSDOF 0
ENDMDL
