MODEL 1
REMARK minimizedAffinity 12.8061705
REMARK minimizedRMSD -1
REMARK  0 active torsions:
REMARK  status: ('A' for Active; 'I' for Inactive)
ROOT
ATOM      1  C   UNL d   1       2.643  -2.154  -1.140  0.00  0.00    -0.002 A 
ATOM      2  C1  UNL d   1       2.448  -2.650  -2.421  0.00  0.00     0.010 A 
ATOM      3  C2  UNL d   1       1.413  -3.548  -2.685  0.00  0.00     0.041 A 
ATOM      4  C3  UNL d   1       0.567  -3.942  -1.630  0.00  0.00    -0.075 A 
ATOM      5  S   UNL d   1      -0.767  -5.031  -1.718  0.00  0.00     0.015 SA
ATOM      6  C4  UNL d   1      -1.111  -4.863  -0.057  0.00  0.00     0.022 A 
ATOM      7  C5  UNL d   1      -0.238  -4.001   0.565  0.00  0.00     0.026 A 
ATOM      8  C6  UNL d   1       0.742  -3.456  -0.331  0.00  0.00    -0.082 A 
ATOM      9  C7  UNL d   1       1.802  -2.548  -0.095  0.00  0.00     0.045 A 
ENDROOT
TORSDOF 0
ENDMDL
