MODEL 1
REMARK minimizedAffinity 4.12504816
REMARK minimizedRMSD -1
REMARK  0 active torsions:
REMARK  status: ('A' for Active; 'I' for Inactive)
ROOT
ATOM      1  C   UNL d   1      -3.926  -2.279  -2.469  0.00  0.00    -0.002 A 
ATOM      2  C1  UNL d   1      -2.633  -2.767  -2.336  0.00  0.00     0.010 A 
ATOM      3  C2  UNL d   1      -2.381  -3.916  -1.584  0.00  0.00     0.041 A 
ATOM      4  C3  UNL d   1      -3.461  -4.575  -0.964  0.00  0.00    -0.075 A 
ATOM      5  S   UNL d   1      -3.392  -6.000   0.004  0.00  0.00     0.015 SA
ATOM      6  C4  UNL d   1      -5.076  -5.996   0.263  0.00  0.00     0.022 A 
ATOM      7  C5  UNL d   1      -5.692  -4.940  -0.366  0.00  0.00     0.026 A 
ATOM      8  C6  UNL d   1      -4.772  -4.104  -1.084  0.00  0.00    -0.082 A 
ATOM      9  C7  UNL d   1      -4.994  -2.936  -1.852  0.00  0.00     0.045 A 
ENDROOT
TORSDOF 0
ENDMDL
