MODEL 1
REMARK minimizedAffinity 1.30639303
REMARK minimizedRMSD -1
REMARK  0 active torsions:
REMARK  status: ('A' for Active; 'I' for Inactive)
ROOT
ATOM      1  C   UNL d   1       3.125   0.618  -1.425  0.00  0.00    -0.002 A 
ATOM      2  C1  UNL d   1       3.429  -0.528  -0.704  0.00  0.00     0.010 A 
ATOM      3  C2  UNL d   1       2.657  -0.900   0.398  0.00  0.00     0.041 A 
ATOM      4  C3  UNL d   1       1.562  -0.093   0.766  0.00  0.00    -0.075 A 
ATOM      5  S   UNL d   1       0.475  -0.352   2.079  0.00  0.00     0.015 SA
ATOM      6  C4  UNL d   1      -0.419   1.052   1.713  0.00  0.00     0.022 A 
ATOM      7  C5  UNL d   1       0.086   1.714   0.619  0.00  0.00     0.026 A 
ATOM      8  C6  UNL d   1       1.235   1.065   0.055  0.00  0.00    -0.082 A 
ATOM      9  C7  UNL d   1       2.038   1.415  -1.057  0.00  0.00     0.045 A 
ENDROOT
TORSDOF 0
ENDMDL
