MODEL 1
REMARK minimizedAffinity 5.25618458
REMARK minimizedRMSD -1
REMARK  0 active torsions:
REMARK  status: ('A' for Active; 'I' for Inactive)
ROOT
ATOM      1  C   UNL d   1       2.265   0.899   0.111  0.00  0.00    -0.002 A 
ATOM      2  C1  UNL d   1       1.141   1.704  -0.003  0.00  0.00     0.010 A 
ATOM      3  C2  UNL d   1      -0.029   1.395   0.693  0.00  0.00     0.041 A 
ATOM      4  C3  UNL d   1      -0.050   0.252   1.517  0.00  0.00    -0.075 A 
ATOM      5  S   UNL d   1      -1.370  -0.323   2.465  0.00  0.00     0.015 SA
ATOM      6  C4  UNL d   1      -0.473  -1.651   3.045  0.00  0.00     0.022 A 
ATOM      7  C5  UNL d   1       0.805  -1.671   2.537  0.00  0.00     0.026 A 
ATOM      8  C6  UNL d   1       1.070  -0.575   1.649  0.00  0.00    -0.082 A 
ATOM      9  C7  UNL d   1       2.241  -0.234   0.929  0.00  0.00     0.045 A 
ENDROOT
TORSDOF 0
ENDMDL
