MODEL 1
REMARK minimizedAffinity 14.9825068
REMARK minimizedRMSD -1
REMARK  0 active torsions:
REMARK  status: ('A' for Active; 'I' for Inactive)
ROOT
ATOM      1  C   UNL d   1       3.107   0.550  -2.990  0.00  0.00    -0.002 A 
ATOM      2  C1  UNL d   1       3.397  -0.755  -2.616  0.00  0.00     0.010 A 
ATOM      3  C2  UNL d   1       3.062  -1.219  -1.342  0.00  0.00     0.041 A 
ATOM      4  C3  UNL d   1       2.423  -0.342  -0.443  0.00  0.00    -0.075 A 
ATOM      5  S   UNL d   1       1.919  -0.692   1.168  0.00  0.00     0.015 SA
ATOM      6  C4  UNL d   1       1.307   0.882   1.397  0.00  0.00     0.022 A 
ATOM      7  C5  UNL d   1       1.475   1.668   0.282  0.00  0.00     0.026 A 
ATOM      8  C6  UNL d   1       2.121   0.976  -0.798  0.00  0.00    -0.082 A 
ATOM      9  C7  UNL d   1       2.474   1.417  -2.096  0.00  0.00     0.045 A 
ENDROOT
TORSDOF 0
ENDMDL
