MODEL 1
REMARK minimizedAffinity 2.94046259
REMARK minimizedRMSD -1
REMARK  0 active torsions:
REMARK  status: ('A' for Active; 'I' for Inactive)
ROOT
ATOM      1  C   UNL d   1       2.872   0.968   0.393  0.00  0.00    -0.002 A 
ATOM      2  C1  UNL d   1       2.531  -0.312   0.807  0.00  0.00     0.010 A 
ATOM      3  C2  UNL d   1       1.267  -0.573   1.340  0.00  0.00     0.041 A 
ATOM      4  C3  UNL d   1       0.342   0.484   1.449  0.00  0.00    -0.075 A 
ATOM      5  S   UNL d   1      -1.264   0.399   2.069  0.00  0.00     0.015 SA
ATOM      6  C4  UNL d   1      -1.536   2.060   1.799  0.00  0.00     0.022 A 
ATOM      7  C5  UNL d   1      -0.439   2.679   1.249  0.00  0.00     0.026 A 
ATOM      8  C6  UNL d   1       0.662   1.781   1.038  0.00  0.00    -0.082 A 
ATOM      9  C7  UNL d   1       1.952   2.014   0.503  0.00  0.00     0.045 A 
ENDROOT
TORSDOF 0
ENDMDL
