MODEL 1
REMARK minimizedAffinity 8.49518681
REMARK minimizedRMSD -1
REMARK  0 active torsions:
REMARK  status: ('A' for Active; 'I' for Inactive)
ROOT
ATOM      1  C   UNL d   1      -2.590   2.748   2.742  0.00  0.00    -0.002 A 
ATOM      2  C1  UNL d   1      -3.250   1.557   3.008  0.00  0.00     0.010 A 
ATOM      3  C2  UNL d   1      -2.676   0.333   2.658  0.00  0.00     0.041 A 
ATOM      4  C3  UNL d   1      -1.414   0.327   2.032  0.00  0.00    -0.075 A 
ATOM      5  S   UNL d   1      -0.517  -1.052   1.515  0.00  0.00     0.015 SA
ATOM      6  C4  UNL d   1       0.764  -0.092   0.930  0.00  0.00     0.022 A 
ATOM      7  C5  UNL d   1       0.530   1.250   1.116  0.00  0.00     0.026 A 
ATOM      8  C6  UNL d   1      -0.729   1.513   1.755  0.00  0.00    -0.082 A 
ATOM      9  C7  UNL d   1      -1.338   2.738   2.121  0.00  0.00     0.045 A 
ENDROOT
TORSDOF 0
ENDMDL
