MODEL 1
REMARK minimizedAffinity 1.75786757
REMARK minimizedRMSD -1
REMARK  0 active torsions:
REMARK  status: ('A' for Active; 'I' for Inactive)
ROOT
ATOM      1  C   UNL d   1       0.814   1.950   0.666  0.00  0.00    -0.002 A 
ATOM      2  C1  UNL d   1      -0.319   2.487   1.263  0.00  0.00     0.010 A 
ATOM      3  C2  UNL d   1      -1.333   1.654   1.739  0.00  0.00     0.041 A 
ATOM      4  C3  UNL d   1      -1.188   0.259   1.606  0.00  0.00    -0.075 A 
ATOM      5  S   UNL d   1      -2.300  -0.955   2.116  0.00  0.00     0.015 SA
ATOM      6  C4  UNL d   1      -1.298  -2.215   1.556  0.00  0.00     0.022 A 
ATOM      7  C5  UNL d   1      -0.139  -1.739   0.990  0.00  0.00     0.026 A 
ATOM      8  C6  UNL d   1      -0.056  -0.305   1.010  0.00  0.00    -0.082 A 
ATOM      9  C7  UNL d   1       0.954   0.566   0.536  0.00  0.00     0.045 A 
ENDROOT
TORSDOF 0
ENDMDL
