MODEL 1
REMARK minimizedAffinity 6.27315521
REMARK minimizedRMSD -1
REMARK  0 active torsions:
REMARK  status: ('A' for Active; 'I' for Inactive)
ROOT
ATOM      1  C   UNL d   1       3.080   0.768  -1.877  0.00  0.00    -0.002 A 
ATOM      2  C1  UNL d   1       3.602  -0.280  -1.131  0.00  0.00     0.010 A 
ATOM      3  C2  UNL d   1       3.045  -0.619   0.104  0.00  0.00     0.041 A 
ATOM      4  C3  UNL d   1       1.943   0.119   0.580  0.00  0.00    -0.075 A 
ATOM      5  S   UNL d   1       1.098  -0.117   2.064  0.00  0.00     0.015 SA
ATOM      6  C4  UNL d   1       0.024   1.166   1.743  0.00  0.00     0.022 A 
ATOM      7  C5  UNL d   1       0.289   1.771   0.537  0.00  0.00     0.026 A 
ATOM      8  C6  UNL d   1       1.399   1.177  -0.153  0.00  0.00    -0.082 A 
ATOM      9  C7  UNL d   1       1.987   1.497  -1.401  0.00  0.00     0.045 A 
ENDROOT
TORSDOF 0
ENDMDL
