MODEL 1
REMARK minimizedAffinity 3.45109892
REMARK minimizedRMSD -1
REMARK  0 active torsions:
REMARK  status: ('A' for Active; 'I' for Inactive)
ROOT
ATOM      1  C   UNL d   1       0.795   0.159   0.778  0.00  0.00    -0.002 A 
ATOM      2  C1  UNL d   1       0.110  -0.708   1.619  0.00  0.00     0.010 A 
ATOM      3  C2  UNL d   1      -1.134  -0.353   2.144  0.00  0.00     0.041 A 
ATOM      4  C3  UNL d   1      -1.684   0.899   1.807  0.00  0.00    -0.075 A 
ATOM      5  S   UNL d   1      -3.194   1.547   2.331  0.00  0.00     0.015 SA
ATOM      6  C4  UNL d   1      -2.966   2.988   1.451  0.00  0.00     0.022 A 
ATOM      7  C5  UNL d   1      -1.773   2.993   0.768  0.00  0.00     0.026 A 
ATOM      8  C6  UNL d   1      -1.014   1.789   0.962  0.00  0.00    -0.082 A 
ATOM      9  C7  UNL d   1       0.245   1.400   0.446  0.00  0.00     0.045 A 
ENDROOT
TORSDOF 0
ENDMDL
