MODEL 1
REMARK minimizedAffinity 2.00800276
REMARK minimizedRMSD -1
REMARK  0 active torsions:
REMARK  status: ('A' for Active; 'I' for Inactive)
ROOT
ATOM      1  C   UNL d   1       0.000   1.535   1.006  0.00  0.00    -0.002 A 
ATOM      2  C1  UNL d   1      -0.077   0.150   1.057  0.00  0.00     0.010 A 
ATOM      3  C2  UNL d   1      -1.149  -0.479   1.692  0.00  0.00     0.041 A 
ATOM      4  C3  UNL d   1      -2.154   0.315   2.280  0.00  0.00    -0.075 A 
ATOM      5  S   UNL d   1      -3.560  -0.236   3.111  0.00  0.00     0.015 SA
ATOM      6  C4  UNL d   1      -4.093   1.354   3.417  0.00  0.00     0.022 A 
ATOM      7  C5  UNL d   1      -3.231   2.294   2.905  0.00  0.00     0.026 A 
ATOM      8  C6  UNL d   1      -2.099   1.711   2.241  0.00  0.00    -0.082 A 
ATOM      9  C7  UNL d   1      -0.998   2.319   1.590  0.00  0.00     0.045 A 
ENDROOT
TORSDOF 0
ENDMDL
