MODEL 1
REMARK minimizedAffinity 3.8883462
REMARK minimizedRMSD -1
REMARK  0 active torsions:
REMARK  status: ('A' for Active; 'I' for Inactive)
ROOT
ATOM      1  C   UNL d   1       0.704  -1.411   1.129  0.00  0.00    -0.002 A 
ATOM      2  C1  UNL d   1      -0.584  -1.611   1.605  0.00  0.00     0.010 A 
ATOM      3  C2  UNL d   1      -1.442  -0.528   1.811  0.00  0.00     0.041 A 
ATOM      4  C3  UNL d   1      -0.979   0.771   1.526  0.00  0.00    -0.075 A 
ATOM      5  S   UNL d   1      -1.852   2.247   1.700  0.00  0.00     0.015 SA
ATOM      6  C4  UNL d   1      -0.537   3.178   1.145  0.00  0.00     0.022 A 
ATOM      7  C5  UNL d   1       0.550   2.398   0.831  0.00  0.00     0.026 A 
ATOM      8  C6  UNL d   1       0.314   0.998   1.044  0.00  0.00    -0.082 A 
ATOM      9  C7  UNL d   1       1.159  -0.120   0.847  0.00  0.00     0.045 A 
ENDROOT
TORSDOF 0
ENDMDL
