MODEL 1
REMARK minimizedAffinity 13.7986259
REMARK minimizedRMSD -1
REMARK  0 active torsions:
REMARK  status: ('A' for Active; 'I' for Inactive)
ROOT
ATOM      1  C   UNL d   1      -0.770   1.907   1.128  0.00  0.00    -0.002 A 
ATOM      2  C1  UNL d   1       0.059   1.666   0.042  0.00  0.00     0.010 A 
ATOM      3  C2  UNL d   1       1.252   0.957   0.203  0.00  0.00     0.041 A 
ATOM      4  C3  UNL d   1       1.598   0.489   1.486  0.00  0.00    -0.075 A 
ATOM      5  S   UNL d   1       3.009  -0.402   1.921  0.00  0.00     0.015 SA
ATOM      6  C4  UNL d   1       2.543  -0.484   3.559  0.00  0.00     0.022 A 
ATOM      7  C5  UNL d   1       1.343   0.149   3.786  0.00  0.00     0.026 A 
ATOM      8  C6  UNL d   1       0.779   0.719   2.595  0.00  0.00    -0.082 A 
ATOM      9  C7  UNL d   1      -0.423   1.442   2.399  0.00  0.00     0.045 A 
ENDROOT
TORSDOF 0
ENDMDL
