MODEL 1
REMARK minimizedAffinity -1.31809258
REMARK minimizedRMSD -1
REMARK  0 active torsions:
REMARK  status: ('A' for Active; 'I' for Inactive)
ROOT
ATOM      1  C   UNL d   1      -3.247   3.717  -2.207  0.00  0.00     0.077 C 
ATOM      2  C1  UNL d   1      -1.943   2.979  -2.129  0.00  0.00    -0.074 A 
ATOM      3  C2  UNL d   1      -0.837   3.394  -2.877  0.00  0.00    -0.005 A 
ATOM      4  C3  UNL d   1       0.372   2.704  -2.787  0.00  0.00     0.006 A 
ATOM      5  C4  UNL d   1       0.487   1.594  -1.949  0.00  0.00    -0.005 A 
ATOM      6  C5  UNL d   1      -0.608   1.165  -1.193  0.00  0.00    -0.074 A 
ATOM      7  C6  UNL d   1      -0.499  -0.020  -0.280  0.00  0.00     0.077 C 
ATOM      8  C7  UNL d   1      -1.818   1.868  -1.283  0.00  0.00    -0.001 A 
ENDROOT
TORSDOF 0
ENDMDL
