MODEL 1
REMARK minimizedAffinity -4.53419828
REMARK minimizedRMSD -1
REMARK  0 active torsions:
REMARK  status: ('A' for Active; 'I' for Inactive)
ROOT
ATOM      1  C   UNL d   1      -0.521   0.597  -1.324  0.00  0.00     0.077 C 
ATOM      2  C1  UNL d   1       0.048  -0.135  -0.145  0.00  0.00    -0.074 A 
ATOM      3  C2  UNL d   1      -0.592  -0.103   1.098  0.00  0.00    -0.005 A 
ATOM      4  C3  UNL d   1      -0.056  -0.797   2.183  0.00  0.00     0.006 A 
ATOM      5  C4  UNL d   1       1.123  -1.529   2.035  0.00  0.00    -0.005 A 
ATOM      6  C5  UNL d   1       1.776  -1.574   0.800  0.00  0.00    -0.074 A 
ATOM      7  C6  UNL d   1       3.038  -2.364   0.622  0.00  0.00     0.077 C 
ATOM      8  C7  UNL d   1       1.227  -0.879  -0.287  0.00  0.00    -0.001 A 
ENDROOT
TORSDOF 0
ENDMDL
