MODEL 1
REMARK minimizedAffinity -4.64647198
REMARK minimizedRMSD -1
REMARK  0 active torsions:
REMARK  status: ('A' for Active; 'I' for Inactive)
ROOT
ATOM      1  C   UNL d   1       2.807  -2.003   0.319  0.00  0.00     0.077 C 
ATOM      2  C1  UNL d   1       1.499  -1.331   0.613  0.00  0.00    -0.074 A 
ATOM      3  C2  UNL d   1       0.939  -1.377   1.894  0.00  0.00    -0.005 A 
ATOM      4  C3  UNL d   1      -0.273  -0.739   2.154  0.00  0.00     0.006 A 
ATOM      5  C4  UNL d   1      -0.937  -0.050   1.139  0.00  0.00    -0.005 A 
ATOM      6  C5  UNL d   1      -0.393   0.007  -0.148  0.00  0.00    -0.074 A 
ATOM      7  C6  UNL d   1      -1.088   0.752  -1.249  0.00  0.00     0.077 C 
ATOM      8  C7  UNL d   1       0.830  -0.630  -0.400  0.00  0.00    -0.001 A 
ENDROOT
TORSDOF 0
ENDMDL
