MODEL 1
REMARK minimizedAffinity -0.721753836
REMARK minimizedRMSD -1
REMARK  0 active torsions:
REMARK  status: ('A' for Active; 'I' for Inactive)
ROOT
ATOM      1  C   UNL d   1       0.050  -0.270   1.799  0.00  0.00     0.077 C 
ATOM      2  C1  UNL d   1      -0.401   0.249   0.466  0.00  0.00    -0.074 A 
ATOM      3  C2  UNL d   1      -1.395  -0.411  -0.263  0.00  0.00    -0.005 A 
ATOM      4  C3  UNL d   1      -1.812   0.089  -1.497  0.00  0.00     0.006 A 
ATOM      5  C4  UNL d   1      -1.239   1.253  -2.013  0.00  0.00    -0.005 A 
ATOM      6  C5  UNL d   1      -0.245   1.927  -1.297  0.00  0.00    -0.074 A 
ATOM      7  C6  UNL d   1       0.373   3.184  -1.833  0.00  0.00     0.077 C 
ATOM      8  C7  UNL d   1       0.163   1.422  -0.055  0.00  0.00    -0.001 A 
ENDROOT
TORSDOF 0
ENDMDL
