MODEL 1
REMARK minimizedAffinity -3.06860828
REMARK minimizedRMSD -1
REMARK  0 active torsions:
REMARK  status: ('A' for Active; 'I' for Inactive)
ROOT
ATOM      1  C   UNL d   1      -0.845   0.333  -1.566  0.00  0.00     0.077 C 
ATOM      2  C1  UNL d   1       0.056  -0.590  -0.800  0.00  0.00    -0.074 A 
ATOM      3  C2  UNL d   1       1.144  -1.211  -1.422  0.00  0.00    -0.005 A 
ATOM      4  C3  UNL d   1       1.978  -2.060  -0.695  0.00  0.00     0.006 A 
ATOM      5  C4  UNL d   1       1.734  -2.296   0.658  0.00  0.00    -0.005 A 
ATOM      6  C5  UNL d   1       0.652  -1.683   1.297  0.00  0.00    -0.074 A 
ATOM      7  C6  UNL d   1       0.381  -1.918   2.753  0.00  0.00     0.077 C 
ATOM      8  C7  UNL d   1      -0.179  -0.826   0.561  0.00  0.00    -0.001 A 
ENDROOT
TORSDOF 0
ENDMDL
