MODEL 1
REMARK minimizedAffinity -0.953926325
REMARK minimizedRMSD -1
REMARK  0 active torsions:
REMARK  status: ('A' for Active; 'I' for Inactive)
ROOT
ATOM      1  C   UNL d   1       2.366  -1.457  -1.106  0.00  0.00     0.077 C 
ATOM      2  C1  UNL d   1       1.074  -0.935  -0.550  0.00  0.00    -0.074 A 
ATOM      3  C2  UNL d   1       0.086  -0.418  -1.394  0.00  0.00    -0.005 A 
ATOM      4  C3  UNL d   1      -1.114   0.055  -0.864  0.00  0.00     0.006 A 
ATOM      5  C4  UNL d   1      -1.338   0.017   0.513  0.00  0.00    -0.005 A 
ATOM      6  C5  UNL d   1      -0.361  -0.497   1.372  0.00  0.00    -0.074 A 
ATOM      7  C6  UNL d   1      -0.589  -0.555   2.853  0.00  0.00     0.077 C 
ATOM      8  C7  UNL d   1       0.839  -0.977   0.831  0.00  0.00    -0.001 A 
ENDROOT
TORSDOF 0
ENDMDL
