MODEL 1
REMARK minimizedAffinity -4.40543699
REMARK minimizedRMSD -1
REMARK  0 active torsions:
REMARK  status: ('A' for Active; 'I' for Inactive)
ROOT
ATOM      1  C   UNL d   1       0.682  -0.775  -3.004  0.00  0.00     0.077 C 
ATOM      2  C1  UNL d   1      -0.071   0.212  -2.162  0.00  0.00    -0.074 A 
ATOM      3  C2  UNL d   1      -0.708   1.314  -2.742  0.00  0.00    -0.005 A 
ATOM      4  C3  UNL d   1      -1.412   2.218  -1.947  0.00  0.00     0.006 A 
ATOM      5  C4  UNL d   1      -1.486   2.030  -0.566  0.00  0.00    -0.005 A 
ATOM      6  C5  UNL d   1      -0.857   0.933   0.031  0.00  0.00    -0.074 A 
ATOM      7  C6  UNL d   1      -0.935   0.711   1.512  0.00  0.00     0.077 C 
ATOM      8  C7  UNL d   1      -0.157   0.025  -0.775  0.00  0.00    -0.001 A 
ENDROOT
TORSDOF 0
ENDMDL
