MODEL 1
REMARK minimizedAffinity -3.77643681
REMARK minimizedRMSD -1
REMARK  0 active torsions:
REMARK  status: ('A' for Active; 'I' for Inactive)
ROOT
ATOM      1  C   UNL d   1       2.356  -2.689   0.381  0.00  0.00     0.077 C 
ATOM      2  C1  UNL d   1       1.215  -1.740   0.597  0.00  0.00    -0.074 A 
ATOM      3  C2  UNL d   1       0.839  -1.351   1.886  0.00  0.00    -0.005 A 
ATOM      4  C3  UNL d   1      -0.218  -0.460   2.071  0.00  0.00     0.006 A 
ATOM      5  C4  UNL d   1      -0.909   0.050   0.971  0.00  0.00    -0.005 A 
ATOM      6  C5  UNL d   1      -0.546  -0.328  -0.326  0.00  0.00    -0.074 A 
ATOM      7  C6  UNL d   1      -1.271   0.218  -1.520  0.00  0.00     0.077 C 
ATOM      8  C7  UNL d   1       0.522  -1.218  -0.504  0.00  0.00    -0.001 A 
ENDROOT
TORSDOF 0
ENDMDL
