MODEL 1
REMARK minimizedAffinity 9.52281952
REMARK minimizedRMSD -1
REMARK  0 active torsions:
REMARK  status: ('A' for Active; 'I' for Inactive)
ROOT
ATOM      1  C1  DEN d   1       0.468   4.081  -0.328  0.00  0.00     0.130 A 
ATOM      2  C2  DEN d   1       0.272   5.045   0.752  0.00  0.00    -0.031 A 
ATOM      3  C3  DEN d   1       0.854   4.476   1.984  0.00  0.00     0.027 A 
ATOM      4  C4  DEN d   1       2.038   2.210   2.322  0.00  0.00     0.027 A 
ATOM      5  C5  DEN d   1       2.433   1.046   1.700  0.00  0.00    -0.003 A 
ATOM      6  C6  DEN d   1       2.173   0.799   0.378  0.00  0.00     0.001 A 
ATOM      7  C7  DEN d   1       1.538   1.750  -0.377  0.00  0.00     0.017 A 
ATOM      8  C8  DEN d   1       1.130   2.923   0.244  0.00  0.00    -0.094 A 
ATOM      9  C9  DEN d   1       1.414   3.158   1.579  0.00  0.00    -0.072 A 
ENDROOT
TORSDOF 0
ENDMDL
