MODEL 1
REMARK minimizedAffinity 10.4748898
REMARK minimizedRMSD -1
REMARK  0 active torsions:
REMARK  status: ('A' for Active; 'I' for Inactive)
ROOT
ATOM      1  C1  DEN d   1      -5.931   3.668   5.433  0.00  0.00     0.130 A 
ATOM      2  C2  DEN d   1      -5.935   5.019   5.990  0.00  0.00    -0.031 A 
ATOM      3  C3  DEN d   1      -5.948   5.976   4.865  0.00  0.00     0.027 A 
ATOM      4  C4  DEN d   1      -5.967   5.500   2.330  0.00  0.00     0.027 A 
ATOM      5  C5  DEN d   1      -5.957   4.509   1.374  0.00  0.00    -0.003 A 
ATOM      6  C6  DEN d   1      -5.903   3.180   1.700  0.00  0.00     0.001 A 
ATOM      7  C7  DEN d   1      -5.904   2.804   3.018  0.00  0.00     0.017 A 
ATOM      8  C8  DEN d   1      -5.906   3.798   3.988  0.00  0.00    -0.094 A 
ATOM      9  C9  DEN d   1      -5.973   5.136   3.637  0.00  0.00    -0.072 A 
ENDROOT
TORSDOF 0
ENDMDL
