MODEL 1
REMARK minimizedAffinity 6.54689121
REMARK minimizedRMSD -1
REMARK  0 active torsions:
REMARK  status: ('A' for Active; 'I' for Inactive)
ROOT
ATOM      1  C1  DEN d   1       2.632  -1.697  -1.347  0.00  0.00     0.130 A 
ATOM      2  C2  DEN d   1       3.149  -1.757  -2.711  0.00  0.00    -0.031 A 
ATOM      3  C3  DEN d   1       3.776  -0.456  -3.019  0.00  0.00     0.027 A 
ATOM      4  C4  DEN d   1       4.000   1.632  -1.522  0.00  0.00     0.027 A 
ATOM      5  C5  DEN d   1       3.705   2.165  -0.287  0.00  0.00    -0.003 A 
ATOM      6  C6  DEN d   1       3.008   1.465   0.662  0.00  0.00     0.001 A 
ATOM      7  C7  DEN d   1       2.621   0.176   0.407  0.00  0.00     0.017 A 
ATOM      8  C8  DEN d   1       2.908  -0.365  -0.839  0.00  0.00    -0.094 A 
ATOM      9  C9  DEN d   1       3.625   0.354  -1.781  0.00  0.00    -0.072 A 
ENDROOT
TORSDOF 0
ENDMDL
