MODEL 1
REMARK minimizedAffinity 18.9683743
REMARK minimizedRMSD -1
REMARK  0 active torsions:
REMARK  status: ('A' for Active; 'I' for Inactive)
ROOT
ATOM      1  C1  DEN d   1       2.541   1.097   1.446  0.00  0.00     0.130 A 
ATOM      2  C2  DEN d   1       1.964   0.510   0.240  0.00  0.00    -0.031 A 
ATOM      3  C3  DEN d   1       2.677   1.070  -0.926  0.00  0.00     0.027 A 
ATOM      4  C4  DEN d   1       4.611   2.775  -0.981  0.00  0.00     0.027 A 
ATOM      5  C5  DEN d   1       5.432   3.566  -0.208  0.00  0.00    -0.003 A 
ATOM      6  C6  DEN d   1       5.325   3.615   1.157  0.00  0.00     0.001 A 
ATOM      7  C7  DEN d   1       4.406   2.824   1.794  0.00  0.00     0.017 A 
ATOM      8  C8  DEN d   1       3.570   2.030   1.022  0.00  0.00    -0.094 A 
ATOM      9  C9  DEN d   1       3.701   1.985  -0.356  0.00  0.00    -0.072 A 
ENDROOT
TORSDOF 0
ENDMDL
