MODEL 1
REMARK minimizedAffinity 7.0586009
REMARK minimizedRMSD -1
REMARK  0 active torsions:
REMARK  status: ('A' for Active; 'I' for Inactive)
ROOT
ATOM      1  C1  DEN d   1       2.781  -1.642  -0.741  0.00  0.00     0.130 A 
ATOM      2  C2  DEN d   1       2.964  -1.807  -2.180  0.00  0.00    -0.031 A 
ATOM      3  C3  DEN d   1       3.143  -0.466  -2.773  0.00  0.00     0.027 A 
ATOM      4  C4  DEN d   1       3.159   1.835  -1.608  0.00  0.00     0.027 A 
ATOM      5  C5  DEN d   1       3.031   2.482  -0.399  0.00  0.00    -0.003 A 
ATOM      6  C6  DEN d   1       2.780   1.808   0.767  0.00  0.00     0.001 A 
ATOM      7  C7  DEN d   1       2.692   0.440   0.755  0.00  0.00     0.017 A 
ATOM      8  C8  DEN d   1       2.812  -0.218  -0.462  0.00  0.00    -0.094 A 
ATOM      9  C9  DEN d   1       3.079   0.480  -1.627  0.00  0.00    -0.072 A 
ENDROOT
TORSDOF 0
ENDMDL
