MODEL 1
REMARK minimizedAffinity 5.16449165
REMARK minimizedRMSD -1
REMARK  0 active torsions:
REMARK  status: ('A' for Active; 'I' for Inactive)
ROOT
ATOM      1  C1  DEN d   1      -0.506   4.785   1.812  0.00  0.00     0.130 A 
ATOM      2  C2  DEN d   1       0.014   4.116   0.623  0.00  0.00    -0.031 A 
ATOM      3  C3  DEN d   1      -1.107   3.921  -0.318  0.00  0.00     0.027 A 
ATOM      4  C4  DEN d   1      -3.584   4.589  -0.052  0.00  0.00     0.027 A 
ATOM      5  C5  DEN d   1      -4.505   5.171   0.791  0.00  0.00    -0.003 A 
ATOM      6  C6  DEN d   1      -4.168   5.630   2.036  0.00  0.00     0.001 A 
ATOM      7  C7  DEN d   1      -2.867   5.556   2.457  0.00  0.00     0.017 A 
ATOM      8  C8  DEN d   1      -1.933   4.965   1.616  0.00  0.00    -0.094 A 
ATOM      9  C9  DEN d   1      -2.292   4.517   0.356  0.00  0.00    -0.072 A 
ENDROOT
TORSDOF 0
ENDMDL
