MODEL 1
REMARK minimizedAffinity 15.2087784
REMARK minimizedRMSD -1
REMARK  0 active torsions:
REMARK  status: ('A' for Active; 'I' for Inactive)
ROOT
ATOM      1  C1  DEN d   1       4.382  -2.098   1.390  0.00  0.00     0.130 A 
ATOM      2  C2  DEN d   1       5.739  -1.772   1.821  0.00  0.00    -0.031 A 
ATOM      3  C3  DEN d   1       5.993  -0.354   1.495  0.00  0.00     0.027 A 
ATOM      4  C4  DEN d   1       4.425   1.360   0.375  0.00  0.00     0.027 A 
ATOM      5  C5  DEN d   1       3.178   1.546  -0.179  0.00  0.00    -0.003 A 
ATOM      6  C6  DEN d   1       2.265   0.530  -0.279  0.00  0.00     0.001 A 
ATOM      7  C7  DEN d   1       2.569  -0.708   0.223  0.00  0.00     0.017 A 
ATOM      8  C8  DEN d   1       3.827  -0.905   0.776  0.00  0.00    -0.094 A 
ATOM      9  C9  DEN d   1       4.731   0.138   0.880  0.00  0.00    -0.072 A 
ENDROOT
TORSDOF 0
ENDMDL
