MODEL 1
REMARK minimizedAffinity 8.87748337
REMARK minimizedRMSD -1
REMARK  0 active torsions:
REMARK  status: ('A' for Active; 'I' for Inactive)
ROOT
ATOM      1  C1  DEN d   1       1.926   1.757  -0.086  0.00  0.00     0.130 A 
ATOM      2  C2  DEN d   1       1.532   0.351  -0.076  0.00  0.00    -0.031 A 
ATOM      3  C3  DEN d   1       2.741  -0.460   0.170  0.00  0.00     0.027 A 
ATOM      4  C4  DEN d   1       5.171   0.320   0.539  0.00  0.00     0.027 A 
ATOM      5  C5  DEN d   1       5.999   1.419   0.607  0.00  0.00    -0.003 A 
ATOM      6  C6  DEN d   1       5.537   2.694   0.417  0.00  0.00     0.001 A 
ATOM      7  C7  DEN d   1       4.202   2.907   0.194  0.00  0.00     0.017 A 
ATOM      8  C8  DEN d   1       3.363   1.803   0.116  0.00  0.00    -0.094 A 
ATOM      9  C9  DEN d   1       3.847   0.523   0.323  0.00  0.00    -0.072 A 
ENDROOT
TORSDOF 0
ENDMDL
