MODEL 1
REMARK minimizedAffinity 2.21999335
REMARK minimizedRMSD -1
REMARK  0 active torsions:
REMARK  status: ('A' for Active; 'I' for Inactive)
ROOT
ATOM      1  C1  DEN d   1       4.302   3.115   2.286  0.00  0.00     0.130 A 
ATOM      2  C2  DEN d   1       5.544   3.685   1.771  0.00  0.00    -0.031 A 
ATOM      3  C3  DEN d   1       5.690   3.264   0.363  0.00  0.00     0.027 A 
ATOM      4  C4  DEN d   1       4.120   1.797  -1.064  0.00  0.00     0.027 A 
ATOM      5  C5  DEN d   1       2.949   1.072  -1.059  0.00  0.00    -0.003 A 
ATOM      6  C6  DEN d   1       2.171   0.950   0.061  0.00  0.00     0.001 A 
ATOM      7  C7  DEN d   1       2.531   1.600   1.212  0.00  0.00     0.017 A 
ATOM      8  C8  DEN d   1       3.714   2.327   1.217  0.00  0.00    -0.094 A 
ATOM      9  C9  DEN d   1       4.481   2.448   0.071  0.00  0.00    -0.072 A 
ENDROOT
TORSDOF 0
ENDMDL
