MODEL 1
REMARK minimizedAffinity 3.93995166
REMARK minimizedRMSD -1
REMARK  0 active torsions:
REMARK  status: ('A' for Active; 'I' for Inactive)
ROOT
ATOM      1  C1  DEN d   1      -1.695  -6.000   4.352  0.00  0.00     0.130 A 
ATOM      2  C2  DEN d   1      -1.939  -5.963   2.913  0.00  0.00    -0.031 A 
ATOM      3  C3  DEN d   1      -1.284  -4.756   2.369  0.00  0.00     0.027 A 
ATOM      4  C4  DEN d   1       0.081  -2.953   3.610  0.00  0.00     0.027 A 
ATOM      5  C5  DEN d   1       0.549  -2.548   4.840  0.00  0.00    -0.003 A 
ATOM      6  C6  DEN d   1       0.276  -3.242   5.990  0.00  0.00     0.001 A 
ATOM      7  C7  DEN d   1      -0.449  -4.402   5.926  0.00  0.00     0.017 A 
ATOM      8  C8  DEN d   1      -0.931  -4.813   4.690  0.00  0.00    -0.094 A 
ATOM      9  C9  DEN d   1      -0.633  -4.105   3.538  0.00  0.00    -0.072 A 
ENDROOT
TORSDOF 0
ENDMDL
