MODEL 1
REMARK minimizedAffinity -4.15296888
REMARK minimizedRMSD -1
REMARK  0 active torsions:
REMARK  status: ('A' for Active; 'I' for Inactive)
ROOT
ATOM      1  C1  DEN d   1       2.842   1.846  -0.588  0.00  0.00     0.130 A 
ATOM      2  C2  DEN d   1       4.215   1.471  -0.915  0.00  0.00    -0.031 A 
ATOM      3  C3  DEN d   1       4.281  -0.002  -0.985  0.00  0.00     0.027 A 
ATOM      4  C4  DEN d   1       2.399  -1.730  -0.627  0.00  0.00     0.027 A 
ATOM      5  C5  DEN d   1       1.067  -1.890  -0.318  0.00  0.00    -0.003 A 
ATOM      6  C6  DEN d   1       0.247  -0.827  -0.046  0.00  0.00     0.001 A 
ATOM      7  C7  DEN d   1       0.742   0.448  -0.123  0.00  0.00     0.017 A 
ATOM      8  C8  DEN d   1       2.086   0.618  -0.426  0.00  0.00    -0.094 A 
ATOM      9  C9  DEN d   1       2.896  -0.469  -0.709  0.00  0.00    -0.072 A 
ENDROOT
TORSDOF 0
ENDMDL
