MODEL 1
REMARK minimizedAffinity 7.8505888
REMARK minimizedRMSD -1
REMARK  1 active torsions:
REMARK  status: ('A' for Active; 'I' for Inactive)
REMARK    1  A    between atoms: C1_2  and  C2_3 
ROOT
ATOM      1  C2  UNL d   1       3.296  -3.555   1.035  0.00  0.00    -0.081 A 
ATOM      2  C3  UNL d   1       3.981  -3.096  -0.097  0.00  0.00     0.006 A 
ATOM      3  C4  UNL d   1       3.476  -2.031  -0.846  0.00  0.00     0.002 A 
ATOM      4  C5  UNL d   1       2.284  -1.401  -0.472  0.00  0.00    -0.080 A 
ATOM      5  C6  UNL d   1       1.747  -0.237  -1.250  0.00  0.00     0.076 C 
ATOM      6  C7  UNL d   1       1.591  -1.871   0.649  0.00  0.00     0.002 A 
ATOM      7  C8  UNL d   1       2.095  -2.937   1.398  0.00  0.00     0.006 A 
ENDROOT
BRANCH   1   8
ATOM      8  C1  UNL d   1       3.871  -4.661   1.882  0.00  0.00     0.054 C 
ATOM      9  C   UNL d   1       4.130  -4.191   3.306  0.00  0.00     0.018 C 
ENDBRANCH   1   8
TORSDOF 1
ENDMDL
