MODEL 1
REMARK minimizedAffinity 7.34364128
REMARK minimizedRMSD -1
REMARK  1 active torsions:
REMARK  status: ('A' for Active; 'I' for Inactive)
REMARK    1  A    between atoms: C1_2  and  C2_3 
ROOT
ATOM      1  C2  UNL d   1       1.394  -1.468   2.618  0.00  0.00    -0.081 A 
ATOM      2  C3  UNL d   1       2.394  -1.864   3.515  0.00  0.00     0.006 A 
ATOM      3  C4  UNL d   1       3.343  -2.819   3.142  0.00  0.00     0.002 A 
ATOM      4  C5  UNL d   1       3.313  -3.387   1.865  0.00  0.00    -0.080 A 
ATOM      5  C6  UNL d   1       4.344  -4.391   1.441  0.00  0.00     0.076 C 
ATOM      6  C7  UNL d   1       2.304  -3.005   0.974  0.00  0.00     0.002 A 
ATOM      7  C8  UNL d   1       1.355  -2.051   1.347  0.00  0.00     0.006 A 
ENDROOT
BRANCH   1   8
ATOM      8  C1  UNL d   1       0.409  -0.391   2.995  0.00  0.00     0.054 C 
ATOM      9  C   UNL d   1      -1.006  -0.945   3.090  0.00  0.00     0.018 C 
ENDBRANCH   1   8
TORSDOF 1
ENDMDL
