MODEL 1
REMARK minimizedAffinity 7.54485607
REMARK minimizedRMSD -1
REMARK  1 active torsions:
REMARK  status: ('A' for Active; 'I' for Inactive)
REMARK    1  A    between atoms: C1_2  and  C2_3 
ROOT
ATOM      1  C2  UNL d   1      -1.934   0.123   3.364  0.00  0.00    -0.081 A 
ATOM      2  C3  UNL d   1      -2.203  -1.121   2.781  0.00  0.00     0.006 A 
ATOM      3  C4  UNL d   1      -1.176  -1.863   2.191  0.00  0.00     0.002 A 
ATOM      4  C5  UNL d   1       0.136  -1.377   2.182  0.00  0.00    -0.080 A 
ATOM      5  C6  UNL d   1       1.252  -2.177   1.579  0.00  0.00     0.076 C 
ATOM      6  C7  UNL d   1       0.401  -0.126   2.749  0.00  0.00     0.002 A 
ATOM      7  C8  UNL d   1      -0.625   0.616   3.339  0.00  0.00     0.006 A 
ENDROOT
BRANCH   1   8
ATOM      8  C1  UNL d   1      -3.026   0.896   4.058  0.00  0.00     0.054 C 
ATOM      9  C   UNL d   1      -4.170   1.214   3.106  0.00  0.00     0.018 C 
ENDBRANCH   1   8
TORSDOF 1
ENDMDL
