MODEL 1
REMARK minimizedAffinity 13.6534529
REMARK minimizedRMSD -1
REMARK  1 active torsions:
REMARK  status: ('A' for Active; 'I' for Inactive)
REMARK    1  A    between atoms: C1_2  and  C2_3 
ROOT
ATOM      1  C2  UNL d   1       1.301  -1.504   1.323  0.00  0.00    -0.081 A 
ATOM      2  C3  UNL d   1       1.737  -0.772   0.211  0.00  0.00     0.006 A 
ATOM      3  C4  UNL d   1       2.825  -1.214  -0.545  0.00  0.00     0.002 A 
ATOM      4  C5  UNL d   1       3.490  -2.397  -0.208  0.00  0.00    -0.080 A 
ATOM      5  C6  UNL d   1       4.641  -2.899  -1.029  0.00  0.00     0.076 C 
ATOM      6  C7  UNL d   1       3.066  -3.119   0.913  0.00  0.00     0.002 A 
ATOM      7  C8  UNL d   1       1.978  -2.678   1.670  0.00  0.00     0.006 A 
ENDROOT
BRANCH   1   8
ATOM      8  C1  UNL d   1       0.087  -1.064   2.101  0.00  0.00     0.054 C 
ATOM      9  C   UNL d   1       0.461  -0.076   3.197  0.00  0.00     0.018 C 
ENDBRANCH   1   8
TORSDOF 1
ENDMDL
