MODEL 1
REMARK minimizedAffinity 10.0181437
REMARK minimizedRMSD -1
REMARK  1 active torsions:
REMARK  status: ('A' for Active; 'I' for Inactive)
REMARK    1  A    between atoms: C1_2  and  C2_3 
ROOT
ATOM      1  C2  UNL d   1       3.153  -3.347   2.761  0.00  0.00    -0.081 A 
ATOM      2  C3  UNL d   1       3.165  -2.370   3.764  0.00  0.00     0.006 A 
ATOM      3  C4  UNL d   1       4.076  -2.450   4.820  0.00  0.00     0.002 A 
ATOM      4  C5  UNL d   1       4.994  -3.504   4.887  0.00  0.00    -0.080 A 
ATOM      5  C6  UNL d   1       5.997  -3.586   5.999  0.00  0.00     0.076 C 
ATOM      6  C7  UNL d   1       4.970  -4.489   3.894  0.00  0.00     0.002 A 
ATOM      7  C8  UNL d   1       4.059  -4.410   2.838  0.00  0.00     0.006 A 
ENDROOT
BRANCH   1   8
ATOM      8  C1  UNL d   1       2.215  -3.228   1.586  0.00  0.00     0.054 C 
ATOM      9  C   UNL d   1       1.123  -2.201   1.852  0.00  0.00     0.018 C 
ENDBRANCH   1   8
TORSDOF 1
ENDMDL
