MODEL 1
REMARK minimizedAffinity 14.9356031
REMARK minimizedRMSD -1
REMARK  1 active torsions:
REMARK  status: ('A' for Active; 'I' for Inactive)
REMARK    1  A    between atoms: C1_2  and  C2_3 
ROOT
ATOM      1  C2  UNL d   1       2.041   0.205   0.101  0.00  0.00    -0.081 A 
ATOM      2  C3  UNL d   1       1.858  -1.165   0.326  0.00  0.00     0.006 A 
ATOM      3  C4  UNL d   1       1.245  -1.615   1.497  0.00  0.00     0.002 A 
ATOM      4  C5  UNL d   1       0.798  -0.703   2.460  0.00  0.00    -0.080 A 
ATOM      5  C6  UNL d   1       0.112  -1.172   3.709  0.00  0.00     0.076 C 
ATOM      6  C7  UNL d   1       0.997   0.664   2.244  0.00  0.00     0.002 A 
ATOM      7  C8  UNL d   1       1.610   1.115   1.073  0.00  0.00     0.006 A 
ENDROOT
BRANCH   1   8
ATOM      8  C1  UNL d   1       2.643   0.696  -1.191  0.00  0.00     0.054 C 
ATOM      9  C   UNL d   1       1.623   0.671  -2.321  0.00  0.00     0.018 C 
ENDBRANCH   1   8
TORSDOF 1
ENDMDL
