MODEL 1
REMARK minimizedAffinity 4.66627312
REMARK minimizedRMSD -1
REMARK  1 active torsions:
REMARK  status: ('A' for Active; 'I' for Inactive)
REMARK    1  A    between atoms: C1_2  and  C2_3 
ROOT
ATOM      1  C2  UNL d   1       3.719  -3.146   2.335  0.00  0.00    -0.081 A 
ATOM      2  C3  UNL d   1       4.675  -4.121   2.643  0.00  0.00     0.006 A 
ATOM      3  C4  UNL d   1       5.419  -4.035   3.823  0.00  0.00     0.002 A 
ATOM      4  C5  UNL d   1       5.213  -2.979   4.716  0.00  0.00    -0.080 A 
ATOM      5  C6  UNL d   1       5.984  -2.891   6.000  0.00  0.00     0.076 C 
ATOM      6  C7  UNL d   1       4.270  -1.995   4.400  0.00  0.00     0.002 A 
ATOM      7  C8  UNL d   1       3.527  -2.080   3.220  0.00  0.00     0.006 A 
ENDROOT
BRANCH   1   8
ATOM      8  C1  UNL d   1       2.870  -3.271   1.095  0.00  0.00     0.054 C 
ATOM      9  C   UNL d   1       1.862  -2.134   0.999  0.00  0.00     0.018 C 
ENDBRANCH   1   8
TORSDOF 1
ENDMDL
