MODEL 1
REMARK minimizedAffinity -1.73220921
REMARK minimizedRMSD -1
REMARK  1 active torsions:
REMARK  status: ('A' for Active; 'I' for Inactive)
REMARK    1  A    between atoms: C1_2  and  C2_3 
ROOT
ATOM      1  C2  UNL d   1       2.465  -2.968   0.976  0.00  0.00    -0.081 A 
ATOM      2  C3  UNL d   1       1.483  -3.012   1.974  0.00  0.00     0.006 A 
ATOM      3  C4  UNL d   1       0.478  -2.043   2.022  0.00  0.00     0.002 A 
ATOM      4  C5  UNL d   1       0.432  -1.020   1.069  0.00  0.00    -0.080 A 
ATOM      5  C6  UNL d   1      -0.659   0.009   1.092  0.00  0.00     0.076 C 
ATOM      6  C7  UNL d   1       1.423  -0.965   0.083  0.00  0.00     0.002 A 
ATOM      7  C8  UNL d   1       2.429  -1.933   0.034  0.00  0.00     0.006 A 
ENDROOT
BRANCH   1   8
ATOM      8  C1  UNL d   1       3.512  -4.048   0.882  0.00  0.00     0.054 C 
ATOM      9  C   UNL d   1       3.841  -4.619   2.254  0.00  0.00     0.018 C 
ENDBRANCH   1   8
TORSDOF 1
ENDMDL
