MODEL 1
REMARK minimizedAffinity 2.220294
REMARK minimizedRMSD -1
REMARK  1 active torsions:
REMARK  status: ('A' for Active; 'I' for Inactive)
REMARK    1  A    between atoms: C1_2  and  C2_3 
ROOT
ATOM      1  C2  UNL d   1       0.108  -0.738   1.041  0.00  0.00    -0.081 A 
ATOM      2  C3  UNL d   1       1.146  -1.425   0.399  0.00  0.00     0.006 A 
ATOM      3  C4  UNL d   1       1.685  -2.582   0.965  0.00  0.00     0.002 A 
ATOM      4  C5  UNL d   1       1.191  -3.077   2.177  0.00  0.00    -0.080 A 
ATOM      5  C6  UNL d   1       1.740  -4.335   2.780  0.00  0.00     0.076 C 
ATOM      6  C7  UNL d   1       0.166  -2.381   2.827  0.00  0.00     0.002 A 
ATOM      7  C8  UNL d   1      -0.373  -1.223   2.262  0.00  0.00     0.006 A 
ENDROOT
BRANCH   1   8
ATOM      8  C1  UNL d   1      -0.519   0.475   0.401  0.00  0.00     0.054 C 
ATOM      9  C   UNL d   1      -2.037   0.367   0.382  0.00  0.00     0.018 C 
ENDBRANCH   1   8
TORSDOF 1
ENDMDL
