MODEL 1
REMARK minimizedAffinity 7.38226366
REMARK minimizedRMSD -1
REMARK  1 active torsions:
REMARK  status: ('A' for Active; 'I' for Inactive)
REMARK    1  A    between atoms: C1_2  and  C2_3 
ROOT
ATOM      1  C2  UNL d   1      -0.140  -1.198   2.231  0.00  0.00    -0.081 A 
ATOM      2  C3  UNL d   1      -1.399  -0.654   2.516  0.00  0.00     0.006 A 
ATOM      3  C4  UNL d   1      -1.991   0.257   1.638  0.00  0.00     0.002 A 
ATOM      4  C5  UNL d   1      -1.339   0.633   0.459  0.00  0.00    -0.080 A 
ATOM      5  C6  UNL d   1      -1.978   1.587  -0.506  0.00  0.00     0.076 C 
ATOM      6  C7  UNL d   1      -0.074   0.104   0.183  0.00  0.00     0.002 A 
ATOM      7  C8  UNL d   1       0.519  -0.807   1.061  0.00  0.00     0.006 A 
ENDROOT
BRANCH   1   8
ATOM      8  C1  UNL d   1       0.473  -2.230   3.143  0.00  0.00     0.054 C 
ATOM      9  C   UNL d   1       1.131  -3.349   2.349  0.00  0.00     0.018 C 
ENDBRANCH   1   8
TORSDOF 1
ENDMDL
