MODEL 1
REMARK minimizedAffinity 1.67969382
REMARK minimizedRMSD -1
REMARK  1 active torsions:
REMARK  status: ('A' for Active; 'I' for Inactive)
REMARK    1  A    between atoms: C1_2  and  C2_3 
ROOT
ATOM      1  C2  UNL d   1       0.628  -0.520   0.102  0.00  0.00    -0.081 A 
ATOM      2  C3  UNL d   1      -0.503  -0.111  -0.616  0.00  0.00     0.006 A 
ATOM      3  C4  UNL d   1      -1.683   0.222   0.052  0.00  0.00     0.002 A 
ATOM      4  C5  UNL d   1      -1.751   0.159   1.448  0.00  0.00    -0.080 A 
ATOM      5  C6  UNL d   1      -3.004   0.542   2.179  0.00  0.00     0.076 C 
ATOM      6  C7  UNL d   1      -0.628  -0.267   2.164  0.00  0.00     0.002 A 
ATOM      7  C8  UNL d   1       0.553  -0.600   1.497  0.00  0.00     0.006 A 
ENDROOT
BRANCH   1   8
ATOM      8  C1  UNL d   1       1.922  -0.817  -0.611  0.00  0.00     0.054 C 
ATOM      9  C   UNL d   1       2.711   0.456  -0.880  0.00  0.00     0.018 C 
ENDBRANCH   1   8
TORSDOF 1
ENDMDL
