MODEL 1
REMARK minimizedAffinity -5.1704812
REMARK minimizedRMSD -1
REMARK  0 active torsions:
REMARK  status: ('A' for Active; 'I' for Inactive)
ROOT
ATOM      1  C   UNL d   1       3.236  -0.792   0.490  0.00  0.00    -0.002 A 
ATOM      2  C1  UNL d   1       3.176   0.575   0.721  0.00  0.00     0.010 A 
ATOM      3  C2  UNL d   1       2.009   1.291   0.447  0.00  0.00     0.041 A 
ATOM      4  C3  UNL d   1       0.892   0.602  -0.065  0.00  0.00    -0.075 A 
ATOM      5  S   UNL d   1      -0.644   1.271  -0.473  0.00  0.00     0.015 SA
ATOM      6  C4  UNL d   1      -1.257  -0.242  -0.962  0.00  0.00     0.022 A 
ATOM      7  C5  UNL d   1      -0.326  -1.244  -0.824  0.00  0.00     0.026 A 
ATOM      8  C6  UNL d   1       0.927  -0.775  -0.304  0.00  0.00    -0.082 A 
ATOM      9  C7  UNL d   1       2.126  -1.472  -0.018  0.00  0.00     0.045 A 
ENDROOT
TORSDOF 0
ENDMDL
