MODEL 1
REMARK minimizedAffinity -4.47466278
REMARK minimizedRMSD -1
REMARK  0 active torsions:
REMARK  status: ('A' for Active; 'I' for Inactive)
ROOT
ATOM      1  C   UNL d   1       4.569   0.381   0.815  0.00  0.00    -0.002 A 
ATOM      2  C1  UNL d   1       4.042   1.663   0.735  0.00  0.00     0.010 A 
ATOM      3  C2  UNL d   1       2.672   1.856   0.548  0.00  0.00     0.041 A 
ATOM      4  C3  UNL d   1       1.832   0.730   0.445  0.00  0.00    -0.075 A 
ATOM      5  S   UNL d   1       0.123   0.725   0.215  0.00  0.00     0.015 SA
ATOM      6  C4  UNL d   1       0.052  -0.978   0.219  0.00  0.00     0.022 A 
ATOM      7  C5  UNL d   1       1.293  -1.545   0.390  0.00  0.00     0.026 A 
ATOM      8  C6  UNL d   1       2.339  -0.570   0.524  0.00  0.00    -0.082 A 
ATOM      9  C7  UNL d   1       3.733  -0.733   0.712  0.00  0.00     0.045 A 
ENDROOT
TORSDOF 0
ENDMDL
