MODEL 1
REMARK minimizedAffinity -5.39111853
REMARK minimizedRMSD -1
REMARK  0 active torsions:
REMARK  status: ('A' for Active; 'I' for Inactive)
ROOT
ATOM      1  C   UNL d   1       1.729   2.586   0.073  0.00  0.00    -0.002 A 
ATOM      2  C1  UNL d   1       0.369   2.438  -0.160  0.00  0.00     0.010 A 
ATOM      3  C2  UNL d   1      -0.197   1.166  -0.274  0.00  0.00     0.041 A 
ATOM      4  C3  UNL d   1       0.634   0.036  -0.146  0.00  0.00    -0.075 A 
ATOM      5  S   UNL d   1       0.161  -1.619  -0.248  0.00  0.00     0.015 SA
ATOM      6  C4  UNL d   1       1.753  -2.167   0.017  0.00  0.00     0.022 A 
ATOM      7  C5  UNL d   1       2.636  -1.127   0.181  0.00  0.00     0.026 A 
ATOM      8  C6  UNL d   1       2.006   0.160   0.090  0.00  0.00    -0.082 A 
ATOM      9  C7  UNL d   1       2.550   1.463   0.200  0.00  0.00     0.045 A 
ENDROOT
TORSDOF 0
ENDMDL
