MODEL 1
REMARK minimizedAffinity -3.43341732
REMARK minimizedRMSD -1
REMARK  0 active torsions:
REMARK  status: ('A' for Active; 'I' for Inactive)
ROOT
ATOM      1  C   UNL d   1       2.547  -1.216   1.297  0.00  0.00    -0.002 A 
ATOM      2  C1  UNL d   1       3.199  -0.097   0.799  0.00  0.00     0.010 A 
ATOM      3  C2  UNL d   1       2.503   0.860   0.058  0.00  0.00     0.041 A 
ATOM      4  C3  UNL d   1       1.126   0.672  -0.174  0.00  0.00    -0.075 A 
ATOM      5  S   UNL d   1       0.069   1.713  -1.053  0.00  0.00     0.015 SA
ATOM      6  C4  UNL d   1      -1.274   0.698  -0.786  0.00  0.00     0.022 A 
ATOM      7  C5  UNL d   1      -0.942  -0.413  -0.047  0.00  0.00     0.026 A 
ATOM      8  C6  UNL d   1       0.447  -0.445   0.319  0.00  0.00    -0.082 A 
ATOM      9  C7  UNL d   1       1.181  -1.398   1.065  0.00  0.00     0.045 A 
ENDROOT
TORSDOF 0
ENDMDL
