MODEL 1
REMARK minimizedAffinity -5.24836254
REMARK minimizedRMSD -1
REMARK  0 active torsions:
REMARK  status: ('A' for Active; 'I' for Inactive)
ROOT
ATOM      1  C   UNL d   1      -0.413  -1.982  -1.128  0.00  0.00    -0.002 A 
ATOM      2  C1  UNL d   1      -1.060  -0.756  -1.179  0.00  0.00     0.010 A 
ATOM      3  C2  UNL d   1      -0.400   0.412  -0.793  0.00  0.00     0.041 A 
ATOM      4  C3  UNL d   1       0.936   0.327  -0.354  0.00  0.00    -0.075 A 
ATOM      5  S   UNL d   1       1.945   1.625   0.166  0.00  0.00     0.015 SA
ATOM      6  C4  UNL d   1       3.259   0.582   0.466  0.00  0.00     0.022 A 
ATOM      7  C5  UNL d   1       2.953  -0.728   0.183  0.00  0.00     0.026 A 
ATOM      8  C6  UNL d   1       1.610  -0.897  -0.295  0.00  0.00    -0.082 A 
ATOM      9  C7  UNL d   1       0.912  -2.063  -0.692  0.00  0.00     0.045 A 
ENDROOT
TORSDOF 0
ENDMDL
