MODEL 1
REMARK minimizedAffinity -4.40400791
REMARK minimizedRMSD -1
REMARK  0 active torsions:
REMARK  status: ('A' for Active; 'I' for Inactive)
ROOT
ATOM      1  C   UNL d   1       3.641   0.385   1.064  0.00  0.00    -0.002 A 
ATOM      2  C1  UNL d   1       3.667  -0.970   0.766  0.00  0.00     0.010 A 
ATOM      3  C2  UNL d   1       2.543  -1.602   0.230  0.00  0.00     0.041 A 
ATOM      4  C3  UNL d   1       1.382  -0.840  -0.006  0.00  0.00    -0.075 A 
ATOM      5  S   UNL d   1      -0.113  -1.399  -0.657  0.00  0.00     0.015 SA
ATOM      6  C4  UNL d   1      -0.822   0.148  -0.557  0.00  0.00     0.022 A 
ATOM      7  C5  UNL d   1       0.047   1.080  -0.041  0.00  0.00     0.026 A 
ATOM      8  C6  UNL d   1       1.331   0.526   0.284  0.00  0.00    -0.082 A 
ATOM      9  C7  UNL d   1       2.487   1.137   0.828  0.00  0.00     0.045 A 
ENDROOT
TORSDOF 0
ENDMDL
