MODEL 1
REMARK minimizedAffinity 0.283403516
REMARK minimizedRMSD -1
REMARK  2 active torsions:
REMARK  status: ('A' for Active; 'I' for Inactive)
REMARK    1  A    between atoms: C1_2  and  C2_3 
REMARK    2  A    between atoms: C2_3  and  C3_4 
ROOT
ATOM      1  C3  UNL d   1      -0.151  -2.769   1.831  0.00  0.00    -0.075 A 
ATOM      2  C4  UNL d   1      -1.550  -2.862   1.774  0.00  0.00     0.002 A 
ATOM      3  C5  UNL d   1      -2.164  -3.786   0.928  0.00  0.00     0.002 A 
ATOM      4  C6  UNL d   1      -1.390  -4.619   0.122  0.00  0.00    -0.004 A 
ATOM      5  C7  UNL d   1      -0.001  -4.523   0.159  0.00  0.00     0.002 A 
ATOM      6  C8  UNL d   1       0.616  -3.603   1.008  0.00  0.00     0.002 A 
ENDROOT
BRANCH   1   7
ATOM      7  C2  UNL d   1       0.520  -1.792   2.767  0.00  0.00     0.056 C 
BRANCH   7   8
ATOM      8  C1  UNL d   1       1.895  -2.249   3.265  0.00  0.00     0.007 C 
ATOM      9  C   UNL d   1       3.048  -1.691   2.441  0.00  0.00     0.009 C 
ENDBRANCH   7   8
ENDBRANCH   1   7
TORSDOF 2
ENDMDL
