MODEL 1
REMARK minimizedAffinity -0.606071532
REMARK minimizedRMSD -1
REMARK  2 active torsions:
REMARK  status: ('A' for Active; 'I' for Inactive)
REMARK    1  A    between atoms: C1_2  and  C2_3 
REMARK    2  A    between atoms: C2_3  and  C3_4 
ROOT
ATOM      1  C3  UNL d   1      -3.287  -5.638  -4.752  0.00  0.00    -0.075 A 
ATOM      2  C4  UNL d   1      -3.996  -5.654  -5.963  0.00  0.00     0.002 A 
ATOM      3  C5  UNL d   1      -5.343  -5.292  -5.999  0.00  0.00     0.002 A 
ATOM      4  C6  UNL d   1      -6.000  -4.920  -4.828  0.00  0.00    -0.004 A 
ATOM      5  C7  UNL d   1      -5.310  -4.916  -3.618  0.00  0.00     0.002 A 
ATOM      6  C8  UNL d   1      -3.961  -5.274  -3.579  0.00  0.00     0.002 A 
ENDROOT
BRANCH   1   7
ATOM      7  C2  UNL d   1      -1.822  -6.000  -4.711  0.00  0.00     0.056 C 
BRANCH   7   8
ATOM      8  C1  UNL d   1      -0.932  -4.928  -4.071  0.00  0.00     0.007 C 
ATOM      9  C   UNL d   1      -1.502  -4.372  -2.773  0.00  0.00     0.009 C 
ENDBRANCH   7   8
ENDBRANCH   1   7
TORSDOF 2
ENDMDL
