MODEL 1
REMARK minimizedAffinity 6.556705
REMARK minimizedRMSD -1
REMARK  2 active torsions:
REMARK  status: ('A' for Active; 'I' for Inactive)
REMARK    1  A    between atoms: C1_2  and  C2_3 
REMARK    2  A    between atoms: C2_3  and  C3_4 
ROOT
ATOM      1  C3  UNL d   1       0.746   4.285  -3.658  0.00  0.00    -0.075 A 
ATOM      2  C4  UNL d   1       1.414   4.504  -4.872  0.00  0.00     0.002 A 
ATOM      3  C5  UNL d   1       0.713   4.939  -5.997  0.00  0.00     0.002 A 
ATOM      4  C6  UNL d   1      -0.662   5.149  -5.928  0.00  0.00    -0.004 A 
ATOM      5  C7  UNL d   1      -1.339   4.918  -4.732  0.00  0.00     0.002 A 
ATOM      6  C8  UNL d   1      -0.640   4.487  -3.603  0.00  0.00     0.002 A 
ENDROOT
BRANCH   1   7
ATOM      7  C2  UNL d   1       1.503   3.843  -2.428  0.00  0.00     0.056 C 
BRANCH   7   8
ATOM      8  C1  UNL d   1       1.347   2.355  -2.101  0.00  0.00     0.007 C 
ATOM      9  C   UNL d   1       1.529   2.043  -0.621  0.00  0.00     0.009 C 
ENDBRANCH   7   8
ENDBRANCH   1   7
TORSDOF 2
ENDMDL
