MODEL 1
REMARK minimizedAffinity 7.72375488
REMARK minimizedRMSD -1
REMARK  2 active torsions:
REMARK  status: ('A' for Active; 'I' for Inactive)
REMARK    1  A    between atoms: C1_2  and  C2_3 
REMARK    2  A    between atoms: C2_3  and  C3_4 
ROOT
ATOM      1  C3  UNL d   1       1.053   3.813  -3.727  0.00  0.00    -0.075 A 
ATOM      2  C4  UNL d   1       1.960   4.593  -4.459  0.00  0.00     0.002 A 
ATOM      3  C5  UNL d   1       1.538   5.301  -5.584  0.00  0.00     0.002 A 
ATOM      4  C6  UNL d   1       0.210   5.231  -5.998  0.00  0.00    -0.004 A 
ATOM      5  C7  UNL d   1      -0.696   4.446  -5.289  0.00  0.00     0.002 A 
ATOM      6  C8  UNL d   1      -0.278   3.740  -4.159  0.00  0.00     0.002 A 
ENDROOT
BRANCH   1   7
ATOM      7  C2  UNL d   1       1.496   3.068  -2.491  0.00  0.00     0.056 C 
BRANCH   7   8
ATOM      8  C1  UNL d   1       1.539   1.546  -2.662  0.00  0.00     0.007 C 
ATOM      9  C   UNL d   1       2.865   0.931  -2.234  0.00  0.00     0.009 C 
ENDBRANCH   7   8
ENDBRANCH   1   7
TORSDOF 2
ENDMDL
