MODEL 1
REMARK minimizedAffinity 0.167924732
REMARK minimizedRMSD -1
REMARK  2 active torsions:
REMARK  status: ('A' for Active; 'I' for Inactive)
REMARK    1  A    between atoms: C1_2  and  C2_3 
REMARK    2  A    between atoms: C2_3  and  C3_4 
ROOT
ATOM      1  C3  UNL d   1      -5.935   0.479  -1.982  0.00  0.00    -0.075 A 
ATOM      2  C4  UNL d   1      -5.998   1.832  -1.619  0.00  0.00     0.002 A 
ATOM      3  C5  UNL d   1      -5.920   2.211  -0.278  0.00  0.00     0.002 A 
ATOM      4  C6  UNL d   1      -5.787   1.243   0.715  0.00  0.00    -0.004 A 
ATOM      5  C7  UNL d   1      -5.740  -0.105   0.367  0.00  0.00     0.002 A 
ATOM      6  C8  UNL d   1      -5.814  -0.486  -0.974  0.00  0.00     0.002 A 
ENDROOT
BRANCH   1   7
ATOM      7  C2  UNL d   1      -5.990   0.065  -3.433  0.00  0.00     0.056 C 
BRANCH   7   8
ATOM      8  C1  UNL d   1      -5.864   1.231  -4.419  0.00  0.00     0.007 C 
ATOM      9  C   UNL d   1      -5.785   0.782  -5.872  0.00  0.00     0.009 C 
ENDBRANCH   7   8
ENDBRANCH   1   7
TORSDOF 2
ENDMDL
