MODEL 1
REMARK minimizedAffinity 4.39114285
REMARK minimizedRMSD -1
REMARK  2 active torsions:
REMARK  status: ('A' for Active; 'I' for Inactive)
REMARK    1  A    between atoms: C1_2  and  C2_3 
REMARK    2  A    between atoms: C2_3  and  C3_4 
ROOT
ATOM      1  C3  UNL d   1       0.748   4.539  -3.778  0.00  0.00    -0.075 A 
ATOM      2  C4  UNL d   1       1.434   4.823  -4.968  0.00  0.00     0.002 A 
ATOM      3  C5  UNL d   1       0.804   5.519  -6.000  0.00  0.00     0.002 A 
ATOM      4  C6  UNL d   1      -0.520   5.929  -5.861  0.00  0.00    -0.004 A 
ATOM      5  C7  UNL d   1      -1.217   5.637  -4.690  0.00  0.00     0.002 A 
ATOM      6  C8  UNL d   1      -0.587   4.945  -3.654  0.00  0.00     0.002 A 
ENDROOT
BRANCH   1   7
ATOM      7  C2  UNL d   1       1.434   3.812  -2.646  0.00  0.00     0.056 C 
BRANCH   7   8
ATOM      8  C1  UNL d   1       1.017   2.345  -2.503  0.00  0.00     0.007 C 
ATOM      9  C   UNL d   1       2.012   1.513  -1.706  0.00  0.00     0.009 C 
ENDBRANCH   7   8
ENDBRANCH   1   7
TORSDOF 2
ENDMDL
