MODEL 1
REMARK minimizedAffinity 5.86367702
REMARK minimizedRMSD -1
REMARK  2 active torsions:
REMARK  status: ('A' for Active; 'I' for Inactive)
REMARK    1  A    between atoms: C1_2  and  C2_3 
REMARK    2  A    between atoms: C2_3  and  C3_4 
ROOT
ATOM      1  C3  UNL d   1       1.725   3.185  -2.160  0.00  0.00    -0.075 A 
ATOM      2  C4  UNL d   1       1.377   3.535  -0.847  0.00  0.00     0.002 A 
ATOM      3  C5  UNL d   1       1.385   2.577   0.167  0.00  0.00     0.002 A 
ATOM      4  C6  UNL d   1       1.730   1.258  -0.119  0.00  0.00    -0.004 A 
ATOM      5  C7  UNL d   1       2.061   0.895  -1.423  0.00  0.00     0.002 A 
ATOM      6  C8  UNL d   1       2.059   1.853  -2.439  0.00  0.00     0.002 A 
ENDROOT
BRANCH   1   7
ATOM      7  C2  UNL d   1       1.748   4.223  -3.256  0.00  0.00     0.056 C 
BRANCH   7   8
ATOM      8  C1  UNL d   1       0.535   4.170  -4.190  0.00  0.00     0.007 C 
ATOM      9  C   UNL d   1       0.712   5.004  -5.452  0.00  0.00     0.009 C 
ENDBRANCH   7   8
ENDBRANCH   1   7
TORSDOF 2
ENDMDL
