MODEL 1
REMARK minimizedAffinity 2.09668493
REMARK minimizedRMSD -1
REMARK  2 active torsions:
REMARK  status: ('A' for Active; 'I' for Inactive)
REMARK    1  A    between atoms: C1_2  and  C2_3 
REMARK    2  A    between atoms: C2_3  and  C3_4 
ROOT
ATOM      1  C3  UNL d   1       1.111   4.388  -4.244  0.00  0.00    -0.075 A 
ATOM      2  C4  UNL d   1       1.540   5.387  -5.130  0.00  0.00     0.002 A 
ATOM      3  C5  UNL d   1       0.636   6.000  -5.998  0.00  0.00     0.002 A 
ATOM      4  C6  UNL d   1      -0.704   5.616  -5.999  0.00  0.00    -0.004 A 
ATOM      5  C7  UNL d   1      -1.137   4.613  -5.135  0.00  0.00     0.002 A 
ATOM      6  C8  UNL d   1      -0.236   4.001  -4.262  0.00  0.00     0.002 A 
ENDROOT
BRANCH   1   7
ATOM      7  C2  UNL d   1       2.078   3.741  -3.282  0.00  0.00     0.056 C 
BRANCH   7   8
ATOM      8  C1  UNL d   1       1.404   2.992  -2.128  0.00  0.00     0.007 C 
ATOM      9  C   UNL d   1       1.499   1.478  -2.258  0.00  0.00     0.009 C 
ENDBRANCH   7   8
ENDBRANCH   1   7
TORSDOF 2
ENDMDL
