MODEL 1
REMARK minimizedAffinity 1.77054238
REMARK minimizedRMSD -1
REMARK  2 active torsions:
REMARK  status: ('A' for Active; 'I' for Inactive)
REMARK    1  A    between atoms: C1_2  and  C2_3 
REMARK    2  A    between atoms: C2_3  and  C3_4 
ROOT
ATOM      1  C3  UNL d   1       0.834   4.453  -4.003  0.00  0.00    -0.075 A 
ATOM      2  C4  UNL d   1       1.577   5.066  -5.023  0.00  0.00     0.002 A 
ATOM      3  C5  UNL d   1       0.941   5.836  -5.997  0.00  0.00     0.002 A 
ATOM      4  C6  UNL d   1      -0.443   5.994  -5.972  0.00  0.00    -0.004 A 
ATOM      5  C7  UNL d   1      -1.192   5.376  -4.973  0.00  0.00     0.002 A 
ATOM      6  C8  UNL d   1      -0.559   4.609  -3.994  0.00  0.00     0.002 A 
ENDROOT
BRANCH   1   7
ATOM      7  C2  UNL d   1       1.519   3.644  -2.928  0.00  0.00     0.056 C 
BRANCH   7   8
ATOM      8  C1  UNL d   1       1.003   2.206  -2.806  0.00  0.00     0.007 C 
ATOM      9  C   UNL d   1       1.714   1.403  -1.725  0.00  0.00     0.009 C 
ENDBRANCH   7   8
ENDBRANCH   1   7
TORSDOF 2
ENDMDL
