MODEL 1
REMARK minimizedAffinity 1.02834475
REMARK minimizedRMSD -1
REMARK  2 active torsions:
REMARK  status: ('A' for Active; 'I' for Inactive)
REMARK    1  A    between atoms: C1_2  and  C2_3 
REMARK    2  A    between atoms: C2_3  and  C3_4 
ROOT
ATOM      1  C3  UNL d   1       0.683   4.283  -3.649  0.00  0.00    -0.075 A 
ATOM      2  C4  UNL d   1      -0.670   3.922  -3.725  0.00  0.00     0.002 A 
ATOM      3  C5  UNL d   1      -1.398   4.144  -4.895  0.00  0.00     0.002 A 
ATOM      4  C6  UNL d   1      -0.787   4.738  -5.997  0.00  0.00    -0.004 A 
ATOM      5  C7  UNL d   1       0.552   5.116  -5.927  0.00  0.00     0.002 A 
ATOM      6  C8  UNL d   1       1.284   4.890  -4.759  0.00  0.00     0.002 A 
ENDROOT
BRANCH   1   7
ATOM      7  C2  UNL d   1       1.484   4.018  -2.397  0.00  0.00     0.056 C 
BRANCH   7   8
ATOM      8  C1  UNL d   1       1.156   2.684  -1.717  0.00  0.00     0.007 C 
ATOM      9  C   UNL d   1       1.169   2.766  -0.196  0.00  0.00     0.009 C 
ENDBRANCH   7   8
ENDBRANCH   1   7
TORSDOF 2
ENDMDL
