MODEL 1
REMARK minimizedAffinity 6.101367
REMARK minimizedRMSD -1
REMARK  2 active torsions:
REMARK  status: ('A' for Active; 'I' for Inactive)
REMARK    1  A    between atoms: C1_2  and  C2_3 
REMARK    2  A    between atoms: C2_3  and  C3_4 
ROOT
ATOM      1  C3  UNL d   1       0.752   4.415  -3.867  0.00  0.00    -0.075 A 
ATOM      2  C4  UNL d   1       1.521   4.883  -4.942  0.00  0.00     0.002 A 
ATOM      3  C5  UNL d   1       0.919   5.567  -5.999  0.00  0.00     0.002 A 
ATOM      4  C6  UNL d   1      -0.457   5.782  -5.999  0.00  0.00    -0.004 A 
ATOM      5  C7  UNL d   1      -1.233   5.307  -4.944  0.00  0.00     0.002 A 
ATOM      6  C8  UNL d   1      -0.633   4.626  -3.883  0.00  0.00     0.002 A 
ENDROOT
BRANCH   1   7
ATOM      7  C2  UNL d   1       1.402   3.700  -2.706  0.00  0.00     0.056 C 
BRANCH   7   8
ATOM      8  C1  UNL d   1       1.115   2.195  -2.661  0.00  0.00     0.007 C 
ATOM      9  C   UNL d   1       1.836   1.481  -1.525  0.00  0.00     0.009 C 
ENDBRANCH   7   8
ENDBRANCH   1   7
TORSDOF 2
ENDMDL
