MODEL 1
REMARK minimizedAffinity 11.0906038
REMARK minimizedRMSD -1
REMARK  2 active torsions:
REMARK  status: ('A' for Active; 'I' for Inactive)
REMARK    1  A    between atoms: C1_2  and  C2_3 
REMARK    2  A    between atoms: C2_3  and  C3_4 
ROOT
ATOM      1  C3  UNL d   1       1.551   3.361  -1.708  0.00  0.00    -0.075 A 
ATOM      2  C4  UNL d   1       1.296   2.129  -1.089  0.00  0.00     0.002 A 
ATOM      3  C5  UNL d   1       1.300   2.022   0.302  0.00  0.00     0.002 A 
ATOM      4  C6  UNL d   1       1.567   3.139   1.090  0.00  0.00    -0.004 A 
ATOM      5  C7  UNL d   1       1.838   4.365   0.485  0.00  0.00     0.002 A 
ATOM      6  C8  UNL d   1       1.831   4.476  -0.907  0.00  0.00     0.002 A 
ENDROOT
BRANCH   1   7
ATOM      7  C2  UNL d   1       1.520   3.491  -3.212  0.00  0.00     0.056 C 
BRANCH   7   8
ATOM      8  C1  UNL d   1       0.116   3.687  -3.793  0.00  0.00     0.007 C 
ATOM      9  C   UNL d   1       0.091   4.600  -5.011  0.00  0.00     0.009 C 
ENDBRANCH   7   8
ENDBRANCH   1   7
TORSDOF 2
ENDMDL
