MODEL 1
REMARK minimizedAffinity 4.51674175
REMARK minimizedRMSD -1
REMARK  2 active torsions:
REMARK  status: ('A' for Active; 'I' for Inactive)
REMARK    1  A    between atoms: C1_2  and  C2_3 
REMARK    2  A    between atoms: C2_3  and  C3_4 
ROOT
ATOM      1  C3  UNL d   1       1.080   4.681  -4.048  0.00  0.00    -0.075 A 
ATOM      2  C4  UNL d   1      -0.211   4.133  -4.048  0.00  0.00     0.002 A 
ATOM      3  C5  UNL d   1      -1.138   4.506  -5.021  0.00  0.00     0.002 A 
ATOM      4  C6  UNL d   1      -0.792   5.437  -5.998  0.00  0.00    -0.004 A 
ATOM      5  C7  UNL d   1       0.482   6.000  -5.997  0.00  0.00     0.002 A 
ATOM      6  C8  UNL d   1       1.414   5.625  -5.028  0.00  0.00     0.002 A 
ENDROOT
BRANCH   1   7
ATOM      7  C2  UNL d   1       2.099   4.259  -3.016  0.00  0.00     0.056 C 
BRANCH   7   8
ATOM      8  C1  UNL d   1       1.552   3.294  -1.958  0.00  0.00     0.007 C 
ATOM      9  C   UNL d   1       1.833   1.832  -2.278  0.00  0.00     0.009 C 
ENDBRANCH   7   8
ENDBRANCH   1   7
TORSDOF 2
ENDMDL
