MODEL 1
REMARK minimizedAffinity 6.7559247
REMARK minimizedRMSD -1
REMARK  2 active torsions:
REMARK  status: ('A' for Active; 'I' for Inactive)
REMARK    1  A    between atoms: C1_2  and  C2_3 
REMARK    2  A    between atoms: C2_3  and  C3_4 
ROOT
ATOM      1  C3  UNL d   1       1.714   3.396  -1.850  0.00  0.00    -0.075 A 
ATOM      2  C4  UNL d   1       1.551   3.787  -0.513  0.00  0.00     0.002 A 
ATOM      3  C5  UNL d   1       1.613   2.844   0.513  0.00  0.00     0.002 A 
ATOM      4  C6  UNL d   1       1.827   1.500   0.216  0.00  0.00    -0.004 A 
ATOM      5  C7  UNL d   1       1.973   1.098  -1.110  0.00  0.00     0.002 A 
ATOM      6  C8  UNL d   1       1.917   2.040  -2.139  0.00  0.00     0.002 A 
ENDROOT
BRANCH   1   7
ATOM      7  C2  UNL d   1       1.678   4.416  -2.963  0.00  0.00     0.056 C 
BRANCH   7   8
ATOM      8  C1  UNL d   1       0.441   4.316  -3.861  0.00  0.00     0.007 C 
ATOM      9  C   UNL d   1       0.441   5.328  -4.999  0.00  0.00     0.009 C 
ENDBRANCH   7   8
ENDBRANCH   1   7
TORSDOF 2
ENDMDL
