MODEL 1
REMARK minimizedAffinity 10.8580828
REMARK minimizedRMSD -1
REMARK  2 active torsions:
REMARK  status: ('A' for Active; 'I' for Inactive)
REMARK    1  A    between atoms: C1_2  and  C2_3 
REMARK    2  A    between atoms: C2_3  and  C3_4 
ROOT
ATOM      1  C3  UNL d   1       1.772  -1.169   2.721  0.00  0.00    -0.075 A 
ATOM      2  C4  UNL d   1       2.015   0.048   2.067  0.00  0.00     0.002 A 
ATOM      3  C5  UNL d   1       3.318   0.435   1.752  0.00  0.00     0.002 A 
ATOM      4  C6  UNL d   1       4.393  -0.383   2.095  0.00  0.00    -0.004 A 
ATOM      5  C7  UNL d   1       4.164  -1.586   2.759  0.00  0.00     0.002 A 
ATOM      6  C8  UNL d   1       2.862  -1.977   3.071  0.00  0.00     0.002 A 
ENDROOT
BRANCH   1   7
ATOM      7  C2  UNL d   1       0.362  -1.607   3.038  0.00  0.00     0.056 C 
BRANCH   7   8
ATOM      8  C1  UNL d   1      -0.721  -0.700   2.445  0.00  0.00     0.007 C 
ATOM      9  C   UNL d   1      -1.892  -1.472   1.852  0.00  0.00     0.009 C 
ENDBRANCH   7   8
ENDBRANCH   1   7
TORSDOF 2
ENDMDL
