MODEL 1
REMARK minimizedAffinity 3.25941277
REMARK minimizedRMSD -1
REMARK  2 active torsions:
REMARK  status: ('A' for Active; 'I' for Inactive)
REMARK    1  A    between atoms: C1_2  and  C2_3 
REMARK    2  A    between atoms: C2_3  and  C3_4 
ROOT
ATOM      1  C3  UNL d   1       1.112   4.096  -3.109  0.00  0.00    -0.075 A 
ATOM      2  C4  UNL d   1       1.945   5.147  -3.519  0.00  0.00     0.002 A 
ATOM      3  C5  UNL d   1       1.611   5.924  -4.629  0.00  0.00     0.002 A 
ATOM      4  C6  UNL d   1       0.448   5.655  -5.346  0.00  0.00    -0.004 A 
ATOM      5  C7  UNL d   1      -0.379   4.603  -4.958  0.00  0.00     0.002 A 
ATOM      6  C8  UNL d   1      -0.049   3.827  -3.845  0.00  0.00     0.002 A 
ENDROOT
BRANCH   1   7
ATOM      7  C2  UNL d   1       1.453   3.271  -1.891  0.00  0.00     0.056 C 
BRANCH   7   8
ATOM      8  C1  UNL d   1       1.186   1.771  -2.060  0.00  0.00     0.007 C 
ATOM      9  C   UNL d   1       1.904   0.913  -1.027  0.00  0.00     0.009 C 
ENDBRANCH   7   8
ENDBRANCH   1   7
TORSDOF 2
ENDMDL
