MODEL 1
REMARK minimizedAffinity -0.380221456
REMARK minimizedRMSD -1
REMARK  0 active torsions:
REMARK  status: ('A' for Active; 'I' for Inactive)
ROOT
ATOM      1  C1  DEN d   1      -1.773  -2.754   3.606  0.00  0.00     0.130 A 
ATOM      2  C2  DEN d   1      -3.216  -2.967   3.666  0.00  0.00    -0.031 A 
ATOM      3  C3  DEN d   1      -3.855  -2.034   2.716  0.00  0.00     0.027 A 
ATOM      4  C4  DEN d   1      -2.754  -0.293   1.164  0.00  0.00     0.027 A 
ATOM      5  C5  DEN d   1      -1.556   0.262   0.770  0.00  0.00    -0.003 A 
ATOM      6  C6  DEN d   1      -0.360  -0.123   1.314  0.00  0.00     0.001 A 
ATOM      7  C7  DEN d   1      -0.330  -1.122   2.251  0.00  0.00     0.017 A 
ATOM      8  C8  DEN d   1      -1.534  -1.681   2.658  0.00  0.00    -0.094 A 
ATOM      9  C9  DEN d   1      -2.732  -1.287   2.087  0.00  0.00    -0.072 A 
ENDROOT
TORSDOF 0
ENDMDL
