MODEL 1
REMARK minimizedAffinity 2.68779898
REMARK minimizedRMSD -1
REMARK  0 active torsions:
REMARK  status: ('A' for Active; 'I' for Inactive)
ROOT
ATOM      1  C1  DEN d   1       3.467   5.958   1.393  0.00  0.00     0.130 A 
ATOM      2  C2  DEN d   1       4.912   5.982   1.604  0.00  0.00    -0.031 A 
ATOM      3  C3  DEN d   1       5.160   5.999   3.060  0.00  0.00     0.027 A 
ATOM      4  C4  DEN d   1       3.456   5.986   4.996  0.00  0.00     0.027 A 
ATOM      5  C5  DEN d   1       2.115   5.980   5.312  0.00  0.00    -0.003 A 
ATOM      6  C6  DEN d   1       1.139   6.000   4.352  0.00  0.00     0.001 A 
ATOM      7  C7  DEN d   1       1.489   5.982   3.027  0.00  0.00     0.017 A 
ATOM      8  C8  DEN d   1       2.839   5.996   2.701  0.00  0.00    -0.094 A 
ATOM      9  C9  DEN d   1       3.811   5.963   3.687  0.00  0.00    -0.072 A 
ENDROOT
TORSDOF 0
ENDMDL
