MODEL 1
REMARK minimizedAffinity 8.12305737
REMARK minimizedRMSD -1
REMARK  0 active torsions:
REMARK  status: ('A' for Active; 'I' for Inactive)
ROOT
ATOM      1  C1  DEN d   1       0.952   5.965   4.528  0.00  0.00     0.130 A 
ATOM      2  C2  DEN d   1       1.504   5.999   5.880  0.00  0.00    -0.031 A 
ATOM      3  C3  DEN d   1       2.977   5.992   5.772  0.00  0.00     0.027 A 
ATOM      4  C4  DEN d   1       4.449   5.939   3.655  0.00  0.00     0.027 A 
ATOM      5  C5  DEN d   1       4.434   5.892   2.278  0.00  0.00    -0.003 A 
ATOM      6  C6  DEN d   1       3.268   5.833   1.562  0.00  0.00     0.001 A 
ATOM      7  C7  DEN d   1       2.066   5.864   2.219  0.00  0.00     0.017 A 
ATOM      8  C8  DEN d   1       2.073   5.904   3.607  0.00  0.00    -0.094 A 
ATOM      9  C9  DEN d   1       3.262   5.975   4.312  0.00  0.00    -0.072 A 
ENDROOT
TORSDOF 0
ENDMDL
