MODEL 1
REMARK minimizedAffinity 1.3789674
REMARK minimizedRMSD -1
REMARK  0 active torsions:
REMARK  status: ('A' for Active; 'I' for Inactive)
ROOT
ATOM      1  C   UNL d   1      -2.806   0.370   1.830  0.00  0.00     0.172 C 
ATOM      2  N   UNL d   1      -2.322  -0.477   2.894  0.00  0.00    -0.070 N 
ATOM      3  C1  UNL d   1      -3.098  -1.266   3.702  0.00  0.00    -0.004 A 
ATOM      4  C2  UNL d   1      -2.263  -1.914   4.586  0.00  0.00    -0.047 A 
ATOM      5  C3  UNL d   1      -0.940  -1.501   4.300  0.00  0.00    -0.047 A 
ATOM      6  C4  UNL d   1      -1.006  -0.611   3.249  0.00  0.00    -0.004 A 
ENDROOT
TORSDOF 0
ENDMDL
