MODEL 1
REMARK minimizedAffinity 0.206100896
REMARK minimizedRMSD -1
REMARK  0 active torsions:
REMARK  status: ('A' for Active; 'I' for Inactive)
ROOT
ATOM      1  C   UNL d   1       0.049  -0.197  -0.099  0.00  0.00     0.172 C 
ATOM      2  N   UNL d   1       1.189   0.688  -0.053  0.00  0.00    -0.070 N 
ATOM      3  C1  UNL d   1       2.035   0.956  -1.096  0.00  0.00    -0.004 A 
ATOM      4  C2  UNL d   1       2.988   1.845  -0.649  0.00  0.00    -0.047 A 
ATOM      5  C3  UNL d   1       2.706   2.121   0.710  0.00  0.00    -0.047 A 
ATOM      6  C4  UNL d   1       1.587   1.392   1.053  0.00  0.00    -0.004 A 
ENDROOT
TORSDOF 0
ENDMDL
