MODEL 1
REMARK minimizedAffinity 3.67568851
REMARK minimizedRMSD -1
REMARK  0 active torsions:
REMARK  status: ('A' for Active; 'I' for Inactive)
ROOT
ATOM      1  C   UNL d   1       1.166   0.124   1.118  0.00  0.00     0.172 C 
ATOM      2  N   UNL d   1       0.031   0.055   2.008  0.00  0.00    -0.070 N 
ATOM      3  C1  UNL d   1      -1.216   0.558   1.751  0.00  0.00    -0.004 A 
ATOM      4  C2  UNL d   1      -2.013   0.289   2.843  0.00  0.00    -0.047 A 
ATOM      5  C3  UNL d   1      -1.216  -0.398   3.790  0.00  0.00    -0.047 A 
ATOM      6  C4  UNL d   1       0.045  -0.530   3.247  0.00  0.00    -0.004 A 
ENDROOT
TORSDOF 0
ENDMDL
