MODEL 1
REMARK minimizedAffinity 6.9415555
REMARK minimizedRMSD -1
REMARK  0 active torsions:
REMARK  status: ('A' for Active; 'I' for Inactive)
ROOT
ATOM      1  C   UNL d   1      -1.581   0.988   1.822  0.00  0.00     0.172 C 
ATOM      2  N   UNL d   1      -1.920  -0.155   2.636  0.00  0.00    -0.070 N 
ATOM      3  C1  UNL d   1      -1.096  -0.761   3.546  0.00  0.00    -0.004 A 
ATOM      4  C2  UNL d   1      -1.788  -1.809   4.112  0.00  0.00    -0.047 A 
ATOM      5  C3  UNL d   1      -3.074  -1.836   3.520  0.00  0.00    -0.047 A 
ATOM      6  C4  UNL d   1      -3.128  -0.801   2.611  0.00  0.00    -0.004 A 
ENDROOT
TORSDOF 0
ENDMDL
