MODEL 1
REMARK minimizedAffinity -0.602371573
REMARK minimizedRMSD -1
REMARK  0 active torsions:
REMARK  status: ('A' for Active; 'I' for Inactive)
ROOT
ATOM      1  C   UNL d   1      -1.227  -0.978   3.380  0.00  0.00     0.172 C 
ATOM      2  N   UNL d   1       0.033  -1.348   3.981  0.00  0.00    -0.070 N 
ATOM      3  C1  UNL d   1       0.228  -1.655   5.301  0.00  0.00    -0.004 A 
ATOM      4  C2  UNL d   1       1.563  -1.953   5.472  0.00  0.00    -0.047 A 
ATOM      5  C3  UNL d   1       2.192  -1.818   4.212  0.00  0.00    -0.047 A 
ATOM      6  C4  UNL d   1       1.222  -1.443   3.307  0.00  0.00    -0.004 A 
ENDROOT
TORSDOF 0
ENDMDL
