MODEL 1
REMARK minimizedAffinity 3.80297422
REMARK minimizedRMSD -1
REMARK  0 active torsions:
REMARK  status: ('A' for Active; 'I' for Inactive)
ROOT
ATOM      1  C   UNL d   1       0.150  -1.251   4.291  0.00  0.00     0.172 C 
ATOM      2  N   UNL d   1      -1.165  -0.946   3.778  0.00  0.00    -0.070 N 
ATOM      3  C1  UNL d   1      -1.480   0.110   2.966  0.00  0.00    -0.004 A 
ATOM      4  C2  UNL d   1      -2.831   0.050   2.700  0.00  0.00    -0.047 A 
ATOM      5  C3  UNL d   1      -3.346  -1.081   3.377  0.00  0.00    -0.047 A 
ATOM      6  C4  UNL d   1      -2.293  -1.679   4.036  0.00  0.00    -0.004 A 
ENDROOT
TORSDOF 0
ENDMDL
