MODEL 1
REMARK minimizedAffinity 0.22243382
REMARK minimizedRMSD -1
REMARK  0 active torsions:
REMARK  status: ('A' for Active; 'I' for Inactive)
ROOT
ATOM      1  C   UNL d   1       0.343  -1.027   3.678  0.00  0.00     0.172 C 
ATOM      2  N   UNL d   1      -0.641  -0.348   2.869  0.00  0.00    -0.070 N 
ATOM      3  C1  UNL d   1      -1.825   0.171   3.320  0.00  0.00    -0.004 A 
ATOM      4  C2  UNL d   1      -2.477   0.734   2.244  0.00  0.00    -0.047 A 
ATOM      5  C3  UNL d   1      -1.657   0.545   1.106  0.00  0.00    -0.047 A 
ATOM      6  C4  UNL d   1      -0.527  -0.127   1.522  0.00  0.00    -0.004 A 
ENDROOT
TORSDOF 0
ENDMDL
