MODEL 1
REMARK minimizedAffinity -1.64711165
REMARK minimizedRMSD -1
REMARK  1 active torsions:
REMARK  status: ('A' for Active; 'I' for Inactive)
REMARK    1  A    between atoms: C1_2  and  C2_3 
ROOT
ATOM      1  C2  UNL d   1       0.899   5.074   4.183  0.00  0.00    -0.081 A 
ATOM      2  C3  UNL d   1       1.895   4.415   4.914  0.00  0.00     0.006 A 
ATOM      3  C4  UNL d   1       2.832   3.607   4.265  0.00  0.00     0.002 A 
ATOM      4  C5  UNL d   1       2.794   3.452   2.875  0.00  0.00    -0.080 A 
ATOM      5  C6  UNL d   1       3.812   2.612   2.163  0.00  0.00     0.076 C 
ATOM      6  C7  UNL d   1       1.788   4.096   2.147  0.00  0.00     0.002 A 
ATOM      7  C8  UNL d   1       0.850   4.903   2.795  0.00  0.00     0.006 A 
ENDROOT
BRANCH   1   8
ATOM      8  C1  UNL d   1      -0.074   5.997   4.872  0.00  0.00     0.054 C 
ATOM      9  C   UNL d   1      -1.430   5.988   4.181  0.00  0.00     0.018 C 
ENDBRANCH   1   8
TORSDOF 1
ENDMDL
