MODEL 1
REMARK minimizedAffinity 3.10037994
REMARK minimizedRMSD -1
REMARK  1 active torsions:
REMARK  status: ('A' for Active; 'I' for Inactive)
REMARK    1  A    between atoms: C1_2  and  C2_3 
ROOT
ATOM      1  C2  UNL d   1       1.959   3.953  -5.888  0.00  0.00    -0.081 A 
ATOM      2  C3  UNL d   1       3.046   4.835  -5.911  0.00  0.00     0.006 A 
ATOM      3  C4  UNL d   1       4.355   4.346  -5.922  0.00  0.00     0.002 A 
ATOM      4  C5  UNL d   1       4.598   2.969  -5.919  0.00  0.00    -0.080 A 
ATOM      5  C6  UNL d   1       5.997   2.430  -5.962  0.00  0.00     0.076 C 
ATOM      6  C7  UNL d   1       3.512   2.087  -5.879  0.00  0.00     0.002 A 
ATOM      7  C8  UNL d   1       2.203   2.575  -5.867  0.00  0.00     0.006 A 
ENDROOT
BRANCH   1   8
ATOM      8  C1  UNL d   1       0.546   4.476  -5.941  0.00  0.00     0.054 C 
ATOM      9  C   UNL d   1       0.521   5.997  -5.991  0.00  0.00     0.018 C 
ENDBRANCH   1   8
TORSDOF 1
ENDMDL
