MODEL 1
REMARK minimizedAffinity 3.92734647
REMARK minimizedRMSD -1
REMARK  1 active torsions:
REMARK  status: ('A' for Active; 'I' for Inactive)
REMARK    1  A    between atoms: C1_2  and  C2_3 
ROOT
ATOM      1  C2  UNL d   1       1.736   5.181   4.540  0.00  0.00    -0.081 A 
ATOM      2  C3  UNL d   1       1.136   4.940   3.298  0.00  0.00     0.006 A 
ATOM      3  C4  UNL d   1       1.770   4.131   2.351  0.00  0.00     0.002 A 
ATOM      4  C5  UNL d   1       3.008   3.545   2.633  0.00  0.00    -0.080 A 
ATOM      5  C6  UNL d   1       3.684   2.650   1.637  0.00  0.00     0.076 C 
ATOM      6  C7  UNL d   1       3.616   3.800   3.867  0.00  0.00     0.002 A 
ATOM      7  C8  UNL d   1       2.983   4.609   4.814  0.00  0.00     0.006 A 
ENDROOT
BRANCH   1   8
ATOM      8  C1  UNL d   1       1.026   6.000   5.587  0.00  0.00     0.054 C 
ATOM      9  C   UNL d   1      -0.479   6.000   5.363  0.00  0.00     0.018 C 
ENDBRANCH   1   8
TORSDOF 1
ENDMDL
