MODEL 1
REMARK minimizedAffinity 9.31256104
REMARK minimizedRMSD -1
REMARK  1 active torsions:
REMARK  status: ('A' for Active; 'I' for Inactive)
REMARK    1  A    between atoms: C1_2  and  C2_3 
ROOT
ATOM      1  C2  UNL d   1       3.572   5.504   5.127  0.00  0.00    -0.081 A 
ATOM      2  C3  UNL d   1       3.253   4.953   3.880  0.00  0.00     0.006 A 
ATOM      3  C4  UNL d   1       1.923   4.876   3.460  0.00  0.00     0.002 A 
ATOM      4  C5  UNL d   1       0.891   5.353   4.275  0.00  0.00    -0.080 A 
ATOM      5  C6  UNL d   1      -0.538   5.304   3.823  0.00  0.00     0.076 C 
ATOM      6  C7  UNL d   1       1.209   5.887   5.529  0.00  0.00     0.002 A 
ATOM      7  C8  UNL d   1       2.538   5.965   5.950  0.00  0.00     0.006 A 
ENDROOT
BRANCH   1   8
ATOM      8  C1  UNL d   1       5.010   5.648   5.556  0.00  0.00     0.054 C 
ATOM      9  C   UNL d   1       5.917   5.926   4.366  0.00  0.00     0.018 C 
ENDBRANCH   1   8
TORSDOF 1
ENDMDL
