MODEL 1
REMARK minimizedAffinity 3.02531409
REMARK minimizedRMSD -1
REMARK  1 active torsions:
REMARK  status: ('A' for Active; 'I' for Inactive)
REMARK    1  A    between atoms: C1_2  and  C2_3 
ROOT
ATOM      1  C2  UNL d   1       3.019   4.814   4.881  0.00  0.00    -0.081 A 
ATOM      2  C3  UNL d   1       2.231   5.916   5.237  0.00  0.00     0.006 A 
ATOM      3  C4  UNL d   1       0.901   6.000   4.818  0.00  0.00     0.002 A 
ATOM      4  C5  UNL d   1       0.334   4.981   4.045  0.00  0.00    -0.080 A 
ATOM      5  C6  UNL d   1      -1.101   5.045   3.615  0.00  0.00     0.076 C 
ATOM      6  C7  UNL d   1       1.126   3.889   3.675  0.00  0.00     0.002 A 
ATOM      7  C8  UNL d   1       2.456   3.805   4.092  0.00  0.00     0.006 A 
ENDROOT
BRANCH   1   8
ATOM      8  C1  UNL d   1       4.434   4.690   5.385  0.00  0.00     0.054 C 
ATOM      9  C   UNL d   1       4.926   6.000   5.983  0.00  0.00     0.018 C 
ENDBRANCH   1   8
TORSDOF 1
ENDMDL
