MODEL 1
REMARK minimizedAffinity 4.12191057
REMARK minimizedRMSD -1
REMARK  1 active torsions:
REMARK  status: ('A' for Active; 'I' for Inactive)
REMARK    1  A    between atoms: C1_2  and  C2_3 
ROOT
ATOM      1  C2  UNL d   1       3.081   2.466  -5.932  0.00  0.00    -0.081 A 
ATOM      2  C3  UNL d   1       2.505   3.741  -5.878  0.00  0.00     0.006 A 
ATOM      3  C4  UNL d   1       3.311   4.883  -5.887  0.00  0.00     0.002 A 
ATOM      4  C5  UNL d   1       4.703   4.768  -5.958  0.00  0.00    -0.080 A 
ATOM      5  C6  UNL d   1       5.578   5.986  -5.999  0.00  0.00     0.076 C 
ATOM      6  C7  UNL d   1       5.279   3.493  -5.994  0.00  0.00     0.002 A 
ATOM      7  C8  UNL d   1       4.474   2.352  -5.985  0.00  0.00     0.006 A 
ENDROOT
BRANCH   1   8
ATOM      8  C1  UNL d   1       2.212   1.235  -5.988  0.00  0.00     0.054 C 
ATOM      9  C   UNL d   1       0.735   1.600  -5.990  0.00  0.00     0.018 C 
ENDBRANCH   1   8
TORSDOF 1
ENDMDL
