MODEL 1
REMARK minimizedAffinity 8.48282433
REMARK minimizedRMSD -1
REMARK  1 active torsions:
REMARK  status: ('A' for Active; 'I' for Inactive)
REMARK    1  A    between atoms: C1_2  and  C2_3 
ROOT
ATOM      1  C2  UNL d   1       3.366   3.723   3.165  0.00  0.00    -0.081 A 
ATOM      2  C3  UNL d   1       2.198   3.181   3.716  0.00  0.00     0.006 A 
ATOM      3  C4  UNL d   1       1.449   3.909   4.643  0.00  0.00     0.002 A 
ATOM      4  C5  UNL d   1       1.849   5.193   5.028  0.00  0.00    -0.080 A 
ATOM      5  C6  UNL d   1       1.038   5.998   5.999  0.00  0.00     0.076 C 
ATOM      6  C7  UNL d   1       3.026   5.728   4.491  0.00  0.00     0.002 A 
ATOM      7  C8  UNL d   1       3.776   5.000   3.564  0.00  0.00     0.006 A 
ENDROOT
BRANCH   1   8
ATOM      8  C1  UNL d   1       4.141   2.967   2.116  0.00  0.00     0.054 C 
ATOM      9  C   UNL d   1       3.401   2.949   0.786  0.00  0.00     0.018 C 
ENDBRANCH   1   8
TORSDOF 1
ENDMDL
