MODEL 1
REMARK minimizedAffinity 6.18684149
REMARK minimizedRMSD -1
REMARK  1 active torsions:
REMARK  status: ('A' for Active; 'I' for Inactive)
REMARK    1  A    between atoms: C1_2  and  C2_3 
ROOT
ATOM      1  C2  UNL d   1       4.275  -3.898  -1.596  0.00  0.00    -0.073 A 
ATOM      2  C3  UNL d   1       4.353  -4.885  -2.585  0.00  0.00    -0.002 A 
ATOM      3  C4  UNL d   1       3.407  -5.910  -2.634  0.00  0.00     0.004 A 
ATOM      4  C5  UNL d   1       2.371  -5.954  -1.702  0.00  0.00    -0.004 A 
ATOM      5  C6  UNL d   1       2.269  -4.971  -0.713  0.00  0.00    -0.075 A 
ATOM      6  C7  UNL d   1       1.162  -5.006   0.300  0.00  0.00     0.076 C 
ATOM      7  C8  UNL d   1       3.225  -3.946  -0.668  0.00  0.00     0.001 A 
ENDROOT
BRANCH   1   8
ATOM      8  C1  UNL d   1       5.290  -2.786  -1.542  0.00  0.00     0.053 C 
ATOM      9  C   UNL d   1       4.699  -1.453  -1.972  0.00  0.00     0.018 C 
ENDBRANCH   1   8
TORSDOF 1
ENDMDL
