MODEL 1
REMARK minimizedAffinity 10.2085571
REMARK minimizedRMSD -1
REMARK  1 active torsions:
REMARK  status: ('A' for Active; 'I' for Inactive)
REMARK    1  A    between atoms: C1_2  and  C2_3 
ROOT
ATOM      1  C2  UNL d   1      -1.041   1.360  -0.469  0.00  0.00    -0.073 A 
ATOM      2  C3  UNL d   1      -2.404   1.376  -0.153  0.00  0.00    -0.002 A 
ATOM      3  C4  UNL d   1      -3.240   0.345  -0.583  0.00  0.00     0.004 A 
ATOM      4  C5  UNL d   1      -2.721  -0.716  -1.325  0.00  0.00    -0.004 A 
ATOM      5  C6  UNL d   1      -1.359  -0.756  -1.641  0.00  0.00    -0.075 A 
ATOM      6  C7  UNL d   1      -0.786  -1.889  -2.441  0.00  0.00     0.076 C 
ATOM      7  C8  UNL d   1      -0.527   0.285  -1.208  0.00  0.00     0.001 A 
ENDROOT
BRANCH   1   8
ATOM      8  C1  UNL d   1      -0.133   2.468  -0.002  0.00  0.00     0.053 C 
ATOM      9  C   UNL d   1      -0.350   3.752  -0.788  0.00  0.00     0.018 C 
ENDBRANCH   1   8
TORSDOF 1
ENDMDL
