MODEL 1
REMARK minimizedAffinity 2.59301448
REMARK minimizedRMSD -1
REMARK  1 active torsions:
REMARK  status: ('A' for Active; 'I' for Inactive)
REMARK    1  A    between atoms: C1_2  and  C2_3 
ROOT
ATOM      1  C2  UNL d   1      -3.479  -1.043  -0.957  0.00  0.00    -0.073 A 
ATOM      2  C3  UNL d   1      -3.801   0.278  -1.289  0.00  0.00    -0.002 A 
ATOM      3  C4  UNL d   1      -4.278   1.154  -0.314  0.00  0.00     0.004 A 
ATOM      4  C5  UNL d   1      -4.432   0.722   1.003  0.00  0.00    -0.004 A 
ATOM      5  C6  UNL d   1      -4.104  -0.591   1.358  0.00  0.00    -0.075 A 
ATOM      6  C7  UNL d   1      -4.266  -1.072   2.770  0.00  0.00     0.076 C 
ATOM      7  C8  UNL d   1      -3.628  -1.465   0.372  0.00  0.00     0.001 A 
ENDROOT
BRANCH   1   8
ATOM      8  C1  UNL d   1      -2.957  -1.990  -2.006  0.00  0.00     0.053 C 
ATOM      9  C   UNL d   1      -1.457  -1.844  -2.211  0.00  0.00     0.018 C 
ENDBRANCH   1   8
TORSDOF 1
ENDMDL
