MODEL 1
REMARK minimizedAffinity 1.09216607
REMARK minimizedRMSD -1
REMARK  1 active torsions:
REMARK  status: ('A' for Active; 'I' for Inactive)
REMARK    1  A    between atoms: C1_2  and  C2_3 
ROOT
ATOM      1  C2  UNL d   1      -0.552   1.672  -0.738  0.00  0.00    -0.073 A 
ATOM      2  C3  UNL d   1       0.165   0.470  -0.746  0.00  0.00    -0.002 A 
ATOM      3  C4  UNL d   1      -0.486  -0.737  -1.002  0.00  0.00     0.004 A 
ATOM      4  C5  UNL d   1      -1.857  -0.755  -1.260  0.00  0.00    -0.004 A 
ATOM      5  C6  UNL d   1      -2.588   0.437  -1.267  0.00  0.00    -0.075 A 
ATOM      6  C7  UNL d   1      -4.064   0.435  -1.540  0.00  0.00     0.076 C 
ATOM      7  C8  UNL d   1      -1.928   1.645  -1.006  0.00  0.00     0.001 A 
ENDROOT
BRANCH   1   8
ATOM      8  C1  UNL d   1       0.148   2.979  -0.468  0.00  0.00     0.053 C 
ATOM      9  C   UNL d   1       0.480   3.154   1.006  0.00  0.00     0.018 C 
ENDBRANCH   1   8
TORSDOF 1
ENDMDL
