MODEL 1
REMARK minimizedAffinity 3.48503256
REMARK minimizedRMSD -1
REMARK  1 active torsions:
REMARK  status: ('A' for Active; 'I' for Inactive)
REMARK    1  A    between atoms: C1_2  and  C2_3 
ROOT
ATOM      1  C2  UNL d   1       1.541   0.548   1.092  0.00  0.00    -0.073 A 
ATOM      2  C3  UNL d   1       0.747   1.576   0.571  0.00  0.00    -0.002 A 
ATOM      3  C4  UNL d   1      -0.547   1.309   0.122  0.00  0.00     0.004 A 
ATOM      4  C5  UNL d   1      -1.062   0.015   0.195  0.00  0.00    -0.004 A 
ATOM      5  C6  UNL d   1      -0.288  -1.024   0.722  0.00  0.00    -0.075 A 
ATOM      6  C7  UNL d   1      -0.827  -2.422   0.805  0.00  0.00     0.076 C 
ATOM      7  C8  UNL d   1       1.011  -0.748   1.169  0.00  0.00     0.001 A 
ENDROOT
BRANCH   1   8
ATOM      8  C1  UNL d   1       2.937   0.833   1.584  0.00  0.00     0.053 C 
ATOM      9  C   UNL d   1       3.890  -0.316   1.291  0.00  0.00     0.018 C 
ENDBRANCH   1   8
TORSDOF 1
ENDMDL
