MODEL 1
REMARK minimizedAffinity -2.5015552
REMARK minimizedRMSD -1
REMARK  1 active torsions:
REMARK  status: ('A' for Active; 'I' for Inactive)
REMARK    1  A    between atoms: C1_2  and  C2_3 
ROOT
ATOM      1  C2  UNL d   1      -0.901   0.422  -0.577  0.00  0.00    -0.073 A 
ATOM      2  C3  UNL d   1      -1.614  -0.557   0.125  0.00  0.00    -0.002 A 
ATOM      3  C4  UNL d   1      -2.704  -1.196  -0.468  0.00  0.00     0.004 A 
ATOM      4  C5  UNL d   1      -3.088  -0.869  -1.768  0.00  0.00    -0.004 A 
ATOM      5  C6  UNL d   1      -2.381   0.099  -2.490  0.00  0.00    -0.075 A 
ATOM      6  C7  UNL d   1      -2.783   0.464  -3.889  0.00  0.00     0.076 C 
ATOM      7  C8  UNL d   1      -1.289   0.738  -1.887  0.00  0.00     0.001 A 
ENDROOT
BRANCH   1   8
ATOM      8  C1  UNL d   1       0.280   1.110   0.057  0.00  0.00     0.053 C 
ATOM      9  C   UNL d   1       1.445   0.158   0.274  0.00  0.00     0.018 C 
ENDBRANCH   1   8
TORSDOF 1
ENDMDL
