MODEL 1
REMARK minimizedAffinity -5.54002953
REMARK minimizedRMSD -1
REMARK  1 active torsions:
REMARK  status: ('A' for Active; 'I' for Inactive)
REMARK    1  A    between atoms: C1_2  and  C2_3 
ROOT
ATOM      1  C2  UNL d   1       0.919   0.498   0.453  0.00  0.00    -0.073 A 
ATOM      2  C3  UNL d   1       2.272   0.858   0.429  0.00  0.00    -0.002 A 
ATOM      3  C4  UNL d   1       3.236   0.011   0.978  0.00  0.00     0.004 A 
ATOM      4  C5  UNL d   1       2.859  -1.204   1.550  0.00  0.00    -0.004 A 
ATOM      5  C6  UNL d   1       1.514  -1.586   1.573  0.00  0.00    -0.075 A 
ATOM      6  C7  UNL d   1       1.093  -2.889   2.187  0.00  0.00     0.076 C 
ATOM      7  C8  UNL d   1       0.552  -0.730   1.022  0.00  0.00     0.001 A 
ENDROOT
BRANCH   1   8
ATOM      8  C1  UNL d   1      -0.125   1.406  -0.144  0.00  0.00     0.053 C 
ATOM      9  C   UNL d   1      -1.357   0.638  -0.595  0.00  0.00     0.018 C 
ENDBRANCH   1   8
TORSDOF 1
ENDMDL
