MODEL 1
REMARK minimizedAffinity -5.32272148
REMARK minimizedRMSD -1
REMARK  1 active torsions:
REMARK  status: ('A' for Active; 'I' for Inactive)
REMARK    1  A    between atoms: C1_2  and  C2_3 
ROOT
ATOM      1  C2  UNL d   1      -0.954  -0.107  -0.443  0.00  0.00    -0.073 A 
ATOM      2  C3  UNL d   1      -1.325  -1.115   0.453  0.00  0.00    -0.002 A 
ATOM      3  C4  UNL d   1      -0.367  -1.726   1.263  0.00  0.00     0.004 A 
ATOM      4  C5  UNL d   1       0.969  -1.331   1.191  0.00  0.00    -0.004 A 
ATOM      5  C6  UNL d   1       1.357  -0.316   0.310  0.00  0.00    -0.075 A 
ATOM      6  C7  UNL d   1       2.790   0.119   0.218  0.00  0.00     0.076 C 
ATOM      7  C8  UNL d   1       0.390   0.290  -0.502  0.00  0.00     0.001 A 
ENDROOT
BRANCH   1   8
ATOM      8  C1  UNL d   1      -1.986   0.560  -1.315  0.00  0.00     0.053 C 
ATOM      9  C   UNL d   1      -2.093  -0.102  -2.680  0.00  0.00     0.018 C 
ENDBRANCH   1   8
TORSDOF 1
ENDMDL
