MODEL 1
REMARK minimizedAffinity -0.96228838
REMARK minimizedRMSD -1
REMARK  1 active torsions:
REMARK  status: ('A' for Active; 'I' for Inactive)
REMARK    1  A    between atoms: C1_2  and  C2_3 
ROOT
ATOM      1  C2  UNL d   1      -0.897  -0.287  -1.331  0.00  0.00    -0.073 A 
ATOM      2  C3  UNL d   1      -0.875   1.053  -0.928  0.00  0.00    -0.002 A 
ATOM      3  C4  UNL d   1      -0.043   1.460   0.116  0.00  0.00     0.004 A 
ATOM      4  C5  UNL d   1       0.779   0.536   0.761  0.00  0.00    -0.004 A 
ATOM      5  C6  UNL d   1       0.779  -0.806   0.364  0.00  0.00    -0.075 A 
ATOM      6  C7  UNL d   1       1.655  -1.813   1.049  0.00  0.00     0.076 C 
ATOM      7  C8  UNL d   1      -0.061  -1.208  -0.683  0.00  0.00     0.001 A 
ENDROOT
BRANCH   1   8
ATOM      8  C1  UNL d   1      -1.789  -0.731  -2.462  0.00  0.00     0.053 C 
ATOM      9  C   UNL d   1      -2.374   0.449  -3.223  0.00  0.00     0.018 C 
ENDBRANCH   1   8
TORSDOF 1
ENDMDL
