MODEL 1
REMARK minimizedAffinity 6.31557131
REMARK minimizedRMSD -1
REMARK  1 active torsions:
REMARK  status: ('A' for Active; 'I' for Inactive)
REMARK    1  A    between atoms: C1_2  and  C2_3 
ROOT
ATOM      1  C2  UNL d   1      -4.692   2.789   5.316  0.00  0.00    -0.073 A 
ATOM      2  C3  UNL d   1      -4.130   2.625   4.045  0.00  0.00    -0.002 A 
ATOM      3  C4  UNL d   1      -4.167   1.382   3.413  0.00  0.00     0.004 A 
ATOM      4  C5  UNL d   1      -4.771   0.293   4.041  0.00  0.00    -0.004 A 
ATOM      5  C6  UNL d   1      -5.348   0.440   5.306  0.00  0.00    -0.075 A 
ATOM      6  C7  UNL d   1      -6.000  -0.723   5.997  0.00  0.00     0.076 C 
ATOM      7  C8  UNL d   1      -5.305   1.691   5.936  0.00  0.00     0.001 A 
ENDROOT
BRANCH   1   8
ATOM      8  C1  UNL d   1      -4.660   4.132   6.000  0.00  0.00     0.053 C 
ATOM      9  C   UNL d   1      -5.931   4.928   5.751  0.00  0.00     0.018 C 
ENDBRANCH   1   8
TORSDOF 1
ENDMDL
