MODEL 1
REMARK minimizedAffinity 8.94115829
REMARK minimizedRMSD -1
REMARK  1 active torsions:
REMARK  status: ('A' for Active; 'I' for Inactive)
REMARK    1  A    between atoms: C1_2  and  C2_3 
ROOT
ATOM      1  C2  UNL d   1       4.564  -0.722   3.130  0.00  0.00    -0.073 A 
ATOM      2  C3  UNL d   1       5.406  -1.177   2.109  0.00  0.00    -0.002 A 
ATOM      3  C4  UNL d   1       5.149  -0.839   0.780  0.00  0.00     0.004 A 
ATOM      4  C5  UNL d   1       4.053  -0.038   0.459  0.00  0.00    -0.004 A 
ATOM      5  C6  UNL d   1       3.207   0.437   1.466  0.00  0.00    -0.075 A 
ATOM      6  C7  UNL d   1       2.022   1.297   1.137  0.00  0.00     0.076 C 
ATOM      7  C8  UNL d   1       3.470   0.091   2.798  0.00  0.00     0.001 A 
ENDROOT
BRANCH   1   8
ATOM      8  C1  UNL d   1       4.842  -1.079   4.567  0.00  0.00     0.053 C 
ATOM      9  C   UNL d   1       5.984  -0.260   5.148  0.00  0.00     0.018 C 
ENDBRANCH   1   8
TORSDOF 1
ENDMDL
