MODEL 1
REMARK minimizedAffinity 16.7250404
REMARK minimizedRMSD -1
REMARK  1 active torsions:
REMARK  status: ('A' for Active; 'I' for Inactive)
REMARK    1  A    between atoms: C1_2  and  C2_3 
ROOT
ATOM      1  C2  UNL d   1      -3.456  -3.007  -2.415  0.00  0.00    -0.073 A 
ATOM      2  C3  UNL d   1      -3.232  -2.443  -1.155  0.00  0.00    -0.002 A 
ATOM      3  C4  UNL d   1      -2.040  -1.768  -0.886  0.00  0.00     0.004 A 
ATOM      4  C5  UNL d   1      -1.064  -1.646  -1.876  0.00  0.00    -0.004 A 
ATOM      5  C6  UNL d   1      -1.275  -2.193  -3.145  0.00  0.00    -0.075 A 
ATOM      6  C7  UNL d   1      -0.235  -2.071  -4.220  0.00  0.00     0.076 C 
ATOM      7  C8  UNL d   1      -2.473  -2.871  -3.406  0.00  0.00     0.001 A 
ENDROOT
BRANCH   1   8
ATOM      8  C1  UNL d   1      -4.744  -3.731  -2.712  0.00  0.00     0.053 C 
ATOM      9  C   UNL d   1      -5.529  -3.062  -3.829  0.00  0.00     0.018 C 
ENDBRANCH   1   8
TORSDOF 1
ENDMDL
