MODEL 1
REMARK minimizedAffinity 10.4214334
REMARK minimizedRMSD -1
REMARK  1 active torsions:
REMARK  status: ('A' for Active; 'I' for Inactive)
REMARK    1  A    between atoms: C1_2  and  C2_3 
ROOT
ATOM      1  C2  UNL d   1      -4.574   2.395   3.592  0.00  0.00    -0.073 A 
ATOM      2  C3  UNL d   1      -4.473   3.097   4.799  0.00  0.00    -0.002 A 
ATOM      3  C4  UNL d   1      -4.873   2.501   5.996  0.00  0.00     0.004 A 
ATOM      4  C5  UNL d   1      -5.369   1.197   6.000  0.00  0.00    -0.004 A 
ATOM      5  C6  UNL d   1      -5.466   0.476   4.806  0.00  0.00    -0.075 A 
ATOM      6  C7  UNL d   1      -6.000  -0.926   4.792  0.00  0.00     0.076 C 
ATOM      7  C8  UNL d   1      -5.066   1.082   3.607  0.00  0.00     0.001 A 
ENDROOT
BRANCH   1   8
ATOM      8  C1  UNL d   1      -4.138   3.033   2.298  0.00  0.00     0.053 C 
ATOM      9  C   UNL d   1      -5.148   4.053   1.797  0.00  0.00     0.018 C 
ENDBRANCH   1   8
TORSDOF 1
ENDMDL
