MODEL 1
REMARK minimizedAffinity 0.933813751
REMARK minimizedRMSD -1
REMARK  1 active torsions:
REMARK  status: ('A' for Active; 'I' for Inactive)
REMARK    1  A    between atoms: C1_2  and  C2_3 
ROOT
ATOM      1  C2  UNL d   1      -5.275   0.316   4.309  0.00  0.00    -0.073 A 
ATOM      2  C3  UNL d   1      -4.291   0.491   3.329  0.00  0.00    -0.002 A 
ATOM      3  C4  UNL d   1      -3.623   1.710   3.211  0.00  0.00     0.004 A 
ATOM      4  C5  UNL d   1      -3.926   2.764   4.073  0.00  0.00    -0.004 A 
ATOM      5  C6  UNL d   1      -4.898   2.605   5.066  0.00  0.00    -0.075 A 
ATOM      6  C7  UNL d   1      -5.238   3.729   6.000  0.00  0.00     0.076 C 
ATOM      7  C8  UNL d   1      -5.567   1.378   5.177  0.00  0.00     0.001 A 
ENDROOT
BRANCH   1   8
ATOM      8  C1  UNL d   1      -5.995  -1.001   4.446  0.00  0.00     0.053 C 
ATOM      9  C   UNL d   1      -5.998  -1.502   5.881  0.00  0.00     0.018 C 
ENDBRANCH   1   8
TORSDOF 1
ENDMDL
