MODEL 1
REMARK minimizedAffinity 17.4859467
REMARK minimizedRMSD -1
REMARK  1 active torsions:
REMARK  status: ('A' for Active; 'I' for Inactive)
REMARK    1  A    between atoms: C1_2  and  C2_3 
ROOT
ATOM      1  C2  UNL d   1       0.065  -1.137   1.683  0.00  0.00    -0.073 A 
ATOM      2  C3  UNL d   1      -0.404  -1.073   3.000  0.00  0.00    -0.002 A 
ATOM      3  C4  UNL d   1       0.007  -0.040   3.845  0.00  0.00     0.004 A 
ATOM      4  C5  UNL d   1       0.883   0.940   3.380  0.00  0.00    -0.004 A 
ATOM      5  C6  UNL d   1       1.354   0.899   2.064  0.00  0.00    -0.075 A 
ATOM      6  C7  UNL d   1       2.299   1.945   1.549  0.00  0.00     0.076 C 
ATOM      7  C8  UNL d   1       0.939  -0.142   1.223  0.00  0.00     0.001 A 
ENDROOT
BRANCH   1   8
ATOM      8  C1  UNL d   1      -0.381  -2.246   0.766  0.00  0.00     0.053 C 
ATOM      9  C   UNL d   1      -1.852  -2.126   0.399  0.00  0.00     0.018 C 
ENDBRANCH   1   8
TORSDOF 1
ENDMDL
