MODEL 1
REMARK minimizedAffinity 12.5709438
REMARK minimizedRMSD -1
REMARK  1 active torsions:
REMARK  status: ('A' for Active; 'I' for Inactive)
REMARK    1  A    between atoms: C1_2  and  C2_3 
ROOT
ATOM      1  C2  UNL d   1       4.665   3.108   0.848  0.00  0.00    -0.081 A 
ATOM      2  C3  UNL d   1       3.602   2.319   0.392  0.00  0.00     0.006 A 
ATOM      3  C4  UNL d   1       3.351   1.069   0.963  0.00  0.00     0.002 A 
ATOM      4  C5  UNL d   1       4.154   0.591   2.004  0.00  0.00    -0.080 A 
ATOM      5  C6  UNL d   1       3.877  -0.736   2.647  0.00  0.00     0.076 C 
ATOM      6  C7  UNL d   1       5.227   1.371   2.448  0.00  0.00     0.002 A 
ATOM      7  C8  UNL d   1       5.478   2.621   1.877  0.00  0.00     0.006 A 
ENDROOT
BRANCH   1   8
ATOM      8  C1  UNL d   1       4.898   4.484   0.278  0.00  0.00     0.054 C 
ATOM      9  C   UNL d   1       6.000   4.468  -0.773  0.00  0.00     0.018 C 
ENDBRANCH   1   8
TORSDOF 1
ENDMDL
