MODEL 1
REMARK minimizedAffinity 16.2159481
REMARK minimizedRMSD -1
REMARK  1 active torsions:
REMARK  status: ('A' for Active; 'I' for Inactive)
REMARK    1  A    between atoms: C1_2  and  C2_3 
ROOT
ATOM      1  C2  UNL d   1      -3.542  -0.294   0.854  0.00  0.00    -0.081 A 
ATOM      2  C3  UNL d   1      -2.794   0.512   1.721  0.00  0.00     0.006 A 
ATOM      3  C4  UNL d   1      -1.545   0.089   2.181  0.00  0.00     0.002 A 
ATOM      4  C5  UNL d   1      -1.019  -1.143   1.776  0.00  0.00    -0.080 A 
ATOM      5  C6  UNL d   1       0.334  -1.596   2.239  0.00  0.00     0.076 C 
ATOM      6  C7  UNL d   1      -1.774  -1.956   0.924  0.00  0.00     0.002 A 
ATOM      7  C8  UNL d   1      -3.023  -1.534   0.464  0.00  0.00     0.006 A 
ENDROOT
BRANCH   1   8
ATOM      8  C1  UNL d   1      -4.860   0.188   0.304  0.00  0.00     0.054 C 
ATOM      9  C   UNL d   1      -4.765   1.628  -0.178  0.00  0.00     0.018 C 
ENDBRANCH   1   8
TORSDOF 1
ENDMDL
