MODEL 1
REMARK minimizedAffinity 21.2570381
REMARK minimizedRMSD -1
REMARK  1 active torsions:
REMARK  status: ('A' for Active; 'I' for Inactive)
REMARK    1  A    between atoms: C1_2  and  C2_3 
ROOT
ATOM      1  C2  UNL d   1      -1.118  -2.651   0.853  0.00  0.00    -0.081 A 
ATOM      2  C3  UNL d   1      -0.155  -2.496   1.857  0.00  0.00     0.006 A 
ATOM      3  C4  UNL d   1      -0.323  -1.536   2.857  0.00  0.00     0.002 A 
ATOM      4  C5  UNL d   1      -1.459  -0.720   2.874  0.00  0.00    -0.080 A 
ATOM      5  C6  UNL d   1      -1.666   0.295   3.960  0.00  0.00     0.076 C 
ATOM      6  C7  UNL d   1      -2.413  -0.862   1.861  0.00  0.00     0.002 A 
ATOM      7  C8  UNL d   1      -2.245  -1.822   0.860  0.00  0.00     0.006 A 
ENDROOT
BRANCH   1   8
ATOM      8  C1  UNL d   1      -0.971  -3.730  -0.190  0.00  0.00     0.054 C 
ATOM      9  C   UNL d   1      -1.437  -3.246  -1.556  0.00  0.00     0.018 C 
ENDBRANCH   1   8
TORSDOF 1
ENDMDL
