MODEL 1
REMARK minimizedAffinity 12.4494905
REMARK minimizedRMSD -1
REMARK  1 active torsions:
REMARK  status: ('A' for Active; 'I' for Inactive)
REMARK    1  A    between atoms: C1_2  and  C2_3 
ROOT
ATOM      1  C2  UNL d   1      -4.953   1.897   4.669  0.00  0.00    -0.081 A 
ATOM      2  C3  UNL d   1      -3.634   1.673   4.259  0.00  0.00     0.006 A 
ATOM      3  C4  UNL d   1      -3.366   1.129   3.000  0.00  0.00     0.002 A 
ATOM      4  C5  UNL d   1      -4.412   0.807   2.129  0.00  0.00    -0.080 A 
ATOM      5  C6  UNL d   1      -4.137   0.250   0.764  0.00  0.00     0.076 C 
ATOM      6  C7  UNL d   1      -5.731   1.014   2.546  0.00  0.00     0.002 A 
ATOM      7  C8  UNL d   1      -6.000   1.558   3.804  0.00  0.00     0.006 A 
ENDROOT
BRANCH   1   8
ATOM      8  C1  UNL d   1      -5.243   2.544   5.999  0.00  0.00     0.054 C 
ATOM      9  C   UNL d   1      -5.303   4.060   5.876  0.00  0.00     0.018 C 
ENDBRANCH   1   8
TORSDOF 1
ENDMDL
