MODEL 1
REMARK minimizedAffinity 8.43292809
REMARK minimizedRMSD -1
REMARK  1 active torsions:
REMARK  status: ('A' for Active; 'I' for Inactive)
REMARK    1  A    between atoms: C1_2  and  C2_3 
ROOT
ATOM      1  C2  UNL d   1      -3.764  -3.714   2.562  0.00  0.00    -0.081 A 
ATOM      2  C3  UNL d   1      -3.967  -3.084   3.795  0.00  0.00     0.006 A 
ATOM      3  C4  UNL d   1      -4.395  -3.818   4.904  0.00  0.00     0.002 A 
ATOM      4  C5  UNL d   1      -4.619  -5.195   4.800  0.00  0.00    -0.080 A 
ATOM      5  C6  UNL d   1      -5.050  -6.000   5.990  0.00  0.00     0.076 C 
ATOM      6  C7  UNL d   1      -4.433  -5.822   3.563  0.00  0.00     0.002 A 
ATOM      7  C8  UNL d   1      -4.006  -5.088   2.454  0.00  0.00     0.006 A 
ENDROOT
BRANCH   1   8
ATOM      8  C1  UNL d   1      -3.241  -2.937   1.381  0.00  0.00     0.054 C 
ATOM      9  C   UNL d   1      -2.374  -1.769   1.827  0.00  0.00     0.018 C 
ENDBRANCH   1   8
TORSDOF 1
ENDMDL
