MODEL 1
REMARK minimizedAffinity 14.9343758
REMARK minimizedRMSD -1
REMARK  1 active torsions:
REMARK  status: ('A' for Active; 'I' for Inactive)
REMARK    1  A    between atoms: C1_2  and  C2_3 
ROOT
ATOM      1  C2  UNL d   1       4.621   2.988   0.736  0.00  0.00    -0.081 A 
ATOM      2  C3  UNL d   1       4.382   1.775   0.079  0.00  0.00     0.006 A 
ATOM      3  C4  UNL d   1       3.116   1.185   0.120  0.00  0.00     0.002 A 
ATOM      4  C5  UNL d   1       2.068   1.801   0.811  0.00  0.00    -0.080 A 
ATOM      5  C6  UNL d   1       0.697   1.194   0.838  0.00  0.00     0.076 C 
ATOM      6  C7  UNL d   1       2.311   3.005   1.482  0.00  0.00     0.002 A 
ATOM      7  C8  UNL d   1       3.577   3.594   1.442  0.00  0.00     0.006 A 
ENDROOT
BRANCH   1   8
ATOM      8  C1  UNL d   1       5.967   3.659   0.640  0.00  0.00     0.054 C 
ATOM      9  C   UNL d   1       5.998   4.677  -0.491  0.00  0.00     0.018 C 
ENDBRANCH   1   8
TORSDOF 1
ENDMDL
