MODEL 1
REMARK minimizedAffinity 17.6419392
REMARK minimizedRMSD -1
REMARK  1 active torsions:
REMARK  status: ('A' for Active; 'I' for Inactive)
REMARK    1  A    between atoms: C1_2  and  C2_3 
ROOT
ATOM      1  C2  UNL d   1       2.362   2.387  -1.983  0.00  0.00    -0.081 A 
ATOM      2  C3  UNL d   1       1.637   2.849  -0.878  0.00  0.00     0.006 A 
ATOM      3  C4  UNL d   1       1.828   2.279   0.383  0.00  0.00     0.002 A 
ATOM      4  C5  UNL d   1       2.752   1.244   0.562  0.00  0.00    -0.080 A 
ATOM      5  C6  UNL d   1       2.989   0.644   1.916  0.00  0.00     0.076 C 
ATOM      6  C7  UNL d   1       3.464   0.771  -0.546  0.00  0.00     0.002 A 
ATOM      7  C8  UNL d   1       3.273   1.340  -1.807  0.00  0.00     0.006 A 
ENDROOT
BRANCH   1   8
ATOM      8  C1  UNL d   1       2.205   3.043  -3.331  0.00  0.00     0.054 C 
ATOM      9  C   UNL d   1       3.557   3.373  -3.946  0.00  0.00     0.018 C 
ENDBRANCH   1   8
TORSDOF 1
ENDMDL
