MODEL 1
REMARK minimizedAffinity 10.7789049
REMARK minimizedRMSD -1
REMARK  1 active torsions:
REMARK  status: ('A' for Active; 'I' for Inactive)
REMARK    1  A    between atoms: C1_2  and  C2_3 
ROOT
ATOM      1  C2  UNL d   1      -0.501  -0.939   2.683  0.00  0.00    -0.081 A 
ATOM      2  C3  UNL d   1      -1.554  -0.229   2.094  0.00  0.00     0.006 A 
ATOM      3  C4  UNL d   1      -2.387   0.579   2.871  0.00  0.00     0.002 A 
ATOM      4  C5  UNL d   1      -2.175   0.697   4.249  0.00  0.00    -0.080 A 
ATOM      5  C6  UNL d   1      -3.043   1.585   5.091  0.00  0.00     0.076 C 
ATOM      6  C7  UNL d   1      -1.134  -0.026   4.841  0.00  0.00     0.002 A 
ATOM      7  C8  UNL d   1      -0.302  -0.834   4.064  0.00  0.00     0.006 A 
ENDROOT
BRANCH   1   8
ATOM      8  C1  UNL d   1       0.438  -1.760   1.837  0.00  0.00     0.054 C 
ATOM      9  C   UNL d   1       1.668  -0.958   1.438  0.00  0.00     0.018 C 
ENDBRANCH   1   8
TORSDOF 1
ENDMDL
