MODEL 1
REMARK minimizedAffinity 16.1858978
REMARK minimizedRMSD -1
REMARK  1 active torsions:
REMARK  status: ('A' for Active; 'I' for Inactive)
REMARK    1  A    between atoms: C1_2  and  C2_3 
ROOT
ATOM      1  C2  UNL d   1      -1.890   0.065   3.031  0.00  0.00    -0.081 A 
ATOM      2  C3  UNL d   1      -0.749  -0.600   2.566  0.00  0.00     0.006 A 
ATOM      3  C4  UNL d   1      -0.673  -1.032   1.239  0.00  0.00     0.002 A 
ATOM      4  C5  UNL d   1      -1.732  -0.800   0.355  0.00  0.00    -0.080 A 
ATOM      5  C6  UNL d   1      -1.651  -1.232  -1.079  0.00  0.00     0.076 C 
ATOM      6  C7  UNL d   1      -2.879  -0.151   0.825  0.00  0.00     0.002 A 
ATOM      7  C8  UNL d   1      -2.956   0.280   2.151  0.00  0.00     0.006 A 
ENDROOT
BRANCH   1   8
ATOM      8  C1  UNL d   1      -1.948   0.589   4.443  0.00  0.00     0.054 C 
ATOM      9  C   UNL d   1      -2.996   1.684   4.584  0.00  0.00     0.018 C 
ENDBRANCH   1   8
TORSDOF 1
ENDMDL
