MODEL 1
REMARK minimizedAffinity 18.1094341
REMARK minimizedRMSD -1
REMARK  1 active torsions:
REMARK  status: ('A' for Active; 'I' for Inactive)
REMARK    1  A    between atoms: C1_2  and  C2_3 
ROOT
ATOM      1  C2  UNL d   1       1.641  -0.269   1.075  0.00  0.00    -0.081 A 
ATOM      2  C3  UNL d   1       2.800  -0.417   1.848  0.00  0.00     0.006 A 
ATOM      3  C4  UNL d   1       3.885   0.443   1.668  0.00  0.00     0.002 A 
ATOM      4  C5  UNL d   1       3.828   1.470   0.720  0.00  0.00    -0.080 A 
ATOM      5  C6  UNL d   1       4.975   2.419   0.538  0.00  0.00     0.076 C 
ATOM      6  C7  UNL d   1       2.678   1.607  -0.064  0.00  0.00     0.002 A 
ATOM      7  C8  UNL d   1       1.592   0.747   0.114  0.00  0.00     0.006 A 
ENDROOT
BRANCH   1   8
ATOM      8  C1  UNL d   1       0.444  -1.155   1.311  0.00  0.00     0.054 C 
ATOM      9  C   UNL d   1      -0.488  -0.558   2.356  0.00  0.00     0.018 C 
ENDBRANCH   1   8
TORSDOF 1
ENDMDL
