MODEL 1
REMARK minimizedAffinity 14.8485956
REMARK minimizedRMSD -1
REMARK  1 active torsions:
REMARK  status: ('A' for Active; 'I' for Inactive)
REMARK    1  A    between atoms: C1_2  and  C2_3 
ROOT
ATOM      1  C2  UNL d   1       5.922   4.793   0.284  0.00  0.00    -0.081 A 
ATOM      2  C3  UNL d   1       5.943   5.999  -0.426  0.00  0.00     0.006 A 
ATOM      3  C4  UNL d   1       5.978   5.998  -1.823  0.00  0.00     0.002 A 
ATOM      4  C5  UNL d   1       5.984   4.792  -2.532  0.00  0.00    -0.080 A 
ATOM      5  C6  UNL d   1       5.991   4.776  -4.031  0.00  0.00     0.076 C 
ATOM      6  C7  UNL d   1       5.981   3.586  -1.821  0.00  0.00     0.002 A 
ATOM      7  C8  UNL d   1       5.947   3.587  -0.425  0.00  0.00     0.006 A 
ENDROOT
BRANCH   1   8
ATOM      8  C1  UNL d   1       5.819   4.791   1.788  0.00  0.00     0.054 C 
ATOM      9  C   UNL d   1       5.754   3.372   2.337  0.00  0.00     0.018 C 
ENDBRANCH   1   8
TORSDOF 1
ENDMDL
