MODEL 1
REMARK minimizedAffinity 22.0652485
REMARK minimizedRMSD -1
REMARK  1 active torsions:
REMARK  status: ('A' for Active; 'I' for Inactive)
REMARK    1  A    between atoms: C1_2  and  C2_3 
ROOT
ATOM      1  C2  UNL d   1       0.821   3.672  -3.837  0.00  0.00    -0.081 A 
ATOM      2  C3  UNL d   1       0.126   2.964  -2.849  0.00  0.00     0.006 A 
ATOM      3  C4  UNL d   1       0.819   2.208  -1.900  0.00  0.00     0.002 A 
ATOM      4  C5  UNL d   1       2.217   2.154  -1.919  0.00  0.00    -0.080 A 
ATOM      5  C6  UNL d   1       2.973   1.371  -0.887  0.00  0.00     0.076 C 
ATOM      6  C7  UNL d   1       2.910   2.847  -2.917  0.00  0.00     0.002 A 
ATOM      7  C8  UNL d   1       2.218   3.602  -3.866  0.00  0.00     0.006 A 
ENDROOT
BRANCH   1   8
ATOM      8  C1  UNL d   1       0.081   4.540  -4.823  0.00  0.00     0.054 C 
ATOM      9  C   UNL d   1      -1.176   5.133  -4.202  0.00  0.00     0.018 C 
ENDBRANCH   1   8
TORSDOF 1
ENDMDL
