MODEL 1
REMARK minimizedAffinity -0.700195789
REMARK minimizedRMSD -1
REMARK  1 active torsions:
REMARK  status: ('A' for Active; 'I' for Inactive)
REMARK    1  A    between atoms: C1_2  and  C2_3 
ROOT
ATOM      1  C2  UNL d   1       3.801   3.183   4.607  0.00  0.00    -0.073 A 
ATOM      2  C3  UNL d   1       2.972   3.904   3.740  0.00  0.00    -0.002 A 
ATOM      3  C4  UNL d   1       3.117   5.286   3.613  0.00  0.00     0.004 A 
ATOM      4  C5  UNL d   1       4.096   5.959   4.343  0.00  0.00    -0.004 A 
ATOM      5  C6  UNL d   1       4.943   5.254   5.205  0.00  0.00    -0.075 A 
ATOM      6  C7  UNL d   1       5.999   5.964   6.000  0.00  0.00     0.076 C 
ATOM      7  C8  UNL d   1       4.788   3.867   5.330  0.00  0.00     0.001 A 
ENDROOT
BRANCH   1   8
ATOM      8  C1  UNL d   1       3.652   1.689   4.743  0.00  0.00     0.053 C 
ATOM      9  C   UNL d   1       2.951   1.075   3.542  0.00  0.00     0.018 C 
ENDBRANCH   1   8
TORSDOF 1
ENDMDL
