MODEL 1
REMARK minimizedAffinity 9.52923393
REMARK minimizedRMSD -1
REMARK  1 active torsions:
REMARK  status: ('A' for Active; 'I' for Inactive)
REMARK    1  A    between atoms: C1_2  and  C2_3 
ROOT
ATOM      1  C2  UNL d   1      -4.876   5.474   2.338  0.00  0.00    -0.073 A 
ATOM      2  C3  UNL d   1      -5.246   5.264   1.005  0.00  0.00    -0.002 A 
ATOM      3  C4  UNL d   1      -4.286   5.300  -0.008  0.00  0.00     0.004 A 
ATOM      4  C5  UNL d   1      -2.948   5.538   0.302  0.00  0.00    -0.004 A 
ATOM      5  C6  UNL d   1      -2.556   5.739   1.630  0.00  0.00    -0.075 A 
ATOM      6  C7  UNL d   1      -1.120   5.999   1.980  0.00  0.00     0.076 C 
ATOM      7  C8  UNL d   1      -3.526   5.705   2.641  0.00  0.00     0.001 A 
ENDROOT
BRANCH   1   8
ATOM      8  C1  UNL d   1      -5.907   5.430   3.435  0.00  0.00     0.053 C 
ATOM      9  C   UNL d   1      -5.375   5.999   4.741  0.00  0.00     0.018 C 
ENDBRANCH   1   8
TORSDOF 1
ENDMDL
