MODEL 1
REMARK minimizedAffinity 7.9813652
REMARK minimizedRMSD -1
REMARK  1 active torsions:
REMARK  status: ('A' for Active; 'I' for Inactive)
REMARK    1  A    between atoms: C1_2  and  C2_3 
ROOT
ATOM      1  C2  UNL d   1      -5.369   3.498   4.574  0.00  0.00    -0.073 A 
ATOM      2  C3  UNL d   1      -5.819   4.286   5.639  0.00  0.00    -0.002 A 
ATOM      3  C4  UNL d   1      -5.237   5.529   5.891  0.00  0.00     0.004 A 
ATOM      4  C5  UNL d   1      -4.206   5.999   5.078  0.00  0.00    -0.004 A 
ATOM      5  C6  UNL d   1      -3.751   5.231   4.001  0.00  0.00    -0.075 A 
ATOM      6  C7  UNL d   1      -2.641   5.722   3.118  0.00  0.00     0.076 C 
ATOM      7  C8  UNL d   1      -4.339   3.983   3.756  0.00  0.00     0.001 A 
ENDROOT
BRANCH   1   8
ATOM      8  C1  UNL d   1      -5.999   2.158   4.294  0.00  0.00     0.053 C 
ATOM      9  C   UNL d   1      -5.929   1.232   5.499  0.00  0.00     0.018 C 
ENDBRANCH   1   8
TORSDOF 1
ENDMDL
