MODEL 1
REMARK minimizedAffinity 5.73817396
REMARK minimizedRMSD -1
REMARK  1 active torsions:
REMARK  status: ('A' for Active; 'I' for Inactive)
REMARK    1  A    between atoms: C1_2  and  C2_3 
ROOT
ATOM      1  C2  UNL d   1       1.906  -2.008  -0.461  0.00  0.00    -0.073 A 
ATOM      2  C3  UNL d   1       2.179  -2.606   0.775  0.00  0.00    -0.002 A 
ATOM      3  C4  UNL d   1       1.526  -3.780   1.150  0.00  0.00     0.004 A 
ATOM      4  C5  UNL d   1       0.600  -4.373   0.292  0.00  0.00    -0.004 A 
ATOM      5  C6  UNL d   1       0.322  -3.797  -0.952  0.00  0.00    -0.075 A 
ATOM      6  C7  UNL d   1      -0.674  -4.421  -1.885  0.00  0.00     0.076 C 
ATOM      7  C8  UNL d   1       0.980  -2.616  -1.320  0.00  0.00     0.001 A 
ENDROOT
BRANCH   1   8
ATOM      8  C1  UNL d   1       2.614  -0.743  -0.873  0.00  0.00     0.053 C 
ATOM      9  C   UNL d   1       2.261   0.427   0.032  0.00  0.00     0.018 C 
ENDBRANCH   1   8
TORSDOF 1
ENDMDL
