MODEL 1
REMARK minimizedAffinity -0.468350291
REMARK minimizedRMSD -1
REMARK  1 active torsions:
REMARK  status: ('A' for Active; 'I' for Inactive)
REMARK    1  A    between atoms: C1_2  and  C2_3 
ROOT
ATOM      1  C2  UNL d   1      -4.701   5.962   4.212  0.00  0.00    -0.073 A 
ATOM      2  C3  UNL d   1      -3.409   5.945   4.749  0.00  0.00    -0.002 A 
ATOM      3  C4  UNL d   1      -2.296   5.916   3.908  0.00  0.00     0.004 A 
ATOM      4  C5  UNL d   1      -2.463   5.911   2.523  0.00  0.00    -0.004 A 
ATOM      5  C6  UNL d   1      -3.746   5.940   1.967  0.00  0.00    -0.075 A 
ATOM      6  C7  UNL d   1      -3.942   5.933   0.480  0.00  0.00     0.076 C 
ATOM      7  C8  UNL d   1      -4.858   5.966   2.819  0.00  0.00     0.001 A 
ENDROOT
BRANCH   1   8
ATOM      8  C1  UNL d   1      -5.906   5.999   5.117  0.00  0.00     0.053 C 
ATOM      9  C   UNL d   1      -5.998   4.761   5.994  0.00  0.00     0.018 C 
ENDBRANCH   1   8
TORSDOF 1
ENDMDL
