MODEL 1
REMARK minimizedAffinity 3.9071815
REMARK minimizedRMSD -1
REMARK  1 active torsions:
REMARK  status: ('A' for Active; 'I' for Inactive)
REMARK    1  A    between atoms: C1_2  and  C2_3 
ROOT
ATOM      1  C2  UNL d   1      -3.848   0.401  -0.953  0.00  0.00    -0.073 A 
ATOM      2  C3  UNL d   1      -4.076   1.462  -1.836  0.00  0.00    -0.002 A 
ATOM      3  C4  UNL d   1      -3.113   1.808  -2.785  0.00  0.00     0.004 A 
ATOM      4  C5  UNL d   1      -1.918   1.095  -2.864  0.00  0.00    -0.004 A 
ATOM      5  C6  UNL d   1      -1.676   0.024  -1.998  0.00  0.00    -0.075 A 
ATOM      6  C7  UNL d   1      -0.394  -0.753  -2.069  0.00  0.00     0.076 C 
ATOM      7  C8  UNL d   1      -2.647  -0.316  -1.046  0.00  0.00     0.001 A 
ENDROOT
BRANCH   1   8
ATOM      8  C1  UNL d   1      -4.888   0.019   0.069  0.00  0.00     0.053 C 
ATOM      9  C   UNL d   1      -5.993   1.059   0.174  0.00  0.00     0.018 C 
ENDBRANCH   1   8
TORSDOF 1
ENDMDL
