MODEL 1
REMARK minimizedAffinity -0.662650764
REMARK minimizedRMSD -1
REMARK  1 active torsions:
REMARK  status: ('A' for Active; 'I' for Inactive)
REMARK    1  A    between atoms: C1_2  and  C2_3 
ROOT
ATOM      1  C2  UNL d   1      -4.271  -0.563  -0.346  0.00  0.00    -0.073 A 
ATOM      2  C3  UNL d   1      -4.925   0.496  -0.985  0.00  0.00    -0.002 A 
ATOM      3  C4  UNL d   1      -4.288   1.208  -2.003  0.00  0.00     0.004 A 
ATOM      4  C5  UNL d   1      -2.995   0.864  -2.396  0.00  0.00    -0.004 A 
ATOM      5  C6  UNL d   1      -2.329  -0.200  -1.778  0.00  0.00    -0.075 A 
ATOM      6  C7  UNL d   1      -0.936  -0.581  -2.187  0.00  0.00     0.076 C 
ATOM      7  C8  UNL d   1      -2.974  -0.907  -0.755  0.00  0.00     0.001 A 
ENDROOT
BRANCH   1   8
ATOM      8  C1  UNL d   1      -4.957  -1.338   0.748  0.00  0.00     0.053 C 
ATOM      9  C   UNL d   1      -5.990  -0.497   1.481  0.00  0.00     0.018 C 
ENDBRANCH   1   8
TORSDOF 1
ENDMDL
