MODEL 1
REMARK minimizedAffinity -2.21500325
REMARK minimizedRMSD -1
REMARK  1 active torsions:
REMARK  status: ('A' for Active; 'I' for Inactive)
REMARK    1  A    between atoms: C1_2  and  C2_3 
ROOT
ATOM      1  C2  UNL d   1      -5.376   1.417   1.230  0.00  0.00    -0.073 A 
ATOM      2  C3  UNL d   1      -6.000   0.167   1.318  0.00  0.00    -0.002 A 
ATOM      3  C4  UNL d   1      -5.416  -0.955   0.728  0.00  0.00     0.004 A 
ATOM      4  C5  UNL d   1      -4.202  -0.840   0.050  0.00  0.00    -0.004 A 
ATOM      5  C6  UNL d   1      -3.558   0.398  -0.038  0.00  0.00    -0.075 A 
ATOM      6  C7  UNL d   1      -2.253   0.539  -0.765  0.00  0.00     0.076 C 
ATOM      7  C8  UNL d   1      -4.152   1.521   0.555  0.00  0.00     0.001 A 
ENDROOT
BRANCH   1   8
ATOM      8  C1  UNL d   1      -6.000   2.630   1.871  0.00  0.00     0.053 C 
ATOM      9  C   UNL d   1      -5.208   3.106   3.079  0.00  0.00     0.018 C 
ENDBRANCH   1   8
TORSDOF 1
ENDMDL
