MODEL 1
REMARK minimizedAffinity 9.09100628
REMARK minimizedRMSD -1
REMARK  0 active torsions:
REMARK  status: ('A' for Active; 'I' for Inactive)
ROOT
ATOM      1  C2' OXE d   1      -6.000  -0.962  -2.265  0.00  0.00     0.078 C 
ATOM      2  C1' OXE d   1      -6.000  -2.428   0.128  0.00  0.00     0.078 C 
ATOM      3  C1  OXE d   1      -5.220  -1.138   0.094  0.00  0.00    -0.078 A 
ATOM      4  C2  OXE d   1      -5.187  -0.451  -1.095  0.00  0.00    -0.078 A 
ATOM      5  C3  OXE d   1      -4.527   0.773  -1.166  0.00  0.00     0.003 A 
ATOM      6  C4  OXE d   1      -3.769   1.233  -0.083  0.00  0.00    -0.002 A 
ATOM      7  C5  OXE d   1      -3.756   0.529   1.125  0.00  0.00    -0.002 A 
ATOM      8  C6  OXE d   1      -4.509  -0.635   1.244  0.00  0.00     0.003 A 
ENDROOT
TORSDOF 0
ENDMDL
