MODEL 1
REMARK minimizedAffinity 13.9309902
REMARK minimizedRMSD -1
REMARK  0 active torsions:
REMARK  status: ('A' for Active; 'I' for Inactive)
ROOT
ATOM      1  C2' OXE d   1      -6.000   0.828  -2.061  0.00  0.00     0.078 C 
ATOM      2  C1' OXE d   1      -6.000  -1.968  -1.811  0.00  0.00     0.078 C 
ATOM      3  C1  OXE d   1      -5.219  -1.172  -0.797  0.00  0.00    -0.078 A 
ATOM      4  C2  OXE d   1      -5.186   0.193  -0.954  0.00  0.00    -0.078 A 
ATOM      5  C3  OXE d   1      -4.526   0.980  -0.014  0.00  0.00     0.003 A 
ATOM      6  C4  OXE d   1      -3.767   0.384   1.001  0.00  0.00    -0.002 A 
ATOM      7  C5  OXE d   1      -3.754  -1.006   1.155  0.00  0.00    -0.002 A 
ATOM      8  C6  OXE d   1      -4.508  -1.794   0.293  0.00  0.00     0.003 A 
ENDROOT
TORSDOF 0
ENDMDL
