MODEL 1
REMARK minimizedAffinity 14.3360987
REMARK minimizedRMSD -1
REMARK  0 active torsions:
REMARK  status: ('A' for Active; 'I' for Inactive)
ROOT
ATOM      1  C2' OXE d   1      -3.592  -2.925   1.157  0.00  0.00     0.078 C 
ATOM      2  C1' OXE d   1      -5.808  -1.831  -0.174  0.00  0.00     0.078 C 
ATOM      3  C1  OXE d   1      -4.735  -0.884   0.301  0.00  0.00    -0.078 A 
ATOM      4  C2  OXE d   1      -3.677  -1.423   0.993  0.00  0.00    -0.078 A 
ATOM      5  C3  OXE d   1      -2.633  -0.601   1.406  0.00  0.00     0.003 A 
ATOM      6  C4  OXE d   1      -2.724   0.789   1.259  0.00  0.00    -0.002 A 
ATOM      7  C5  OXE d   1      -3.812   1.362   0.593  0.00  0.00    -0.002 A 
ATOM      8  C6  OXE d   1      -4.803   0.538   0.072  0.00  0.00     0.003 A 
ENDROOT
TORSDOF 0
ENDMDL
