MODEL 1
REMARK minimizedAffinity 2.29613495
REMARK minimizedRMSD -1
REMARK  0 active torsions:
REMARK  status: ('A' for Active; 'I' for Inactive)
ROOT
ATOM      1  C2' OXE d   1       0.399   1.280   0.001  0.00  0.00     0.078 C 
ATOM      2  C1' OXE d   1       2.295  -0.783   0.171  0.00  0.00     0.078 C 
ATOM      3  C1  OXE d   1       1.022  -1.059  -0.588  0.00  0.00    -0.078 A 
ATOM      4  C2  OXE d   1       0.079  -0.060  -0.626  0.00  0.00    -0.078 A 
ATOM      5  C3  OXE d   1      -1.090  -0.243  -1.359  0.00  0.00     0.003 A 
ATOM      6  C4  OXE d   1      -1.382  -1.488  -1.928  0.00  0.00    -0.002 A 
ATOM      7  C5  OXE d   1      -0.453  -2.533  -1.867  0.00  0.00    -0.002 A 
ATOM      8  C6  OXE d   1       0.769  -2.321  -1.238  0.00  0.00     0.003 A 
ENDROOT
TORSDOF 0
ENDMDL
