MODEL 1
REMARK minimizedAffinity 3.88460255
REMARK minimizedRMSD -1
REMARK  0 active torsions:
REMARK  status: ('A' for Active; 'I' for Inactive)
ROOT
ATOM      1  C2' OXE d   1      -1.940  -2.541   5.999  0.00  0.00     0.078 C 
ATOM      2  C1' OXE d   1      -1.104  -5.220   5.972  0.00  0.00     0.078 C 
ATOM      3  C1  OXE d   1      -0.040  -4.151   5.975  0.00  0.00    -0.078 A 
ATOM      4  C2  OXE d   1      -0.458  -2.843   5.941  0.00  0.00    -0.078 A 
ATOM      5  C3  OXE d   1       0.481  -1.817   5.998  0.00  0.00     0.003 A 
ATOM      6  C4  OXE d   1       1.849  -2.105   5.935  0.00  0.00    -0.002 A 
ATOM      7  C5  OXE d   1       2.297  -3.430   5.929  0.00  0.00    -0.002 A 
ATOM      8  C6  OXE d   1       1.368  -4.463   5.992  0.00  0.00     0.003 A 
ENDROOT
TORSDOF 0
ENDMDL
