MODEL 1
REMARK minimizedAffinity 1.69711304
REMARK minimizedRMSD -1
REMARK  0 active torsions:
REMARK  status: ('A' for Active; 'I' for Inactive)
ROOT
ATOM      1  C2' OXE d   1      -6.000   2.552   2.672  0.00  0.00     0.078 C 
ATOM      2  C1' OXE d   1      -3.257   2.886   2.174  0.00  0.00     0.078 C 
ATOM      3  C1  OXE d   1      -3.959   1.733   1.501  0.00  0.00    -0.078 A 
ATOM      4  C2  OXE d   1      -5.291   1.550   1.787  0.00  0.00    -0.078 A 
ATOM      5  C3  OXE d   1      -5.999   0.534   1.151  0.00  0.00     0.003 A 
ATOM      6  C4  OXE d   1      -5.334  -0.395   0.342  0.00  0.00    -0.002 A 
ATOM      7  C5  OXE d   1      -3.970  -0.250   0.069  0.00  0.00    -0.002 A 
ATOM      8  C6  OXE d   1      -3.278   0.831   0.605  0.00  0.00     0.003 A 
ENDROOT
TORSDOF 0
ENDMDL
