MODEL 1
REMARK minimizedAffinity 0.780207396
REMARK minimizedRMSD -1
REMARK  0 active torsions:
REMARK  status: ('A' for Active; 'I' for Inactive)
ROOT
ATOM      1  C2' OXE d   1       0.023  -1.108   6.000  0.00  0.00     0.078 C 
ATOM      2  C1' OXE d   1      -1.525  -3.450   5.993  0.00  0.00     0.078 C 
ATOM      3  C1  OXE d   1      -0.024  -3.598   5.985  0.00  0.00    -0.078 A 
ATOM      4  C2  OXE d   1       0.725  -2.447   5.941  0.00  0.00    -0.078 A 
ATOM      5  C3  OXE d   1       2.114  -2.526   5.987  0.00  0.00     0.003 A 
ATOM      6  C4  OXE d   1       2.756  -3.769   5.922  0.00  0.00    -0.002 A 
ATOM      7  C5  OXE d   1       2.012  -4.954   5.925  0.00  0.00    -0.002 A 
ATOM      8  C6  OXE d   1       0.625  -4.886   6.000  0.00  0.00     0.003 A 
ENDROOT
TORSDOF 0
ENDMDL
