MODEL 1
REMARK minimizedAffinity 3.27149057
REMARK minimizedRMSD -1
REMARK  0 active torsions:
REMARK  status: ('A' for Active; 'I' for Inactive)
ROOT
ATOM      1  C2' OXE d   1       2.499  -2.811   5.946  0.00  0.00     0.078 C 
ATOM      2  C1' OXE d   1       2.549  -5.618   5.957  0.00  0.00     0.078 C 
ATOM      3  C1  OXE d   1       1.203  -4.939   5.955  0.00  0.00    -0.078 A 
ATOM      4  C2  OXE d   1       1.187  -3.565   5.997  0.00  0.00    -0.078 A 
ATOM      5  C3  OXE d   1      -0.027  -2.887   5.941  0.00  0.00     0.003 A 
ATOM      6  C4  OXE d   1      -1.236  -3.592   5.999  0.00  0.00    -0.002 A 
ATOM      7  C5  OXE d   1      -1.242  -4.991   5.998  0.00  0.00    -0.002 A 
ATOM      8  C6  OXE d   1      -0.035  -5.678   5.933  0.00  0.00     0.003 A 
ENDROOT
TORSDOF 0
ENDMDL
