MODEL 1
REMARK minimizedAffinity 3.10903382
REMARK minimizedRMSD -1
REMARK  0 active torsions:
REMARK  status: ('A' for Active; 'I' for Inactive)
ROOT
ATOM      1  C2' OXE d   1      -0.796  -2.203  -1.723  0.00  0.00     0.078 C 
ATOM      2  C1' OXE d   1      -1.999  -0.706   0.324  0.00  0.00     0.078 C 
ATOM      3  C1  OXE d   1      -0.506  -0.585   0.148  0.00  0.00    -0.078 A 
ATOM      4  C2  OXE d   1       0.081  -1.357  -0.826  0.00  0.00    -0.078 A 
ATOM      5  C3  OXE d   1       1.447  -1.243  -1.066  0.00  0.00     0.003 A 
ATOM      6  C4  OXE d   1       2.252  -0.465  -0.225  0.00  0.00    -0.002 A 
ATOM      7  C5  OXE d   1       1.680   0.298   0.798  0.00  0.00    -0.002 A 
ATOM      8  C6  OXE d   1       0.301   0.283   0.971  0.00  0.00     0.003 A 
ENDROOT
TORSDOF 0
ENDMDL
