MODEL 1
REMARK minimizedAffinity 8.5583744
REMARK minimizedRMSD -1
REMARK  1 active torsions:
REMARK  status: ('A' for Active; 'I' for Inactive)
REMARK    1  A    between atoms: C1_2  and  C2_3 
ROOT
ATOM      1  C2  UNL d   1      -0.308  -2.088   3.032  0.00  0.00    -0.076 A 
ATOM      2  C3  UNL d   1       1.084  -2.134   2.838  0.00  0.00     0.004 A 
ATOM      3  C4  UNL d   1       1.909  -2.827   3.722  0.00  0.00    -0.003 A 
ATOM      4  C5  UNL d   1       1.356  -3.485   4.815  0.00  0.00     0.000 A 
ATOM      5  C6  UNL d   1      -0.024  -3.464   5.014  0.00  0.00     0.000 A 
ATOM      6  C7  UNL d   1      -0.872  -2.784   4.123  0.00  0.00    -0.073 A 
ATOM      7  C8  UNL d   1      -2.352  -2.790   4.389  0.00  0.00     0.078 C 
ENDROOT
BRANCH   1   8
ATOM      8  C1  UNL d   1      -1.150  -1.298   2.056  0.00  0.00     0.053 C 
ATOM      9  C   UNL d   1      -0.358  -0.844   0.839  0.00  0.00     0.018 C 
ENDBRANCH   1   8
TORSDOF 1
ENDMDL
