MODEL 1
REMARK minimizedAffinity 0.793617189
REMARK minimizedRMSD -1
REMARK  1 active torsions:
REMARK  status: ('A' for Active; 'I' for Inactive)
REMARK    1  A    between atoms: C1_2  and  C2_3 
ROOT
ATOM      1  C2  UNL d   1      -0.027  -2.004   2.417  0.00  0.00    -0.076 A 
ATOM      2  C3  UNL d   1       1.106  -2.121   1.592  0.00  0.00     0.004 A 
ATOM      3  C4  UNL d   1       1.222  -1.372   0.422  0.00  0.00    -0.003 A 
ATOM      4  C5  UNL d   1       0.209  -0.492   0.059  0.00  0.00     0.000 A 
ATOM      5  C6  UNL d   1      -0.914  -0.350   0.874  0.00  0.00     0.000 A 
ATOM      6  C7  UNL d   1      -1.039  -1.086   2.065  0.00  0.00    -0.073 A 
ATOM      7  C8  UNL d   1      -2.274  -0.897   2.903  0.00  0.00     0.078 C 
ENDROOT
BRANCH   1   8
ATOM      8  C1  UNL d   1      -0.111  -2.862   3.659  0.00  0.00     0.053 C 
ATOM      9  C   UNL d   1       1.235  -3.454   4.050  0.00  0.00     0.018 C 
ENDBRANCH   1   8
TORSDOF 1
ENDMDL
