MODEL 1
REMARK minimizedAffinity 13.6658983
REMARK minimizedRMSD -1
REMARK  1 active torsions:
REMARK  status: ('A' for Active; 'I' for Inactive)
REMARK    1  A    between atoms: C1_2  and  C2_3 
ROOT
ATOM      1  C2  UNL d   1       1.959  -0.531   0.815  0.00  0.00    -0.076 A 
ATOM      2  C3  UNL d   1       2.432  -1.853   0.866  0.00  0.00     0.004 A 
ATOM      3  C4  UNL d   1       3.744  -2.131   1.246  0.00  0.00    -0.003 A 
ATOM      4  C5  UNL d   1       4.603  -1.091   1.583  0.00  0.00     0.000 A 
ATOM      5  C6  UNL d   1       4.145   0.226   1.555  0.00  0.00     0.000 A 
ATOM      6  C7  UNL d   1       2.821   0.522   1.189  0.00  0.00    -0.073 A 
ATOM      7  C8  UNL d   1       2.381   1.960   1.171  0.00  0.00     0.078 C 
ENDROOT
BRANCH   1   8
ATOM      8  C1  UNL d   1       0.534  -0.288   0.369  0.00  0.00     0.053 C 
ATOM      9  C   UNL d   1       0.076  -1.285  -0.685  0.00  0.00     0.018 C 
ENDBRANCH   1   8
TORSDOF 1
ENDMDL
