MODEL 1
REMARK minimizedAffinity 7.69745159
REMARK minimizedRMSD -1
REMARK  1 active torsions:
REMARK  status: ('A' for Active; 'I' for Inactive)
REMARK    1  A    between atoms: C1_2  and  C2_3 
ROOT
ATOM      1  C2  UNL d   1      -1.853  -5.692  -4.712  0.00  0.00    -0.076 A 
ATOM      2  C3  UNL d   1      -2.516  -5.547  -3.481  0.00  0.00     0.004 A 
ATOM      3  C4  UNL d   1      -1.814  -5.589  -2.278  0.00  0.00    -0.003 A 
ATOM      4  C5  UNL d   1      -0.436  -5.777  -2.286  0.00  0.00     0.000 A 
ATOM      5  C6  UNL d   1       0.241  -5.905  -3.498  0.00  0.00     0.000 A 
ATOM      6  C7  UNL d   1      -0.450  -5.849  -4.721  0.00  0.00    -0.073 A 
ATOM      7  C8  UNL d   1       0.330  -5.999  -5.998  0.00  0.00     0.078 C 
ENDROOT
BRANCH   1   8
ATOM      8  C1  UNL d   1      -2.670  -5.665  -5.983  0.00  0.00     0.053 C 
ATOM      9  C   UNL d   1      -4.135  -5.998  -5.742  0.00  0.00     0.018 C 
ENDBRANCH   1   8
TORSDOF 1
ENDMDL
