MODEL 1
REMARK minimizedAffinity 4.13376474
REMARK minimizedRMSD -1
REMARK  1 active torsions:
REMARK  status: ('A' for Active; 'I' for Inactive)
REMARK    1  A    between atoms: C1_2  and  C2_3 
ROOT
ATOM      1  C2  UNL d   1      -2.793  -4.855  -5.852  0.00  0.00    -0.076 A 
ATOM      2  C3  UNL d   1      -3.611  -5.998  -5.908  0.00  0.00     0.004 A 
ATOM      3  C4  UNL d   1      -4.998  -5.885  -5.973  0.00  0.00    -0.003 A 
ATOM      4  C5  UNL d   1      -5.592  -4.627  -5.985  0.00  0.00     0.000 A 
ATOM      5  C6  UNL d   1      -4.795  -3.483  -5.947  0.00  0.00     0.000 A 
ATOM      6  C7  UNL d   1      -3.394  -3.579  -5.898  0.00  0.00    -0.073 A 
ATOM      7  C8  UNL d   1      -2.585  -2.312  -5.853  0.00  0.00     0.078 C 
ENDROOT
BRANCH   1   8
ATOM      8  C1  UNL d   1      -1.296  -5.040  -5.754  0.00  0.00     0.053 C 
ATOM      9  C   UNL d   1      -0.862  -5.576  -4.399  0.00  0.00     0.018 C 
ENDBRANCH   1   8
TORSDOF 1
ENDMDL
