MODEL 1
REMARK minimizedAffinity 17.7388649
REMARK minimizedRMSD -1
REMARK  1 active torsions:
REMARK  status: ('A' for Active; 'I' for Inactive)
REMARK    1  A    between atoms: C1_2  and  C2_3 
ROOT
ATOM      1  C2  UNL d   1       1.960   2.079  -3.558  0.00  0.00    -0.076 A 
ATOM      2  C3  UNL d   1       1.527   3.200  -4.287  0.00  0.00     0.004 A 
ATOM      3  C4  UNL d   1       0.172   3.421  -4.527  0.00  0.00    -0.003 A 
ATOM      4  C5  UNL d   1      -0.773   2.523  -4.042  0.00  0.00     0.000 A 
ATOM      5  C6  UNL d   1      -0.363   1.414  -3.302  0.00  0.00     0.000 A 
ATOM      6  C7  UNL d   1       0.999   1.186  -3.037  0.00  0.00    -0.073 A 
ATOM      7  C8  UNL d   1       1.385  -0.029  -2.239  0.00  0.00     0.078 C 
ENDROOT
BRANCH   1   8
ATOM      8  C1  UNL d   1       3.444   1.877  -3.353  0.00  0.00     0.053 C 
ATOM      9  C   UNL d   1       3.957   2.565  -2.097  0.00  0.00     0.018 C 
ENDBRANCH   1   8
TORSDOF 1
ENDMDL
