MODEL 1
REMARK minimizedAffinity 4.21774435
REMARK minimizedRMSD -1
REMARK  1 active torsions:
REMARK  status: ('A' for Active; 'I' for Inactive)
REMARK    1  A    between atoms: C1_2  and  C2_3 
ROOT
ATOM      1  C2  UNL d   1      -1.911  -5.755  -4.231  0.00  0.00    -0.076 A 
ATOM      2  C3  UNL d   1      -2.286  -5.612  -2.884  0.00  0.00     0.004 A 
ATOM      3  C4  UNL d   1      -1.329  -5.409  -1.891  0.00  0.00    -0.003 A 
ATOM      4  C5  UNL d   1       0.018  -5.346  -2.229  0.00  0.00     0.000 A 
ATOM      5  C6  UNL d   1       0.406  -5.468  -3.563  0.00  0.00     0.000 A 
ATOM      6  C7  UNL d   1      -0.547  -5.656  -4.578  0.00  0.00    -0.073 A 
ATOM      7  C8  UNL d   1      -0.072  -5.788  -5.999  0.00  0.00     0.078 C 
ENDROOT
BRANCH   1   8
ATOM      8  C1  UNL d   1      -2.991  -5.999  -5.261  0.00  0.00     0.053 C 
ATOM      9  C   UNL d   1      -3.507  -4.710  -5.882  0.00  0.00     0.018 C 
ENDBRANCH   1   8
TORSDOF 1
ENDMDL
