MODEL 1
REMARK minimizedAffinity 4.09986782
REMARK minimizedRMSD -1
REMARK  1 active torsions:
REMARK  status: ('A' for Active; 'I' for Inactive)
REMARK    1  A    between atoms: C1_2  and  C2_3 
ROOT
ATOM      1  C2  UNL d   1      -1.000  -1.445   2.436  0.00  0.00    -0.076 A 
ATOM      2  C3  UNL d   1      -0.530  -2.763   2.566  0.00  0.00     0.004 A 
ATOM      3  C4  UNL d   1       0.340  -3.311   1.625  0.00  0.00    -0.003 A 
ATOM      4  C5  UNL d   1       0.754  -2.549   0.538  0.00  0.00     0.000 A 
ATOM      5  C6  UNL d   1       0.312  -1.233   0.402  0.00  0.00     0.000 A 
ATOM      6  C7  UNL d   1      -0.553  -0.661   1.351  0.00  0.00    -0.073 A 
ATOM      7  C8  UNL d   1      -1.004   0.760   1.152  0.00  0.00     0.078 C 
ENDROOT
BRANCH   1   8
ATOM      8  C1  UNL d   1      -1.964  -0.914   3.473  0.00  0.00     0.053 C 
ATOM      9  C   UNL d   1      -2.224  -1.911   4.591  0.00  0.00     0.018 C 
ENDBRANCH   1   8
TORSDOF 1
ENDMDL
