MODEL 1
REMARK minimizedAffinity 2.09977531
REMARK minimizedRMSD -1
REMARK  1 active torsions:
REMARK  status: ('A' for Active; 'I' for Inactive)
REMARK    1  A    between atoms: C1_2  and  C2_3 
ROOT
ATOM      1  C2  UNL d   1      -3.650  -4.073  -5.603  0.00  0.00    -0.076 A 
ATOM      2  C3  UNL d   1      -3.420  -2.690  -5.495  0.00  0.00     0.004 A 
ATOM      3  C4  UNL d   1      -4.462  -1.776  -5.645  0.00  0.00    -0.003 A 
ATOM      4  C5  UNL d   1      -5.750  -2.230  -5.905  0.00  0.00     0.000 A 
ATOM      5  C6  UNL d   1      -5.999  -3.599  -5.998  0.00  0.00     0.000 A 
ATOM      6  C7  UNL d   1      -4.964  -4.535  -5.833  0.00  0.00    -0.073 A 
ATOM      7  C8  UNL d   1      -5.288  -5.999  -5.950  0.00  0.00     0.078 C 
ENDROOT
BRANCH   1   8
ATOM      8  C1  UNL d   1      -2.476  -5.015  -5.458  0.00  0.00     0.053 C 
ATOM      9  C   UNL d   1      -1.778  -4.873  -4.115  0.00  0.00     0.018 C 
ENDBRANCH   1   8
TORSDOF 1
ENDMDL
