MODEL 1
REMARK minimizedAffinity 2.42322564
REMARK minimizedRMSD -1
REMARK  1 active torsions:
REMARK  status: ('A' for Active; 'I' for Inactive)
REMARK    1  A    between atoms: C1_2  and  C2_3 
ROOT
ATOM      1  C2  UNL d   1       1.994  -0.314   0.448  0.00  0.00    -0.076 A 
ATOM      2  C3  UNL d   1       2.491  -1.611   0.233  0.00  0.00     0.004 A 
ATOM      3  C4  UNL d   1       3.753  -1.982   0.692  0.00  0.00    -0.003 A 
ATOM      4  C5  UNL d   1       4.540  -1.060   1.375  0.00  0.00     0.000 A 
ATOM      5  C6  UNL d   1       4.056   0.226   1.613  0.00  0.00     0.000 A 
ATOM      6  C7  UNL d   1       2.779   0.610   1.171  0.00  0.00    -0.073 A 
ATOM      7  C8  UNL d   1       2.310   2.012   1.449  0.00  0.00     0.078 C 
ENDROOT
BRANCH   1   8
ATOM      8  C1  UNL d   1       0.629   0.038  -0.097  0.00  0.00     0.053 C 
ATOM      9  C   UNL d   1      -0.462  -0.887   0.421  0.00  0.00     0.018 C 
ENDBRANCH   1   8
TORSDOF 1
ENDMDL
