MODEL 1
REMARK minimizedAffinity 7.42260933
REMARK minimizedRMSD -1
REMARK  1 active torsions:
REMARK  status: ('A' for Active; 'I' for Inactive)
REMARK    1  A    between atoms: C1_2  and  C2_3 
ROOT
ATOM      1  C2  UNL d   1      -2.697  -5.932  -5.119  0.00  0.00    -0.076 A 
ATOM      2  C3  UNL d   1      -1.468  -5.878  -5.801  0.00  0.00     0.004 A 
ATOM      3  C4  UNL d   1      -0.265  -5.790  -5.103  0.00  0.00    -0.003 A 
ATOM      4  C5  UNL d   1      -0.270  -5.755  -3.713  0.00  0.00     0.000 A 
ATOM      5  C6  UNL d   1      -1.478  -5.825  -3.021  0.00  0.00     0.000 A 
ATOM      6  C7  UNL d   1      -2.699  -5.931  -3.708  0.00  0.00    -0.073 A 
ATOM      7  C8  UNL d   1      -3.973  -5.997  -2.911  0.00  0.00     0.078 C 
ENDROOT
BRANCH   1   8
ATOM      8  C1  UNL d   1      -3.972  -6.000  -5.929  0.00  0.00     0.053 C 
ATOM      9  C   UNL d   1      -4.691  -4.662  -5.996  0.00  0.00     0.018 C 
ENDBRANCH   1   8
TORSDOF 1
ENDMDL
