MODEL 1
REMARK minimizedAffinity 8.83442783
REMARK minimizedRMSD -1
REMARK  1 active torsions:
REMARK  status: ('A' for Active; 'I' for Inactive)
REMARK    1  A    between atoms: C1_2  and  C2_3 
ROOT
ATOM      1  C2  UNL d   1       0.012  -2.229   2.748  0.00  0.00    -0.076 A 
ATOM      2  C3  UNL d   1       1.345  -2.522   2.410  0.00  0.00     0.004 A 
ATOM      3  C4  UNL d   1       2.157  -3.260   3.270  0.00  0.00    -0.003 A 
ATOM      4  C5  UNL d   1       1.650  -3.716   4.481  0.00  0.00     0.000 A 
ATOM      5  C6  UNL d   1       0.325  -3.450   4.825  0.00  0.00     0.000 A 
ATOM      6  C7  UNL d   1      -0.512  -2.722   3.962  0.00  0.00    -0.073 A 
ATOM      7  C8  UNL d   1      -1.931  -2.459   4.386  0.00  0.00     0.078 C 
ENDROOT
BRANCH   1   8
ATOM      8  C1  UNL d   1      -0.813  -1.403   1.788  0.00  0.00     0.053 C 
ATOM      9  C   UNL d   1       0.040  -0.684   0.755  0.00  0.00     0.018 C 
ENDBRANCH   1   8
TORSDOF 1
ENDMDL
