MODEL 1
REMARK minimizedAffinity 9.61266804
REMARK minimizedRMSD -1
REMARK  1 active torsions:
REMARK  status: ('A' for Active; 'I' for Inactive)
REMARK    1  A    between atoms: C1_2  and  C2_3 
ROOT
ATOM      1  C2  UNL d   1      -2.543   0.140  -0.745  0.00  0.00    -0.076 A 
ATOM      2  C3  UNL d   1      -2.201  -1.199  -0.492  0.00  0.00     0.004 A 
ATOM      3  C4  UNL d   1      -0.965  -1.532   0.058  0.00  0.00    -0.003 A 
ATOM      4  C5  UNL d   1      -0.051  -0.531   0.366  0.00  0.00     0.000 A 
ATOM      5  C6  UNL d   1      -0.380   0.805   0.138  0.00  0.00     0.000 A 
ATOM      6  C7  UNL d   1      -1.629   1.159  -0.401  0.00  0.00    -0.073 A 
ATOM      7  C8  UNL d   1      -1.929   2.615  -0.631  0.00  0.00     0.078 C 
ENDROOT
BRANCH   1   8
ATOM      8  C1  UNL d   1      -3.888   0.439  -1.369  0.00  0.00     0.053 C 
ATOM      9  C   UNL d   1      -4.570  -0.808  -1.909  0.00  0.00     0.018 C 
ENDBRANCH   1   8
TORSDOF 1
ENDMDL
