MODEL 1
REMARK minimizedAffinity 16.8096085
REMARK minimizedRMSD -1
REMARK  1 active torsions:
REMARK  status: ('A' for Active; 'I' for Inactive)
REMARK    1  A    between atoms: C1_2  and  C2_3 
ROOT
ATOM      1  C2  UNL d   1       0.192  -2.555   2.353  0.00  0.00    -0.076 A 
ATOM      2  C3  UNL d   1       1.468  -2.864   1.851  0.00  0.00     0.004 A 
ATOM      3  C4  UNL d   1       2.397  -3.554   2.628  0.00  0.00    -0.003 A 
ATOM      4  C5  UNL d   1       2.065  -3.946   3.920  0.00  0.00     0.000 A 
ATOM      5  C6  UNL d   1       0.797  -3.664   4.428  0.00  0.00     0.000 A 
ATOM      6  C7  UNL d   1      -0.157  -2.984   3.651  0.00  0.00    -0.073 A 
ATOM      7  C8  UNL d   1      -1.507  -2.700   4.252  0.00  0.00     0.078 C 
ENDROOT
BRANCH   1   8
ATOM      8  C1  UNL d   1      -0.764  -1.781   1.474  0.00  0.00     0.053 C 
ATOM      9  C   UNL d   1      -0.051  -1.011   0.373  0.00  0.00     0.018 C 
ENDBRANCH   1   8
TORSDOF 1
ENDMDL
