MODEL 1
REMARK minimizedAffinity 4.98173237
REMARK minimizedRMSD -1
REMARK  0 active torsions:
REMARK  status: ('A' for Active; 'I' for Inactive)
ROOT
ATOM      1  C   UNL d   1       2.991  -2.440   0.024  0.00  0.00    -0.002 A 
ATOM      2  C1  UNL d   1       1.632  -2.426  -0.260  0.00  0.00     0.010 A 
ATOM      3  C2  UNL d   1       0.901  -1.240  -0.172  0.00  0.00     0.041 A 
ATOM      4  C3  UNL d   1       1.564  -0.056   0.208  0.00  0.00    -0.075 A 
ATOM      5  S   UNL d   1       0.871   1.513   0.382  0.00  0.00     0.015 SA
ATOM      6  C4  UNL d   1       2.363   2.202   0.836  0.00  0.00     0.022 A 
ATOM      7  C5  UNL d   1       3.375   1.272   0.860  0.00  0.00     0.026 A 
ATOM      8  C6  UNL d   1       2.931  -0.045   0.498  0.00  0.00    -0.082 A 
ATOM      9  C7  UNL d   1       3.645  -1.264   0.401  0.00  0.00     0.045 A 
ENDROOT
TORSDOF 0
ENDMDL
