MODEL 1
REMARK minimizedAffinity 6.35404634
REMARK minimizedRMSD -1
REMARK  0 active torsions:
REMARK  status: ('A' for Active; 'I' for Inactive)
ROOT
ATOM      1  C   UNL d   1       0.740  -0.789  -2.110  0.00  0.00    -0.002 A 
ATOM      2  C1  UNL d   1       1.835  -0.981  -1.280  0.00  0.00     0.010 A 
ATOM      3  C2  UNL d   1       1.889  -0.376  -0.023  0.00  0.00     0.041 A 
ATOM      4  C3  UNL d   1       0.812   0.433   0.390  0.00  0.00    -0.075 A 
ATOM      5  S   UNL d   1       0.659   1.274   1.887  0.00  0.00     0.015 SA
ATOM      6  C4  UNL d   1      -0.865   1.908   1.461  0.00  0.00     0.022 A 
ATOM      7  C5  UNL d   1      -1.262   1.499   0.210  0.00  0.00     0.026 A 
ATOM      8  C6  UNL d   1      -0.302   0.641  -0.428  0.00  0.00    -0.082 A 
ATOM      9  C7  UNL d   1      -0.327   0.014  -1.697  0.00  0.00     0.045 A 
ENDROOT
TORSDOF 0
ENDMDL
