MODEL 1
REMARK minimizedAffinity 11.8880243
REMARK minimizedRMSD -1
REMARK  0 active torsions:
REMARK  status: ('A' for Active; 'I' for Inactive)
ROOT
ATOM      1  C   UNL d   1       3.845   0.433   0.829  0.00  0.00    -0.002 A 
ATOM      2  C1  UNL d   1       3.033   1.044  -0.117  0.00  0.00     0.010 A 
ATOM      3  C2  UNL d   1       1.969   0.349  -0.695  0.00  0.00     0.041 A 
ATOM      4  C3  UNL d   1       1.731  -0.983  -0.301  0.00  0.00    -0.075 A 
ATOM      5  S   UNL d   1       0.485  -2.029  -0.873  0.00  0.00     0.015 SA
ATOM      6  C4  UNL d   1       1.001  -3.311   0.125  0.00  0.00     0.022 A 
ATOM      7  C5  UNL d   1       2.096  -2.967   0.882  0.00  0.00     0.026 A 
ATOM      8  C6  UNL d   1       2.534  -1.619   0.649  0.00  0.00    -0.082 A 
ATOM      9  C7  UNL d   1       3.606  -0.888   1.216  0.00  0.00     0.045 A 
ENDROOT
TORSDOF 0
ENDMDL
