MODEL 1
REMARK minimizedAffinity 13.4983034
REMARK minimizedRMSD -1
REMARK  0 active torsions:
REMARK  status: ('A' for Active; 'I' for Inactive)
ROOT
ATOM      1  C   UNL d   1      -0.451   0.947   4.161  0.00  0.00    -0.002 A 
ATOM      2  C1  UNL d   1       0.837   1.278   4.560  0.00  0.00     0.010 A 
ATOM      3  C2  UNL d   1       1.749   1.810   3.647  0.00  0.00     0.041 A 
ATOM      4  C3  UNL d   1       1.340   2.009   2.313  0.00  0.00    -0.075 A 
ATOM      5  S   UNL d   1       2.286   2.648   1.021  0.00  0.00     0.015 SA
ATOM      6  C4  UNL d   1       1.003   2.499  -0.091  0.00  0.00     0.022 A 
ATOM      7  C5  UNL d   1      -0.127   1.975   0.492  0.00  0.00     0.026 A 
ATOM      8  C6  UNL d   1       0.049   1.685   1.888  0.00  0.00    -0.082 A 
ATOM      9  C7  UNL d   1      -0.852   1.146   2.837  0.00  0.00     0.045 A 
ENDROOT
TORSDOF 0
ENDMDL
