MODEL 1
REMARK minimizedAffinity 6.41804457
REMARK minimizedRMSD -1
REMARK  0 active torsions:
REMARK  status: ('A' for Active; 'I' for Inactive)
ROOT
ATOM      1  C   UNL d   1       3.336  -0.998  -0.626  0.00  0.00    -0.002 A 
ATOM      2  C1  UNL d   1       3.667  -1.476  -1.886  0.00  0.00     0.010 A 
ATOM      3  C2  UNL d   1       2.698  -1.575  -2.886  0.00  0.00     0.041 A 
ATOM      4  C3  UNL d   1       1.377  -1.180  -2.596  0.00  0.00    -0.075 A 
ATOM      5  S   UNL d   1       0.024  -1.213  -3.663  0.00  0.00     0.015 SA
ATOM      6  C4  UNL d   1      -1.026  -0.592  -2.473  0.00  0.00     0.022 A 
ATOM      7  C5  UNL d   1      -0.377  -0.360  -1.283  0.00  0.00     0.026 A 
ATOM      8  C6  UNL d   1       1.019  -0.695  -1.334  0.00  0.00    -0.082 A 
ATOM      9  C7  UNL d   1       2.025  -0.607  -0.342  0.00  0.00     0.045 A 
ENDROOT
TORSDOF 0
ENDMDL
