MODEL 1
REMARK minimizedAffinity -2.38479781
REMARK minimizedRMSD -1
REMARK  1 active torsions:
REMARK  status: ('A' for Active; 'I' for Inactive)
REMARK    1  A    between atoms: C1_2  and  C2_3 
ROOT
ATOM      1  C2  UNL d   1       1.706  -1.015   0.132  0.00  0.00    -0.076 A 
ATOM      2  C3  UNL d   1       2.995  -1.365   0.571  0.00  0.00     0.004 A 
ATOM      3  C4  UNL d   1       3.710  -0.533   1.432  0.00  0.00    -0.003 A 
ATOM      4  C5  UNL d   1       3.147   0.661   1.868  0.00  0.00     0.000 A 
ATOM      5  C6  UNL d   1       1.862   1.015   1.456  0.00  0.00     0.000 A 
ATOM      6  C7  UNL d   1       1.122   0.181   0.602  0.00  0.00    -0.073 A 
ATOM      7  C8  UNL d   1      -0.256   0.615   0.184  0.00  0.00     0.078 C 
ENDROOT
BRANCH   1   8
ATOM      8  C1  UNL d   1       0.990  -1.943  -0.823  0.00  0.00     0.053 C 
ATOM      9  C   UNL d   1       0.569  -3.247  -0.163  0.00  0.00     0.018 C 
ENDBRANCH   1   8
TORSDOF 1
ENDMDL
