MODEL 1
REMARK minimizedAffinity -1.22247183
REMARK minimizedRMSD -1
REMARK  1 active torsions:
REMARK  status: ('A' for Active; 'I' for Inactive)
REMARK    1  A    between atoms: C1_2  and  C2_3 
ROOT
ATOM      1  C2  UNL d   1      -2.639   0.685  -1.450  0.00  0.00    -0.076 A 
ATOM      2  C3  UNL d   1      -2.973   2.049  -1.393  0.00  0.00     0.004 A 
ATOM      3  C4  UNL d   1      -3.508   2.703  -2.502  0.00  0.00    -0.003 A 
ATOM      4  C5  UNL d   1      -3.718   2.003  -3.685  0.00  0.00     0.000 A 
ATOM      5  C6  UNL d   1      -3.408   0.645  -3.754  0.00  0.00     0.000 A 
ATOM      6  C7  UNL d   1      -2.883  -0.033  -2.640  0.00  0.00    -0.073 A 
ATOM      7  C8  UNL d   1      -2.562  -1.496  -2.772  0.00  0.00     0.078 C 
ENDROOT
BRANCH   1   8
ATOM      8  C1  UNL d   1      -2.037   0.035  -0.224  0.00  0.00     0.053 C 
ATOM      9  C   UNL d   1      -0.653   0.577   0.102  0.00  0.00     0.018 C 
ENDBRANCH   1   8
TORSDOF 1
ENDMDL
