MODEL 1
REMARK minimizedAffinity -5.37615538
REMARK minimizedRMSD -1
REMARK  1 active torsions:
REMARK  status: ('A' for Active; 'I' for Inactive)
REMARK    1  A    between atoms: C1_2  and  C2_3 
ROOT
ATOM      1  C2  UNL d   1      -1.981   0.086  -1.537  0.00  0.00    -0.076 A 
ATOM      2  C3  UNL d   1      -1.651  -1.092  -2.230  0.00  0.00     0.004 A 
ATOM      3  C4  UNL d   1      -2.354  -1.473  -3.372  0.00  0.00    -0.003 A 
ATOM      4  C5  UNL d   1      -3.397  -0.683  -3.840  0.00  0.00     0.000 A 
ATOM      5  C6  UNL d   1      -3.727   0.498  -3.175  0.00  0.00     0.000 A 
ATOM      6  C7  UNL d   1      -3.018   0.905  -2.032  0.00  0.00    -0.073 A 
ATOM      7  C8  UNL d   1      -3.420   2.185  -1.351  0.00  0.00     0.078 C 
ENDROOT
BRANCH   1   8
ATOM      8  C1  UNL d   1      -1.202   0.435  -0.289  0.00  0.00     0.053 C 
ATOM      9  C   UNL d   1       0.270   0.067  -0.400  0.00  0.00     0.018 C 
ENDBRANCH   1   8
TORSDOF 1
ENDMDL
