MODEL 1
REMARK minimizedAffinity -5.07078314
REMARK minimizedRMSD -1
REMARK  1 active torsions:
REMARK  status: ('A' for Active; 'I' for Inactive)
REMARK    1  A    between atoms: C1_2  and  C2_3 
ROOT
ATOM      1  C2  UNL d   1       1.182  -0.627   0.495  0.00  0.00    -0.076 A 
ATOM      2  C3  UNL d   1       0.748  -1.892   0.927  0.00  0.00     0.004 A 
ATOM      3  C4  UNL d   1      -0.582  -2.112   1.281  0.00  0.00    -0.003 A 
ATOM      4  C5  UNL d   1      -1.500  -1.071   1.208  0.00  0.00     0.000 A 
ATOM      5  C6  UNL d   1      -1.091   0.186   0.764  0.00  0.00     0.000 A 
ATOM      6  C7  UNL d   1       0.242   0.421   0.388  0.00  0.00    -0.073 A 
ATOM      7  C8  UNL d   1       0.630   1.798  -0.077  0.00  0.00     0.078 C 
ENDROOT
BRANCH   1   8
ATOM      8  C1  UNL d   1       2.642  -0.440   0.150  0.00  0.00     0.053 C 
ATOM      9  C   UNL d   1       3.453   0.096   1.320  0.00  0.00     0.018 C 
ENDBRANCH   1   8
TORSDOF 1
ENDMDL
