MODEL 1
REMARK minimizedAffinity -5.17541742
REMARK minimizedRMSD -1
REMARK  1 active torsions:
REMARK  status: ('A' for Active; 'I' for Inactive)
REMARK    1  A    between atoms: C1_2  and  C2_3 
ROOT
ATOM      1  C2  UNL d   1       0.662  -0.884   0.560  0.00  0.00    -0.076 A 
ATOM      2  C3  UNL d   1       1.371   0.276   0.203  0.00  0.00     0.004 A 
ATOM      3  C4  UNL d   1       2.695   0.458   0.598  0.00  0.00    -0.003 A 
ATOM      4  C5  UNL d   1       3.333  -0.517   1.356  0.00  0.00     0.000 A 
ATOM      5  C6  UNL d   1       2.651  -1.683   1.705  0.00  0.00     0.000 A 
ATOM      6  C7  UNL d   1       1.320  -1.890   1.301  0.00  0.00    -0.073 A 
ATOM      7  C8  UNL d   1       0.631  -3.162   1.710  0.00  0.00     0.078 C 
ENDROOT
BRANCH   1   8
ATOM      8  C1  UNL d   1      -0.780  -1.015   0.126  0.00  0.00     0.053 C 
ATOM      9  C   UNL d   1      -1.372   0.308  -0.334  0.00  0.00     0.018 C 
ENDBRANCH   1   8
TORSDOF 1
ENDMDL
