MODEL 1
REMARK minimizedAffinity -1.63368583
REMARK minimizedRMSD -1
REMARK  1 active torsions:
REMARK  status: ('A' for Active; 'I' for Inactive)
REMARK    1  A    between atoms: C3_4  and  O_7 
ROOT
ATOM      1  C   UNL d   1       0.052   0.196  -0.211  0.00  0.00    -0.033 A 
ATOM      2  C1  UNL d   1       1.272   0.817   0.064  0.00  0.00     0.039 A 
ATOM      3  C2  UNL d   1       2.392   0.048   0.384  0.00  0.00    -0.080 A 
ATOM      4  C3  UNL d   1       2.281  -1.339   0.424  0.00  0.00     0.150 A 
ATOM      5  C4  UNL d   1       1.070  -1.965   0.146  0.00  0.00    -0.007 A 
ATOM      6  C5  UNL d   1      -0.049  -1.195  -0.172  0.00  0.00     0.039 A 
ENDROOT
BRANCH   4   7
ATOM      7  O   UNL d   1       3.346  -2.131   0.735  0.00  0.00    -0.526 OA
ATOM      8  H5  UNL d   1       4.107  -1.560   0.931  0.00  0.00     0.418 HD
ENDBRANCH   4   7
TORSDOF 1
ENDMDL
