MODEL 1
REMARK minimizedAffinity -0.0386732295
REMARK minimizedRMSD -1
REMARK  1 active torsions:
REMARK  status: ('A' for Active; 'I' for Inactive)
REMARK    1  A    between atoms: C3_4  and  O_7 
ROOT
ATOM      1  C   UNL d   1      -0.175   0.490   0.077  0.00  0.00    -0.033 A 
ATOM      2  C1  UNL d   1       0.968   1.291   0.124  0.00  0.00     0.039 A 
ATOM      3  C2  UNL d   1       2.234   0.703   0.119  0.00  0.00    -0.080 A 
ATOM      4  C3  UNL d   1       2.344  -0.683   0.065  0.00  0.00     0.150 A 
ATOM      5  C4  UNL d   1       1.210  -1.487   0.014  0.00  0.00    -0.007 A 
ATOM      6  C5  UNL d   1      -0.054  -0.899   0.020  0.00  0.00     0.039 A 
ENDROOT
BRANCH   4   7
ATOM      7  O   UNL d   1       3.559  -1.302   0.063  0.00  0.00    -0.526 OA
ATOM      8  H5  UNL d   1       4.251  -0.623   0.131  0.00  0.00     0.418 HD
ENDBRANCH   4   7
TORSDOF 1
ENDMDL
