MODEL 1
REMARK minimizedAffinity -3.51493716
REMARK minimizedRMSD -1
REMARK  1 active torsions:
REMARK  status: ('A' for Active; 'I' for Inactive)
REMARK    1  A    between atoms: C3_4  and  O_7 
ROOT
ATOM      1  C   UNL d   1      -0.026  -2.270   1.475  0.00  0.00    -0.033 A 
ATOM      2  C1  UNL d   1       0.819  -2.116   0.374  0.00  0.00     0.039 A 
ATOM      3  C2  UNL d   1       0.842  -0.909  -0.327  0.00  0.00    -0.080 A 
ATOM      4  C3  UNL d   1       0.018   0.135   0.083  0.00  0.00     0.150 A 
ATOM      5  C4  UNL d   1      -0.823  -0.010   1.182  0.00  0.00    -0.007 A 
ATOM      6  C5  UNL d   1      -0.846  -1.216   1.880  0.00  0.00     0.039 A 
ENDROOT
BRANCH   4   7
ATOM      7  O   UNL d   1       0.003   1.330  -0.572  0.00  0.00    -0.526 OA
ATOM      8  H5  UNL d   1       0.612   1.275  -1.327  0.00  0.00     0.418 HD
ENDBRANCH   4   7
TORSDOF 1
ENDMDL
