MODEL 1
REMARK minimizedAffinity -3.87150335
REMARK minimizedRMSD -1
REMARK  1 active torsions:
REMARK  status: ('A' for Active; 'I' for Inactive)
REMARK    1  A    between atoms: C3_4  and  O_7 
ROOT
ATOM      1  C   UNL d   1       0.371   1.380  -0.173  0.00  0.00    -0.033 A 
ATOM      2  C1  UNL d   1      -0.100   0.066  -0.198  0.00  0.00     0.039 A 
ATOM      3  C2  UNL d   1       0.694  -0.972   0.294  0.00  0.00    -0.080 A 
ATOM      4  C3  UNL d   1       1.954  -0.683   0.809  0.00  0.00     0.150 A 
ATOM      5  C4  UNL d   1       2.429   0.624   0.841  0.00  0.00    -0.007 A 
ATOM      6  C5  UNL d   1       1.635   1.659   0.348  0.00  0.00     0.039 A 
ENDROOT
BRANCH   4   7
ATOM      7  O   UNL d   1       2.767  -1.663   1.296  0.00  0.00    -0.526 OA
ATOM      8  H5  UNL d   1       2.320  -2.518   1.184  0.00  0.00     0.418 HD
ENDBRANCH   4   7
TORSDOF 1
ENDMDL
