MODEL 1
REMARK minimizedAffinity -0.310077012
REMARK minimizedRMSD -1
REMARK  1 active torsions:
REMARK  status: ('A' for Active; 'I' for Inactive)
REMARK    1  A    between atoms: C3_4  and  O_7 
ROOT
ATOM      1  C   UNL d   1      -0.759   0.993  -0.099  0.00  0.00    -0.033 A 
ATOM      2  C1  UNL d   1       0.333   1.853   0.028  0.00  0.00     0.039 A 
ATOM      3  C2  UNL d   1       1.597   1.341   0.325  0.00  0.00    -0.080 A 
ATOM      4  C3  UNL d   1       1.756  -0.032   0.492  0.00  0.00     0.150 A 
ATOM      5  C4  UNL d   1       0.673  -0.896   0.363  0.00  0.00    -0.007 A 
ATOM      6  C5  UNL d   1      -0.589  -0.382   0.067  0.00  0.00     0.039 A 
ENDROOT
BRANCH   4   7
ATOM      7  O   UNL d   1       2.969  -0.579   0.788  0.00  0.00    -0.526 OA
ATOM      8  H5  UNL d   1       3.617   0.140   0.874  0.00  0.00     0.418 HD
ENDBRANCH   4   7
TORSDOF 1
ENDMDL
