MODEL 1
REMARK minimizedAffinity -3.95647001
REMARK minimizedRMSD -1
REMARK  1 active torsions:
REMARK  status: ('A' for Active; 'I' for Inactive)
REMARK    1  A    between atoms: C3_4  and  O_7 
ROOT
ATOM      1  C   UNL d   1      -4.677  -0.517  -0.696  0.00  0.00    -0.033 A 
ATOM      2  C1  UNL d   1      -3.412   0.059  -0.560  0.00  0.00     0.039 A 
ATOM      3  C2  UNL d   1      -3.160   0.956   0.481  0.00  0.00    -0.080 A 
ATOM      4  C3  UNL d   1      -4.178   1.266   1.377  0.00  0.00     0.150 A 
ATOM      5  C4  UNL d   1      -5.439   0.693   1.250  0.00  0.00    -0.007 A 
ATOM      6  C5  UNL d   1      -5.690  -0.201   0.210  0.00  0.00     0.039 A 
ENDROOT
BRANCH   4   7
ATOM      7  O   UNL d   1      -3.981   2.139   2.406  0.00  0.00    -0.526 OA
ATOM      8  H5  UNL d   1      -3.072   2.478   2.352  0.00  0.00     0.418 HD
ENDBRANCH   4   7
TORSDOF 1
ENDMDL
