MODEL 1
REMARK minimizedAffinity -2.24931169
REMARK minimizedRMSD -1
REMARK  1 active torsions:
REMARK  status: ('A' for Active; 'I' for Inactive)
REMARK    1  A    between atoms: C3_4  and  O_7 
ROOT
ATOM      1  C   UNL d   1      -0.308  -0.617  -0.354  0.00  0.00    -0.033 A 
ATOM      2  C1  UNL d   1       0.183  -0.008   0.802  0.00  0.00     0.039 A 
ATOM      3  C2  UNL d   1       1.429  -0.378   1.313  0.00  0.00    -0.080 A 
ATOM      4  C3  UNL d   1       2.173  -1.356   0.659  0.00  0.00     0.150 A 
ATOM      5  C4  UNL d   1       1.692  -1.964  -0.495  0.00  0.00    -0.007 A 
ATOM      6  C5  UNL d   1       0.447  -1.595  -1.004  0.00  0.00     0.039 A 
ENDROOT
BRANCH   4   7
ATOM      7  O   UNL d   1       3.392  -1.753   1.123  0.00  0.00    -0.526 OA
ATOM      8  H5  UNL d   1       3.582  -1.268   1.943  0.00  0.00     0.418 HD
ENDBRANCH   4   7
TORSDOF 1
ENDMDL
