MODEL 1
REMARK minimizedAffinity -2.1304121
REMARK minimizedRMSD -1
REMARK  1 active torsions:
REMARK  status: ('A' for Active; 'I' for Inactive)
REMARK    1  A    between atoms: C3_4  and  O_7 
ROOT
ATOM      1  C   UNL d   1       2.947  -1.738   0.973  0.00  0.00    -0.033 A 
ATOM      2  C1  UNL d   1       2.578  -0.666   1.789  0.00  0.00     0.039 A 
ATOM      3  C2  UNL d   1       1.487   0.133   1.442  0.00  0.00    -0.080 A 
ATOM      4  C3  UNL d   1       0.774  -0.150   0.280  0.00  0.00     0.150 A 
ATOM      5  C4  UNL d   1       1.135  -1.218  -0.535  0.00  0.00    -0.007 A 
ATOM      6  C5  UNL d   1       2.225  -2.014  -0.188  0.00  0.00     0.039 A 
ENDROOT
BRANCH   4   7
ATOM      7  O   UNL d   1      -0.295   0.605  -0.102  0.00  0.00    -0.526 OA
ATOM      8  H5  UNL d   1      -0.409   1.325   0.542  0.00  0.00     0.418 HD
ENDBRANCH   4   7
TORSDOF 1
ENDMDL
