MODEL 1
REMARK minimizedAffinity -4.17526293
REMARK minimizedRMSD -1
REMARK  1 active torsions:
REMARK  status: ('A' for Active; 'I' for Inactive)
REMARK    1  A    between atoms: C3_4  and  O_7 
ROOT
ATOM      1  C   UNL d   1       2.643   1.355   1.600  0.00  0.00    -0.033 A 
ATOM      2  C1  UNL d   1       2.112   2.254   0.673  0.00  0.00     0.039 A 
ATOM      3  C2  UNL d   1       0.922   1.951   0.008  0.00  0.00    -0.080 A 
ATOM      4  C3  UNL d   1       0.275   0.749   0.278  0.00  0.00     0.150 A 
ATOM      5  C4  UNL d   1       0.797  -0.150   1.202  0.00  0.00    -0.007 A 
ATOM      6  C5  UNL d   1       1.985   0.154   1.865  0.00  0.00     0.039 A 
ENDROOT
BRANCH   4   7
ATOM      7  O   UNL d   1      -0.886   0.408  -0.350  0.00  0.00    -0.526 OA
ATOM      8  H5  UNL d   1      -1.112   1.111  -0.982  0.00  0.00     0.418 HD
ENDBRANCH   4   7
TORSDOF 1
ENDMDL
