MODEL 1
REMARK minimizedAffinity -4.34316206
REMARK minimizedRMSD -1
REMARK  1 active torsions:
REMARK  status: ('A' for Active; 'I' for Inactive)
REMARK    1  A    between atoms: C3_4  and  O_7 
ROOT
ATOM      1  C   UNL d   1       0.716   1.681  -0.174  0.00  0.00    -0.033 A 
ATOM      2  C1  UNL d   1       0.496   0.454   0.456  0.00  0.00     0.039 A 
ATOM      3  C2  UNL d   1      -0.773   0.135   0.943  0.00  0.00    -0.080 A 
ATOM      4  C3  UNL d   1      -1.812   1.049   0.792  0.00  0.00     0.150 A 
ATOM      5  C4  UNL d   1      -1.601   2.271   0.162  0.00  0.00    -0.007 A 
ATOM      6  C5  UNL d   1      -0.332   2.589  -0.322  0.00  0.00     0.039 A 
ENDROOT
BRANCH   4   7
ATOM      7  O   UNL d   1      -3.067   0.785   1.255  0.00  0.00    -0.526 OA
ATOM      8  H5  UNL d   1      -3.057  -0.083   1.692  0.00  0.00     0.418 HD
ENDBRANCH   4   7
TORSDOF 1
ENDMDL
