MODEL 1
REMARK minimizedAffinity -1.74761212
REMARK minimizedRMSD -1
REMARK  0 active torsions:
REMARK  status: ('A' for Active; 'I' for Inactive)
ROOT
ATOM      1  O1  BZF d   1       1.039  -0.838  -1.991  0.00  0.00    -0.204 OA
ATOM      2  C2  BZF d   1       2.269  -1.170  -1.457  0.00  0.00     0.174 A 
ATOM      3  C3  BZF d   1       2.242  -1.097  -0.110  0.00  0.00    -0.012 A 
ATOM      4  C3A BZF d   1       0.886  -0.784   0.222  0.00  0.00    -0.107 A 
ATOM      5  C4  BZF d   1       0.228  -0.597   1.404  0.00  0.00     0.055 A 
ATOM      6  C5  BZF d   1      -1.080  -0.230   1.381  0.00  0.00    -0.016 A 
ATOM      7  C6  BZF d   1      -1.760  -0.038   0.196  0.00  0.00     0.022 A 
ATOM      8  C7  BZF d   1      -1.151  -0.216  -1.002  0.00  0.00     0.029 A 
ATOM      9  C7A BZF d   1       0.162  -0.619  -0.982  0.00  0.00     0.058 A 
ENDROOT
TORSDOF 0
ENDMDL
