MODEL 1
REMARK minimizedAffinity -5.22162151
REMARK minimizedRMSD -1
REMARK  0 active torsions:
REMARK  status: ('A' for Active; 'I' for Inactive)
ROOT
ATOM      1  O1  BZF d   1      -1.344  -0.265  -0.110  0.00  0.00    -0.204 OA
ATOM      2  C2  BZF d   1      -0.630  -0.225  -1.292  0.00  0.00     0.174 A 
ATOM      3  C3  BZF d   1       0.694  -0.320  -1.055  0.00  0.00    -0.012 A 
ATOM      4  C3A BZF d   1       0.810  -0.520   0.357  0.00  0.00    -0.107 A 
ATOM      5  C4  BZF d   1       1.872  -0.700   1.196  0.00  0.00     0.055 A 
ATOM      6  C5  BZF d   1       1.650  -0.793   2.533  0.00  0.00    -0.016 A 
ATOM      7  C6  BZF d   1       0.381  -0.704   3.066  0.00  0.00     0.022 A 
ATOM      8  C7  BZF d   1      -0.705  -0.530   2.274  0.00  0.00     0.029 A 
ATOM      9  C7A BZF d   1      -0.487  -0.469   0.919  0.00  0.00     0.058 A 
ENDROOT
TORSDOF 0
ENDMDL
