MODEL 1
REMARK minimizedAffinity -2.21115375
REMARK minimizedRMSD -1
REMARK  0 active torsions:
REMARK  status: ('A' for Active; 'I' for Inactive)
ROOT
ATOM      1  O1  BZF d   1      -0.450  -1.661   2.739  0.00  0.00    -0.204 OA
ATOM      2  C2  BZF d   1      -1.829  -1.621   2.674  0.00  0.00     0.174 A 
ATOM      3  C3  BZF d   1      -2.237  -0.991   1.554  0.00  0.00    -0.012 A 
ATOM      4  C3A BZF d   1      -1.039  -0.694   0.831  0.00  0.00    -0.107 A 
ATOM      5  C4  BZF d   1      -0.791  -0.087  -0.367  0.00  0.00     0.055 A 
ATOM      6  C5  BZF d   1       0.497   0.113  -0.752  0.00  0.00    -0.016 A 
ATOM      7  C6  BZF d   1       1.559  -0.276   0.037  0.00  0.00     0.022 A 
ATOM      8  C7  BZF d   1       1.363  -0.886   1.232  0.00  0.00     0.029 A 
ATOM      9  C7A BZF d   1       0.063  -1.119   1.608  0.00  0.00     0.058 A 
ENDROOT
TORSDOF 0
ENDMDL
