MODEL 1
REMARK minimizedAffinity -3.14496851
REMARK minimizedRMSD -1
REMARK  0 active torsions:
REMARK  status: ('A' for Active; 'I' for Inactive)
ROOT
ATOM      1  O1  BZF d   1       0.991   0.229  -0.392  0.00  0.00    -0.204 OA
ATOM      2  C2  BZF d   1      -0.169   0.513  -1.086  0.00  0.00     0.174 A 
ATOM      3  C3  BZF d   1      -1.243  -0.006  -0.456  0.00  0.00    -0.012 A 
ATOM      4  C3A BZF d   1      -0.731  -0.576   0.752  0.00  0.00    -0.107 A 
ATOM      5  C4  BZF d   1      -1.312  -1.225   1.804  0.00  0.00     0.055 A 
ATOM      6  C5  BZF d   1      -0.521  -1.720   2.792  0.00  0.00    -0.016 A 
ATOM      7  C6  BZF d   1       0.852  -1.590   2.758  0.00  0.00     0.022 A 
ATOM      8  C7  BZF d   1       1.473  -0.950   1.738  0.00  0.00     0.029 A 
ATOM      9  C7A BZF d   1       0.675  -0.419   0.754  0.00  0.00     0.058 A 
ENDROOT
TORSDOF 0
ENDMDL
