MODEL 1
REMARK minimizedAffinity -4.72395086
REMARK minimizedRMSD -1
REMARK  0 active torsions:
REMARK  status: ('A' for Active; 'I' for Inactive)
ROOT
ATOM      1  O1  BZF d   1      -0.457  -0.937  -0.264  0.00  0.00    -0.204 OA
ATOM      2  C2  BZF d   1      -1.548  -0.197   0.147  0.00  0.00     0.174 A 
ATOM      3  C3  BZF d   1      -1.877  -0.496   1.420  0.00  0.00    -0.012 A 
ATOM      4  C3A BZF d   1      -0.876  -1.417   1.861  0.00  0.00    -0.107 A 
ATOM      5  C4  BZF d   1      -0.650  -2.064   3.043  0.00  0.00     0.055 A 
ATOM      6  C5  BZF d   1       0.374  -2.954   3.123  0.00  0.00    -0.016 A 
ATOM      7  C6  BZF d   1       1.188  -3.224   2.043  0.00  0.00     0.022 A 
ATOM      8  C7  BZF d   1       1.007  -2.603   0.852  0.00  0.00     0.029 A 
ATOM      9  C7A BZF d   1      -0.007  -1.679   0.777  0.00  0.00     0.058 A 
ENDROOT
TORSDOF 0
ENDMDL
