MODEL 1
REMARK minimizedAffinity -3.95203662
REMARK minimizedRMSD -1
REMARK  0 active torsions:
REMARK  status: ('A' for Active; 'I' for Inactive)
ROOT
ATOM      1  O1  BZF d   1       0.848   0.674  -0.995  0.00  0.00    -0.204 OA
ATOM      2  C2  BZF d   1       0.111  -0.381  -0.492  0.00  0.00     0.174 A 
ATOM      3  C3  BZF d   1      -1.184  -0.274  -0.851  0.00  0.00    -0.012 A 
ATOM      4  C3A BZF d   1      -1.245   0.873  -1.704  0.00  0.00    -0.107 A 
ATOM      5  C4  BZF d   1      -2.259   1.482  -2.388  0.00  0.00     0.055 A 
ATOM      6  C5  BZF d   1      -1.999   2.628  -3.070  0.00  0.00    -0.016 A 
ATOM      7  C6  BZF d   1      -0.742   3.195  -3.087  0.00  0.00     0.022 A 
ATOM      8  C7  BZF d   1       0.296   2.625  -2.428  0.00  0.00     0.029 A 
ATOM      9  C7A BZF d   1       0.045   1.449  -1.764  0.00  0.00     0.058 A 
ENDROOT
TORSDOF 0
ENDMDL
