MODEL 1
REMARK minimizedAffinity -5.4311223
REMARK minimizedRMSD -1
REMARK  0 active torsions:
REMARK  status: ('A' for Active; 'I' for Inactive)
ROOT
ATOM      1  O1  BZF d   1      -0.097   0.012  -0.594  0.00  0.00    -0.204 OA
ATOM      2  C2  BZF d   1      -1.393   0.280  -0.199  0.00  0.00     0.174 A 
ATOM      3  C3  BZF d   1      -1.627  -0.205   1.037  0.00  0.00    -0.012 A 
ATOM      4  C3A BZF d   1      -0.373  -0.734   1.477  0.00  0.00    -0.107 A 
ATOM      5  C4  BZF d   1       0.038  -1.338   2.631  0.00  0.00     0.055 A 
ATOM      6  C5  BZF d   1       1.312  -1.804   2.715  0.00  0.00    -0.016 A 
ATOM      7  C6  BZF d   1       2.198  -1.687   1.664  0.00  0.00     0.022 A 
ATOM      8  C7  BZF d   1       1.838  -1.091   0.502  0.00  0.00     0.029 A 
ATOM      9  C7A BZF d   1       0.561  -0.590   0.426  0.00  0.00     0.058 A 
ENDROOT
TORSDOF 0
ENDMDL
