MODEL 1
REMARK minimizedAffinity 9.32438087
REMARK minimizedRMSD -1
REMARK  1 active torsions:
REMARK  status: ('A' for Active; 'I' for Inactive)
REMARK    1  A    between atoms: C1_2  and  C2_3 
ROOT
ATOM      1  C2  UNL d   1       0.276   1.915   0.169  0.00  0.00    -0.073 A 
ATOM      2  C3  UNL d   1      -0.485   3.090   0.147  0.00  0.00    -0.002 A 
ATOM      3  C4  UNL d   1      -1.098   3.555   1.311  0.00  0.00     0.004 A 
ATOM      4  C5  UNL d   1      -0.951   2.857   2.509  0.00  0.00    -0.004 A 
ATOM      5  C6  UNL d   1      -0.185   1.687   2.555  0.00  0.00    -0.075 A 
ATOM      6  C7  UNL d   1      -0.019   0.923   3.835  0.00  0.00     0.076 C 
ATOM      7  C8  UNL d   1       0.425   1.224   1.381  0.00  0.00     0.001 A 
ENDROOT
BRANCH   1   8
ATOM      8  C1  UNL d   1       0.944   1.412  -1.084  0.00  0.00     0.053 C 
ATOM      9  C   UNL d   1       1.426  -0.023  -0.936  0.00  0.00     0.018 C 
ENDBRANCH   1   8
TORSDOF 1
ENDMDL
