MODEL 1
REMARK minimizedAffinity 5.03881645
REMARK minimizedRMSD -1
REMARK  1 active torsions:
REMARK  status: ('A' for Active; 'I' for Inactive)
REMARK    1  A    between atoms: C1_2  and  C2_3 
ROOT
ATOM      1  C2  UNL d   1       1.950   0.186   0.915  0.00  0.00    -0.073 A 
ATOM      2  C3  UNL d   1       2.079  -0.675   2.011  0.00  0.00    -0.002 A 
ATOM      3  C4  UNL d   1       2.702  -1.915   1.864  0.00  0.00     0.004 A 
ATOM      4  C5  UNL d   1       3.209  -2.303   0.624  0.00  0.00    -0.004 A 
ATOM      5  C6  UNL d   1       3.101  -1.452  -0.480  0.00  0.00    -0.075 A 
ATOM      6  C7  UNL d   1       3.639  -1.856  -1.822  0.00  0.00     0.076 C 
ATOM      7  C8  UNL d   1       2.471  -0.209  -0.326  0.00  0.00     0.001 A 
ENDROOT
BRANCH   1   8
ATOM      8  C1  UNL d   1       1.284   1.528   1.070  0.00  0.00     0.053 C 
ATOM      9  C   UNL d   1       0.441   1.890  -0.143  0.00  0.00     0.018 C 
ENDBRANCH   1   8
TORSDOF 1
ENDMDL
