MODEL 1
REMARK minimizedAffinity 11.3531237
REMARK minimizedRMSD -1
REMARK  1 active torsions:
REMARK  status: ('A' for Active; 'I' for Inactive)
REMARK    1  A    between atoms: C1_2  and  C2_3 
ROOT
ATOM      1  C2  UNL d   1       4.719   5.137   3.622  0.00  0.00    -0.073 A 
ATOM      2  C3  UNL d   1       4.996   5.719   4.864  0.00  0.00    -0.002 A 
ATOM      3  C4  UNL d   1       5.150   4.921   5.998  0.00  0.00     0.004 A 
ATOM      4  C5  UNL d   1       5.036   3.534   5.901  0.00  0.00    -0.004 A 
ATOM      5  C6  UNL d   1       4.770   2.933   4.667  0.00  0.00    -0.075 A 
ATOM      6  C7  UNL d   1       4.642   1.443   4.546  0.00  0.00     0.076 C 
ATOM      7  C8  UNL d   1       4.614   3.741   3.533  0.00  0.00     0.001 A 
ENDROOT
BRANCH   1   8
ATOM      8  C1  UNL d   1       4.558   5.994   2.393  0.00  0.00     0.053 C 
ATOM      9  C   UNL d   1       5.812   5.998   1.533  0.00  0.00     0.018 C 
ENDBRANCH   1   8
TORSDOF 1
ENDMDL
