MODEL 1
REMARK minimizedAffinity 5.74806643
REMARK minimizedRMSD -1
REMARK  1 active torsions:
REMARK  status: ('A' for Active; 'I' for Inactive)
REMARK    1  A    between atoms: C1_2  and  C2_3 
ROOT
ATOM      1  C2  UNL d   1       1.735   0.610   0.176  0.00  0.00    -0.073 A 
ATOM      2  C3  UNL d   1       1.528  -0.192  -0.952  0.00  0.00    -0.002 A 
ATOM      3  C4  UNL d   1       2.085  -1.470  -1.019  0.00  0.00     0.004 A 
ATOM      4  C5  UNL d   1       2.846  -1.961   0.042  0.00  0.00    -0.004 A 
ATOM      5  C6  UNL d   1       3.053  -1.179   1.183  0.00  0.00    -0.075 A 
ATOM      6  C7  UNL d   1       3.871  -1.692   2.332  0.00  0.00     0.076 C 
ATOM      7  C8  UNL d   1       2.493   0.104   1.242  0.00  0.00     0.001 A 
ENDROOT
BRANCH   1   8
ATOM      8  C1  UNL d   1       1.131   1.988   0.256  0.00  0.00     0.053 C 
ATOM      9  C   UNL d   1      -0.151   2.097  -0.555  0.00  0.00     0.018 C 
ENDBRANCH   1   8
TORSDOF 1
ENDMDL
