MODEL 1
REMARK minimizedAffinity 1.35013556
REMARK minimizedRMSD -1
REMARK  1 active torsions:
REMARK  status: ('A' for Active; 'I' for Inactive)
REMARK    1  A    between atoms: C1_2  and  C2_3 
ROOT
ATOM      1  C2  UNL d   1       0.003   0.847  -1.010  0.00  0.00    -0.073 A 
ATOM      2  C3  UNL d   1       0.252   2.105  -0.451  0.00  0.00    -0.002 A 
ATOM      3  C4  UNL d   1       1.401   2.324   0.309  0.00  0.00     0.004 A 
ATOM      4  C5  UNL d   1       2.316   1.291   0.512  0.00  0.00    -0.004 A 
ATOM      5  C6  UNL d   1       2.091   0.030  -0.049  0.00  0.00    -0.075 A 
ATOM      6  C7  UNL d   1       3.065  -1.093   0.162  0.00  0.00     0.076 C 
ATOM      7  C8  UNL d   1       0.933  -0.183  -0.808  0.00  0.00     0.001 A 
ENDROOT
BRANCH   1   8
ATOM      8  C1  UNL d   1      -1.234   0.607  -1.837  0.00  0.00     0.053 C 
ATOM      9  C   UNL d   1      -2.441   0.276  -0.974  0.00  0.00     0.018 C 
ENDBRANCH   1   8
TORSDOF 1
ENDMDL
