MODEL 1
REMARK minimizedAffinity 0.856359243
REMARK minimizedRMSD -1
REMARK  1 active torsions:
REMARK  status: ('A' for Active; 'I' for Inactive)
REMARK    1  A    between atoms: C1_2  and  C2_3 
ROOT
ATOM      1  C2  UNL d   1       1.486  -0.261  -0.688  0.00  0.00    -0.073 A 
ATOM      2  C3  UNL d   1       1.307   0.815   0.188  0.00  0.00    -0.002 A 
ATOM      3  C4  UNL d   1       0.306   1.758  -0.048  0.00  0.00     0.004 A 
ATOM      4  C5  UNL d   1      -0.530   1.631  -1.157  0.00  0.00    -0.004 A 
ATOM      5  C6  UNL d   1      -0.375   0.556  -2.038  0.00  0.00    -0.075 A 
ATOM      6  C7  UNL d   1      -1.264   0.406  -3.237  0.00  0.00     0.076 C 
ATOM      7  C8  UNL d   1       0.635  -0.385  -1.796  0.00  0.00     0.001 A 
ENDROOT
BRANCH   1   8
ATOM      8  C1  UNL d   1       2.562  -1.285  -0.434  0.00  0.00     0.053 C 
ATOM      9  C   UNL d   1       3.060  -1.244   1.002  0.00  0.00     0.018 C 
ENDBRANCH   1   8
TORSDOF 1
ENDMDL
