MODEL 1
REMARK minimizedAffinity -5.53625107
REMARK minimizedRMSD -1
REMARK  1 active torsions:
REMARK  status: ('A' for Active; 'I' for Inactive)
REMARK    1  A    between atoms: C1_2  and  C2_3 
ROOT
ATOM      1  C2  UNL d   1      -0.030  -0.007   0.215  0.00  0.00    -0.073 A 
ATOM      2  C3  UNL d   1      -0.335  -0.766  -0.920  0.00  0.00    -0.002 A 
ATOM      3  C4  UNL d   1       0.565  -1.722  -1.392  0.00  0.00     0.004 A 
ATOM      4  C5  UNL d   1       1.774  -1.935  -0.731  0.00  0.00    -0.004 A 
ATOM      5  C6  UNL d   1       2.092  -1.195   0.413  0.00  0.00    -0.075 A 
ATOM      6  C7  UNL d   1       3.390  -1.410   1.134  0.00  0.00     0.076 C 
ATOM      7  C8  UNL d   1       1.184  -0.235   0.879  0.00  0.00     0.001 A 
ENDROOT
BRANCH   1   8
ATOM      8  C1  UNL d   1      -1.001   1.022   0.732  0.00  0.00     0.053 C 
ATOM      9  C   UNL d   1      -2.439   0.679   0.375  0.00  0.00     0.018 C 
ENDBRANCH   1   8
TORSDOF 1
ENDMDL
