MODEL 1
REMARK minimizedAffinity 1.4646219
REMARK minimizedRMSD -1
REMARK  0 active torsions:
REMARK  status: ('A' for Active; 'I' for Inactive)
ROOT
ATOM      1  C   UNL d   1      -1.322   0.510   1.118  0.00  0.00     0.023 A 
ATOM      2  C1  UNL d   1      -1.905  -0.299   2.093  0.00  0.00     0.003 A 
ATOM      3  C2  UNL d   1      -1.100  -1.017   2.980  0.00  0.00     0.048 A 
ATOM      4  C3  UNL d   1       0.288  -0.920   2.887  0.00  0.00     0.023 A 
ATOM      5  C4  UNL d   1       0.876  -0.110   1.914  0.00  0.00     0.048 A 
ATOM      6  C5  UNL d   1       0.067   0.605   1.029  0.00  0.00     0.003 A 
ATOM      7  I   UNL d   1       1.488  -1.987   4.206  0.00  0.00    -0.146 I 
ENDROOT
TORSDOF 0
ENDMDL
