MODEL 1
REMARK minimizedAffinity 1.01880491
REMARK minimizedRMSD -1
REMARK  0 active torsions:
REMARK  status: ('A' for Active; 'I' for Inactive)
ROOT
ATOM      1  C   UNL d   1       2.240  -5.207  -2.559  0.00  0.00     0.023 A 
ATOM      2  C1  UNL d   1       0.884  -5.092  -2.252  0.00  0.00     0.003 A 
ATOM      3  C2  UNL d   1      -0.078  -5.318  -3.238  0.00  0.00     0.048 A 
ATOM      4  C3  UNL d   1       0.322  -5.661  -4.529  0.00  0.00     0.023 A 
ATOM      5  C4  UNL d   1       1.678  -5.778  -4.840  0.00  0.00     0.048 A 
ATOM      6  C5  UNL d   1       2.636  -5.550  -3.851  0.00  0.00     0.003 A 
ATOM      7  I   UNL d   1      -1.108  -5.999  -5.998  0.00  0.00    -0.146 I 
ENDROOT
TORSDOF 0
ENDMDL
