MODEL 1
REMARK minimizedAffinity 0.139149219
REMARK minimizedRMSD -1
REMARK  0 active torsions:
REMARK  status: ('A' for Active; 'I' for Inactive)
ROOT
ATOM      1  C   UNL d   1      -2.243  -1.032   2.555  0.00  0.00     0.023 A 
ATOM      2  C1  UNL d   1      -1.159  -0.187   2.319  0.00  0.00     0.003 A 
ATOM      3  C2  UNL d   1       0.031  -0.360   3.029  0.00  0.00     0.048 A 
ATOM      4  C3  UNL d   1       0.131  -1.382   3.972  0.00  0.00     0.023 A 
ATOM      5  C4  UNL d   1      -0.951  -2.231   4.211  0.00  0.00     0.048 A 
ATOM      6  C5  UNL d   1      -2.139  -2.053   3.500  0.00  0.00     0.003 A 
ATOM      7  I   UNL d   1       1.901  -1.642   5.029  0.00  0.00    -0.146 I 
ENDROOT
TORSDOF 0
ENDMDL
