MODEL 1
REMARK minimizedAffinity 1.89808905
REMARK minimizedRMSD -1
REMARK  0 active torsions:
REMARK  status: ('A' for Active; 'I' for Inactive)
ROOT
ATOM      1  C   UNL d   1      -0.090  -5.999  -3.547  0.00  0.00     0.023 A 
ATOM      2  C1  UNL d   1       0.649  -5.336  -2.567  0.00  0.00     0.003 A 
ATOM      3  C2  UNL d   1       1.801  -4.629  -2.918  0.00  0.00     0.048 A 
ATOM      4  C3  UNL d   1       2.208  -4.589  -4.251  0.00  0.00     0.023 A 
ATOM      5  C4  UNL d   1       1.471  -5.250  -5.235  0.00  0.00     0.048 A 
ATOM      6  C5  UNL d   1       0.320  -5.956  -4.879  0.00  0.00     0.003 A 
ATOM      7  I   UNL d   1       3.922  -3.537  -4.776  0.00  0.00    -0.146 I 
ENDROOT
TORSDOF 0
ENDMDL
