MODEL 1
REMARK minimizedAffinity -4.36492348
REMARK minimizedRMSD -1
REMARK  0 active torsions:
REMARK  status: ('A' for Active; 'I' for Inactive)
ROOT
ATOM      1  C   UNL d   1      -0.915  -1.966   4.810  0.00  0.00     0.023 A 
ATOM      2  C1  UNL d   1       0.473  -2.062   4.720  0.00  0.00     0.003 A 
ATOM      3  C2  UNL d   1       1.166  -1.313   3.766  0.00  0.00     0.048 A 
ATOM      4  C3  UNL d   1       0.463  -0.470   2.906  0.00  0.00     0.023 A 
ATOM      5  C4  UNL d   1      -0.927  -0.370   2.993  0.00  0.00     0.048 A 
ATOM      6  C5  UNL d   1      -1.614  -1.121   3.948  0.00  0.00     0.003 A 
ATOM      7  I   UNL d   1       1.491   0.646   1.486  0.00  0.00    -0.146 I 
ENDROOT
TORSDOF 0
ENDMDL
