MODEL 1
REMARK minimizedAffinity -2.31114864
REMARK minimizedRMSD -1
REMARK  0 active torsions:
REMARK  status: ('A' for Active; 'I' for Inactive)
ROOT
ATOM      1  C   UNL d   1       0.195  -1.285   4.064  0.00  0.00     0.023 A 
ATOM      2  C1  UNL d   1      -1.171  -1.115   3.840  0.00  0.00     0.003 A 
ATOM      3  C2  UNL d   1      -1.639  -0.830   2.555  0.00  0.00     0.048 A 
ATOM      4  C3  UNL d   1      -0.735  -0.717   1.500  0.00  0.00     0.023 A 
ATOM      5  C4  UNL d   1       0.633  -0.887   1.719  0.00  0.00     0.048 A 
ATOM      6  C5  UNL d   1       1.096  -1.171   3.005  0.00  0.00     0.003 A 
ATOM      7  I   UNL d   1      -1.429  -0.293  -0.413  0.00  0.00    -0.146 I 
ENDROOT
TORSDOF 0
ENDMDL
