MODEL 1
REMARK minimizedAffinity 1.26439869
REMARK minimizedRMSD -1
REMARK  0 active torsions:
REMARK  status: ('A' for Active; 'I' for Inactive)
ROOT
ATOM      1  C   UNL d   1      -0.773   0.354   0.855  0.00  0.00     0.023 A 
ATOM      2  C1  UNL d   1      -1.497   0.304   2.046  0.00  0.00     0.003 A 
ATOM      3  C2  UNL d   1      -0.937  -0.286   3.181  0.00  0.00     0.048 A 
ATOM      4  C3  UNL d   1       0.348  -0.824   3.118  0.00  0.00     0.023 A 
ATOM      5  C4  UNL d   1       1.076  -0.776   1.928  0.00  0.00     0.048 A 
ATOM      6  C5  UNL d   1       0.512  -0.186   0.796  0.00  0.00     0.003 A 
ATOM      7  I   UNL d   1       1.184  -1.703   4.805  0.00  0.00    -0.146 I 
ENDROOT
TORSDOF 0
ENDMDL
