MODEL 1
REMARK minimizedAffinity -0.789961636
REMARK minimizedRMSD -1
REMARK  0 active torsions:
REMARK  status: ('A' for Active; 'I' for Inactive)
ROOT
ATOM      1  C2' OXE d   1      -2.998  -0.042   1.004  0.00  0.00     0.078 C 
ATOM      2  C1' OXE d   1      -0.865   0.033   2.827  0.00  0.00     0.078 C 
ATOM      3  C1  OXE d   1      -0.537   0.113   1.357  0.00  0.00    -0.078 A 
ATOM      4  C2  OXE d   1      -1.584   0.029   0.471  0.00  0.00    -0.078 A 
ATOM      5  C3  OXE d   1      -1.342   0.152  -0.895  0.00  0.00     0.003 A 
ATOM      6  C4  OXE d   1      -0.030   0.207  -1.380  0.00  0.00    -0.002 A 
ATOM      7  C5  OXE d   1       1.053   0.255  -0.496  0.00  0.00    -0.002 A 
ATOM      8  C6  OXE d   1       0.815   0.251   0.874  0.00  0.00     0.003 A 
ENDROOT
TORSDOF 0
ENDMDL
