MODEL 1
REMARK minimizedAffinity -5.11229897
REMARK minimizedRMSD -1
REMARK  0 active torsions:
REMARK  status: ('A' for Active; 'I' for Inactive)
ROOT
ATOM      1  C2' OXE d   1       1.718   0.887   0.913  0.00  0.00     0.078 C 
ATOM      2  C1' OXE d   1      -0.146   0.122  -1.042  0.00  0.00     0.078 C 
ATOM      3  C1  OXE d   1      -0.591   0.106   0.400  0.00  0.00    -0.078 A 
ATOM      4  C2  OXE d   1       0.342   0.437   1.353  0.00  0.00    -0.078 A 
ATOM      5  C3  OXE d   1      -0.031   0.490   2.693  0.00  0.00     0.003 A 
ATOM      6  C4  OXE d   1      -1.303   0.063   3.092  0.00  0.00    -0.002 A 
ATOM      7  C5  OXE d   1      -2.256  -0.316   2.141  0.00  0.00    -0.002 A 
ATOM      8  C6  OXE d   1      -1.930  -0.260   0.790  0.00  0.00     0.003 A 
ENDROOT
TORSDOF 0
ENDMDL
