MODEL 1
REMARK minimizedAffinity -5.44732714
REMARK minimizedRMSD -1
REMARK  0 active torsions:
REMARK  status: ('A' for Active; 'I' for Inactive)
ROOT
ATOM      1  C2' OXE d   1      -0.285   0.440  -1.165  0.00  0.00     0.078 C 
ATOM      2  C1' OXE d   1       1.751   0.237   0.757  0.00  0.00     0.078 C 
ATOM      3  C1  OXE d   1       0.326   0.070   1.222  0.00  0.00    -0.078 A 
ATOM      4  C2  OXE d   1      -0.666   0.218   0.283  0.00  0.00    -0.078 A 
ATOM      5  C3  OXE d   1      -1.995   0.020   0.648  0.00  0.00     0.003 A 
ATOM      6  C4  OXE d   1      -2.340  -0.175   1.990  0.00  0.00    -0.002 A 
ATOM      7  C5  OXE d   1      -1.347  -0.289   2.969  0.00  0.00    -0.002 A 
ATOM      8  C6  OXE d   1      -0.010  -0.211   2.595  0.00  0.00     0.003 A 
ENDROOT
TORSDOF 0
ENDMDL
