MODEL 1
REMARK minimizedAffinity -3.48458028
REMARK minimizedRMSD -1
REMARK  0 active torsions:
REMARK  status: ('A' for Active; 'I' for Inactive)
ROOT
ATOM      1  C2' OXE d   1      -3.173   0.370   0.791  0.00  0.00     0.078 C 
ATOM      2  C1' OXE d   1      -1.810   0.394   3.246  0.00  0.00     0.078 C 
ATOM      3  C1  OXE d   1      -0.985   0.403   1.983  0.00  0.00    -0.078 A 
ATOM      4  C2  OXE d   1      -1.659   0.344   0.787  0.00  0.00    -0.078 A 
ATOM      5  C3  OXE d   1      -0.949   0.404  -0.408  0.00  0.00     0.003 A 
ATOM      6  C4  OXE d   1       0.451   0.369  -0.403  0.00  0.00    -0.002 A 
ATOM      7  C5  OXE d   1       1.157   0.389   0.804  0.00  0.00    -0.002 A 
ATOM      8  C6  OXE d   1       0.456   0.449   2.003  0.00  0.00     0.003 A 
ENDROOT
TORSDOF 0
ENDMDL
