MODEL 1
REMARK minimizedAffinity -1.3193295
REMARK minimizedRMSD -1
REMARK  0 active torsions:
REMARK  status: ('A' for Active; 'I' for Inactive)
ROOT
ATOM      1  C2' OXE d   1      -1.497  -1.120  -3.761  0.00  0.00     0.078 C 
ATOM      2  C1' OXE d   1      -0.834   0.008  -1.277  0.00  0.00     0.078 C 
ATOM      3  C1  OXE d   1       0.294  -0.477  -2.154  0.00  0.00    -0.078 A 
ATOM      4  C2  OXE d   1      -0.042  -1.069  -3.347  0.00  0.00    -0.078 A 
ATOM      5  C3  OXE d   1       0.961  -1.484  -4.218  0.00  0.00     0.003 A 
ATOM      6  C4  OXE d   1       2.304  -1.443  -3.823  0.00  0.00    -0.002 A 
ATOM      7  C5  OXE d   1       2.666  -0.880  -2.595  0.00  0.00    -0.002 A 
ATOM      8  C6  OXE d   1       1.678  -0.354  -1.769  0.00  0.00     0.003 A 
ENDROOT
TORSDOF 0
ENDMDL
