MODEL 1
REMARK minimizedAffinity -2.82534289
REMARK minimizedRMSD -1
REMARK  0 active torsions:
REMARK  status: ('A' for Active; 'I' for Inactive)
ROOT
ATOM      1  C2' OXE d   1      -1.605   0.015   3.018  0.00  0.00     0.078 C 
ATOM      2  C1' OXE d   1       1.200   0.133   3.046  0.00  0.00     0.078 C 
ATOM      3  C1  OXE d   1       0.508   0.163   1.707  0.00  0.00    -0.078 A 
ATOM      4  C2  OXE d   1      -0.862   0.058   1.700  0.00  0.00    -0.078 A 
ATOM      5  C3  OXE d   1      -1.554   0.136   0.494  0.00  0.00     0.003 A 
ATOM      6  C4  OXE d   1      -0.859   0.165  -0.721  0.00  0.00    -0.002 A 
ATOM      7  C5  OXE d   1       0.538   0.233  -0.738  0.00  0.00    -0.002 A 
ATOM      8  C6  OXE d   1       1.233   0.276   0.465  0.00  0.00     0.003 A 
ENDROOT
TORSDOF 0
ENDMDL
