MODEL 1
REMARK minimizedAffinity -1.33919501
REMARK minimizedRMSD -1
REMARK  0 active torsions:
REMARK  status: ('A' for Active; 'I' for Inactive)
ROOT
ATOM      1  C2' OXE d   1       1.394   1.097   0.178  0.00  0.00     0.078 C 
ATOM      2  C1' OXE d   1      -1.107  -0.095  -0.268  0.00  0.00     0.078 C 
ATOM      3  C1  OXE d   1      -0.088  -0.162  -1.378  0.00  0.00    -0.078 A 
ATOM      4  C2  OXE d   1       1.116   0.465  -1.169  0.00  0.00    -0.078 A 
ATOM      5  C3  OXE d   1       2.112   0.387  -2.139  0.00  0.00     0.003 A 
ATOM      6  C4  OXE d   1       1.843  -0.191  -3.385  0.00  0.00    -0.002 A 
ATOM      7  C5  OXE d   1       0.608  -0.800  -3.634  0.00  0.00    -0.002 A 
ATOM      8  C6  OXE d   1      -0.351  -0.832  -2.628  0.00  0.00     0.003 A 
ENDROOT
TORSDOF 0
ENDMDL
