MODEL 1
REMARK minimizedAffinity -3.47740078
REMARK minimizedRMSD -1
REMARK  0 active torsions:
REMARK  status: ('A' for Active; 'I' for Inactive)
ROOT
ATOM      1  C2' OXE d   1      -0.928   0.845  -1.056  0.00  0.00     0.078 C 
ATOM      2  C1' OXE d   1      -3.046   0.771   0.785  0.00  0.00     0.078 C 
ATOM      3  C1  OXE d   1      -1.651   0.532   1.307  0.00  0.00    -0.078 A 
ATOM      4  C2  OXE d   1      -0.626   0.523   0.392  0.00  0.00    -0.078 A 
ATOM      5  C3  OXE d   1       0.686   0.362   0.828  0.00  0.00     0.003 A 
ATOM      6  C4  OXE d   1       0.955   0.054   2.167  0.00  0.00    -0.002 A 
ATOM      7  C5  OXE d   1      -0.079   0.019   3.109  0.00  0.00    -0.002 A 
ATOM      8  C6  OXE d   1      -1.380   0.296   2.703  0.00  0.00     0.003 A 
ENDROOT
TORSDOF 0
ENDMDL
