MODEL 1
REMARK minimizedAffinity -2.80415201
REMARK minimizedRMSD -1
REMARK  0 active torsions:
REMARK  status: ('A' for Active; 'I' for Inactive)
ROOT
ATOM      1  C2' OXE d   1       1.373   0.650   0.114  0.00  0.00     0.078 C 
ATOM      2  C1' OXE d   1      -1.240  -0.280  -0.321  0.00  0.00     0.078 C 
ATOM      3  C1  OXE d   1      -0.219  -0.515  -1.407  0.00  0.00    -0.078 A 
ATOM      4  C2  OXE d   1       1.045  -0.016  -1.205  0.00  0.00    -0.078 A 
ATOM      5  C3  OXE d   1       2.038  -0.253  -2.151  0.00  0.00     0.003 A 
ATOM      6  C4  OXE d   1       1.724  -0.860  -3.372  0.00  0.00    -0.002 A 
ATOM      7  C5  OXE d   1       0.433  -1.341  -3.614  0.00  0.00    -0.002 A 
ATOM      8  C6  OXE d   1      -0.538  -1.215  -2.627  0.00  0.00     0.003 A 
ENDROOT
TORSDOF 0
ENDMDL
