MODEL 1
REMARK minimizedAffinity -2.80521464
REMARK minimizedRMSD -1
REMARK  0 active torsions:
REMARK  status: ('A' for Active; 'I' for Inactive)
ROOT
ATOM      1  C2' OXE d   1       0.493   0.542   0.339  0.00  0.00     0.078 C 
ATOM      2  C1' OXE d   1      -1.639  -0.874  -0.813  0.00  0.00     0.078 C 
ATOM      3  C1  OXE d   1      -0.417  -0.629  -1.663  0.00  0.00    -0.078 A 
ATOM      4  C2  OXE d   1       0.602   0.105  -1.106  0.00  0.00    -0.078 A 
ATOM      5  C3  OXE d   1       1.775   0.314  -1.827  0.00  0.00     0.003 A 
ATOM      6  C4  OXE d   1       1.863  -0.085  -3.167  0.00  0.00    -0.002 A 
ATOM      7  C5  OXE d   1       0.820  -0.799  -3.765  0.00  0.00    -0.002 A 
ATOM      8  C6  OXE d   1      -0.307  -1.116  -3.015  0.00  0.00     0.003 A 
ENDROOT
TORSDOF 0
ENDMDL
