MODEL 1
REMARK minimizedAffinity -4.965909
REMARK minimizedRMSD -1
REMARK  0 active torsions:
REMARK  status: ('A' for Active; 'I' for Inactive)
ROOT
ATOM      1  C2' OXE d   1      -2.540   0.938   2.432  0.00  0.00     0.078 C 
ATOM      2  C1' OXE d   1      -2.758   1.118  -0.361  0.00  0.00     0.078 C 
ATOM      3  C1  OXE d   1      -1.379   0.951   0.228  0.00  0.00    -0.078 A 
ATOM      4  C2  OXE d   1      -1.278   0.911   1.598  0.00  0.00    -0.078 A 
ATOM      5  C3  OXE d   1      -0.036   0.703   2.191  0.00  0.00     0.003 A 
ATOM      6  C4  OXE d   1       1.128   0.689   1.413  0.00  0.00    -0.002 A 
ATOM      7  C5  OXE d   1       1.051   0.768   0.018  0.00  0.00    -0.002 A 
ATOM      8  C6  OXE d   1      -0.196   0.857  -0.591  0.00  0.00     0.003 A 
ENDROOT
TORSDOF 0
ENDMDL
