MODEL 1
REMARK minimizedAffinity -2.43209267
REMARK minimizedRMSD -1
REMARK  0 active torsions:
REMARK  status: ('A' for Active; 'I' for Inactive)
ROOT
ATOM      1  C2' OXE d   1      -2.450   0.530   1.591  0.00  0.00     0.078 C 
ATOM      2  C1' OXE d   1       0.191   0.455   2.540  0.00  0.00     0.078 C 
ATOM      3  C1  OXE d   1      -0.023   0.400   1.048  0.00  0.00    -0.078 A 
ATOM      4  C2  OXE d   1      -1.320   0.391   0.594  0.00  0.00    -0.078 A 
ATOM      5  C3  OXE d   1      -1.572   0.396  -0.775  0.00  0.00     0.003 A 
ATOM      6  C4  OXE d   1      -0.521   0.257  -1.689  0.00  0.00    -0.002 A 
ATOM      7  C5  OXE d   1       0.806   0.225  -1.247  0.00  0.00    -0.002 A 
ATOM      8  C6  OXE d   1       1.074   0.338   0.113  0.00  0.00     0.003 A 
ENDROOT
TORSDOF 0
ENDMDL
