MODEL 1
REMARK minimizedAffinity -0.365403444
REMARK minimizedRMSD -1
REMARK  0 active torsions:
REMARK  status: ('A' for Active; 'I' for Inactive)
ROOT
ATOM      1  C2' OXE d   1       0.203   3.020   4.106  0.00  0.00     0.078 C 
ATOM      2  C1' OXE d   1      -2.357   4.172   4.094  0.00  0.00     0.078 C 
ATOM      3  C1  OXE d   1      -2.198   2.805   3.478  0.00  0.00    -0.078 A 
ATOM      4  C2  OXE d   1      -0.934   2.269   3.446  0.00  0.00    -0.078 A 
ATOM      5  C3  OXE d   1      -0.741   0.987   2.938  0.00  0.00     0.003 A 
ATOM      6  C4  OXE d   1      -1.795   0.303   2.321  0.00  0.00    -0.002 A 
ATOM      7  C5  OXE d   1      -3.084   0.849   2.307  0.00  0.00    -0.002 A 
ATOM      8  C6  OXE d   1      -3.310   2.077   2.917  0.00  0.00     0.003 A 
ENDROOT
TORSDOF 0
ENDMDL
