MODEL 1
REMARK minimizedAffinity 0.323284388
REMARK minimizedRMSD -1
REMARK  0 active torsions:
REMARK  status: ('A' for Active; 'I' for Inactive)
ROOT
ATOM      1  C2' OXE d   1      -0.953  -0.462   0.014  0.00  0.00     0.078 C 
ATOM      2  C1' OXE d   1       1.631   0.619   0.197  0.00  0.00     0.078 C 
ATOM      3  C1  OXE d   1       1.232  -0.033  -1.103  0.00  0.00    -0.078 A 
ATOM      4  C2  OXE d   1      -0.017  -0.600  -1.168  0.00  0.00    -0.078 A 
ATOM      5  C3  OXE d   1      -0.456  -1.167  -2.361  0.00  0.00     0.003 A 
ATOM      6  C4  OXE d   1       0.419  -1.300  -3.447  0.00  0.00    -0.002 A 
ATOM      7  C5  OXE d   1       1.709  -0.764  -3.388  0.00  0.00    -0.002 A 
ATOM      8  C6  OXE d   1       2.116  -0.091  -2.241  0.00  0.00     0.003 A 
ENDROOT
TORSDOF 0
ENDMDL
