MODEL 1
REMARK minimizedAffinity -0.663054526
REMARK minimizedRMSD -1
REMARK  0 active torsions:
REMARK  status: ('A' for Active; 'I' for Inactive)
ROOT
ATOM      1  C2' OXE d   1      -0.266   0.539   2.927  0.00  0.00     0.078 C 
ATOM      2  C1' OXE d   1      -2.596   0.598   1.362  0.00  0.00     0.078 C 
ATOM      3  C1  OXE d   1      -1.273   0.455   0.651  0.00  0.00    -0.078 A 
ATOM      4  C2  OXE d   1      -0.136   0.474   1.421  0.00  0.00    -0.078 A 
ATOM      5  C3  OXE d   1       1.107   0.291   0.820  0.00  0.00     0.003 A 
ATOM      6  C4  OXE d   1       1.219   0.242  -0.574  0.00  0.00    -0.002 A 
ATOM      7  C5  OXE d   1       0.076   0.261  -1.380  0.00  0.00    -0.002 A 
ATOM      8  C6  OXE d   1      -1.178   0.324  -0.782  0.00  0.00     0.003 A 
ENDROOT
TORSDOF 0
ENDMDL
