MODEL 1
REMARK minimizedAffinity -1.37656522
REMARK minimizedRMSD -1
REMARK  0 active torsions:
REMARK  status: ('A' for Active; 'I' for Inactive)
ROOT
ATOM      1  C2' OXE d   1       2.222  -0.226   1.056  0.00  0.00     0.078 C 
ATOM      2  C1' OXE d   1       0.699  -0.083  -1.298  0.00  0.00     0.078 C 
ATOM      3  C1  OXE d   1      -0.011   0.140   0.014  0.00  0.00    -0.078 A 
ATOM      4  C2  OXE d   1       0.733   0.022   1.164  0.00  0.00    -0.078 A 
ATOM      5  C3  OXE d   1       0.139   0.272   2.398  0.00  0.00     0.003 A 
ATOM      6  C4  OXE d   1      -1.241   0.491   2.489  0.00  0.00    -0.002 A 
ATOM      7  C5  OXE d   1      -2.025   0.576   1.333  0.00  0.00    -0.002 A 
ATOM      8  C6  OXE d   1      -1.419   0.445   0.088  0.00  0.00     0.003 A 
ENDROOT
TORSDOF 0
ENDMDL
