MODEL 1
REMARK minimizedAffinity -3.53997636
REMARK minimizedRMSD -1
REMARK  0 active torsions:
REMARK  status: ('A' for Active; 'I' for Inactive)
ROOT
ATOM      1  C2' OXE d   1      -0.004   0.170  -1.189  0.00  0.00     0.078 C 
ATOM      2  C1' OXE d   1       2.028  -0.163   0.720  0.00  0.00     0.078 C 
ATOM      3  C1  OXE d   1       0.621   0.053   1.219  0.00  0.00    -0.078 A 
ATOM      4  C2  OXE d   1      -0.359   0.262   0.279  0.00  0.00    -0.078 A 
ATOM      5  C3  OXE d   1      -1.682   0.412   0.684  0.00  0.00     0.003 A 
ATOM      6  C4  OXE d   1      -2.001   0.505   2.044  0.00  0.00    -0.002 A 
ATOM      7  C5  OXE d   1      -1.012   0.335   3.019  0.00  0.00    -0.002 A 
ATOM      8  C6  OXE d   1       0.294   0.067   2.624  0.00  0.00     0.003 A 
ENDROOT
TORSDOF 0
ENDMDL
