MODEL 1
REMARK minimizedAffinity -1.01488292
REMARK minimizedRMSD -1
REMARK  0 active torsions:
REMARK  status: ('A' for Active; 'I' for Inactive)
ROOT
ATOM      1  C2' OXE d   1       1.718   1.163   0.914  0.00  0.00     0.078 C 
ATOM      2  C1' OXE d   1       0.482   0.035  -1.339  0.00  0.00     0.078 C 
ATOM      3  C1  OXE d   1      -0.332   0.150  -0.074  0.00  0.00    -0.078 A 
ATOM      4  C2  OXE d   1       0.296   0.660   1.037  0.00  0.00    -0.078 A 
ATOM      5  C3  OXE d   1      -0.424   0.839   2.214  0.00  0.00     0.003 A 
ATOM      6  C4  OXE d   1      -1.736   0.362   2.322  0.00  0.00    -0.002 A 
ATOM      7  C5  OXE d   1      -2.382  -0.197   1.214  0.00  0.00    -0.002 A 
ATOM      8  C6  OXE d   1      -1.709  -0.271  -0.001  0.00  0.00     0.003 A 
ENDROOT
TORSDOF 0
ENDMDL
