MODEL 1
REMARK minimizedAffinity -1.31089759
REMARK minimizedRMSD -1
REMARK  0 active torsions:
REMARK  status: ('A' for Active; 'I' for Inactive)
ROOT
ATOM      1  C2' OXE d   1      -0.374   1.625   4.108  0.00  0.00     0.078 C 
ATOM      2  C1' OXE d   1      -1.716  -0.667   3.202  0.00  0.00     0.078 C 
ATOM      3  C1  OXE d   1      -0.786   0.029   2.240  0.00  0.00    -0.078 A 
ATOM      4  C2  OXE d   1      -0.169   1.177   2.677  0.00  0.00    -0.078 A 
ATOM      5  C3  OXE d   1       0.741   1.828   1.850  0.00  0.00     0.003 A 
ATOM      6  C4  OXE d   1       0.917   1.413   0.524  0.00  0.00    -0.002 A 
ATOM      7  C5  OXE d   1       0.268   0.269   0.046  0.00  0.00    -0.002 A 
ATOM      8  C6  OXE d   1      -0.552  -0.457   0.903  0.00  0.00     0.003 A 
ENDROOT
TORSDOF 0
ENDMDL
