MODEL 1
REMARK minimizedAffinity -0.564207613
REMARK minimizedRMSD -1
REMARK  0 active torsions:
REMARK  status: ('A' for Active; 'I' for Inactive)
ROOT
ATOM      1  C2' OXE d   1       1.321  -0.037   1.723  0.00  0.00     0.078 C 
ATOM      2  C1' OXE d   1       0.862   0.342  -1.021  0.00  0.00     0.078 C 
ATOM      3  C1  OXE d   1      -0.314   0.477  -0.085  0.00  0.00    -0.078 A 
ATOM      4  C2  OXE d   1      -0.089   0.244   1.250  0.00  0.00    -0.078 A 
ATOM      5  C3  OXE d   1      -1.127   0.409   2.163  0.00  0.00     0.003 A 
ATOM      6  C4  OXE d   1      -2.430   0.660   1.716  0.00  0.00    -0.002 A 
ATOM      7  C5  OXE d   1      -2.688   0.861   0.356  0.00  0.00    -0.002 A 
ATOM      8  C6  OXE d   1      -1.636   0.816  -0.551  0.00  0.00     0.003 A 
ENDROOT
TORSDOF 0
ENDMDL
