MODEL 1
REMARK minimizedAffinity -2.57656336
REMARK minimizedRMSD -1
REMARK  0 active torsions:
REMARK  status: ('A' for Active; 'I' for Inactive)
ROOT
ATOM      1  C2' OXE d   1       1.373  -0.739   1.830  0.00  0.00     0.078 C 
ATOM      2  C1' OXE d   1      -1.265   0.095   2.311  0.00  0.00     0.078 C 
ATOM      3  C1  OXE d   1      -0.797   0.032   0.878  0.00  0.00    -0.078 A 
ATOM      4  C2  OXE d   1       0.509  -0.332   0.655  0.00  0.00    -0.078 A 
ATOM      5  C3  OXE d   1       0.976  -0.459  -0.650  0.00  0.00     0.003 A 
ATOM      6  C4  OXE d   1       0.175  -0.072  -1.731  0.00  0.00    -0.002 A 
ATOM      7  C5  OXE d   1      -1.146   0.340  -1.523  0.00  0.00    -0.002 A 
ATOM      8  C6  OXE d   1      -1.659   0.357  -0.231  0.00  0.00     0.003 A 
ENDROOT
TORSDOF 0
ENDMDL
