MODEL 1
REMARK minimizedAffinity -6.23620749
REMARK minimizedRMSD -1
REMARK  0 active torsions:
REMARK  status: ('A' for Active; 'I' for Inactive)
ROOT
ATOM      1  C2' OXE d   1      -1.477   1.521   2.511  0.00  0.00     0.078 C 
ATOM      2  C1' OXE d   1      -2.277   0.531   0.010  0.00  0.00     0.078 C 
ATOM      3  C1  OXE d   1      -0.918   0.127   0.524  0.00  0.00    -0.078 A 
ATOM      4  C2  OXE d   1      -0.515   0.654   1.727  0.00  0.00    -0.078 A 
ATOM      5  C3  OXE d   1       0.707   0.271   2.273  0.00  0.00     0.003 A 
ATOM      6  C4  OXE d   1       1.594  -0.523   1.537  0.00  0.00    -0.002 A 
ATOM      7  C5  OXE d   1       1.220  -1.038   0.291  0.00  0.00    -0.002 A 
ATOM      8  C6  OXE d   1      -0.047  -0.757  -0.210  0.00  0.00     0.003 A 
ENDROOT
TORSDOF 0
ENDMDL
