MODEL 1
REMARK minimizedAffinity -3.84324527
REMARK minimizedRMSD -1
REMARK  0 active torsions:
REMARK  status: ('A' for Active; 'I' for Inactive)
ROOT
ATOM      1  C2' OXE d   1       0.710  -0.846  -0.890  0.00  0.00     0.078 C 
ATOM      2  C1' OXE d   1       1.839  -0.306   1.623  0.00  0.00     0.078 C 
ATOM      3  C1  OXE d   1       0.449   0.211   1.351  0.00  0.00    -0.078 A 
ATOM      4  C2  OXE d   1      -0.078  -0.017   0.103  0.00  0.00    -0.078 A 
ATOM      5  C3  OXE d   1      -1.377   0.391  -0.183  0.00  0.00     0.003 A 
ATOM      6  C4  OXE d   1      -2.095   1.166   0.737  0.00  0.00    -0.002 A 
ATOM      7  C5  OXE d   1      -1.561   1.444   2.000  0.00  0.00    -0.002 A 
ATOM      8  C6  OXE d   1      -0.310   0.939   2.338  0.00  0.00     0.003 A 
ENDROOT
TORSDOF 0
ENDMDL
