MODEL 1
REMARK minimizedAffinity -5.71678829
REMARK minimizedRMSD -1
REMARK  0 active torsions:
REMARK  status: ('A' for Active; 'I' for Inactive)
ROOT
ATOM      1  C1  DEN d   1       2.533  -0.537  -3.481  0.00  0.00     0.130 A 
ATOM      2  C2  DEN d   1       2.176  -0.264  -4.871  0.00  0.00    -0.031 A 
ATOM      3  C3  DEN d   1       0.744   0.095  -4.912  0.00  0.00     0.027 A 
ATOM      4  C4  DEN d   1      -0.944   0.258  -2.969  0.00  0.00     0.027 A 
ATOM      5  C5  DEN d   1      -1.110   0.106  -1.610  0.00  0.00    -0.003 A 
ATOM      6  C6  DEN d   1      -0.090  -0.301  -0.791  0.00  0.00     0.001 A 
ATOM      7  C7  DEN d   1       1.154  -0.526  -1.317  0.00  0.00     0.017 A 
ATOM      8  C8  DEN d   1       1.327  -0.382  -2.688  0.00  0.00    -0.094 A 
ATOM      9  C9  DEN d   1       0.287   0.042  -3.497  0.00  0.00    -0.072 A 
ENDROOT
TORSDOF 0
ENDMDL
