MODEL 1
REMARK minimizedAffinity -3.1654644
REMARK minimizedRMSD -1
REMARK  0 active torsions:
REMARK  status: ('A' for Active; 'I' for Inactive)
ROOT
ATOM      1  C1  DEN d   1      -4.872   2.079   1.319  0.00  0.00     0.130 A 
ATOM      2  C2  DEN d   1      -4.466   2.277   2.708  0.00  0.00    -0.031 A 
ATOM      3  C3  DEN d   1      -4.497   3.726   2.990  0.00  0.00     0.027 A 
ATOM      4  C4  DEN d   1      -5.136   5.671   1.422  0.00  0.00     0.027 A 
ATOM      5  C5  DEN d   1      -5.539   5.999   0.146  0.00  0.00    -0.003 A 
ATOM      6  C6  DEN d   1      -5.714   5.053  -0.830  0.00  0.00     0.001 A 
ATOM      7  C7  DEN d   1      -5.528   3.729  -0.533  0.00  0.00     0.017 A 
ATOM      8  C8  DEN d   1      -5.115   3.392   0.749  0.00  0.00    -0.094 A 
ATOM      9  C9  DEN d   1      -4.955   4.361   1.725  0.00  0.00    -0.072 A 
ENDROOT
TORSDOF 0
ENDMDL
