MODEL 1
REMARK minimizedAffinity -3.11939406
REMARK minimizedRMSD -1
REMARK  0 active torsions:
REMARK  status: ('A' for Active; 'I' for Inactive)
ROOT
ATOM      1  C1  DEN d   1      -1.224  -1.865   0.650  0.00  0.00     0.130 A 
ATOM      2  C2  DEN d   1      -1.341  -0.413   0.547  0.00  0.00    -0.031 A 
ATOM      3  C3  DEN d   1      -1.940  -0.096  -0.765  0.00  0.00     0.027 A 
ATOM      4  C4  DEN d   1      -2.699  -1.703  -2.634  0.00  0.00     0.027 A 
ATOM      5  C5  DEN d   1      -2.790  -3.026  -3.009  0.00  0.00    -0.003 A 
ATOM      6  C6  DEN d   1      -2.338  -4.043  -2.211  0.00  0.00     0.001 A 
ATOM      7  C7  DEN d   1      -1.815  -3.758  -0.978  0.00  0.00     0.017 A 
ATOM      8  C8  DEN d   1      -1.713  -2.427  -0.596  0.00  0.00    -0.094 A 
ATOM      9  C9  DEN d   1      -2.187  -1.413  -1.411  0.00  0.00    -0.072 A 
ENDROOT
TORSDOF 0
ENDMDL
