MODEL 1
REMARK minimizedAffinity 5.1155386
REMARK minimizedRMSD -1
REMARK  0 active torsions:
REMARK  status: ('A' for Active; 'I' for Inactive)
ROOT
ATOM      1  C1  DEN d   1      -4.092  -4.688   0.643  0.00  0.00     0.130 A 
ATOM      2  C2  DEN d   1      -5.429  -4.802   0.067  0.00  0.00    -0.031 A 
ATOM      3  C3  DEN d   1      -5.501  -3.902  -1.101  0.00  0.00     0.027 A 
ATOM      4  C4  DEN d   1      -3.680  -2.354  -2.071  0.00  0.00     0.027 A 
ATOM      5  C5  DEN d   1      -2.386  -1.908  -1.916  0.00  0.00    -0.003 A 
ATOM      6  C6  DEN d   1      -1.588  -2.328  -0.885  0.00  0.00     0.001 A 
ATOM      7  C7  DEN d   1      -2.061  -3.256   0.005  0.00  0.00     0.017 A 
ATOM      8  C8  DEN d   1      -3.367  -3.705  -0.141  0.00  0.00    -0.094 A 
ATOM      9  C9  DEN d   1      -4.154  -3.277  -1.197  0.00  0.00    -0.072 A 
ENDROOT
TORSDOF 0
ENDMDL
