MODEL 1
REMARK minimizedAffinity 7.80830526
REMARK minimizedRMSD -1
REMARK  0 active torsions:
REMARK  status: ('A' for Active; 'I' for Inactive)
ROOT
ATOM      1  C1  DEN d   1      -2.816   1.358   2.316  0.00  0.00     0.130 A 
ATOM      2  C2  DEN d   1      -2.190   0.504   1.310  0.00  0.00    -0.031 A 
ATOM      3  C3  DEN d   1      -2.032  -0.845   1.891  0.00  0.00     0.027 A 
ATOM      4  C4  DEN d   1      -2.696  -1.690   4.236  0.00  0.00     0.027 A 
ATOM      5  C5  DEN d   1      -3.248  -1.328   5.444  0.00  0.00    -0.003 A 
ATOM      6  C6  DEN d   1      -3.661  -0.048   5.705  0.00  0.00     0.001 A 
ATOM      7  C7  DEN d   1      -3.569   0.907   4.727  0.00  0.00     0.017 A 
ATOM      8  C8  DEN d   1      -3.006   0.551   3.508  0.00  0.00    -0.094 A 
ATOM      9  C9  DEN d   1      -2.606  -0.751   3.260  0.00  0.00    -0.072 A 
ENDROOT
TORSDOF 0
ENDMDL
