MODEL 1
REMARK minimizedAffinity 2.64225173
REMARK minimizedRMSD -1
REMARK  0 active torsions:
REMARK  status: ('A' for Active; 'I' for Inactive)
ROOT
ATOM      1  C1  DEN d   1       4.162   3.228   2.632  0.00  0.00     0.130 A 
ATOM      2  C2  DEN d   1       2.984   2.818   3.390  0.00  0.00    -0.031 A 
ATOM      3  C3  DEN d   1       1.867   2.643   2.439  0.00  0.00     0.027 A 
ATOM      4  C4  DEN d   1       1.851   2.962  -0.120  0.00  0.00     0.027 A 
ATOM      5  C5  DEN d   1       2.612   3.316  -1.212  0.00  0.00    -0.003 A 
ATOM      6  C6  DEN d   1       3.923   3.695  -1.096  0.00  0.00     0.001 A 
ATOM      7  C7  DEN d   1       4.526   3.686   0.134  0.00  0.00     0.017 A 
ATOM      8  C8  DEN d   1       3.763   3.337   1.240  0.00  0.00    -0.094 A 
ATOM      9  C9  DEN d   1       2.443   2.945   1.101  0.00  0.00    -0.072 A 
ENDROOT
TORSDOF 0
ENDMDL
