MODEL 1
REMARK minimizedAffinity 9.40556526
REMARK minimizedRMSD -1
REMARK  0 active torsions:
REMARK  status: ('A' for Active; 'I' for Inactive)
ROOT
ATOM      1  C1  DEN d   1      -1.586  -0.224  -3.810  0.00  0.00     0.130 A 
ATOM      2  C2  DEN d   1      -2.464  -1.389  -3.882  0.00  0.00    -0.031 A 
ATOM      3  C3  DEN d   1      -2.630  -1.921  -2.515  0.00  0.00     0.027 A 
ATOM      4  C4  DEN d   1      -1.622  -1.056  -0.304  0.00  0.00     0.027 A 
ATOM      5  C5  DEN d   1      -0.804  -0.101   0.259  0.00  0.00    -0.003 A 
ATOM      6  C6  DEN d   1      -0.168   0.851  -0.492  0.00  0.00     0.001 A 
ATOM      7  C7  DEN d   1      -0.375   0.897  -1.846  0.00  0.00     0.017 A 
ATOM      8  C8  DEN d   1      -1.192  -0.067  -2.422  0.00  0.00    -0.094 A 
ATOM      9  C9  DEN d   1      -1.836  -1.014  -1.643  0.00  0.00    -0.072 A 
ENDROOT
TORSDOF 0
ENDMDL
