MODEL 1
REMARK minimizedAffinity 3.15266371
REMARK minimizedRMSD -1
REMARK  0 active torsions:
REMARK  status: ('A' for Active; 'I' for Inactive)
ROOT
ATOM      1  C1  DEN d   1      -2.600  -1.004   2.843  0.00  0.00     0.130 A 
ATOM      2  C2  DEN d   1      -2.793   0.291   3.489  0.00  0.00    -0.031 A 
ATOM      3  C3  DEN d   1      -2.420   1.343   2.522  0.00  0.00     0.027 A 
ATOM      4  C4  DEN d   1      -1.569   1.094   0.100  0.00  0.00     0.027 A 
ATOM      5  C5  DEN d   1      -1.232   0.191  -0.884  0.00  0.00    -0.003 A 
ATOM      6  C6  DEN d   1      -1.295  -1.163  -0.685  0.00  0.00     0.001 A 
ATOM      7  C7  DEN d   1      -1.747  -1.653   0.512  0.00  0.00     0.017 A 
ATOM      8  C8  DEN d   1      -2.081  -0.749   1.511  0.00  0.00    -0.094 A 
ATOM      9  C9  DEN d   1      -2.023   0.616   1.287  0.00  0.00    -0.072 A 
ENDROOT
TORSDOF 0
ENDMDL
