MODEL 1
REMARK minimizedAffinity -4.97428036
REMARK minimizedRMSD -1
REMARK  0 active torsions:
REMARK  status: ('A' for Active; 'I' for Inactive)
ROOT
ATOM      1  C1  DEN d   1      -4.571   2.040   4.816  0.00  0.00     0.130 A 
ATOM      2  C2  DEN d   1      -4.155   1.276   3.643  0.00  0.00    -0.031 A 
ATOM      3  C3  DEN d   1      -4.128   2.194   2.487  0.00  0.00     0.027 A 
ATOM      4  C4  DEN d   1      -4.681   4.711   2.400  0.00  0.00     0.027 A 
ATOM      5  C5  DEN d   1      -5.094   5.796   3.142  0.00  0.00    -0.003 A 
ATOM      6  C6  DEN d   1      -5.391   5.698   4.476  0.00  0.00     0.001 A 
ATOM      7  C7  DEN d   1      -5.237   4.499   5.119  0.00  0.00     0.017 A 
ATOM      8  C8  DEN d   1      -4.829   3.399   4.376  0.00  0.00    -0.094 A 
ATOM      9  C9  DEN d   1      -4.521   3.521   3.032  0.00  0.00    -0.072 A 
ENDROOT
TORSDOF 0
ENDMDL
