MODEL 1
REMARK minimizedAffinity 3.80892444
REMARK minimizedRMSD -1
REMARK  0 active torsions:
REMARK  status: ('A' for Active; 'I' for Inactive)
ROOT
ATOM      1  C1  DEN d   1      -1.290  -0.676  -1.673  0.00  0.00     0.130 A 
ATOM      2  C2  DEN d   1      -1.182  -1.359  -0.387  0.00  0.00    -0.031 A 
ATOM      3  C3  DEN d   1      -1.834  -2.678  -0.515  0.00  0.00     0.027 A 
ATOM      4  C4  DEN d   1      -2.990  -3.725  -2.569  0.00  0.00     0.027 A 
ATOM      5  C5  DEN d   1      -3.342  -3.519  -3.885  0.00  0.00    -0.003 A 
ATOM      6  C6  DEN d   1      -3.068  -2.348  -4.540  0.00  0.00     0.001 A 
ATOM      7  C7  DEN d   1      -2.382  -1.354  -3.894  0.00  0.00     0.017 A 
ATOM      8  C8  DEN d   1      -2.030  -1.551  -2.565  0.00  0.00    -0.094 A 
ATOM      9  C9  DEN d   1      -2.306  -2.746  -1.924  0.00  0.00    -0.072 A 
ENDROOT
TORSDOF 0
ENDMDL
