MODEL 1
REMARK minimizedAffinity 2.92933798
REMARK minimizedRMSD -1
REMARK  0 active torsions:
REMARK  status: ('A' for Active; 'I' for Inactive)
ROOT
ATOM      1  C1  DEN d   1      -2.630   3.895   3.884  0.00  0.00     0.130 A 
ATOM      2  C2  DEN d   1      -2.629   4.240   5.303  0.00  0.00    -0.031 A 
ATOM      3  C3  DEN d   1      -3.779   5.131   5.557  0.00  0.00     0.027 A 
ATOM      4  C4  DEN d   1      -5.555   6.000   3.901  0.00  0.00     0.027 A 
ATOM      5  C5  DEN d   1      -5.965   5.988   2.586  0.00  0.00    -0.003 A 
ATOM      6  C6  DEN d   1      -5.279   5.310   1.614  0.00  0.00     0.001 A 
ATOM      7  C7  DEN d   1      -4.170   4.579   1.949  0.00  0.00     0.017 A 
ATOM      8  C8  DEN d   1      -3.746   4.593   3.272  0.00  0.00    -0.094 A 
ATOM      9  C9  DEN d   1      -4.461   5.274   4.243  0.00  0.00    -0.072 A 
ENDROOT
TORSDOF 0
ENDMDL
