MODEL 1
REMARK minimizedAffinity 4.65120029
REMARK minimizedRMSD -1
REMARK  0 active torsions:
REMARK  status: ('A' for Active; 'I' for Inactive)
ROOT
ATOM      1  C1  DEN d   1      -5.087   5.041   4.317  0.00  0.00     0.130 A 
ATOM      2  C2  DEN d   1      -4.107   4.006   4.633  0.00  0.00    -0.031 A 
ATOM      3  C3  DEN d   1      -3.549   3.501   3.363  0.00  0.00     0.027 A 
ATOM      4  C4  DEN d   1      -4.101   4.221   0.949  0.00  0.00     0.027 A 
ATOM      5  C5  DEN d   1      -4.878   5.056   0.176  0.00  0.00    -0.003 A 
ATOM      6  C6  DEN d   1      -5.795   5.913   0.723  0.00  0.00     0.001 A 
ATOM      7  C7  DEN d   1      -5.927   5.987   2.085  0.00  0.00     0.017 A 
ATOM      8  C8  DEN d   1      -5.153   5.143   2.870  0.00  0.00    -0.094 A 
ATOM      9  C9  DEN d   1      -4.222   4.292   2.298  0.00  0.00    -0.072 A 
ENDROOT
TORSDOF 0
ENDMDL
