MODEL 1
REMARK minimizedAffinity 4.66992855
REMARK minimizedRMSD -1
REMARK  0 active torsions:
REMARK  status: ('A' for Active; 'I' for Inactive)
ROOT
ATOM      1  C1  DEN d   1      -5.187  -5.997  -2.622  0.00  0.00     0.130 A 
ATOM      2  C2  DEN d   1      -6.000  -5.721  -1.440  0.00  0.00    -0.031 A 
ATOM      3  C3  DEN d   1      -5.774  -4.315  -1.050  0.00  0.00     0.027 A 
ATOM      4  C4  DEN d   1      -4.258  -2.546  -2.157  0.00  0.00     0.027 A 
ATOM      5  C5  DEN d   1      -3.364  -2.316  -3.180  0.00  0.00    -0.003 A 
ATOM      6  C6  DEN d   1      -2.993  -3.297  -4.060  0.00  0.00     0.001 A 
ATOM      7  C7  DEN d   1      -3.552  -4.544  -3.962  0.00  0.00     0.017 A 
ATOM      8  C8  DEN d   1      -4.448  -4.786  -2.929  0.00  0.00    -0.094 A 
ATOM      9  C9  DEN d   1      -4.820  -3.778  -2.057  0.00  0.00    -0.072 A 
ENDROOT
TORSDOF 0
ENDMDL
