MODEL 1
REMARK minimizedAffinity 3.81109357
REMARK minimizedRMSD -1
REMARK  1 active torsions:
REMARK  status: ('A' for Active; 'I' for Inactive)
REMARK    1  A    between atoms: C1_2  and  C2_3 
ROOT
ATOM      1  C2  UNL d   1       0.791   0.939  -0.205  0.00  0.00    -0.076 A 
ATOM      2  C3  UNL d   1       1.179   0.797   1.139  0.00  0.00     0.004 A 
ATOM      3  C4  UNL d   1       1.743  -0.391   1.601  0.00  0.00    -0.003 A 
ATOM      4  C5  UNL d   1       1.930  -1.456   0.726  0.00  0.00     0.000 A 
ATOM      5  C6  UNL d   1       1.568  -1.326  -0.614  0.00  0.00     0.000 A 
ATOM      6  C7  UNL d   1       1.013  -0.129  -1.100  0.00  0.00    -0.073 A 
ATOM      7  C8  UNL d   1       0.635  -0.046  -2.553  0.00  0.00     0.078 C 
ENDROOT
BRANCH   1   8
ATOM      8  C1  UNL d   1       0.160   2.242  -0.642  0.00  0.00     0.053 C 
ATOM      9  C   UNL d   1       0.802   3.452   0.018  0.00  0.00     0.018 C 
ENDBRANCH   1   8
TORSDOF 1
ENDMDL
