MODEL 1
REMARK minimizedAffinity 6.25807619
REMARK minimizedRMSD -1
REMARK  1 active torsions:
REMARK  status: ('A' for Active; 'I' for Inactive)
REMARK    1  A    between atoms: C1_2  and  C2_3 
ROOT
ATOM      1  C2  UNL d   1      -0.842   3.838  -0.756  0.00  0.00    -0.076 A 
ATOM      2  C3  UNL d   1      -1.089   5.087  -1.351  0.00  0.00     0.004 A 
ATOM      3  C4  UNL d   1      -0.055   5.997  -1.566  0.00  0.00    -0.003 A 
ATOM      4  C5  UNL d   1       1.243   5.672  -1.189  0.00  0.00     0.000 A 
ATOM      5  C6  UNL d   1       1.510   4.430  -0.612  0.00  0.00     0.000 A 
ATOM      6  C7  UNL d   1       0.481   3.495  -0.404  0.00  0.00    -0.073 A 
ATOM      7  C8  UNL d   1       0.825   2.173   0.227  0.00  0.00     0.078 C 
ENDROOT
BRANCH   1   8
ATOM      8  C1  UNL d   1      -2.007   2.903  -0.523  0.00  0.00     0.053 C 
ATOM      9  C   UNL d   1      -2.437   2.181  -1.791  0.00  0.00     0.018 C 
ENDBRANCH   1   8
TORSDOF 1
ENDMDL
