MODEL 1
REMARK minimizedAffinity 10.6022196
REMARK minimizedRMSD -1
REMARK  1 active torsions:
REMARK  status: ('A' for Active; 'I' for Inactive)
REMARK    1  A    between atoms: C1_2  and  C2_3 
ROOT
ATOM      1  C2  UNL d   1       1.108   4.084  -0.224  0.00  0.00    -0.076 A 
ATOM      2  C3  UNL d   1      -0.064   3.440  -0.656  0.00  0.00     0.004 A 
ATOM      3  C4  UNL d   1      -0.287   2.093  -0.376  0.00  0.00    -0.003 A 
ATOM      4  C5  UNL d   1       0.658   1.368   0.342  0.00  0.00     0.000 A 
ATOM      5  C6  UNL d   1       1.818   1.996   0.794  0.00  0.00     0.000 A 
ATOM      6  C7  UNL d   1       2.051   3.357   0.534  0.00  0.00    -0.073 A 
ATOM      7  C8  UNL d   1       3.323   3.982   1.039  0.00  0.00     0.078 C 
ENDROOT
BRANCH   1   8
ATOM      8  C1  UNL d   1       1.308   5.540  -0.581  0.00  0.00     0.053 C 
ATOM      9  C   UNL d   1       2.156   5.722  -1.831  0.00  0.00     0.018 C 
ENDBRANCH   1   8
TORSDOF 1
ENDMDL
