MODEL 1
REMARK minimizedAffinity 0.220124051
REMARK minimizedRMSD -1
REMARK  1 active torsions:
REMARK  status: ('A' for Active; 'I' for Inactive)
REMARK    1  A    between atoms: C1_2  and  C2_3 
ROOT
ATOM      1  C2  UNL d   1      -4.721   3.094  -4.445  0.00  0.00    -0.076 A 
ATOM      2  C3  UNL d   1      -3.492   2.616  -3.960  0.00  0.00     0.004 A 
ATOM      3  C4  UNL d   1      -2.285   3.091  -4.471  0.00  0.00    -0.003 A 
ATOM      4  C5  UNL d   1      -2.289   4.053  -5.475  0.00  0.00     0.000 A 
ATOM      5  C6  UNL d   1      -3.499   4.552  -5.955  0.00  0.00     0.000 A 
ATOM      6  C7  UNL d   1      -4.724   4.095  -5.440  0.00  0.00    -0.073 A 
ATOM      7  C8  UNL d   1      -6.000   4.663  -6.000  0.00  0.00     0.078 C 
ENDROOT
BRANCH   1   8
ATOM      8  C1  UNL d   1      -5.998   2.521  -3.872  0.00  0.00     0.053 C 
ATOM      9  C   UNL d   1      -5.868   1.048  -3.517  0.00  0.00     0.018 C 
ENDBRANCH   1   8
TORSDOF 1
ENDMDL
