MODEL 1
REMARK minimizedAffinity 13.9898643
REMARK minimizedRMSD -1
REMARK  1 active torsions:
REMARK  status: ('A' for Active; 'I' for Inactive)
REMARK    1  A    between atoms: C1_2  and  C2_3 
ROOT
ATOM      1  C2  UNL d   1      -2.584   3.027  -4.832  0.00  0.00    -0.076 A 
ATOM      2  C3  UNL d   1      -2.467   4.380  -4.471  0.00  0.00     0.004 A 
ATOM      3  C4  UNL d   1      -3.419   5.315  -4.876  0.00  0.00    -0.003 A 
ATOM      4  C5  UNL d   1      -4.502   4.911  -5.648  0.00  0.00     0.000 A 
ATOM      5  C6  UNL d   1      -4.644   3.569  -6.000  0.00  0.00     0.000 A 
ATOM      6  C7  UNL d   1      -3.702   2.611  -5.586  0.00  0.00    -0.073 A 
ATOM      7  C8  UNL d   1      -3.901   1.179  -6.000  0.00  0.00     0.078 C 
ENDROOT
BRANCH   1   8
ATOM      8  C1  UNL d   1      -1.507   2.063  -4.386  0.00  0.00     0.053 C 
ATOM      9  C   UNL d   1      -1.510   1.841  -2.882  0.00  0.00     0.018 C 
ENDBRANCH   1   8
TORSDOF 1
ENDMDL
