MODEL 1
REMARK minimizedAffinity 10.5414114
REMARK minimizedRMSD -1
REMARK  1 active torsions:
REMARK  status: ('A' for Active; 'I' for Inactive)
REMARK    1  A    between atoms: C1_2  and  C2_3 
ROOT
ATOM      1  C2  UNL d   1      -0.751   3.857  -0.442  0.00  0.00    -0.076 A 
ATOM      2  C3  UNL d   1      -1.115   5.052  -1.086  0.00  0.00     0.004 A 
ATOM      3  C4  UNL d   1      -0.150   5.982  -1.470  0.00  0.00    -0.003 A 
ATOM      4  C5  UNL d   1       1.194   5.730  -1.217  0.00  0.00     0.000 A 
ATOM      5  C6  UNL d   1       1.574   4.541  -0.596  0.00  0.00     0.000 A 
ATOM      6  C7  UNL d   1       0.615   3.586  -0.216  0.00  0.00    -0.073 A 
ATOM      7  C8  UNL d   1       1.081   2.324   0.457  0.00  0.00     0.078 C 
ENDROOT
BRANCH   1   8
ATOM      8  C1  UNL d   1      -1.844   2.898  -0.023  0.00  0.00     0.053 C 
ATOM      9  C   UNL d   1      -2.736   3.472   1.066  0.00  0.00     0.018 C 
ENDBRANCH   1   8
TORSDOF 1
ENDMDL
