MODEL 1
REMARK minimizedAffinity 6.70983219
REMARK minimizedRMSD -1
REMARK  1 active torsions:
REMARK  status: ('A' for Active; 'I' for Inactive)
REMARK    1  A    between atoms: C1_2  and  C2_3 
ROOT
ATOM      1  C2  UNL d   1       0.635   1.091  -0.246  0.00  0.00    -0.076 A 
ATOM      2  C3  UNL d   1       0.867   0.892   1.127  0.00  0.00     0.004 A 
ATOM      3  C4  UNL d   1       1.440  -0.290   1.594  0.00  0.00    -0.003 A 
ATOM      4  C5  UNL d   1       1.790  -1.292   0.696  0.00  0.00     0.000 A 
ATOM      5  C6  UNL d   1       1.584  -1.105  -0.670  0.00  0.00     0.000 A 
ATOM      6  C7  UNL d   1       1.022   0.087  -1.159  0.00  0.00    -0.073 A 
ATOM      7  C8  UNL d   1       0.816   0.233  -2.642  0.00  0.00     0.078 C 
ENDROOT
BRANCH   1   8
ATOM      8  C1  UNL d   1      -0.014   2.382  -0.691  0.00  0.00     0.053 C 
ATOM      9  C   UNL d   1       0.952   3.556  -0.672  0.00  0.00     0.018 C 
ENDBRANCH   1   8
TORSDOF 1
ENDMDL
