MODEL 1
REMARK minimizedAffinity -3.57276607
REMARK minimizedRMSD -1
REMARK  1 active torsions:
REMARK  status: ('A' for Active; 'I' for Inactive)
REMARK    1  A    between atoms: C3_4  and  O_7 
ROOT
ATOM      1  C   UNL d   1       0.406  -0.143   0.421  0.00  0.00    -0.033 A 
ATOM      2  C1  UNL d   1       0.428   0.341   1.730  0.00  0.00     0.039 A 
ATOM      3  C2  UNL d   1      -0.627   1.122   2.206  0.00  0.00    -0.080 A 
ATOM      4  C3  UNL d   1      -1.697   1.411   1.363  0.00  0.00     0.150 A 
ATOM      5  C4  UNL d   1      -1.727   0.929   0.059  0.00  0.00    -0.007 A 
ATOM      6  C5  UNL d   1      -0.672   0.150  -0.414  0.00  0.00     0.039 A 
ENDROOT
BRANCH   4   7
ATOM      7  O   UNL d   1      -2.747   2.173   1.781  0.00  0.00    -0.526 OA
ATOM      8  H5  UNL d   1      -2.576   2.460   2.693  0.00  0.00     0.418 HD
ENDBRANCH   4   7
TORSDOF 1
ENDMDL
