MODEL 1
REMARK minimizedAffinity -5.30055618
REMARK minimizedRMSD -1
REMARK  1 active torsions:
REMARK  status: ('A' for Active; 'I' for Inactive)
REMARK    1  A    between atoms: C3_4  and  O_7 
ROOT
ATOM      1  C   UNL d   1      -2.262   2.970   0.894  0.00  0.00    -0.033 A 
ATOM      2  C1  UNL d   1      -1.291   3.311  -0.049  0.00  0.00     0.039 A 
ATOM      3  C2  UNL d   1      -0.434   2.333  -0.557  0.00  0.00    -0.080 A 
ATOM      4  C3  UNL d   1      -0.560   1.018  -0.116  0.00  0.00     0.150 A 
ATOM      5  C4  UNL d   1      -1.528   0.670   0.820  0.00  0.00    -0.007 A 
ATOM      6  C5  UNL d   1      -2.382   1.649   1.327  0.00  0.00     0.039 A 
ENDROOT
BRANCH   4   7
ATOM      7  O   UNL d   1       0.256   0.030  -0.580  0.00  0.00    -0.526 OA
ATOM      8  H5  UNL d   1       0.894   0.423  -1.199  0.00  0.00     0.418 HD
ENDBRANCH   4   7
TORSDOF 1
ENDMDL
