MODEL 1
REMARK minimizedAffinity -4.20458651
REMARK minimizedRMSD -1
REMARK  1 active torsions:
REMARK  status: ('A' for Active; 'I' for Inactive)
REMARK    1  A    between atoms: C3_4  and  O_7 
ROOT
ATOM      1  C   UNL d   1       0.378  -0.311   0.668  0.00  0.00    -0.033 A 
ATOM      2  C1  UNL d   1       0.273   0.448   1.835  0.00  0.00     0.039 A 
ATOM      3  C2  UNL d   1      -0.835   1.274   2.034  0.00  0.00    -0.080 A 
ATOM      4  C3  UNL d   1      -1.829   1.331   1.061  0.00  0.00     0.150 A 
ATOM      5  C4  UNL d   1      -1.732   0.574  -0.102  0.00  0.00    -0.007 A 
ATOM      6  C5  UNL d   1      -0.625  -0.249  -0.300  0.00  0.00     0.039 A 
ENDROOT
BRANCH   4   7
ATOM      7  O   UNL d   1      -2.927   2.126   1.209  0.00  0.00    -0.526 OA
ATOM      8  H5  UNL d   1      -2.844   2.612   2.047  0.00  0.00     0.418 HD
ENDBRANCH   4   7
TORSDOF 1
ENDMDL
