MODEL 1
REMARK minimizedAffinity -5.29914904
REMARK minimizedRMSD -1
REMARK  1 active torsions:
REMARK  status: ('A' for Active; 'I' for Inactive)
REMARK    1  A    between atoms: C3_4  and  O_7 
ROOT
ATOM      1  C   UNL d   1      -1.313   3.127   0.760  0.00  0.00    -0.033 A 
ATOM      2  C1  UNL d   1      -1.376   1.894   1.411  0.00  0.00     0.039 A 
ATOM      3  C2  UNL d   1      -0.688   0.794   0.894  0.00  0.00    -0.080 A 
ATOM      4  C3  UNL d   1       0.057   0.940  -0.272  0.00  0.00     0.150 A 
ATOM      5  C4  UNL d   1       0.127   2.167  -0.924  0.00  0.00    -0.007 A 
ATOM      6  C5  UNL d   1      -0.561   3.264  -0.407  0.00  0.00     0.039 A 
ENDROOT
BRANCH   4   7
ATOM      7  O   UNL d   1       0.741  -0.106  -0.817  0.00  0.00    -0.526 OA
ATOM      8  H5  UNL d   1       0.577  -0.896  -0.275  0.00  0.00     0.418 HD
ENDBRANCH   4   7
TORSDOF 1
ENDMDL
