MODEL 1
REMARK minimizedAffinity -5.26751137
REMARK minimizedRMSD -1
REMARK  1 active torsions:
REMARK  status: ('A' for Active; 'I' for Inactive)
REMARK    1  A    between atoms: C3_4  and  O_7 
ROOT
ATOM      1  C   UNL d   1      -1.760   3.101   0.964  0.00  0.00    -0.033 A 
ATOM      2  C1  UNL d   1      -0.863   3.253  -0.096  0.00  0.00     0.039 A 
ATOM      3  C2  UNL d   1      -0.131   2.157  -0.556  0.00  0.00    -0.080 A 
ATOM      4  C3  UNL d   1      -0.306   0.916   0.049  0.00  0.00     0.150 A 
ATOM      5  C4  UNL d   1      -1.200   0.756   1.103  0.00  0.00    -0.007 A 
ATOM      6  C5  UNL d   1      -1.929   1.852   1.562  0.00  0.00     0.039 A 
ENDROOT
BRANCH   4   7
ATOM      7  O   UNL d   1       0.390  -0.182  -0.363  0.00  0.00    -0.526 OA
ATOM      8  H5  UNL d   1       0.990   0.085  -1.078  0.00  0.00     0.418 HD
ENDBRANCH   4   7
TORSDOF 1
ENDMDL
