MODEL 1
REMARK minimizedAffinity -3.55851173
REMARK minimizedRMSD -1
REMARK  1 active torsions:
REMARK  status: ('A' for Active; 'I' for Inactive)
REMARK    1  A    between atoms: C3_4  and  O_7 
ROOT
ATOM      1  C   UNL d   1       0.451   0.972  -1.067  0.00  0.00    -0.033 A 
ATOM      2  C1  UNL d   1       0.140   2.315  -0.841  0.00  0.00     0.039 A 
ATOM      3  C2  UNL d   1      -0.472   2.700   0.353  0.00  0.00    -0.080 A 
ATOM      4  C3  UNL d   1      -0.767   1.735   1.312  0.00  0.00     0.150 A 
ATOM      5  C4  UNL d   1      -0.457   0.397   1.096  0.00  0.00    -0.007 A 
ATOM      6  C5  UNL d   1       0.154   0.013  -0.098  0.00  0.00     0.039 A 
ENDROOT
BRANCH   4   7
ATOM      7  O   UNL d   1      -1.369   2.063   2.490  0.00  0.00    -0.526 OA
ATOM      8  H5  UNL d   1      -1.550   3.018   2.489  0.00  0.00     0.418 HD
ENDBRANCH   4   7
TORSDOF 1
ENDMDL
