MODEL 1
REMARK minimizedAffinity -5.05658531
REMARK minimizedRMSD -1
REMARK  1 active torsions:
REMARK  status: ('A' for Active; 'I' for Inactive)
REMARK    1  A    between atoms: C3_4  and  O_7 
ROOT
ATOM      1  C   UNL d   1      -1.078   0.731   0.356  0.00  0.00    -0.033 A 
ATOM      2  C1  UNL d   1       0.102   0.034   0.086  0.00  0.00     0.039 A 
ATOM      3  C2  UNL d   1       1.063   0.588  -0.761  0.00  0.00    -0.080 A 
ATOM      4  C3  UNL d   1       0.834   1.838  -1.330  0.00  0.00     0.150 A 
ATOM      5  C4  UNL d   1      -0.336   2.539  -1.062  0.00  0.00    -0.007 A 
ATOM      6  C5  UNL d   1      -1.296   1.984  -0.216  0.00  0.00     0.039 A 
ENDROOT
BRANCH   4   7
ATOM      7  O   UNL d   1       1.742   2.417  -2.167  0.00  0.00    -0.526 OA
ATOM      8  H5  UNL d   1       2.488   1.805  -2.283  0.00  0.00     0.418 HD
ENDBRANCH   4   7
TORSDOF 1
ENDMDL
