MODEL 1
REMARK minimizedAffinity -4.64338493
REMARK minimizedRMSD -1
REMARK  1 active torsions:
REMARK  status: ('A' for Active; 'I' for Inactive)
REMARK    1  A    between atoms: C3_4  and  O_7 
ROOT
ATOM      1  C   UNL d   1      -1.202   2.070   1.391  0.00  0.00    -0.033 A 
ATOM      2  C1  UNL d   1      -0.528   2.290   0.188  0.00  0.00     0.039 A 
ATOM      3  C2  UNL d   1       0.189   1.253  -0.412  0.00  0.00    -0.080 A 
ATOM      4  C3  UNL d   1       0.225   0.003   0.200  0.00  0.00     0.150 A 
ATOM      5  C4  UNL d   1      -0.447  -0.224   1.397  0.00  0.00    -0.007 A 
ATOM      6  C5  UNL d   1      -1.162   0.813   1.995  0.00  0.00     0.039 A 
ENDROOT
BRANCH   4   7
ATOM      7  O   UNL d   1       0.916  -1.038  -0.345  0.00  0.00    -0.526 OA
ATOM      8  H5  UNL d   1       1.353  -0.726  -1.155  0.00  0.00     0.418 HD
ENDBRANCH   4   7
TORSDOF 1
ENDMDL
