MODEL 1
REMARK minimizedAffinity -4.97523546
REMARK minimizedRMSD -1
REMARK  1 active torsions:
REMARK  status: ('A' for Active; 'I' for Inactive)
REMARK    1  A    between atoms: C3_4  and  O_7 
ROOT
ATOM      1  C   UNL d   1       0.683  -3.200  -0.101  0.00  0.00    -0.033 A 
ATOM      2  C1  UNL d   1       0.258  -4.140  -1.042  0.00  0.00     0.039 A 
ATOM      3  C2  UNL d   1      -0.077  -3.733  -2.335  0.00  0.00    -0.080 A 
ATOM      4  C3  UNL d   1       0.017  -2.386  -2.674  0.00  0.00     0.150 A 
ATOM      5  C4  UNL d   1       0.444  -1.445  -1.742  0.00  0.00    -0.007 A 
ATOM      6  C5  UNL d   1       0.777  -1.853  -0.451  0.00  0.00     0.039 A 
ENDROOT
BRANCH   4   7
ATOM      7  O   UNL d   1      -0.303  -1.940  -3.922  0.00  0.00    -0.526 OA
ATOM      8  H5  UNL d   1      -0.608  -2.697  -4.450  0.00  0.00     0.418 HD
ENDBRANCH   4   7
TORSDOF 1
ENDMDL
