MODEL 1
REMARK minimizedAffinity -5.10576391
REMARK minimizedRMSD -1
REMARK  1 active torsions:
REMARK  status: ('A' for Active; 'I' for Inactive)
REMARK    1  A    between atoms: C3_4  and  O_7 
ROOT
ATOM      1  C   UNL d   1      -2.117   1.838   1.505  0.00  0.00    -0.033 A 
ATOM      2  C1  UNL d   1      -1.895   2.177   0.169  0.00  0.00     0.039 A 
ATOM      3  C2  UNL d   1      -0.826   1.611  -0.529  0.00  0.00    -0.080 A 
ATOM      4  C3  UNL d   1       0.011   0.708   0.120  0.00  0.00     0.150 A 
ATOM      5  C4  UNL d   1      -0.206   0.363   1.450  0.00  0.00    -0.007 A 
ATOM      6  C5  UNL d   1      -1.273   0.930   2.145  0.00  0.00     0.039 A 
ENDROOT
BRANCH   4   7
ATOM      7  O   UNL d   1       1.070   0.134  -0.518  0.00  0.00    -0.526 OA
ATOM      8  H5  UNL d   1       1.114   0.488  -1.422  0.00  0.00     0.418 HD
ENDBRANCH   4   7
TORSDOF 1
ENDMDL
