MODEL 1
REMARK minimizedAffinity -4.34024096
REMARK minimizedRMSD -1
REMARK  1 active torsions:
REMARK  status: ('A' for Active; 'I' for Inactive)
REMARK    1  A    between atoms: C3_4  and  O_7 
ROOT
ATOM      1  C   UNL d   1      -1.487   2.163   1.080  0.00  0.00    -0.033 A 
ATOM      2  C1  UNL d   1      -1.491   1.070   1.948  0.00  0.00     0.039 A 
ATOM      3  C2  UNL d   1      -0.782  -0.087   1.620  0.00  0.00    -0.080 A 
ATOM      4  C3  UNL d   1      -0.072  -0.138   0.424  0.00  0.00     0.150 A 
ATOM      5  C4  UNL d   1      -0.060   0.949  -0.444  0.00  0.00    -0.007 A 
ATOM      6  C5  UNL d   1      -0.770   2.103  -0.116  0.00  0.00     0.039 A 
ENDROOT
BRANCH   4   7
ATOM      7  O   UNL d   1       0.631  -1.247   0.058  0.00  0.00    -0.526 OA
ATOM      8  H5  UNL d   1       0.509  -1.928   0.741  0.00  0.00     0.418 HD
ENDBRANCH   4   7
TORSDOF 1
ENDMDL
