MODEL 1
REMARK minimizedAffinity -4.74426174
REMARK minimizedRMSD -1
REMARK  1 active torsions:
REMARK  status: ('A' for Active; 'I' for Inactive)
REMARK    1  A    between atoms: C3_4  and  O_7 
ROOT
ATOM      1  C   UNL d   1      -2.185   3.102   0.728  0.00  0.00    -0.033 A 
ATOM      2  C1  UNL d   1      -2.108   1.819   1.274  0.00  0.00     0.039 A 
ATOM      3  C2  UNL d   1      -1.202   0.891   0.756  0.00  0.00    -0.080 A 
ATOM      4  C3  UNL d   1      -0.379   1.259  -0.305  0.00  0.00     0.150 A 
ATOM      5  C4  UNL d   1      -0.448   2.536  -0.851  0.00  0.00    -0.007 A 
ATOM      6  C5  UNL d   1      -1.354   3.461  -0.333  0.00  0.00     0.039 A 
ENDROOT
BRANCH   4   7
ATOM      7  O   UNL d   1       0.517   0.386  -0.847  0.00  0.00    -0.526 OA
ATOM      8  H5  UNL d   1       0.433  -0.466  -0.388  0.00  0.00     0.418 HD
ENDBRANCH   4   7
TORSDOF 1
ENDMDL
