MODEL 1
REMARK minimizedAffinity -3.54378557
REMARK minimizedRMSD -1
REMARK  1 active torsions:
REMARK  status: ('A' for Active; 'I' for Inactive)
REMARK    1  A    between atoms: C3_4  and  O_7 
ROOT
ATOM      1  C   UNL d   1       0.817  -0.392  -1.016  0.00  0.00    -0.033 A 
ATOM      2  C1  UNL d   1       0.636   0.880  -1.564  0.00  0.00     0.039 A 
ATOM      3  C2  UNL d   1      -0.143   1.826  -0.894  0.00  0.00    -0.080 A 
ATOM      4  C3  UNL d   1      -0.733   1.488   0.321  0.00  0.00     0.150 A 
ATOM      5  C4  UNL d   1      -0.554   0.225   0.874  0.00  0.00    -0.007 A 
ATOM      6  C5  UNL d   1       0.223  -0.719   0.203  0.00  0.00     0.039 A 
ENDROOT
BRANCH   4   7
ATOM      7  O   UNL d   1      -1.506   2.376   1.008  0.00  0.00    -0.526 OA
ATOM      8  H5  UNL d   1      -1.564   3.198   0.492  0.00  0.00     0.418 HD
ENDBRANCH   4   7
TORSDOF 1
ENDMDL
