MODEL 1
REMARK minimizedAffinity -2.24648285
REMARK minimizedRMSD -1
REMARK  1 active torsions:
REMARK  status: ('A' for Active; 'I' for Inactive)
REMARK    1  A    between atoms: C3_4  and  O_7 
ROOT
ATOM      1  C   UNL d   1      -0.657  -0.477   1.979  0.00  0.00    -0.033 A 
ATOM      2  C1  UNL d   1      -1.232   0.790   2.099  0.00  0.00     0.039 A 
ATOM      3  C2  UNL d   1      -0.936   1.784   1.165  0.00  0.00    -0.080 A 
ATOM      4  C3  UNL d   1      -0.066   1.499   0.116  0.00  0.00     0.150 A 
ATOM      5  C4  UNL d   1       0.507   0.238  -0.012  0.00  0.00    -0.007 A 
ATOM      6  C5  UNL d   1       0.211  -0.754   0.923  0.00  0.00     0.039 A 
ENDROOT
BRANCH   4   7
ATOM      7  O   UNL d   1       0.257   2.438  -0.817  0.00  0.00    -0.526 OA
ATOM      8  H5  UNL d   1      -0.190   3.269  -0.585  0.00  0.00     0.418 HD
ENDBRANCH   4   7
TORSDOF 1
ENDMDL
