MODEL 1
REMARK minimizedAffinity 12.8538599
REMARK minimizedRMSD -1
REMARK  0 active torsions:
REMARK  status: ('A' for Active; 'I' for Inactive)
ROOT
ATOM      1  C   UNL d   1      -1.632  -1.168   3.214  0.00  0.00     0.124 A 
ATOM      2  C1  UNL d   1      -1.900  -0.508   2.022  0.00  0.00     0.062 A 
ATOM      3  C2  UNL d   1      -0.954   0.349   1.469  0.00  0.00     0.162 A 
ATOM      4  C3  UNL d   1       0.271   0.552   2.106  0.00  0.00    -0.034 A 
ATOM      5  C4  UNL d   1       0.533  -0.114   3.304  0.00  0.00     0.162 A 
ATOM      6  C5  UNL d   1      -0.416  -0.970   3.854  0.00  0.00     0.062 A 
ATOM      7  F   UNL d   1      -0.156  -1.606   5.005  0.00  0.00    -0.097 F 
ATOM      8  F1  UNL d   1       1.700   0.057   3.943  0.00  0.00    -0.096 F 
ATOM      9  I   UNL d   1       1.689   1.833   1.281  0.00  0.00    -0.060 I 
ATOM     10  F2  UNL d   1      -1.239   0.973   0.316  0.00  0.00    -0.096 F 
ATOM     11  F3  UNL d   1      -3.074  -0.696   1.403  0.00  0.00    -0.097 F 
ATOM     12  F4  UNL d   1      -2.545  -1.991   3.745  0.00  0.00    -0.092 F 
ENDROOT
TORSDOF 0
ENDMDL
