MODEL 1
REMARK minimizedAffinity 21.7158813
REMARK minimizedRMSD -1
REMARK  0 active torsions:
REMARK  status: ('A' for Active; 'I' for Inactive)
ROOT
ATOM      1  C   UNL d   1       3.738   4.701  -3.954  0.00  0.00     0.124 A 
ATOM      2  C1  UNL d   1       4.151   3.875  -4.991  0.00  0.00     0.062 A 
ATOM      3  C2  UNL d   1       3.816   2.524  -4.985  0.00  0.00     0.162 A 
ATOM      4  C3  UNL d   1       3.062   1.990  -3.940  0.00  0.00    -0.034 A 
ATOM      5  C4  UNL d   1       2.651   2.827  -2.901  0.00  0.00     0.162 A 
ATOM      6  C5  UNL d   1       2.988   4.176  -2.911  0.00  0.00     0.062 A 
ATOM      7  F   UNL d   1       2.588   4.972  -1.909  0.00  0.00    -0.097 F 
ATOM      8  F1  UNL d   1       1.924   2.346  -1.881  0.00  0.00    -0.096 F 
ATOM      9  I   UNL d   1       2.558  -0.029  -3.929  0.00  0.00    -0.060 I 
ATOM     10  F2  UNL d   1       4.228   1.750  -6.000  0.00  0.00    -0.096 F 
ATOM     11  F3  UNL d   1       4.876   4.379  -5.999  0.00  0.00    -0.097 F 
ATOM     12  F4  UNL d   1       4.063   6.000  -3.961  0.00  0.00    -0.092 F 
ENDROOT
TORSDOF 0
ENDMDL
