MODEL 1
REMARK minimizedAffinity 11.4913635
REMARK minimizedRMSD -1
REMARK  0 active torsions:
REMARK  status: ('A' for Active; 'I' for Inactive)
ROOT
ATOM      1  C   UNL d   1      -1.752   3.009   2.813  0.00  0.00     0.124 A 
ATOM      2  C1  UNL d   1      -2.601   2.171   2.103  0.00  0.00     0.062 A 
ATOM      3  C2  UNL d   1      -2.359   0.801   2.061  0.00  0.00     0.162 A 
ATOM      4  C3  UNL d   1      -1.262   0.260   2.732  0.00  0.00    -0.034 A 
ATOM      5  C4  UNL d   1      -0.412   1.109   3.443  0.00  0.00     0.162 A 
ATOM      6  C5  UNL d   1      -0.658   2.477   3.481  0.00  0.00     0.062 A 
ATOM      7  F   UNL d   1       0.164   3.285   4.167  0.00  0.00    -0.097 F 
ATOM      8  F1  UNL d   1       0.652   0.621   4.099  0.00  0.00    -0.096 F 
ATOM      9  I   UNL d   1      -0.896  -1.788   2.672  0.00  0.00    -0.060 I 
ATOM     10  F2  UNL d   1      -3.196   0.015   1.368  0.00  0.00    -0.096 F 
ATOM     11  F3  UNL d   1      -3.658   2.682   1.456  0.00  0.00    -0.097 F 
ATOM     12  F4  UNL d   1      -1.987   4.327   2.850  0.00  0.00    -0.092 F 
ENDROOT
TORSDOF 0
ENDMDL
