MODEL 1
REMARK minimizedAffinity 16.3955441
REMARK minimizedRMSD -1
REMARK  0 active torsions:
REMARK  status: ('A' for Active; 'I' for Inactive)
ROOT
ATOM      1  C   UNL d   1      -5.350  -2.275  -1.617  0.00  0.00     0.124 A 
ATOM      2  C1  UNL d   1      -5.303  -2.032  -0.251  0.00  0.00     0.062 A 
ATOM      3  C2  UNL d   1      -5.259  -3.094   0.648  0.00  0.00     0.162 A 
ATOM      4  C3  UNL d   1      -5.260  -4.409   0.183  0.00  0.00    -0.034 A 
ATOM      5  C4  UNL d   1      -5.308  -4.645  -1.192  0.00  0.00     0.162 A 
ATOM      6  C5  UNL d   1      -5.353  -3.581  -2.086  0.00  0.00     0.062 A 
ATOM      7  F   UNL d   1      -5.398  -3.817  -3.405  0.00  0.00    -0.097 F 
ATOM      8  F1  UNL d   1      -5.311  -5.898  -1.672  0.00  0.00    -0.096 F 
ATOM      9  I   UNL d   1      -5.194  -6.000   1.524  0.00  0.00    -0.060 I 
ATOM     10  F2  UNL d   1      -5.214  -2.829   1.962  0.00  0.00    -0.096 F 
ATOM     11  F3  UNL d   1      -5.302  -0.771   0.205  0.00  0.00    -0.097 F 
ATOM     12  F4  UNL d   1      -5.394  -1.251  -2.479  0.00  0.00    -0.092 F 
ENDROOT
TORSDOF 0
ENDMDL
