MODEL 1
REMARK minimizedAffinity 11.7558317
REMARK minimizedRMSD -1
REMARK  0 active torsions:
REMARK  status: ('A' for Active; 'I' for Inactive)
ROOT
ATOM      1  C   UNL d   1      -5.604  -2.395  -1.682  0.00  0.00     0.124 A 
ATOM      2  C1  UNL d   1      -5.748  -3.708  -2.109  0.00  0.00     0.062 A 
ATOM      3  C2  UNL d   1      -5.854  -4.739  -1.179  0.00  0.00     0.162 A 
ATOM      4  C3  UNL d   1      -5.818  -4.461   0.187  0.00  0.00    -0.034 A 
ATOM      5  C4  UNL d   1      -5.672  -3.138   0.609  0.00  0.00     0.162 A 
ATOM      6  C5  UNL d   1      -5.566  -2.112  -0.324  0.00  0.00     0.062 A 
ATOM      7  F   UNL d   1      -5.427  -0.844   0.091  0.00  0.00    -0.097 F 
ATOM      8  F1  UNL d   1      -5.633  -2.836   1.915  0.00  0.00    -0.096 F 
ATOM      9  I   UNL d   1      -5.976  -5.999   1.580  0.00  0.00    -0.060 I 
ATOM     10  F2  UNL d   1      -5.993  -5.998  -1.620  0.00  0.00    -0.096 F 
ATOM     11  F3  UNL d   1      -5.785  -3.985  -3.420  0.00  0.00    -0.097 F 
ATOM     12  F4  UNL d   1      -5.502  -1.406  -2.578  0.00  0.00    -0.092 F 
ENDROOT
TORSDOF 0
ENDMDL
