MODEL 1
REMARK minimizedAffinity 8.55146122
REMARK minimizedRMSD -1
REMARK  0 active torsions:
REMARK  status: ('A' for Active; 'I' for Inactive)
ROOT
ATOM      1  C   UNL d   1       1.925  -0.279   3.219  0.00  0.00     0.124 A 
ATOM      2  C1  UNL d   1       3.034  -0.241   2.385  0.00  0.00     0.062 A 
ATOM      3  C2  UNL d   1       3.075   0.648   1.315  0.00  0.00     0.162 A 
ATOM      4  C3  UNL d   1       2.004   1.509   1.074  0.00  0.00    -0.034 A 
ATOM      5  C4  UNL d   1       0.893   1.465   1.917  0.00  0.00     0.162 A 
ATOM      6  C5  UNL d   1       0.856   0.574   2.984  0.00  0.00     0.062 A 
ATOM      7  F   UNL d   1      -0.216   0.540   3.789  0.00  0.00    -0.097 F 
ATOM      8  F1  UNL d   1      -0.154   2.279   1.713  0.00  0.00    -0.096 F 
ATOM      9  I   UNL d   1       2.063   2.841  -0.525  0.00  0.00    -0.060 I 
ATOM     10  F2  UNL d   1       4.159   0.662   0.525  0.00  0.00    -0.096 F 
ATOM     11  F3  UNL d   1       4.068  -1.065   2.609  0.00  0.00    -0.097 F 
ATOM     12  F4  UNL d   1       1.888  -1.136   4.247  0.00  0.00    -0.092 F 
ENDROOT
TORSDOF 0
ENDMDL
