MODEL 1
REMARK minimizedAffinity 12.6613588
REMARK minimizedRMSD -1
REMARK  0 active torsions:
REMARK  status: ('A' for Active; 'I' for Inactive)
ROOT
ATOM      1  C   UNL d   1      -5.707  -1.827  -2.881  0.00  0.00     0.124 A 
ATOM      2  C1  UNL d   1      -5.478  -1.804  -1.512  0.00  0.00     0.062 A 
ATOM      3  C2  UNL d   1      -5.308  -2.994  -0.810  0.00  0.00     0.162 A 
ATOM      4  C3  UNL d   1      -5.364  -4.218  -1.476  0.00  0.00    -0.034 A 
ATOM      5  C4  UNL d   1      -5.595  -4.234  -2.853  0.00  0.00     0.162 A 
ATOM      6  C5  UNL d   1      -5.765  -3.042  -3.550  0.00  0.00     0.062 A 
ATOM      7  F   UNL d   1      -5.985  -3.066  -4.872  0.00  0.00    -0.097 F 
ATOM      8  F1  UNL d   1      -5.655  -5.393  -3.525  0.00  0.00    -0.096 F 
ATOM      9  I   UNL d   1      -5.109  -5.999  -0.431  0.00  0.00    -0.060 I 
ATOM     10  F2  UNL d   1      -5.089  -2.941   0.512  0.00  0.00    -0.096 F 
ATOM     11  F3  UNL d   1      -5.423  -0.632  -0.863  0.00  0.00    -0.097 F 
ATOM     12  F4  UNL d   1      -5.871  -0.681  -3.553  0.00  0.00    -0.092 F 
ENDROOT
TORSDOF 0
ENDMDL
