MODEL 1
REMARK minimizedAffinity 8.17749691
REMARK minimizedRMSD -1
REMARK  0 active torsions:
REMARK  status: ('A' for Active; 'I' for Inactive)
ROOT
ATOM      1  C   UNL d   1      -5.599  -3.643   1.781  0.00  0.00     0.124 A 
ATOM      2  C1  UNL d   1      -5.746  -2.432   1.117  0.00  0.00     0.062 A 
ATOM      3  C2  UNL d   1      -5.856  -2.403  -0.270  0.00  0.00     0.162 A 
ATOM      4  C3  UNL d   1      -5.819  -3.589  -1.004  0.00  0.00    -0.034 A 
ATOM      5  C4  UNL d   1      -5.670  -4.802  -0.329  0.00  0.00     0.162 A 
ATOM      6  C5  UNL d   1      -5.561  -4.826   1.057  0.00  0.00     0.062 A 
ATOM      7  F   UNL d   1      -5.419  -5.996   1.697  0.00  0.00    -0.097 F 
ATOM      8  F1  UNL d   1      -5.631  -5.961  -1.004  0.00  0.00    -0.096 F 
ATOM      9  I   UNL d   1      -5.982  -3.550  -3.078  0.00  0.00    -0.060 I 
ATOM     10  F2  UNL d   1      -5.997  -1.220  -0.885  0.00  0.00    -0.096 F 
ATOM     11  F3  UNL d   1      -5.783  -1.288   1.814  0.00  0.00    -0.097 F 
ATOM     12  F4  UNL d   1      -5.494  -3.668   3.116  0.00  0.00    -0.092 F 
ENDROOT
TORSDOF 0
ENDMDL
