MODEL 1
REMARK minimizedAffinity 18.6086006
REMARK minimizedRMSD -1
REMARK  0 active torsions:
REMARK  status: ('A' for Active; 'I' for Inactive)
ROOT
ATOM      1  C   UNL d   1       2.922   4.681  -3.024  0.00  0.00     0.124 A 
ATOM      2  C1  UNL d   1       2.247   3.961  -2.048  0.00  0.00     0.062 A 
ATOM      3  C2  UNL d   1       2.056   2.591  -2.196  0.00  0.00     0.162 A 
ATOM      4  C3  UNL d   1       2.541   1.930  -3.325  0.00  0.00    -0.034 A 
ATOM      5  C4  UNL d   1       3.217   2.661  -4.303  0.00  0.00     0.162 A 
ATOM      6  C5  UNL d   1       3.406   4.031  -4.150  0.00  0.00     0.062 A 
ATOM      7  F   UNL d   1       4.058   4.725  -5.094  0.00  0.00    -0.097 F 
ATOM      8  F1  UNL d   1       3.697   2.057  -5.401  0.00  0.00    -0.096 F 
ATOM      9  I   UNL d   1       2.256  -0.119  -3.550  0.00  0.00    -0.060 I 
ATOM     10  F2  UNL d   1       1.400   1.920  -1.237  0.00  0.00    -0.096 F 
ATOM     11  F3  UNL d   1       1.778   4.587  -0.959  0.00  0.00    -0.097 F 
ATOM     12  F4  UNL d   1       3.104   6.000  -2.880  0.00  0.00    -0.092 F 
ENDROOT
TORSDOF 0
ENDMDL
