MODEL 1
REMARK minimizedAffinity 10.6290216
REMARK minimizedRMSD -1
REMARK  0 active torsions:
REMARK  status: ('A' for Active; 'I' for Inactive)
ROOT
ATOM      1  C   UNL d   1      -0.723   1.721   3.347  0.00  0.00     0.124 A 
ATOM      2  C1  UNL d   1       0.354   2.596   3.393  0.00  0.00     0.062 A 
ATOM      3  C2  UNL d   1       1.649   2.123   3.199  0.00  0.00     0.162 A 
ATOM      4  C3  UNL d   1       1.874   0.768   2.957  0.00  0.00    -0.034 A 
ATOM      5  C4  UNL d   1       0.787  -0.106   2.912  0.00  0.00     0.162 A 
ATOM      6  C5  UNL d   1      -0.505   0.371   3.107  0.00  0.00     0.062 A 
ATOM      7  F   UNL d   1      -1.544  -0.475   3.062  0.00  0.00    -0.097 F 
ATOM      8  F1  UNL d   1       0.968  -1.415   2.681  0.00  0.00    -0.096 F 
ATOM      9  I   UNL d   1       3.809   0.057   2.667  0.00  0.00    -0.060 I 
ATOM     10  F2  UNL d   1       2.670   2.991   3.249  0.00  0.00    -0.096 F 
ATOM     11  F3  UNL d   1       0.147   3.900   3.626  0.00  0.00    -0.097 F 
ATOM     12  F4  UNL d   1      -1.967   2.178   3.534  0.00  0.00    -0.092 F 
ENDROOT
TORSDOF 0
ENDMDL
