MODEL 1
REMARK minimizedAffinity 13.5915976
REMARK minimizedRMSD -1
REMARK  0 active torsions:
REMARK  status: ('A' for Active; 'I' for Inactive)
ROOT
ATOM      1  C   UNL d   1      -1.316   3.232   2.738  0.00  0.00     0.124 A 
ATOM      2  C1  UNL d   1      -2.657   3.589   2.697  0.00  0.00     0.062 A 
ATOM      3  C2  UNL d   1      -3.627   2.635   2.400  0.00  0.00     0.162 A 
ATOM      4  C3  UNL d   1      -3.259   1.314   2.144  0.00  0.00    -0.034 A 
ATOM      5  C4  UNL d   1      -1.909   0.963   2.187  0.00  0.00     0.162 A 
ATOM      6  C5  UNL d   1      -0.943   1.920   2.484  0.00  0.00     0.062 A 
ATOM      7  F   UNL d   1       0.351   1.573   2.523  0.00  0.00    -0.097 F 
ATOM      8  F1  UNL d   1      -1.520  -0.298   1.946  0.00  0.00    -0.096 F 
ATOM      9  I   UNL d   1      -4.705  -0.115   1.701  0.00  0.00    -0.060 I 
ATOM     10  F2  UNL d   1      -4.915   3.008   2.367  0.00  0.00    -0.096 F 
ATOM     11  F3  UNL d   1      -3.020   4.856   2.942  0.00  0.00    -0.097 F 
ATOM     12  F4  UNL d   1      -0.386   4.152   3.023  0.00  0.00    -0.092 F 
ENDROOT
TORSDOF 0
ENDMDL
