MODEL 1
REMARK minimizedAffinity 21.9967918
REMARK minimizedRMSD -1
REMARK  0 active torsions:
REMARK  status: ('A' for Active; 'I' for Inactive)
ROOT
ATOM      1  C   UNL d   1      -0.661   1.794  -0.459  0.00  0.00     0.124 A 
ATOM      2  C1  UNL d   1       0.650   2.236  -0.348  0.00  0.00     0.062 A 
ATOM      3  C2  UNL d   1       1.193   2.510   0.904  0.00  0.00     0.162 A 
ATOM      4  C3  UNL d   1       0.425   2.341   2.056  0.00  0.00    -0.034 A 
ATOM      5  C4  UNL d   1      -0.893   1.896   1.937  0.00  0.00     0.162 A 
ATOM      6  C5  UNL d   1      -1.431   1.624   0.683  0.00  0.00     0.062 A 
ATOM      7  F   UNL d   1      -2.698   1.197   0.578  0.00  0.00    -0.097 F 
ATOM      8  F1  UNL d   1      -1.659   1.723   3.024  0.00  0.00    -0.096 F 
ATOM      9  I   UNL d   1       1.234   2.749   3.930  0.00  0.00    -0.060 I 
ATOM     10  F2  UNL d   1       2.463   2.936   0.981  0.00  0.00    -0.096 F 
ATOM     11  F3  UNL d   1       1.396   2.401  -1.450  0.00  0.00    -0.097 F 
ATOM     12  F4  UNL d   1      -1.181   1.532  -1.665  0.00  0.00    -0.092 F 
ENDROOT
TORSDOF 0
ENDMDL
