MODEL 1
REMARK minimizedAffinity 17.8326035
REMARK minimizedRMSD -1
REMARK  0 active torsions:
REMARK  status: ('A' for Active; 'I' for Inactive)
ROOT
ATOM      1  C   UNL d   1       0.687  -0.195  -2.017  0.00  0.00     0.124 A 
ATOM      2  C1  UNL d   1       1.506  -0.481  -3.100  0.00  0.00     0.062 A 
ATOM      3  C2  UNL d   1       2.328   0.506  -3.636  0.00  0.00     0.162 A 
ATOM      4  C3  UNL d   1       2.335   1.790  -3.090  0.00  0.00    -0.034 A 
ATOM      5  C4  UNL d   1       1.508   2.070  -2.001  0.00  0.00     0.162 A 
ATOM      6  C5  UNL d   1       0.688   1.080  -1.468  0.00  0.00     0.062 A 
ATOM      7  F   UNL d   1      -0.103   1.359  -0.422  0.00  0.00    -0.097 F 
ATOM      8  F1  UNL d   1       1.490   3.293  -1.451  0.00  0.00    -0.096 F 
ATOM      9  I   UNL d   1       3.562   3.268  -3.889  0.00  0.00    -0.060 I 
ATOM     10  F2  UNL d   1       3.109   0.201  -4.683  0.00  0.00    -0.096 F 
ATOM     11  F3  UNL d   1       1.506  -1.712  -3.632  0.00  0.00    -0.097 F 
ATOM     12  F4  UNL d   1      -0.103  -1.146  -1.503  0.00  0.00    -0.092 F 
ENDROOT
TORSDOF 0
ENDMDL
