MODEL 1
REMARK minimizedAffinity 24.3248901
REMARK minimizedRMSD -1
REMARK  0 active torsions:
REMARK  status: ('A' for Active; 'I' for Inactive)
ROOT
ATOM      1  C   UNL d   1       2.758   4.645  -4.818  0.00  0.00     0.124 A 
ATOM      2  C1  UNL d   1       3.867   4.123  -4.168  0.00  0.00     0.062 A 
ATOM      3  C2  UNL d   1       3.723   3.486  -2.939  0.00  0.00     0.162 A 
ATOM      4  C3  UNL d   1       2.463   3.367  -2.351  0.00  0.00    -0.034 A 
ATOM      5  C4  UNL d   1       1.352   3.896  -3.011  0.00  0.00     0.162 A 
ATOM      6  C5  UNL d   1       1.502   4.531  -4.239  0.00  0.00     0.062 A 
ATOM      7  F   UNL d   1       0.429   5.036  -4.865  0.00  0.00    -0.097 F 
ATOM      8  F1  UNL d   1       0.127   3.799  -2.474  0.00  0.00    -0.096 F 
ATOM      9  I   UNL d   1       2.243   2.415  -0.514  0.00  0.00    -0.060 I 
ATOM     10  F2  UNL d   1       4.813   2.990  -2.333  0.00  0.00    -0.096 F 
ATOM     11  F3  UNL d   1       5.082   4.232  -4.725  0.00  0.00    -0.097 F 
ATOM     12  F4  UNL d   1       2.900   5.259  -6.000  0.00  0.00    -0.092 F 
ENDROOT
TORSDOF 0
ENDMDL
