MODEL 1
REMARK minimizedAffinity 24.561533
REMARK minimizedRMSD -1
REMARK  0 active torsions:
REMARK  status: ('A' for Active; 'I' for Inactive)
ROOT
ATOM      1  C   UNL d   1       4.505   4.120  -5.040  0.00  0.00     0.124 A 
ATOM      2  C1  UNL d   1       4.628   2.783  -5.389  0.00  0.00     0.062 A 
ATOM      3  C2  UNL d   1       3.494   2.024  -5.663  0.00  0.00     0.162 A 
ATOM      4  C3  UNL d   1       2.226   2.601  -5.589  0.00  0.00    -0.034 A 
ATOM      5  C4  UNL d   1       2.110   3.947  -5.236  0.00  0.00     0.162 A 
ATOM      6  C5  UNL d   1       3.247   4.701  -4.964  0.00  0.00     0.062 A 
ATOM      7  F   UNL d   1       3.126   5.993  -4.626  0.00  0.00    -0.097 F 
ATOM      8  F1  UNL d   1       0.906   4.533  -5.156  0.00  0.00    -0.096 F 
ATOM      9  I   UNL d   1       0.527   1.469  -5.997  0.00  0.00    -0.060 I 
ATOM     10  F2  UNL d   1       3.642   0.733  -5.998  0.00  0.00    -0.096 F 
ATOM     11  F3  UNL d   1       5.842   2.219  -5.463  0.00  0.00    -0.097 F 
ATOM     12  F4  UNL d   1       5.598   4.848  -4.777  0.00  0.00    -0.092 F 
ENDROOT
TORSDOF 0
ENDMDL
