MODEL 1
REMARK minimizedAffinity 9.37561607
REMARK minimizedRMSD -1
REMARK  0 active torsions:
REMARK  status: ('A' for Active; 'I' for Inactive)
ROOT
ATOM      1  C   UNL d   1      -0.443   2.064   3.560  0.00  0.00     0.124 A 
ATOM      2  C1  UNL d   1      -0.089   0.739   3.769  0.00  0.00     0.062 A 
ATOM      3  C2  UNL d   1       1.166   0.280   3.377  0.00  0.00     0.162 A 
ATOM      4  C3  UNL d   1       2.075   1.147   2.773  0.00  0.00    -0.034 A 
ATOM      5  C4  UNL d   1       1.711   2.479   2.565  0.00  0.00     0.162 A 
ATOM      6  C5  UNL d   1       0.456   2.933   2.958  0.00  0.00     0.062 A 
ATOM      7  F   UNL d   1       0.115   4.214   2.756  0.00  0.00    -0.097 F 
ATOM      8  F1  UNL d   1       2.562   3.340   1.987  0.00  0.00    -0.096 F 
ATOM      9  I   UNL d   1       3.952   0.465   2.186  0.00  0.00    -0.060 I 
ATOM     10  F2  UNL d   1       1.482  -1.006   3.591  0.00  0.00    -0.096 F 
ATOM     11  F3  UNL d   1      -0.957  -0.103   4.349  0.00  0.00    -0.097 F 
ATOM     12  F4  UNL d   1      -1.651   2.503   3.937  0.00  0.00    -0.092 F 
ENDROOT
TORSDOF 0
ENDMDL
