MODEL 1
REMARK minimizedAffinity 24.2635746
REMARK minimizedRMSD -1
REMARK  0 active torsions:
REMARK  status: ('A' for Active; 'I' for Inactive)
ROOT
ATOM      1  C   UNL d   1       3.500   4.469  -2.535  0.00  0.00     0.124 A 
ATOM      2  C1  UNL d   1       3.993   3.944  -3.722  0.00  0.00     0.062 A 
ATOM      3  C2  UNL d   1       3.627   2.663  -4.125  0.00  0.00     0.162 A 
ATOM      4  C3  UNL d   1       2.763   1.898  -3.341  0.00  0.00    -0.034 A 
ATOM      5  C4  UNL d   1       2.272   2.433  -2.149  0.00  0.00     0.162 A 
ATOM      6  C5  UNL d   1       2.640   3.714  -1.750  0.00  0.00     0.062 A 
ATOM      7  F   UNL d   1       2.163   4.220  -0.604  0.00  0.00    -0.097 F 
ATOM      8  F1  UNL d   1       1.439   1.725  -1.372  0.00  0.00    -0.096 F 
ATOM      9  I   UNL d   1       2.214  -0.018  -3.941  0.00  0.00    -0.060 I 
ATOM     10  F2  UNL d   1       4.119   2.180  -5.276  0.00  0.00    -0.096 F 
ATOM     11  F3  UNL d   1       4.824   4.671  -4.481  0.00  0.00    -0.097 F 
ATOM     12  F4  UNL d   1       3.854   5.702  -2.149  0.00  0.00    -0.092 F 
ENDROOT
TORSDOF 0
ENDMDL
