MODEL 1
REMARK minimizedAffinity 8.48384571
REMARK minimizedRMSD -1
REMARK  0 active torsions:
REMARK  status: ('A' for Active; 'I' for Inactive)
ROOT
ATOM      1  C   UNL d   1       0.875   2.134  -1.040  0.00  0.00     0.124 A 
ATOM      2  C1  UNL d   1       2.071   1.908  -1.707  0.00  0.00     0.062 A 
ATOM      3  C2  UNL d   1       2.875   0.827  -1.356  0.00  0.00     0.162 A 
ATOM      4  C3  UNL d   1       2.485  -0.036  -0.332  0.00  0.00    -0.034 A 
ATOM      5  C4  UNL d   1       1.282   0.199   0.336  0.00  0.00     0.162 A 
ATOM      6  C5  UNL d   1       0.482   1.280  -0.019  0.00  0.00     0.062 A 
ATOM      7  F   UNL d   1      -0.673   1.498   0.627  0.00  0.00    -0.097 F 
ATOM      8  F1  UNL d   1       0.877  -0.611   1.325  0.00  0.00    -0.096 F 
ATOM      9  I   UNL d   1       3.685  -1.653   0.196  0.00  0.00    -0.060 I 
ATOM     10  F2  UNL d   1       4.025   0.632  -2.018  0.00  0.00    -0.096 F 
ATOM     11  F3  UNL d   1       2.454   2.732  -2.693  0.00  0.00    -0.097 F 
ATOM     12  F4  UNL d   1       0.104   3.176  -1.379  0.00  0.00    -0.092 F 
ENDROOT
TORSDOF 0
ENDMDL
