MODEL 1
REMARK minimizedAffinity 9.08279896
REMARK minimizedRMSD -1
REMARK  0 active torsions:
REMARK  status: ('A' for Active; 'I' for Inactive)
ROOT
ATOM      1  C   UNL d   1       1.167   0.260  -0.534  0.00  0.00     0.124 A 
ATOM      2  C1  UNL d   1       1.831   0.906  -1.568  0.00  0.00     0.062 A 
ATOM      3  C2  UNL d   1       1.964   2.292  -1.556  0.00  0.00     0.162 A 
ATOM      4  C3  UNL d   1       1.433   3.041  -0.506  0.00  0.00    -0.034 A 
ATOM      5  C4  UNL d   1       0.765   2.383   0.529  0.00  0.00     0.162 A 
ATOM      6  C5  UNL d   1       0.635   0.999   0.513  0.00  0.00     0.062 A 
ATOM      7  F   UNL d   1      -0.007   0.376   1.512  0.00  0.00    -0.097 F 
ATOM      8  F1  UNL d   1       0.242   3.073   1.554  0.00  0.00    -0.096 F 
ATOM      9  I   UNL d   1       1.629   5.112  -0.484  0.00  0.00    -0.060 I 
ATOM     10  F2  UNL d   1       2.611   2.890  -2.567  0.00  0.00    -0.096 F 
ATOM     11  F3  UNL d   1       2.345   0.195  -2.581  0.00  0.00    -0.097 F 
ATOM     12  F4  UNL d   1       1.039  -1.073  -0.549  0.00  0.00    -0.092 F 
ENDROOT
TORSDOF 0
ENDMDL
