MODEL 1
REMARK minimizedAffinity 0.417521417
REMARK minimizedRMSD -1
REMARK  0 active torsions:
REMARK  status: ('A' for Active; 'I' for Inactive)
ROOT
ATOM      1  C   UNL d   1       0.755   3.071  -0.536  0.00  0.00     0.124 A 
ATOM      2  C1  UNL d   1       1.169   2.418  -1.689  0.00  0.00     0.062 A 
ATOM      3  C2  UNL d   1       1.504   1.067  -1.646  0.00  0.00     0.162 A 
ATOM      4  C3  UNL d   1       1.425   0.360  -0.446  0.00  0.00    -0.034 A 
ATOM      5  C4  UNL d   1       1.009   1.024   0.709  0.00  0.00     0.162 A 
ATOM      6  C5  UNL d   1       0.676   2.374   0.661  0.00  0.00     0.062 A 
ATOM      7  F   UNL d   1       0.276   3.004   1.776  0.00  0.00    -0.097 F 
ATOM      8  F1  UNL d   1       0.922   0.375   1.879  0.00  0.00    -0.096 F 
ATOM      9  I   UNL d   1       1.924  -1.659  -0.378  0.00  0.00    -0.060 I 
ATOM     10  F2  UNL d   1       1.900   0.462  -2.775  0.00  0.00    -0.096 F 
ATOM     11  F3  UNL d   1       1.248   3.089  -2.847  0.00  0.00    -0.097 F 
ATOM     12  F4  UNL d   1       0.435   4.371  -0.580  0.00  0.00    -0.092 F 
ENDROOT
TORSDOF 0
ENDMDL
