MODEL 1
REMARK minimizedAffinity 4.73743153
REMARK minimizedRMSD -1
REMARK  0 active torsions:
REMARK  status: ('A' for Active; 'I' for Inactive)
ROOT
ATOM      1  C   UNL d   1       1.186  -0.094  -0.336  0.00  0.00     0.124 A 
ATOM      2  C1  UNL d   1       1.188   0.428  -1.622  0.00  0.00     0.062 A 
ATOM      3  C2  UNL d   1       1.276   1.803  -1.820  0.00  0.00     0.162 A 
ATOM      4  C3  UNL d   1       1.364   2.667  -0.728  0.00  0.00    -0.034 A 
ATOM      5  C4  UNL d   1       1.360   2.135   0.563  0.00  0.00     0.162 A 
ATOM      6  C5  UNL d   1       1.271   0.760   0.755  0.00  0.00     0.062 A 
ATOM      7  F   UNL d   1       1.269   0.258   1.998  0.00  0.00    -0.097 F 
ATOM      8  F1  UNL d   1       1.443   2.936   1.635  0.00  0.00    -0.096 F 
ATOM      9  I   UNL d   1       1.495   4.723  -1.019  0.00  0.00    -0.060 I 
ATOM     10  F2  UNL d   1       1.276   2.279  -3.074  0.00  0.00    -0.096 F 
ATOM     11  F3  UNL d   1       1.104  -0.394  -2.678  0.00  0.00    -0.097 F 
ATOM     12  F4  UNL d   1       1.100  -1.417  -0.149  0.00  0.00    -0.092 F 
ENDROOT
TORSDOF 0
ENDMDL
