MODEL 1
REMARK minimizedAffinity 5.97419167
REMARK minimizedRMSD -1
REMARK  0 active torsions:
REMARK  status: ('A' for Active; 'I' for Inactive)
ROOT
ATOM      1  C   UNL d   1       1.123   0.145  -0.469  0.00  0.00     0.124 A 
ATOM      2  C1  UNL d   1       1.286   0.614  -1.765  0.00  0.00     0.062 A 
ATOM      3  C2  UNL d   1       1.446   1.976  -2.002  0.00  0.00     0.162 A 
ATOM      4  C3  UNL d   1       1.445   2.880  -0.940  0.00  0.00    -0.034 A 
ATOM      5  C4  UNL d   1       1.279   2.401   0.361  0.00  0.00     0.162 A 
ATOM      6  C5  UNL d   1       1.120   1.039   0.593  0.00  0.00     0.062 A 
ATOM      7  F   UNL d   1       0.962   0.588   1.846  0.00  0.00    -0.097 F 
ATOM      8  F1  UNL d   1       1.273   3.242   1.406  0.00  0.00    -0.096 F 
ATOM      9  I   UNL d   1       1.683   4.917  -1.290  0.00  0.00    -0.060 I 
ATOM     10  F2  UNL d   1       1.601   2.400  -3.265  0.00  0.00    -0.096 F 
ATOM     11  F3  UNL d   1       1.288  -0.248  -2.793  0.00  0.00    -0.097 F 
ATOM     12  F4  UNL d   1       0.968  -1.166  -0.244  0.00  0.00    -0.092 F 
ENDROOT
TORSDOF 0
ENDMDL
