MODEL 1
REMARK minimizedAffinity 5.68667459
REMARK minimizedRMSD -1
REMARK  0 active torsions:
REMARK  status: ('A' for Active; 'I' for Inactive)
ROOT
ATOM      1  C   UNL d   1       1.207   0.727  -0.366  0.00  0.00     0.124 A 
ATOM      2  C1  UNL d   1       1.336   1.112  -1.694  0.00  0.00     0.062 A 
ATOM      3  C2  UNL d   1       1.552   2.449  -2.017  0.00  0.00     0.162 A 
ATOM      4  C3  UNL d   1       1.640   3.411  -1.010  0.00  0.00    -0.034 A 
ATOM      5  C4  UNL d   1       1.508   3.016   0.322  0.00  0.00     0.162 A 
ATOM      6  C5  UNL d   1       1.293   1.679   0.640  0.00  0.00     0.062 A 
ATOM      7  F   UNL d   1       1.169   1.308   1.923  0.00  0.00    -0.097 F 
ATOM      8  F1  UNL d   1       1.588   3.915   1.315  0.00  0.00    -0.096 F 
ATOM      9  I   UNL d   1       1.962   5.410  -1.489  0.00  0.00    -0.060 I 
ATOM     10  F2  UNL d   1       1.673   2.793  -3.308  0.00  0.00    -0.096 F 
ATOM     11  F3  UNL d   1       1.252   0.195  -2.668  0.00  0.00    -0.097 F 
ATOM     12  F4  UNL d   1       0.999  -0.560  -0.058  0.00  0.00    -0.092 F 
ENDROOT
TORSDOF 0
ENDMDL
