MODEL 1
REMARK minimizedAffinity 5.9642601
REMARK minimizedRMSD -1
REMARK  0 active torsions:
REMARK  status: ('A' for Active; 'I' for Inactive)
ROOT
ATOM      1  C   UNL d   1       1.404   0.497  -0.191  0.00  0.00     0.124 A 
ATOM      2  C1  UNL d   1       1.224   1.077  -1.439  0.00  0.00     0.062 A 
ATOM      3  C2  UNL d   1       1.319   2.457  -1.590  0.00  0.00     0.162 A 
ATOM      4  C3  UNL d   1       1.596   3.268  -0.490  0.00  0.00    -0.034 A 
ATOM      5  C4  UNL d   1       1.775   2.678   0.763  0.00  0.00     0.162 A 
ATOM      6  C5  UNL d   1       1.679   1.298   0.908  0.00  0.00     0.062 A 
ATOM      7  F   UNL d   1       1.853   0.740   2.115  0.00  0.00    -0.097 F 
ATOM      8  F1  UNL d   1       2.042   3.428   1.842  0.00  0.00    -0.096 F 
ATOM      9  I   UNL d   1       1.739   5.333  -0.711  0.00  0.00    -0.060 I 
ATOM     10  F2  UNL d   1       1.141   2.990  -2.808  0.00  0.00    -0.096 F 
ATOM     11  F3  UNL d   1       0.958   0.305  -2.503  0.00  0.00    -0.097 F 
ATOM     12  F4  UNL d   1       1.311  -0.831  -0.048  0.00  0.00    -0.092 F 
ENDROOT
TORSDOF 0
ENDMDL
