MODEL 1
REMARK minimizedAffinity 8.92991924
REMARK minimizedRMSD -1
REMARK  0 active torsions:
REMARK  status: ('A' for Active; 'I' for Inactive)
ROOT
ATOM      1  C   UNL d   1       2.059   3.522   2.025  0.00  0.00     0.124 A 
ATOM      2  C1  UNL d   1       1.618   4.226   0.914  0.00  0.00     0.062 A 
ATOM      3  C2  UNL d   1       1.431   3.572  -0.300  0.00  0.00     0.162 A 
ATOM      4  C3  UNL d   1       1.684   2.205  -0.409  0.00  0.00    -0.034 A 
ATOM      5  C4  UNL d   1       2.128   1.503   0.713  0.00  0.00     0.162 A 
ATOM      6  C5  UNL d   1       2.314   2.161   1.924  0.00  0.00     0.062 A 
ATOM      7  F   UNL d   1       2.740   1.479   2.997  0.00  0.00    -0.097 F 
ATOM      8  F1  UNL d   1       2.381   0.188   0.643  0.00  0.00    -0.096 F 
ATOM      9  I   UNL d   1       1.405   1.223  -2.223  0.00  0.00    -0.060 I 
ATOM     10  F2  UNL d   1       1.003   4.278  -1.358  0.00  0.00    -0.096 F 
ATOM     11  F3  UNL d   1       1.372   5.541   1.009  0.00  0.00    -0.097 F 
ATOM     12  F4  UNL d   1       2.239   4.154   3.192  0.00  0.00    -0.092 F 
ENDROOT
TORSDOF 0
ENDMDL
