MODEL 1
REMARK minimizedAffinity 3.43714499
REMARK minimizedRMSD -1
REMARK  0 active torsions:
REMARK  status: ('A' for Active; 'I' for Inactive)
ROOT
ATOM      1  C   UNL d   1       0.977   0.520  -0.423  0.00  0.00     0.124 A 
ATOM      2  C1  UNL d   1       1.102   1.420   0.626  0.00  0.00     0.062 A 
ATOM      3  C2  UNL d   1       1.257   2.779   0.368  0.00  0.00     0.162 A 
ATOM      4  C3  UNL d   1       1.288   3.247  -0.945  0.00  0.00    -0.034 A 
ATOM      5  C4  UNL d   1       1.163   2.336  -1.996  0.00  0.00     0.162 A 
ATOM      6  C5  UNL d   1       1.008   0.978  -1.733  0.00  0.00     0.062 A 
ATOM      7  F   UNL d   1       0.888   0.111  -2.748  0.00  0.00    -0.097 F 
ATOM      8  F1  UNL d   1       1.188   2.752  -3.271  0.00  0.00    -0.096 F 
ATOM      9  I   UNL d   1       1.520   5.278  -1.335  0.00  0.00    -0.060 I 
ATOM     10  F2  UNL d   1       1.375   3.625   1.402  0.00  0.00    -0.096 F 
ATOM     11  F3  UNL d   1       1.074   0.979   1.892  0.00  0.00    -0.097 F 
ATOM     12  F4  UNL d   1       0.829  -0.787  -0.172  0.00  0.00    -0.092 F 
ENDROOT
TORSDOF 0
ENDMDL
