MODEL 1
REMARK minimizedAffinity 1.51814926
REMARK minimizedRMSD -1
REMARK  0 active torsions:
REMARK  status: ('A' for Active; 'I' for Inactive)
ROOT
ATOM      1  C   UNL d   1       1.218   0.635  -0.374  0.00  0.00     0.124 A 
ATOM      2  C1  UNL d   1       1.236   1.058  -1.696  0.00  0.00     0.062 A 
ATOM      3  C2  UNL d   1       1.356   2.411  -1.996  0.00  0.00     0.162 A 
ATOM      4  C3  UNL d   1       1.460   3.353  -0.972  0.00  0.00    -0.034 A 
ATOM      5  C4  UNL d   1       1.440   2.921   0.355  0.00  0.00     0.162 A 
ATOM      6  C5  UNL d   1       1.320   1.566   0.650  0.00  0.00     0.062 A 
ATOM      7  F   UNL d   1       1.302   1.160   1.928  0.00  0.00    -0.097 F 
ATOM      8  F1  UNL d   1       1.537   3.799   1.364  0.00  0.00    -0.096 F 
ATOM      9  I   UNL d   1       1.639   5.378  -1.418  0.00  0.00    -0.060 I 
ATOM     10  F2  UNL d   1       1.371   2.791  -3.283  0.00  0.00    -0.096 F 
ATOM     11  F3  UNL d   1       1.137   0.160  -2.687  0.00  0.00    -0.097 F 
ATOM     12  F4  UNL d   1       1.102  -0.668  -0.087  0.00  0.00    -0.092 F 
ENDROOT
TORSDOF 0
ENDMDL
