MODEL 1
REMARK minimizedAffinity 11.1034842
REMARK minimizedRMSD -1
REMARK  0 active torsions:
REMARK  status: ('A' for Active; 'I' for Inactive)
ROOT
ATOM      1  C   UNL d   1       1.378  -0.010  -0.128  0.00  0.00     0.124 A 
ATOM      2  C1  UNL d   1       1.619   0.901   0.891  0.00  0.00     0.062 A 
ATOM      3  C2  UNL d   1       1.706   2.261   0.608  0.00  0.00     0.162 A 
ATOM      4  C3  UNL d   1       1.550   2.719  -0.701  0.00  0.00    -0.034 A 
ATOM      5  C4  UNL d   1       1.309   1.796  -1.720  0.00  0.00     0.162 A 
ATOM      6  C5  UNL d   1       1.223   0.438  -1.432  0.00  0.00     0.062 A 
ATOM      7  F   UNL d   1       0.990  -0.441  -2.418  0.00  0.00    -0.097 F 
ATOM      8  F1  UNL d   1       1.155   2.202  -2.989  0.00  0.00    -0.096 F 
ATOM      9  I   UNL d   1       1.680   4.751  -1.128  0.00  0.00    -0.060 I 
ATOM     10  F2  UNL d   1       1.940   3.119   1.612  0.00  0.00    -0.096 F 
ATOM     11  F3  UNL d   1       1.770   0.470   2.152  0.00  0.00    -0.097 F 
ATOM     12  F4  UNL d   1       1.296  -1.318   0.147  0.00  0.00    -0.092 F 
ENDROOT
TORSDOF 0
ENDMDL
