MODEL 1
REMARK minimizedAffinity 2.30712557
REMARK minimizedRMSD -1
REMARK  0 active torsions:
REMARK  status: ('A' for Active; 'I' for Inactive)
ROOT
ATOM      1  C   UNL d   1       1.598   4.692  -0.462  0.00  0.00     0.124 A 
ATOM      2  C1  UNL d   1       1.479   4.098  -1.711  0.00  0.00     0.062 A 
ATOM      3  C2  UNL d   1       1.190   2.740  -1.816  0.00  0.00     0.162 A 
ATOM      4  C3  UNL d   1       1.017   1.967  -0.668  0.00  0.00    -0.034 A 
ATOM      5  C4  UNL d   1       1.140   2.572   0.585  0.00  0.00     0.162 A 
ATOM      6  C5  UNL d   1       1.428   3.929   0.684  0.00  0.00     0.062 A 
ATOM      7  F   UNL d   1       1.543   4.501   1.891  0.00  0.00    -0.097 F 
ATOM      8  F1  UNL d   1       0.980   1.858   1.709  0.00  0.00    -0.096 F 
ATOM      9  I   UNL d   1       0.586  -0.063  -0.820  0.00  0.00    -0.060 I 
ATOM     10  F2  UNL d   1       1.081   2.192  -3.035  0.00  0.00    -0.096 F 
ATOM     11  F3  UNL d   1       1.644   4.833  -2.820  0.00  0.00    -0.097 F 
ATOM     12  F4  UNL d   1       1.877   5.998  -0.365  0.00  0.00    -0.092 F 
ENDROOT
TORSDOF 0
ENDMDL
