MODEL 1
REMARK minimizedAffinity 11.8163481
REMARK minimizedRMSD -1
REMARK  0 active torsions:
REMARK  status: ('A' for Active; 'I' for Inactive)
ROOT
ATOM      1  C   UNL d   1       1.672   0.968   0.281  0.00  0.00     0.124 A 
ATOM      2  C1  UNL d   1       1.344   1.308   1.586  0.00  0.00     0.062 A 
ATOM      3  C2  UNL d   1       0.086   1.829   1.878  0.00  0.00     0.162 A 
ATOM      4  C3  UNL d   1      -0.854   2.011   0.864  0.00  0.00    -0.034 A 
ATOM      5  C4  UNL d   1      -0.516   1.666  -0.446  0.00  0.00     0.162 A 
ATOM      6  C5  UNL d   1       0.742   1.147  -0.734  0.00  0.00     0.062 A 
ATOM      7  F   UNL d   1       1.057   0.818  -1.995  0.00  0.00    -0.097 F 
ATOM      8  F1  UNL d   1      -1.396   1.828  -1.446  0.00  0.00    -0.096 F 
ATOM      9  I   UNL d   1      -2.735   2.788   1.297  0.00  0.00    -0.060 I 
ATOM     10  F2  UNL d   1      -0.203   2.149   3.148  0.00  0.00    -0.096 F 
ATOM     11  F3  UNL d   1       2.241   1.137   2.568  0.00  0.00    -0.097 F 
ATOM     12  F4  UNL d   1       2.883   0.468   0.002  0.00  0.00    -0.092 F 
ENDROOT
TORSDOF 0
ENDMDL
