MODEL 1
REMARK minimizedAffinity 16.3408375
REMARK minimizedRMSD -1
REMARK  0 active torsions:
REMARK  status: ('A' for Active; 'I' for Inactive)
ROOT
ATOM      1  C   UNL d   1      -0.295   1.810  -2.190  0.00  0.00     0.124 A 
ATOM      2  C1  UNL d   1       1.073   1.717  -1.972  0.00  0.00     0.062 A 
ATOM      3  C2  UNL d   1       1.845   2.870  -1.871  0.00  0.00     0.162 A 
ATOM      4  C3  UNL d   1       1.252   4.127  -1.988  0.00  0.00    -0.034 A 
ATOM      5  C4  UNL d   1      -0.124   4.213  -2.208  0.00  0.00     0.162 A 
ATOM      6  C5  UNL d   1      -0.892   3.057  -2.308  0.00  0.00     0.062 A 
ATOM      7  F   UNL d   1      -2.213   3.149  -2.518  0.00  0.00    -0.097 F 
ATOM      8  F1  UNL d   1      -0.727   5.405  -2.325  0.00  0.00    -0.096 F 
ATOM      9  I   UNL d   1       2.404   5.854  -1.839  0.00  0.00    -0.060 I 
ATOM     10  F2  UNL d   1       3.165   2.751  -1.661  0.00  0.00    -0.096 F 
ATOM     11  F3  UNL d   1       1.652   0.513  -1.858  0.00  0.00    -0.097 F 
ATOM     12  F4  UNL d   1      -1.036   0.698  -2.287  0.00  0.00    -0.092 F 
ENDROOT
TORSDOF 0
ENDMDL
