MODEL 1
REMARK minimizedAffinity 3.23535085
REMARK minimizedRMSD -1
REMARK  0 active torsions:
REMARK  status: ('A' for Active; 'I' for Inactive)
ROOT
ATOM      1  C   UNL d   1       1.839   1.038  -0.261  0.00  0.00     0.124 A 
ATOM      2  C1  UNL d   1       1.639   1.621  -1.505  0.00  0.00     0.062 A 
ATOM      3  C2  UNL d   1       1.586   3.006  -1.629  0.00  0.00     0.162 A 
ATOM      4  C3  UNL d   1       1.734   3.820  -0.505  0.00  0.00    -0.034 A 
ATOM      5  C4  UNL d   1       1.934   3.226   0.743  0.00  0.00     0.162 A 
ATOM      6  C5  UNL d   1       1.986   1.841   0.861  0.00  0.00     0.062 A 
ATOM      7  F   UNL d   1       2.179   1.280   2.064  0.00  0.00    -0.097 F 
ATOM      8  F1  UNL d   1       2.080   3.978   1.844  0.00  0.00    -0.096 F 
ATOM      9  I   UNL d   1       1.656   5.891  -0.686  0.00  0.00    -0.060 I 
ATOM     10  F2  UNL d   1       1.392   3.542  -2.843  0.00  0.00    -0.096 F 
ATOM     11  F3  UNL d   1       1.496   0.848  -2.591  0.00  0.00    -0.097 F 
ATOM     12  F4  UNL d   1       1.889  -0.295  -0.145  0.00  0.00    -0.092 F 
ENDROOT
TORSDOF 0
ENDMDL
