MODEL 1
REMARK minimizedAffinity 4.46544695
REMARK minimizedRMSD -1
REMARK  0 active torsions:
REMARK  status: ('A' for Active; 'I' for Inactive)
ROOT
ATOM      1  C   UNL d   1       1.479   0.273  -0.122  0.00  0.00     0.124 A 
ATOM      2  C1  UNL d   1       1.468   1.214   0.898  0.00  0.00     0.062 A 
ATOM      3  C2  UNL d   1       1.455   2.573   0.597  0.00  0.00     0.162 A 
ATOM      4  C3  UNL d   1       1.451   3.000  -0.731  0.00  0.00    -0.034 A 
ATOM      5  C4  UNL d   1       1.463   2.048  -1.752  0.00  0.00     0.162 A 
ATOM      6  C5  UNL d   1       1.476   0.691  -1.446  0.00  0.00     0.062 A 
ATOM      7  F   UNL d   1       1.487  -0.217  -2.433  0.00  0.00    -0.097 F 
ATOM      8  F1  UNL d   1       1.460   2.423  -3.039  0.00  0.00    -0.096 F 
ATOM      9  I   UNL d   1       1.432   5.031  -1.185  0.00  0.00    -0.060 I 
ATOM     10  F2  UNL d   1       1.445   3.460   1.603  0.00  0.00    -0.096 F 
ATOM     11  F3  UNL d   1       1.471   0.814   2.178  0.00  0.00    -0.097 F 
ATOM     12  F4  UNL d   1       1.492  -1.033   0.170  0.00  0.00    -0.092 F 
ENDROOT
TORSDOF 0
ENDMDL
