MODEL 1
REMARK minimizedAffinity 0.208592847
REMARK minimizedRMSD -1
REMARK  0 active torsions:
REMARK  status: ('A' for Active; 'I' for Inactive)
ROOT
ATOM      1  C4' PXY d   1      -0.708  -2.414  -0.753  0.00  0.00     0.077 C 
ATOM      2  C1' PXY d   1      -0.428   0.014  -5.992  0.00  0.00     0.077 C 
ATOM      3  C1  PXY d   1      -0.505  -0.634  -4.623  0.00  0.00    -0.082 A 
ATOM      4  C2  PXY d   1      -0.753   0.112  -3.559  0.00  0.00     0.003 A 
ATOM      5  C3  PXY d   1      -0.793  -0.453  -2.310  0.00  0.00     0.003 A 
ATOM      6  C4  PXY d   1      -0.631  -1.804  -2.155  0.00  0.00    -0.082 A 
ATOM      7  C5  PXY d   1      -0.388  -2.573  -3.237  0.00  0.00     0.003 A 
ATOM      8  C6  PXY d   1      -0.310  -1.974  -4.491  0.00  0.00     0.003 A 
ENDROOT
TORSDOF 0
ENDMDL
