MODEL 1
REMARK minimizedAffinity -1.99877858
REMARK minimizedRMSD -1
REMARK  0 active torsions:
REMARK  status: ('A' for Active; 'I' for Inactive)
ROOT
ATOM      1  C4' PXY d   1      -4.884   0.607  -0.935  0.00  0.00     0.077 C 
ATOM      2  C1' PXY d   1      -0.532  -0.228   2.778  0.00  0.00     0.077 C 
ATOM      3  C1  PXY d   1      -1.666  -0.014   1.794  0.00  0.00    -0.082 A 
ATOM      4  C2  PXY d   1      -2.575   0.917   2.036  0.00  0.00     0.003 A 
ATOM      5  C3  PXY d   1      -3.625   1.102   1.174  0.00  0.00     0.003 A 
ATOM      6  C4  PXY d   1      -3.716   0.363   0.025  0.00  0.00    -0.082 A 
ATOM      7  C5  PXY d   1      -2.787  -0.582  -0.234  0.00  0.00     0.003 A 
ATOM      8  C6  PXY d   1      -1.752  -0.782   0.674  0.00  0.00     0.003 A 
ENDROOT
TORSDOF 0
ENDMDL
