MODEL 1
REMARK minimizedAffinity -4.601717
REMARK minimizedRMSD -1
REMARK  0 active torsions:
REMARK  status: ('A' for Active; 'I' for Inactive)
ROOT
ATOM      1  C4' PXY d   1       2.681   0.969  -5.987  0.00  0.00     0.077 C 
ATOM      2  C1' PXY d   1      -2.905   0.152  -4.747  0.00  0.00     0.077 C 
ATOM      3  C1  PXY d   1      -1.437   0.355  -5.068  0.00  0.00    -0.082 A 
ATOM      4  C2  PXY d   1      -0.949   1.582  -5.151  0.00  0.00     0.003 A 
ATOM      5  C3  PXY d   1       0.369   1.783  -5.472  0.00  0.00     0.003 A 
ATOM      6  C4  PXY d   1       1.208   0.717  -5.657  0.00  0.00    -0.082 A 
ATOM      7  C5  PXY d   1       0.720  -0.538  -5.563  0.00  0.00     0.003 A 
ATOM      8  C6  PXY d   1      -0.630  -0.721  -5.277  0.00  0.00     0.003 A 
ENDROOT
TORSDOF 0
ENDMDL
