MODEL 1
REMARK minimizedAffinity 2.0378027
REMARK minimizedRMSD -1
REMARK  0 active torsions:
REMARK  status: ('A' for Active; 'I' for Inactive)
ROOT
ATOM      1  C4' PXY d   1      -0.744  -2.999  -1.329  0.00  0.00     0.077 C 
ATOM      2  C1' PXY d   1      -0.153   0.355  -6.000  0.00  0.00     0.077 C 
ATOM      3  C1  PXY d   1      -0.311  -0.535  -4.783  0.00  0.00    -0.082 A 
ATOM      4  C2  PXY d   1      -0.583   0.008  -3.607  0.00  0.00     0.003 A 
ATOM      5  C3  PXY d   1      -0.697  -0.779  -2.490  0.00  0.00     0.003 A 
ATOM      6  C4  PXY d   1      -0.585  -2.141  -2.587  0.00  0.00    -0.082 A 
ATOM      7  C5  PXY d   1      -0.319  -2.702  -3.785  0.00  0.00     0.003 A 
ATOM      8  C6  PXY d   1      -0.165  -1.883  -4.899  0.00  0.00     0.003 A 
ENDROOT
TORSDOF 0
ENDMDL
