MODEL 1
REMARK minimizedAffinity -2.40995312
REMARK minimizedRMSD -1
REMARK  0 active torsions:
REMARK  status: ('A' for Active; 'I' for Inactive)
ROOT
ATOM      1  C4' PXY d   1      -0.889  -2.161  -4.912  0.00  0.00     0.077 C 
ATOM      2  C1' PXY d   1       2.738  -3.212  -0.536  0.00  0.00     0.077 C 
ATOM      3  C1  PXY d   1       1.777  -2.940  -1.676  0.00  0.00    -0.082 A 
ATOM      4  C2  PXY d   1       2.231  -2.899  -2.918  0.00  0.00     0.003 A 
ATOM      5  C3  PXY d   1       1.381  -2.623  -3.959  0.00  0.00     0.003 A 
ATOM      6  C4  PXY d   1       0.043  -2.441  -3.730  0.00  0.00    -0.082 A 
ATOM      7  C5  PXY d   1      -0.429  -2.492  -2.467  0.00  0.00     0.003 A 
ATOM      8  C6  PXY d   1       0.457  -2.733  -1.421  0.00  0.00     0.003 A 
ENDROOT
TORSDOF 0
ENDMDL
