MODEL 1
REMARK minimizedAffinity 5.75331974
REMARK minimizedRMSD -1
REMARK  0 active torsions:
REMARK  status: ('A' for Active; 'I' for Inactive)
ROOT
ATOM      1  C4' PXY d   1      -0.273   1.185  -5.985  0.00  0.00     0.077 C 
ATOM      2  C1' PXY d   1      -4.925  -1.316  -3.636  0.00  0.00     0.077 C 
ATOM      3  C1  PXY d   1      -3.700  -0.658  -4.240  0.00  0.00    -0.082 A 
ATOM      4  C2  PXY d   1      -3.789  -0.071  -5.423  0.00  0.00     0.003 A 
ATOM      5  C3  PXY d   1      -2.683   0.500  -5.998  0.00  0.00     0.003 A 
ATOM      6  C4  PXY d   1      -1.486   0.517  -5.333  0.00  0.00    -0.082 A 
ATOM      7  C5  PXY d   1      -1.390  -0.070  -4.121  0.00  0.00     0.003 A 
ATOM      8  C6  PXY d   1      -2.515  -0.681  -3.573  0.00  0.00     0.003 A 
ENDROOT
TORSDOF 0
ENDMDL
