MODEL 1
REMARK minimizedAffinity -1.21438837
REMARK minimizedRMSD -1
REMARK  0 active torsions:
REMARK  status: ('A' for Active; 'I' for Inactive)
ROOT
ATOM      1  C4' PXY d   1       0.722  -2.619  -1.739  0.00  0.00     0.077 C 
ATOM      2  C1' PXY d   1      -1.399   0.689  -5.979  0.00  0.00     0.077 C 
ATOM      3  C1  PXY d   1      -0.841  -0.189  -4.875  0.00  0.00    -0.082 A 
ATOM      4  C2  PXY d   1      -1.118   0.094  -3.612  0.00  0.00     0.003 A 
ATOM      5  C3  PXY d   1      -0.596  -0.670  -2.600  0.00  0.00     0.003 A 
ATOM      6  C4  PXY d   1       0.173  -1.766  -2.886  0.00  0.00    -0.082 A 
ATOM      7  C5  PXY d   1       0.451  -2.067  -4.172  0.00  0.00     0.003 A 
ATOM      8  C6  PXY d   1      -0.054  -1.255  -5.183  0.00  0.00     0.003 A 
ENDROOT
TORSDOF 0
ENDMDL
