MODEL 1
REMARK minimizedAffinity -2.76734662
REMARK minimizedRMSD -1
REMARK  0 active torsions:
REMARK  status: ('A' for Active; 'I' for Inactive)
ROOT
ATOM      1  C4' PXY d   1      -1.259  -2.919  -1.620  0.00  0.00     0.077 C 
ATOM      2  C1' PXY d   1      -0.384   0.750  -6.000  0.00  0.00     0.077 C 
ATOM      3  C1  PXY d   1      -0.614  -0.202  -4.843  0.00  0.00    -0.082 A 
ATOM      4  C2  PXY d   1      -0.152  -1.440  -4.913  0.00  0.00     0.003 A 
ATOM      5  C3  PXY d   1      -0.380  -2.323  -3.889  0.00  0.00     0.003 A 
ATOM      6  C4  PXY d   1      -1.041  -1.920  -2.760  0.00  0.00    -0.082 A 
ATOM      7  C5  PXY d   1      -1.506  -0.656  -2.677  0.00  0.00     0.003 A 
ATOM      8  C6  PXY d   1      -1.301   0.214  -3.744  0.00  0.00     0.003 A 
ENDROOT
TORSDOF 0
ENDMDL
