MODEL 1
REMARK minimizedAffinity 5.16150999
REMARK minimizedRMSD -1
REMARK  0 active torsions:
REMARK  status: ('A' for Active; 'I' for Inactive)
ROOT
ATOM      1  C4' PXY d   1      -4.254   0.005  -5.236  0.00  0.00     0.077 C 
ATOM      2  C1' PXY d   1       1.461   0.423  -6.000  0.00  0.00     0.077 C 
ATOM      3  C1  PXY d   1      -0.038   0.303  -5.807  0.00  0.00    -0.082 A 
ATOM      4  C2  PXY d   1      -0.738   1.366  -5.444  0.00  0.00     0.003 A 
ATOM      5  C3  PXY d   1      -2.089   1.268  -5.234  0.00  0.00     0.003 A 
ATOM      6  C4  PXY d   1      -2.740   0.082  -5.451  0.00  0.00    -0.082 A 
ATOM      7  C5  PXY d   1      -2.034  -1.004  -5.832  0.00  0.00     0.003 A 
ATOM      8  C6  PXY d   1      -0.657  -0.893  -5.999  0.00  0.00     0.003 A 
ENDROOT
TORSDOF 0
ENDMDL
