MODEL 1
REMARK minimizedAffinity 1.22301102
REMARK minimizedRMSD -1
REMARK  0 active torsions:
REMARK  status: ('A' for Active; 'I' for Inactive)
ROOT
ATOM      1  C4' PXY d   1       1.497  -1.361   3.186  0.00  0.00     0.077 C 
ATOM      2  C1' PXY d   1      -4.051  -1.714   4.769  0.00  0.00     0.077 C 
ATOM      3  C1  PXY d   1      -2.600  -1.614   4.344  0.00  0.00    -0.082 A 
ATOM      4  C2  PXY d   1      -1.742  -2.548   4.721  0.00  0.00     0.003 A 
ATOM      5  C3  PXY d   1      -0.419  -2.457   4.372  0.00  0.00     0.003 A 
ATOM      6  C4  PXY d   1       0.020  -1.426   3.584  0.00  0.00    -0.082 A 
ATOM      7  C5  PXY d   1      -0.851  -0.475   3.186  0.00  0.00     0.003 A 
ATOM      8  C6  PXY d   1      -2.182  -0.564   3.586  0.00  0.00     0.003 A 
ENDROOT
TORSDOF 0
ENDMDL
