MODEL 1
REMARK minimizedAffinity 5.56190634
REMARK minimizedRMSD -1
REMARK  0 active torsions:
REMARK  status: ('A' for Active; 'I' for Inactive)
ROOT
ATOM      1  C4' PXY d   1       0.001  -2.873  -1.945  0.00  0.00     0.077 C 
ATOM      2  C1' PXY d   1      -1.525   0.967  -5.988  0.00  0.00     0.077 C 
ATOM      3  C1  PXY d   1      -1.123  -0.049  -4.937  0.00  0.00    -0.082 A 
ATOM      4  C2  PXY d   1      -1.506   0.122  -3.682  0.00  0.00     0.003 A 
ATOM      5  C3  PXY d   1      -1.125  -0.770  -2.713  0.00  0.00     0.003 A 
ATOM      6  C4  PXY d   1      -0.389  -1.877  -3.041  0.00  0.00    -0.082 A 
ATOM      7  C5  PXY d   1      -0.004  -2.064  -4.321  0.00  0.00     0.003 A 
ATOM      8  C6  PXY d   1      -0.366  -1.125  -5.283  0.00  0.00     0.003 A 
ENDROOT
TORSDOF 0
ENDMDL
