MODEL 1
REMARK minimizedAffinity 6.03902245
REMARK minimizedRMSD -1
REMARK  0 active torsions:
REMARK  status: ('A' for Active; 'I' for Inactive)
ROOT
ATOM      1  C4' PXY d   1       5.999   0.271   5.968  0.00  0.00     0.077 C 
ATOM      2  C1' PXY d   1       3.911   3.363   1.553  0.00  0.00     0.077 C 
ATOM      3  C1  PXY d   1       4.459   2.563   2.718  0.00  0.00    -0.082 A 
ATOM      4  C2  PXY d   1       5.132   1.448   2.487  0.00  0.00     0.003 A 
ATOM      5  C3  PXY d   1       5.607   0.695   3.530  0.00  0.00     0.003 A 
ATOM      6  C4  PXY d   1       5.436   1.116   4.822  0.00  0.00    -0.082 A 
ATOM      7  C5  PXY d   1       4.759   2.258   5.066  0.00  0.00     0.003 A 
ATOM      8  C6  PXY d   1       4.250   2.986   3.994  0.00  0.00     0.003 A 
ENDROOT
TORSDOF 0
ENDMDL
