MODEL 1
REMARK minimizedAffinity -5.05674171
REMARK minimizedRMSD -1
REMARK  1 active torsions:
REMARK  status: ('A' for Active; 'I' for Inactive)
REMARK    1  A    between atoms: C1_2  and  C2_3 
ROOT
ATOM      1  C2  UNL d   1      -0.143  -0.151  -0.028  0.00  0.00    -0.076 A 
ATOM      2  C3  UNL d   1      -1.438   0.360  -0.218  0.00  0.00     0.004 A 
ATOM      3  C4  UNL d   1      -2.099   1.039   0.805  0.00  0.00    -0.003 A 
ATOM      4  C5  UNL d   1      -1.474   1.218   2.034  0.00  0.00     0.000 A 
ATOM      5  C6  UNL d   1      -0.182   0.733   2.234  0.00  0.00     0.000 A 
ATOM      6  C7  UNL d   1       0.504   0.061   1.208  0.00  0.00    -0.073 A 
ATOM      7  C8  UNL d   1       1.894  -0.446   1.481  0.00  0.00     0.078 C 
ENDROOT
BRANCH   1   8
ATOM      8  C1  UNL d   1       0.513  -0.903  -1.165  0.00  0.00     0.053 C 
ATOM      9  C   UNL d   1       0.764  -0.021  -2.378  0.00  0.00     0.018 C 
ENDBRANCH   1   8
TORSDOF 1
ENDMDL
