MODEL 1
REMARK minimizedAffinity -1.67092216
REMARK minimizedRMSD -1
REMARK  1 active torsions:
REMARK  status: ('A' for Active; 'I' for Inactive)
REMARK    1  A    between atoms: C1_2  and  C2_3 
ROOT
ATOM      1  C2  UNL d   1       0.308  -0.400   1.063  0.00  0.00    -0.076 A 
ATOM      2  C3  UNL d   1       0.227  -0.977  -0.216  0.00  0.00     0.004 A 
ATOM      3  C4  UNL d   1      -0.992  -1.070  -0.886  0.00  0.00    -0.003 A 
ATOM      4  C5  UNL d   1      -2.150  -0.587  -0.286  0.00  0.00     0.000 A 
ATOM      5  C6  UNL d   1      -2.086   0.003   0.975  0.00  0.00     0.000 A 
ATOM      6  C7  UNL d   1      -0.862   0.120   1.657  0.00  0.00    -0.073 A 
ATOM      7  C8  UNL d   1      -0.852   0.761   3.017  0.00  0.00     0.078 C 
ENDROOT
BRANCH   1   8
ATOM      8  C1  UNL d   1       1.653  -0.351   1.752  0.00  0.00     0.053 C 
ATOM      9  C   UNL d   1       2.629  -1.377   1.197  0.00  0.00     0.018 C 
ENDBRANCH   1   8
TORSDOF 1
ENDMDL
