MODEL 1
REMARK minimizedAffinity -1.16498327
REMARK minimizedRMSD -1
REMARK  1 active torsions:
REMARK  status: ('A' for Active; 'I' for Inactive)
REMARK    1  A    between atoms: C1_2  and  C2_3 
ROOT
ATOM      1  C2  UNL d   1       0.257  -0.513   0.793  0.00  0.00    -0.076 A 
ATOM      2  C3  UNL d   1       1.495  -1.030   1.211  0.00  0.00     0.004 A 
ATOM      3  C4  UNL d   1       1.833  -1.078   2.562  0.00  0.00    -0.003 A 
ATOM      4  C5  UNL d   1       0.938  -0.609   3.518  0.00  0.00     0.000 A 
ATOM      5  C6  UNL d   1      -0.302  -0.109   3.122  0.00  0.00     0.000 A 
ATOM      6  C7  UNL d   1      -0.665  -0.069   1.765  0.00  0.00    -0.073 A 
ATOM      7  C8  UNL d   1      -2.013   0.486   1.394  0.00  0.00     0.078 C 
ENDROOT
BRANCH   1   8
ATOM      8  C1  UNL d   1      -0.044  -0.462  -0.688  0.00  0.00     0.053 C 
ATOM      9  C   UNL d   1       0.361   0.861  -1.320  0.00  0.00     0.018 C 
ENDBRANCH   1   8
TORSDOF 1
ENDMDL
