MODEL 1
REMARK minimizedAffinity -4.88938808
REMARK minimizedRMSD -1
REMARK  1 active torsions:
REMARK  status: ('A' for Active; 'I' for Inactive)
REMARK    1  A    between atoms: C1_2  and  C2_3 
ROOT
ATOM      1  C2  UNL d   1       0.083   0.145   0.826  0.00  0.00    -0.076 A 
ATOM      2  C3  UNL d   1       0.873   0.897   1.713  0.00  0.00     0.004 A 
ATOM      3  C4  UNL d   1       0.293   1.616   2.757  0.00  0.00    -0.003 A 
ATOM      4  C5  UNL d   1      -1.087   1.594   2.932  0.00  0.00     0.000 A 
ATOM      5  C6  UNL d   1      -1.884   0.839   2.072  0.00  0.00     0.000 A 
ATOM      6  C7  UNL d   1      -1.314   0.096   1.024  0.00  0.00    -0.073 A 
ATOM      7  C8  UNL d   1      -2.222  -0.696   0.123  0.00  0.00     0.078 C 
ENDROOT
BRANCH   1   8
ATOM      8  C1  UNL d   1       0.765  -0.592  -0.304  0.00  0.00     0.053 C 
ATOM      9  C   UNL d   1       0.994   0.291  -1.521  0.00  0.00     0.018 C 
ENDBRANCH   1   8
TORSDOF 1
ENDMDL
