MODEL 1
REMARK minimizedAffinity -2.64637423
REMARK minimizedRMSD -1
REMARK  1 active torsions:
REMARK  status: ('A' for Active; 'I' for Inactive)
REMARK    1  A    between atoms: C1_2  and  C2_3 
ROOT
ATOM      1  C2  UNL d   1      -0.315  -0.262  -0.513  0.00  0.00    -0.076 A 
ATOM      2  C3  UNL d   1      -1.324   0.699  -0.326  0.00  0.00     0.004 A 
ATOM      3  C4  UNL d   1      -1.735   1.067   0.954  0.00  0.00    -0.003 A 
ATOM      4  C5  UNL d   1      -1.143   0.482   2.068  0.00  0.00     0.000 A 
ATOM      5  C6  UNL d   1      -0.129  -0.460   1.901  0.00  0.00     0.000 A 
ATOM      6  C7  UNL d   1       0.309  -0.832   0.618  0.00  0.00    -0.073 A 
ATOM      7  C8  UNL d   1       1.403  -1.857   0.497  0.00  0.00     0.078 C 
ENDROOT
BRANCH   1   8
ATOM      8  C1  UNL d   1       0.070  -0.643  -1.925  0.00  0.00     0.053 C 
ATOM      9  C   UNL d   1       0.561   0.547  -2.735  0.00  0.00     0.018 C 
ENDBRANCH   1   8
TORSDOF 1
ENDMDL
