MODEL 1
REMARK minimizedAffinity -2.59496307
REMARK minimizedRMSD -1
REMARK  1 active torsions:
REMARK  status: ('A' for Active; 'I' for Inactive)
REMARK    1  A    between atoms: C1_2  and  C2_3 
ROOT
ATOM      1  C2  UNL d   1       0.747  -0.361   1.215  0.00  0.00    -0.076 A 
ATOM      2  C3  UNL d   1       0.095  -0.271   2.457  0.00  0.00     0.004 A 
ATOM      3  C4  UNL d   1      -1.212   0.204   2.549  0.00  0.00    -0.003 A 
ATOM      4  C5  UNL d   1      -1.889   0.596   1.399  0.00  0.00     0.000 A 
ATOM      5  C6  UNL d   1      -1.264   0.497   0.157  0.00  0.00     0.000 A 
ATOM      6  C7  UNL d   1       0.048   0.006   0.045  0.00  0.00    -0.073 A 
ATOM      7  C8  UNL d   1       0.675  -0.074  -1.320  0.00  0.00     0.078 C 
ENDROOT
BRANCH   1   8
ATOM      8  C1  UNL d   1       2.175  -0.858   1.180  0.00  0.00     0.053 C 
ATOM      9  C   UNL d   1       2.902  -0.634   2.497  0.00  0.00     0.018 C 
ENDBRANCH   1   8
TORSDOF 1
ENDMDL
