MODEL 1
REMARK minimizedAffinity -2.38611889
REMARK minimizedRMSD -1
REMARK  1 active torsions:
REMARK  status: ('A' for Active; 'I' for Inactive)
REMARK    1  A    between atoms: C1_2  and  C2_3 
ROOT
ATOM      1  C2  UNL d   1      -0.654  -0.141   1.544  0.00  0.00    -0.076 A 
ATOM      2  C3  UNL d   1       0.685  -0.433   1.854  0.00  0.00     0.004 A 
ATOM      3  C4  UNL d   1       1.535  -0.996   0.903  0.00  0.00    -0.003 A 
ATOM      4  C5  UNL d   1       1.059  -1.274  -0.373  0.00  0.00     0.000 A 
ATOM      5  C6  UNL d   1      -0.262  -0.974  -0.703  0.00  0.00     0.000 A 
ATOM      6  C7  UNL d   1      -1.127  -0.392   0.239  0.00  0.00    -0.073 A 
ATOM      7  C8  UNL d   1      -2.544  -0.095  -0.169  0.00  0.00     0.078 C 
ENDROOT
BRANCH   1   8
ATOM      8  C1  UNL d   1      -1.536   0.443   2.625  0.00  0.00     0.053 C 
ATOM      9  C   UNL d   1      -1.813   1.924   2.414  0.00  0.00     0.018 C 
ENDBRANCH   1   8
TORSDOF 1
ENDMDL
