MODEL 1
REMARK minimizedAffinity -2.49826717
REMARK minimizedRMSD -1
REMARK  0 active torsions:
REMARK  status: ('A' for Active; 'I' for Inactive)
ROOT
ATOM      1  C1  BNZ d   1       0.766   3.399  -2.836  0.00  0.00     0.000 A 
ATOM      2  C2  BNZ d   1      -0.238   3.412  -3.768  0.00  0.00     0.000 A 
ATOM      3  C3  BNZ d   1      -1.548   3.482  -3.385  0.00  0.00     0.000 A 
ATOM      4  C4  BNZ d   1      -1.855   3.499  -2.072  0.00  0.00     0.000 A 
ATOM      5  C5  BNZ d   1      -0.855   3.477  -1.120  0.00  0.00     0.000 A 
ATOM      6  C6  BNZ d   1       0.465   3.446  -1.510  0.00  0.00     0.000 A 
ENDROOT
TORSDOF 0
ENDMDL
