MODEL 1
REMARK minimizedAffinity -0.854537129
REMARK minimizedRMSD -1
REMARK  0 active torsions:
REMARK  status: ('A' for Active; 'I' for Inactive)
ROOT
ATOM      1  C1  BNZ d   1      -0.902   0.068   0.534  0.00  0.00     0.000 A 
ATOM      2  C2  BNZ d   1      -1.087  -0.612   1.708  0.00  0.00     0.000 A 
ATOM      3  C3  BNZ d   1      -0.035  -1.213   2.341  0.00  0.00     0.000 A 
ATOM      4  C4  BNZ d   1       1.190  -1.168   1.780  0.00  0.00     0.000 A 
ATOM      5  C5  BNZ d   1       1.391  -0.493   0.592  0.00  0.00     0.000 A 
ATOM      6  C6  BNZ d   1       0.337   0.144  -0.023  0.00  0.00     0.000 A 
ENDROOT
TORSDOF 0
ENDMDL
