MODEL 1
REMARK minimizedAffinity -2.94751024
REMARK minimizedRMSD -1
REMARK  0 active torsions:
REMARK  status: ('A' for Active; 'I' for Inactive)
ROOT
ATOM      1  C1  BNZ d   1       2.373  -0.676   0.085  0.00  0.00     0.000 A 
ATOM      2  C2  BNZ d   1       1.946  -0.235   1.309  0.00  0.00     0.000 A 
ATOM      3  C3  BNZ d   1       0.653   0.168   1.495  0.00  0.00     0.000 A 
ATOM      4  C4  BNZ d   1      -0.199   0.167   0.450  0.00  0.00     0.000 A 
ATOM      5  C5  BNZ d   1       0.220  -0.266  -0.793  0.00  0.00     0.000 A 
ATOM      6  C6  BNZ d   1       1.511  -0.707  -0.967  0.00  0.00     0.000 A 
ENDROOT
TORSDOF 0
ENDMDL
