MODEL 1
REMARK minimizedAffinity -4.22481728
REMARK minimizedRMSD -1
REMARK  0 active torsions:
REMARK  status: ('A' for Active; 'I' for Inactive)
ROOT
ATOM      1  C1  BNZ d   1      -0.079  -0.195   1.802  0.00  0.00     0.000 A 
ATOM      2  C2  BNZ d   1      -0.111  -0.229   0.434  0.00  0.00     0.000 A 
ATOM      3  C3  BNZ d   1       1.013  -0.524  -0.286  0.00  0.00     0.000 A 
ATOM      4  C4  BNZ d   1       2.175  -0.745   0.361  0.00  0.00     0.000 A 
ATOM      5  C5  BNZ d   1       2.226  -0.705   1.740  0.00  0.00     0.000 A 
ATOM      6  C6  BNZ d   1       1.084  -0.446   2.463  0.00  0.00     0.000 A 
ENDROOT
TORSDOF 0
ENDMDL
