MODEL 1
REMARK minimizedAffinity -2.19261718
REMARK minimizedRMSD -1
REMARK  0 active torsions:
REMARK  status: ('A' for Active; 'I' for Inactive)
ROOT
ATOM      1  C1  BNZ d   1       1.494  -0.073   0.633  0.00  0.00     0.000 A 
ATOM      2  C2  BNZ d   1       1.083   0.175  -0.649  0.00  0.00     0.000 A 
ATOM      3  C3  BNZ d   1      -0.244   0.322  -0.943  0.00  0.00     0.000 A 
ATOM      4  C4  BNZ d   1      -1.159   0.180   0.038  0.00  0.00     0.000 A 
ATOM      5  C5  BNZ d   1      -0.761  -0.080   1.334  0.00  0.00     0.000 A 
ATOM      6  C6  BNZ d   1       0.578  -0.187   1.633  0.00  0.00     0.000 A 
ENDROOT
TORSDOF 0
ENDMDL
