MODEL 1
REMARK minimizedAffinity -4.67241287
REMARK minimizedRMSD -1
REMARK  0 active torsions:
REMARK  status: ('A' for Active; 'I' for Inactive)
ROOT
ATOM      1  C1  BNZ d   1       0.851   0.204   0.696  0.00  0.00     0.000 A 
ATOM      2  C2  BNZ d   1      -0.515   0.286   0.707  0.00  0.00     0.000 A 
ATOM      3  C3  BNZ d   1      -1.249  -0.369   1.656  0.00  0.00     0.000 A 
ATOM      4  C4  BNZ d   1      -0.619  -1.138   2.567  0.00  0.00     0.000 A 
ATOM      5  C5  BNZ d   1       0.758  -1.239   2.564  0.00  0.00     0.000 A 
ATOM      6  C6  BNZ d   1       1.496  -0.547   1.631  0.00  0.00     0.000 A 
ENDROOT
TORSDOF 0
ENDMDL
