MODEL 1
REMARK minimizedAffinity -3.16752958
REMARK minimizedRMSD -1
REMARK  0 active torsions:
REMARK  status: ('A' for Active; 'I' for Inactive)
ROOT
ATOM      1  C1  BNZ d   1       1.909  -1.238  -0.905  0.00  0.00     0.000 A 
ATOM      2  C2  BNZ d   1       2.548  -1.099   0.298  0.00  0.00     0.000 A 
ATOM      3  C3  BNZ d   1       2.001  -0.345   1.298  0.00  0.00     0.000 A 
ATOM      4  C4  BNZ d   1       0.838   0.301   1.081  0.00  0.00     0.000 A 
ATOM      5  C5  BNZ d   1       0.186   0.179  -0.130  0.00  0.00     0.000 A 
ATOM      6  C6  BNZ d   1       0.720  -0.613  -1.121  0.00  0.00     0.000 A 
ENDROOT
TORSDOF 0
ENDMDL
