MODEL 1
REMARK minimizedAffinity -1.7899375
REMARK minimizedRMSD -1
REMARK  0 active torsions:
REMARK  status: ('A' for Active; 'I' for Inactive)
ROOT
ATOM      1  C1  BNZ d   1       1.907  -0.298   1.045  0.00  0.00     0.000 A 
ATOM      2  C2  BNZ d   1       1.215   0.405   0.095  0.00  0.00     0.000 A 
ATOM      3  C3  BNZ d   1      -0.150   0.479   0.135  0.00  0.00     0.000 A 
ATOM      4  C4  BNZ d   1      -0.822  -0.181   1.100  0.00  0.00     0.000 A 
ATOM      5  C5  BNZ d   1      -0.138  -0.901   2.060  0.00  0.00     0.000 A 
ATOM      6  C6  BNZ d   1       1.237  -0.942   2.039  0.00  0.00     0.000 A 
ENDROOT
TORSDOF 0
ENDMDL
