MODEL 1
REMARK minimizedAffinity -2.85473156
REMARK minimizedRMSD -1
REMARK  0 active torsions:
REMARK  status: ('A' for Active; 'I' for Inactive)
ROOT
ATOM      1  C1  BNZ d   1       1.554  -0.992  -1.391  0.00  0.00     0.000 A 
ATOM      2  C2  BNZ d   1       0.414  -0.365  -1.816  0.00  0.00     0.000 A 
ATOM      3  C3  BNZ d   1      -0.392   0.297  -0.932  0.00  0.00     0.000 A 
ATOM      4  C4  BNZ d   1      -0.078   0.296   0.380  0.00  0.00     0.000 A 
ATOM      5  C5  BNZ d   1       1.064  -0.340   0.825  0.00  0.00     0.000 A 
ATOM      6  C6  BNZ d   1       1.893  -0.971  -0.073  0.00  0.00     0.000 A 
ENDROOT
TORSDOF 0
ENDMDL
