MODEL 1
REMARK minimizedAffinity 0.60124439
REMARK minimizedRMSD -1
REMARK  1 active torsions:
REMARK  status: ('A' for Active; 'I' for Inactive)
REMARK    1  A    between atoms: C1_2  and  C2_3 
ROOT
ATOM      1  C2  UNL d   1       0.048   0.891   0.528  0.00  0.00    -0.076 A 
ATOM      2  C3  UNL d   1      -0.309   0.176  -0.628  0.00  0.00     0.004 A 
ATOM      3  C4  UNL d   1      -1.446  -0.629  -0.652  0.00  0.00    -0.003 A 
ATOM      4  C5  UNL d   1      -2.246  -0.732   0.481  0.00  0.00     0.000 A 
ATOM      5  C6  UNL d   1      -1.917  -0.016   1.631  0.00  0.00     0.000 A 
ATOM      6  C7  UNL d   1      -0.783   0.813   1.667  0.00  0.00    -0.073 A 
ATOM      7  C8  UNL d   1      -0.472   1.557   2.936  0.00  0.00     0.078 C 
ENDROOT
BRANCH   1   8
ATOM      8  C1  UNL d   1       1.307   1.727   0.503  0.00  0.00     0.053 C 
ATOM      9  C   UNL d   1       2.447   1.042  -0.235  0.00  0.00     0.018 C 
ENDBRANCH   1   8
TORSDOF 1
ENDMDL
