MODEL 1
REMARK minimizedAffinity -1.46865177
REMARK minimizedRMSD -1
REMARK  1 active torsions:
REMARK  status: ('A' for Active; 'I' for Inactive)
REMARK    1  A    between atoms: C1_2  and  C2_3 
ROOT
ATOM      1  C2  UNL d   1       0.218  -0.288  -0.051  0.00  0.00    -0.076 A 
ATOM      2  C3  UNL d   1      -1.110   0.136   0.127  0.00  0.00     0.004 A 
ATOM      3  C4  UNL d   1      -1.602   0.439   1.395  0.00  0.00    -0.003 A 
ATOM      4  C5  UNL d   1      -0.774   0.324   2.506  0.00  0.00     0.000 A 
ATOM      5  C6  UNL d   1       0.552  -0.078   2.346  0.00  0.00     0.000 A 
ATOM      6  C7  UNL d   1       1.068  -0.372   1.072  0.00  0.00    -0.073 A 
ATOM      7  C8  UNL d   1       2.504  -0.807   0.958  0.00  0.00     0.078 C 
ENDROOT
BRANCH   1   8
ATOM      8  C1  UNL d   1       0.689  -0.629  -1.447  0.00  0.00     0.053 C 
ATOM      9  C   UNL d   1       0.739   0.587  -2.359  0.00  0.00     0.018 C 
ENDBRANCH   1   8
TORSDOF 1
ENDMDL
