MODEL 1
REMARK minimizedAffinity -3.07770038
REMARK minimizedRMSD -1
REMARK  1 active torsions:
REMARK  status: ('A' for Active; 'I' for Inactive)
REMARK    1  A    between atoms: C1_2  and  C2_3 
ROOT
ATOM      1  C2  UNL d   1       0.473  -0.169   1.094  0.00  0.00    -0.076 A 
ATOM      2  C3  UNL d   1       0.374  -0.692  -0.208  0.00  0.00     0.004 A 
ATOM      3  C4  UNL d   1      -0.863  -0.814  -0.839  0.00  0.00    -0.003 A 
ATOM      4  C5  UNL d   1      -2.020  -0.416  -0.180  0.00  0.00     0.000 A 
ATOM      5  C6  UNL d   1      -1.939   0.122   1.105  0.00  0.00     0.000 A 
ATOM      6  C7  UNL d   1      -0.698   0.267   1.749  0.00  0.00    -0.073 A 
ATOM      7  C8  UNL d   1      -0.669   0.847   3.137  0.00  0.00     0.078 C 
ENDROOT
BRANCH   1   8
ATOM      8  C1  UNL d   1       1.838  -0.085   1.738  0.00  0.00     0.053 C 
ATOM      9  C   UNL d   1       2.861   0.604   0.848  0.00  0.00     0.018 C 
ENDBRANCH   1   8
TORSDOF 1
ENDMDL
