MODEL 1
REMARK minimizedAffinity -3.8971715
REMARK minimizedRMSD -1
REMARK  1 active torsions:
REMARK  status: ('A' for Active; 'I' for Inactive)
REMARK    1  A    between atoms: C1_2  and  C2_3 
ROOT
ATOM      1  C2  UNL d   1      -0.280   0.161   0.717  0.00  0.00    -0.076 A 
ATOM      2  C3  UNL d   1      -0.840  -0.880  -0.044  0.00  0.00     0.004 A 
ATOM      3  C4  UNL d   1      -2.216  -1.099  -0.058  0.00  0.00    -0.003 A 
ATOM      4  C5  UNL d   1      -3.056  -0.280   0.689  0.00  0.00     0.000 A 
ATOM      5  C6  UNL d   1      -2.520   0.768   1.436  0.00  0.00     0.000 A 
ATOM      6  C7  UNL d   1      -1.136   1.013   1.448  0.00  0.00    -0.073 A 
ATOM      7  C8  UNL d   1      -0.612   2.154   2.276  0.00  0.00     0.078 C 
ENDROOT
BRANCH   1   8
ATOM      8  C1  UNL d   1       1.222   0.334   0.714  0.00  0.00     0.053 C 
ATOM      9  C   UNL d   1       1.960  -0.991   0.615  0.00  0.00     0.018 C 
ENDBRANCH   1   8
TORSDOF 1
ENDMDL
