MODEL 1
REMARK minimizedAffinity 1.72590744
REMARK minimizedRMSD -1
REMARK  1 active torsions:
REMARK  status: ('A' for Active; 'I' for Inactive)
REMARK    1  A    between atoms: C1_2  and  C2_3 
ROOT
ATOM      1  C2  UNL d   1      -0.568   0.089   2.389  0.00  0.00    -0.076 A 
ATOM      2  C3  UNL d   1      -1.194   0.033   1.131  0.00  0.00     0.004 A 
ATOM      3  C4  UNL d   1      -0.447  -0.129  -0.035  0.00  0.00    -0.003 A 
ATOM      4  C5  UNL d   1       0.937  -0.239   0.038  0.00  0.00     0.000 A 
ATOM      5  C6  UNL d   1       1.572  -0.204   1.279  0.00  0.00     0.000 A 
ATOM      6  C7  UNL d   1       0.833  -0.057   2.465  0.00  0.00    -0.073 A 
ATOM      7  C8  UNL d   1       1.571  -0.020   3.776  0.00  0.00     0.078 C 
ENDROOT
BRANCH   1   8
ATOM      8  C1  UNL d   1      -1.427   0.293   3.616  0.00  0.00     0.053 C 
ATOM      9  C   UNL d   1      -2.438  -0.826   3.814  0.00  0.00     0.018 C 
ENDBRANCH   1   8
TORSDOF 1
ENDMDL
