MODEL 1
REMARK minimizedAffinity 2.17245746
REMARK minimizedRMSD -1
REMARK  2 active torsions:
REMARK  status: ('A' for Active; 'I' for Inactive)
REMARK    1  A    between atoms: C2'_3  and  C1'_4 
REMARK    2  A    between atoms: C1'_4  and  C1_5 
ROOT
ATOM      1  C1  I4B d   1      -1.011   0.807   0.431  0.00  0.00    -0.075 A 
ATOM      2  C2  I4B d   1      -0.107  -0.033   1.032  0.00  0.00     0.003 A 
ATOM      3  C3  I4B d   1       0.629   0.403   2.160  0.00  0.00     0.002 A 
ATOM      4  C4  I4B d   1       0.469   1.694   2.620  0.00  0.00    -0.004 A 
ATOM      5  C5  I4B d   1      -0.465   2.536   2.023  0.00  0.00     0.002 A 
ATOM      6  C6  I4B d   1      -1.219   2.087   0.929  0.00  0.00     0.003 A 
ENDROOT
BRANCH   1   7
ATOM      7  C1' I4B d   1      -1.748   0.326  -0.779  0.00  0.00     0.060 C 
BRANCH   7   8
ATOM      8  C2' I4B d   1      -1.058   0.894  -2.002  0.00  0.00    -0.013 C 
ATOM      9  C4' I4B d   1      -1.220   2.389  -2.075  0.00  0.00     0.013 C 
ATOM     10  C3' I4B d   1       0.390   0.508  -1.938  0.00  0.00     0.013 C 
ENDBRANCH   7   8
ENDBRANCH   1   7
TORSDOF 2
ENDMDL
