MODEL 1
REMARK minimizedAffinity -3.0993681
REMARK minimizedRMSD -1
REMARK  2 active torsions:
REMARK  status: ('A' for Active; 'I' for Inactive)
REMARK    1  A    between atoms: C2'_3  and  C1'_4 
REMARK    2  A    between atoms: C1'_4  and  C1_5 
ROOT
ATOM      1  C1  I4B d   1      -0.102   0.581   1.044  0.00  0.00    -0.075 A 
ATOM      2  C2  I4B d   1      -0.945   1.264   0.203  0.00  0.00     0.003 A 
ATOM      3  C3  I4B d   1      -1.651   2.399   0.669  0.00  0.00     0.002 A 
ATOM      4  C4  I4B d   1      -1.525   2.784   1.988  0.00  0.00    -0.004 A 
ATOM      5  C5  I4B d   1      -0.652   2.104   2.833  0.00  0.00     0.002 A 
ATOM      6  C6  I4B d   1       0.074   1.003   2.355  0.00  0.00     0.003 A 
ENDROOT
BRANCH   1   7
ATOM      7  C1' I4B d   1       0.603  -0.633   0.528  0.00  0.00     0.060 C 
BRANCH   7   8
ATOM      8  C2' I4B d   1       0.059  -0.937  -0.853  0.00  0.00    -0.013 C 
ATOM      9  C4' I4B d   1       1.061  -0.588  -1.923  0.00  0.00     0.013 C 
ATOM     10  C3' I4B d   1      -0.298  -2.393  -0.900  0.00  0.00     0.013 C 
ENDBRANCH   7   8
ENDBRANCH   1   7
TORSDOF 2
ENDMDL
