MODEL 1
REMARK minimizedAffinity -2.43952727
REMARK minimizedRMSD -1
REMARK  2 active torsions:
REMARK  status: ('A' for Active; 'I' for Inactive)
REMARK    1  A    between atoms: C2'_3  and  C1'_4 
REMARK    2  A    between atoms: C1'_4  and  C1_5 
ROOT
ATOM      1  C1  I4B d   1       0.158  -1.045   0.230  0.00  0.00    -0.075 A 
ATOM      2  C2  I4B d   1      -0.259  -1.301   1.512  0.00  0.00     0.003 A 
ATOM      3  C3  I4B d   1      -0.579  -0.232   2.384  0.00  0.00     0.002 A 
ATOM      4  C4  I4B d   1      -0.422   1.069   1.951  0.00  0.00    -0.004 A 
ATOM      5  C5  I4B d   1      -0.021   1.326   0.643  0.00  0.00     0.002 A 
ATOM      6  C6  I4B d   1       0.259   0.263  -0.227  0.00  0.00     0.003 A 
ENDROOT
BRANCH   1   7
ATOM      7  C1' I4B d   1       0.520  -2.196  -0.654  0.00  0.00     0.060 C 
BRANCH   7   8
ATOM      8  C2' I4B d   1      -0.650  -3.159  -0.669  0.00  0.00    -0.013 C 
ATOM      9  C4' I4B d   1      -1.240  -3.277  -2.050  0.00  0.00     0.013 C 
ATOM     10  C3' I4B d   1      -0.163  -4.488  -0.173  0.00  0.00     0.013 C 
ENDBRANCH   7   8
ENDBRANCH   1   7
TORSDOF 2
ENDMDL
