MODEL 1
REMARK minimizedAffinity -3.27600169
REMARK minimizedRMSD -1
REMARK  2 active torsions:
REMARK  status: ('A' for Active; 'I' for Inactive)
REMARK    1  A    between atoms: C2'_3  and  C1'_4 
REMARK    2  A    between atoms: C1'_4  and  C1_5 
ROOT
ATOM      1  C1  I4B d   1       0.353  -0.453  -0.203  0.00  0.00    -0.075 A 
ATOM      2  C2  I4B d   1       0.248  -0.519   1.164  0.00  0.00     0.003 A 
ATOM      3  C3  I4B d   1       0.025   0.658   1.919  0.00  0.00     0.002 A 
ATOM      4  C4  I4B d   1      -0.035   1.877   1.276  0.00  0.00    -0.004 A 
ATOM      5  C5  I4B d   1       0.048   1.939  -0.112  0.00  0.00     0.002 A 
ATOM      6  C6  I4B d   1       0.231   0.765  -0.858  0.00  0.00     0.003 A 
ENDROOT
BRANCH   1   7
ATOM      7  C1' I4B d   1       0.622  -1.711  -0.966  0.00  0.00     0.060 C 
BRANCH   7   8
ATOM      8  C2' I4B d   1      -0.658  -2.523  -0.994  0.00  0.00    -0.013 C 
ATOM      9  C4' I4B d   1      -1.456  -2.240  -2.239  0.00  0.00     0.013 C 
ATOM     10  C3' I4B d   1      -0.288  -3.973  -0.905  0.00  0.00     0.013 C 
ENDBRANCH   7   8
ENDBRANCH   1   7
TORSDOF 2
ENDMDL
