MODEL 1
REMARK minimizedAffinity -3.32761478
REMARK minimizedRMSD -1
REMARK  2 active torsions:
REMARK  status: ('A' for Active; 'I' for Inactive)
REMARK    1  A    between atoms: C2'_3  and  C1'_4 
REMARK    2  A    between atoms: C1'_4  and  C1_5 
ROOT
ATOM      1  C1  I4B d   1      -0.486  -0.068  -0.171  0.00  0.00    -0.075 A 
ATOM      2  C2  I4B d   1      -1.064  -0.103   1.074  0.00  0.00     0.003 A 
ATOM      3  C3  I4B d   1      -1.552   1.086   1.667  0.00  0.00     0.002 A 
ATOM      4  C4  I4B d   1      -1.396   2.288   1.007  0.00  0.00    -0.004 A 
ATOM      5  C5  I4B d   1      -0.831   2.318  -0.265  0.00  0.00     0.002 A 
ATOM      6  C6  I4B d   1      -0.384   1.131  -0.863  0.00  0.00     0.003 A 
ENDROOT
BRANCH   1   7
ATOM      7  C1' I4B d   1       0.048  -1.338  -0.754  0.00  0.00     0.060 C 
BRANCH   7   8
ATOM      8  C2' I4B d   1      -1.078  -2.352  -0.774  0.00  0.00    -0.013 C 
ATOM      9  C4' I4B d   1      -1.459  -2.715  -2.185  0.00  0.00     0.013 C 
ATOM     10  C3' I4B d   1      -0.628  -3.559  -0.007  0.00  0.00     0.013 C 
ENDBRANCH   7   8
ENDBRANCH   1   7
TORSDOF 2
ENDMDL
