MODEL 1
REMARK minimizedAffinity 4.29351616
REMARK minimizedRMSD -1
REMARK  2 active torsions:
REMARK  status: ('A' for Active; 'I' for Inactive)
REMARK    1  A    between atoms: C2'_3  and  C1'_4 
REMARK    2  A    between atoms: C1'_4  and  C1_5 
ROOT
ATOM      1  C1  I4B d   1      -0.020  -2.159  -1.831  0.00  0.00    -0.075 A 
ATOM      2  C2  I4B d   1       0.285  -3.277  -1.096  0.00  0.00     0.003 A 
ATOM      3  C3  I4B d   1      -0.405  -4.492  -1.325  0.00  0.00     0.002 A 
ATOM      4  C4  I4B d   1      -1.421  -4.530  -2.259  0.00  0.00    -0.004 A 
ATOM      5  C5  I4B d   1      -1.713  -3.402  -3.019  0.00  0.00     0.002 A 
ATOM      6  C6  I4B d   1      -1.001  -2.212  -2.813  0.00  0.00     0.003 A 
ENDROOT
BRANCH   1   7
ATOM      7  C1' I4B d   1       0.706  -0.884  -1.539  0.00  0.00     0.060 C 
BRANCH   7   8
ATOM      8  C2' I4B d   1      -0.075   0.252  -2.168  0.00  0.00    -0.013 C 
ATOM      9  C4' I4B d   1      -0.353   1.342  -1.167  0.00  0.00     0.013 C 
ATOM     10  C3' I4B d   1       0.719   0.773  -3.329  0.00  0.00     0.013 C 
ENDBRANCH   7   8
ENDBRANCH   1   7
TORSDOF 2
ENDMDL
