MODEL 1
REMARK minimizedAffinity 3.43328047
REMARK minimizedRMSD -1
REMARK  2 active torsions:
REMARK  status: ('A' for Active; 'I' for Inactive)
REMARK    1  A    between atoms: C2'_3  and  C1'_4 
REMARK    2  A    between atoms: C1'_4  and  C1_5 
ROOT
ATOM      1  C1  I4B d   1       0.380   1.492   2.228  0.00  0.00    -0.075 A 
ATOM      2  C2  I4B d   1       0.841   0.605   1.286  0.00  0.00     0.003 A 
ATOM      3  C3  I4B d   1       0.916  -0.777   1.585  0.00  0.00     0.002 A 
ATOM      4  C4  I4B d   1       0.571  -1.219   2.846  0.00  0.00    -0.004 A 
ATOM      5  C5  I4B d   1       0.082  -0.322   3.791  0.00  0.00     0.002 A 
ATOM      6  C6  I4B d   1      -0.026   1.040   3.477  0.00  0.00     0.003 A 
ENDROOT
BRANCH   1   7
ATOM      7  C1' I4B d   1       0.345   2.949   1.890  0.00  0.00     0.060 C 
BRANCH   7   8
ATOM      8  C2' I4B d   1       1.774   3.450   1.838  0.00  0.00    -0.013 C 
ATOM      9  C4' I4B d   1       1.882   4.701   1.006  0.00  0.00     0.013 C 
ATOM     10  C3' I4B d   1       2.230   3.695   3.246  0.00  0.00     0.013 C 
ENDBRANCH   7   8
ENDBRANCH   1   7
TORSDOF 2
ENDMDL
