MODEL 1
REMARK minimizedAffinity -4.92524481
REMARK minimizedRMSD -1
REMARK  0 active torsions:
REMARK  status: ('A' for Active; 'I' for Inactive)
ROOT
ATOM      1  O1  BZF d   1       0.583  -0.283   1.474  0.00  0.00    -0.204 OA
ATOM      2  C2  BZF d   1       0.305  -0.845   0.243  0.00  0.00     0.174 A 
ATOM      3  C3  BZF d   1      -1.011  -0.755  -0.038  0.00  0.00    -0.012 A 
ATOM      4  C3A BZF d   1      -1.577  -0.012   1.046  0.00  0.00    -0.107 A 
ATOM      5  C4  BZF d   1      -2.842   0.416   1.331  0.00  0.00     0.055 A 
ATOM      6  C5  BZF d   1      -3.073   1.055   2.508  0.00  0.00    -0.016 A 
ATOM      7  C6  BZF d   1      -2.066   1.278   3.424  0.00  0.00     0.022 A 
ATOM      8  C7  BZF d   1      -0.794   0.875   3.183  0.00  0.00     0.029 A 
ATOM      9  C7A BZF d   1      -0.550   0.259   1.980  0.00  0.00     0.058 A 
ENDROOT
TORSDOF 0
ENDMDL
