MODEL 1
REMARK minimizedAffinity -5.06284475
REMARK minimizedRMSD -1
REMARK  0 active torsions:
REMARK  status: ('A' for Active; 'I' for Inactive)
ROOT
ATOM      1  O1  BZF d   1       0.212   1.411   0.672  0.00  0.00    -0.204 OA
ATOM      2  C2  BZF d   1       0.154   0.466  -0.334  0.00  0.00     0.174 A 
ATOM      3  C3  BZF d   1      -0.772  -0.474  -0.055  0.00  0.00    -0.012 A 
ATOM      4  C3A BZF d   1      -1.392  -0.042   1.160  0.00  0.00    -0.107 A 
ATOM      5  C4  BZF d   1      -2.397  -0.548   1.932  0.00  0.00     0.055 A 
ATOM      6  C5  BZF d   1      -2.715   0.077   3.097  0.00  0.00    -0.016 A 
ATOM      7  C6  BZF d   1      -2.045   1.206   3.521  0.00  0.00     0.022 A 
ATOM      8  C7  BZF d   1      -1.044   1.748   2.786  0.00  0.00     0.029 A 
ATOM      9  C7A BZF d   1      -0.743   1.138   1.592  0.00  0.00     0.058 A 
ENDROOT
TORSDOF 0
ENDMDL
