MODEL 1
REMARK minimizedAffinity -1.86948156
REMARK minimizedRMSD -1
REMARK  0 active torsions:
REMARK  status: ('A' for Active; 'I' for Inactive)
ROOT
ATOM      1  O1  BZF d   1       0.820   1.914  -2.078  0.00  0.00    -0.204 OA
ATOM      2  C2  BZF d   1       1.685   1.754  -3.144  0.00  0.00     0.174 A 
ATOM      3  C3  BZF d   1       2.259   0.534  -3.115  0.00  0.00    -0.012 A 
ATOM      4  C3A BZF d   1       1.649  -0.142  -2.011  0.00  0.00    -0.107 A 
ATOM      5  C4  BZF d   1       1.791  -1.393  -1.482  0.00  0.00     0.055 A 
ATOM      6  C5  BZF d   1       1.102  -1.717  -0.357  0.00  0.00    -0.016 A 
ATOM      7  C6  BZF d   1       0.267  -0.814   0.268  0.00  0.00     0.022 A 
ATOM      8  C7  BZF d   1       0.089   0.437  -0.222  0.00  0.00     0.029 A 
ATOM      9  C7A BZF d   1       0.760   0.756  -1.378  0.00  0.00     0.058 A 
ENDROOT
TORSDOF 0
ENDMDL
