MODEL 1
REMARK minimizedAffinity -4.0183177
REMARK minimizedRMSD -1
REMARK  0 active torsions:
REMARK  status: ('A' for Active; 'I' for Inactive)
ROOT
ATOM      1  O1  BZF d   1      -0.905  -0.949   0.889  0.00  0.00    -0.204 OA
ATOM      2  C2  BZF d   1      -1.612   0.237   0.849  0.00  0.00     0.174 A 
ATOM      3  C3  BZF d   1      -1.006   1.128   0.037  0.00  0.00    -0.012 A 
ATOM      4  C3A BZF d   1       0.101   0.425  -0.533  0.00  0.00    -0.107 A 
ATOM      5  C4  BZF d   1       1.072   0.771  -1.430  0.00  0.00     0.055 A 
ATOM      6  C5  BZF d   1       2.051  -0.125  -1.722  0.00  0.00    -0.016 A 
ATOM      7  C6  BZF d   1       2.093  -1.372  -1.133  0.00  0.00     0.022 A 
ATOM      8  C7  BZF d   1       1.150  -1.762  -0.242  0.00  0.00     0.029 A 
ATOM      9  C7A BZF d   1       0.141  -0.871   0.030  0.00  0.00     0.058 A 
ENDROOT
TORSDOF 0
ENDMDL
