MODEL 1
REMARK minimizedAffinity -2.1988008
REMARK minimizedRMSD -1
REMARK  0 active torsions:
REMARK  status: ('A' for Active; 'I' for Inactive)
ROOT
ATOM      1  O1  BZF d   1      -2.451  -0.274   2.326  0.00  0.00    -0.204 OA
ATOM      2  C2  BZF d   1      -2.574  -0.004   3.676  0.00  0.00     0.174 A 
ATOM      3  C3  BZF d   1      -1.734   0.984   4.044  0.00  0.00    -0.012 A 
ATOM      4  C3A BZF d   1      -1.109   1.418   2.832  0.00  0.00    -0.107 A 
ATOM      5  C4  BZF d   1      -0.188   2.384   2.545  0.00  0.00     0.055 A 
ATOM      6  C5  BZF d   1       0.268   2.504   1.270  0.00  0.00    -0.016 A 
ATOM      7  C6  BZF d   1      -0.171   1.672   0.261  0.00  0.00     0.022 A 
ATOM      8  C7  BZF d   1      -1.088   0.703   0.497  0.00  0.00     0.029 A 
ATOM      9  C7A BZF d   1      -1.575   0.601   1.777  0.00  0.00     0.058 A 
ENDROOT
TORSDOF 0
ENDMDL
