MODEL 1
REMARK minimizedAffinity -0.50183332
REMARK minimizedRMSD -1
REMARK  0 active torsions:
REMARK  status: ('A' for Active; 'I' for Inactive)
ROOT
ATOM      1  O1  BZF d   1      -0.663  -0.106   3.562  0.00  0.00    -0.204 OA
ATOM      2  C2  BZF d   1      -1.432   1.023   3.769  0.00  0.00     0.174 A 
ATOM      3  C3  BZF d   1      -1.631   1.685   2.611  0.00  0.00    -0.012 A 
ATOM      4  C3A BZF d   1      -1.021   0.873   1.603  0.00  0.00    -0.107 A 
ATOM      5  C4  BZF d   1      -0.901   0.991   0.248  0.00  0.00     0.055 A 
ATOM      6  C5  BZF d   1      -0.183   0.061  -0.435  0.00  0.00    -0.016 A 
ATOM      7  C6  BZF d   1       0.432  -0.995   0.205  0.00  0.00     0.022 A 
ATOM      8  C7  BZF d   1       0.337  -1.157   1.548  0.00  0.00     0.029 A 
ATOM      9  C7A BZF d   1      -0.416  -0.237   2.236  0.00  0.00     0.058 A 
ENDROOT
TORSDOF 0
ENDMDL
