MODEL 1
REMARK minimizedAffinity -2.5233202
REMARK minimizedRMSD -1
REMARK  0 active torsions:
REMARK  status: ('A' for Active; 'I' for Inactive)
ROOT
ATOM      1  O1  BZF d   1       1.901   0.263  -1.598  0.00  0.00    -0.204 OA
ATOM      2  C2  BZF d   1       2.596  -0.925  -1.475  0.00  0.00     0.174 A 
ATOM      3  C3  BZF d   1       1.995  -1.740  -0.584  0.00  0.00    -0.012 A 
ATOM      4  C3A BZF d   1       0.803  -1.054  -0.190  0.00  0.00    -0.107 A 
ATOM      5  C4  BZF d   1      -0.219  -1.361   0.662  0.00  0.00     0.055 A 
ATOM      6  C5  BZF d   1      -1.197  -0.442   0.879  0.00  0.00    -0.016 A 
ATOM      7  C6  BZF d   1      -1.180   0.794   0.267  0.00  0.00     0.022 A 
ATOM      8  C7  BZF d   1      -0.190   1.142  -0.590  0.00  0.00     0.029 A 
ATOM      9  C7A BZF d   1       0.782   0.203  -0.837  0.00  0.00     0.058 A 
ENDROOT
TORSDOF 0
ENDMDL
