MODEL 1
REMARK minimizedAffinity -0.736145914
REMARK minimizedRMSD -1
REMARK  0 active torsions:
REMARK  status: ('A' for Active; 'I' for Inactive)
ROOT
ATOM      1  O1  BZF d   1       0.561   1.532  -2.151  0.00  0.00    -0.204 OA
ATOM      2  C2  BZF d   1       1.270   1.224  -3.296  0.00  0.00     0.174 A 
ATOM      3  C3  BZF d   1       1.840   0.006  -3.193  0.00  0.00    -0.012 A 
ATOM      4  C3A BZF d   1       1.386  -0.517  -1.941  0.00  0.00    -0.107 A 
ATOM      5  C4  BZF d   1       1.596  -1.696  -1.285  0.00  0.00     0.055 A 
ATOM      6  C5  BZF d   1       1.068  -1.865  -0.045  0.00  0.00    -0.016 A 
ATOM      7  C6  BZF d   1       0.329  -0.876   0.571  0.00  0.00     0.022 A 
ATOM      8  C7  BZF d   1       0.090   0.309  -0.043  0.00  0.00     0.029 A 
ATOM      9  C7A BZF d   1       0.595   0.470  -1.310  0.00  0.00     0.058 A 
ENDROOT
TORSDOF 0
ENDMDL
