MODEL 1
REMARK minimizedAffinity 0.445216954
REMARK minimizedRMSD -1
REMARK  0 active torsions:
REMARK  status: ('A' for Active; 'I' for Inactive)
ROOT
ATOM      1  O1  BZF d   1      -2.112   1.573   1.721  0.00  0.00    -0.204 OA
ATOM      2  C2  BZF d   1      -1.625   1.640   3.012  0.00  0.00     0.174 A 
ATOM      3  C3  BZF d   1      -0.627   0.751   3.193  0.00  0.00    -0.012 A 
ATOM      4  C3A BZF d   1      -0.419   0.151   1.911  0.00  0.00    -0.107 A 
ATOM      5  C4  BZF d   1       0.448  -0.796   1.446  0.00  0.00     0.055 A 
ATOM      6  C5  BZF d   1       0.343  -1.213   0.157  0.00  0.00    -0.016 A 
ATOM      7  C6  BZF d   1      -0.621  -0.709  -0.692  0.00  0.00     0.022 A 
ATOM      8  C7  BZF d   1      -1.500   0.235  -0.279  0.00  0.00     0.029 A 
ATOM      9  C7A BZF d   1      -1.375   0.683   1.014  0.00  0.00     0.058 A 
ENDROOT
TORSDOF 0
ENDMDL
