MODEL 1
REMARK minimizedAffinity -4.21879244
REMARK minimizedRMSD -1
REMARK  0 active torsions:
REMARK  status: ('A' for Active; 'I' for Inactive)
ROOT
ATOM      1  O1  BZF d   1      -1.422   0.506  -0.347  0.00  0.00    -0.204 OA
ATOM      2  C2  BZF d   1      -0.348  -0.350  -0.491  0.00  0.00     0.174 A 
ATOM      3  C3  BZF d   1       0.224  -0.605   0.703  0.00  0.00    -0.012 A 
ATOM      4  C3A BZF d   1      -0.597   0.066   1.664  0.00  0.00    -0.107 A 
ATOM      5  C4  BZF d   1      -0.552   0.173   3.025  0.00  0.00     0.055 A 
ATOM      6  C5  BZF d   1      -1.461   0.962   3.655  0.00  0.00    -0.016 A 
ATOM      7  C6  BZF d   1      -2.423   1.662   2.957  0.00  0.00     0.022 A 
ATOM      8  C7  BZF d   1      -2.510   1.583   1.607  0.00  0.00     0.029 A 
ATOM      9  C7A BZF d   1      -1.614   0.760   0.970  0.00  0.00     0.058 A 
ENDROOT
TORSDOF 0
ENDMDL
