MODEL 1
REMARK minimizedAffinity -1.96767926
REMARK minimizedRMSD -1
REMARK  0 active torsions:
REMARK  status: ('A' for Active; 'I' for Inactive)
ROOT
ATOM      1  O1  BZF d   1      -0.047   1.079   0.527  0.00  0.00    -0.204 OA
ATOM      2  C2  BZF d   1      -0.114  -0.009  -0.322  0.00  0.00     0.174 A 
ATOM      3  C3  BZF d   1      -1.087  -0.859   0.065  0.00  0.00    -0.012 A 
ATOM      4  C3A BZF d   1      -1.726  -0.219   1.174  0.00  0.00    -0.107 A 
ATOM      5  C4  BZF d   1      -2.775  -0.562   1.978  0.00  0.00     0.055 A 
ATOM      6  C5  BZF d   1      -3.102   0.249   3.018  0.00  0.00    -0.016 A 
ATOM      7  C6  BZF d   1      -2.399   1.405   3.286  0.00  0.00     0.022 A 
ATOM      8  C7  BZF d   1      -1.354   1.789   2.514  0.00  0.00     0.029 A 
ATOM      9  C7A BZF d   1      -1.042   0.989   1.442  0.00  0.00     0.058 A 
ENDROOT
TORSDOF 0
ENDMDL
