MODEL 1
REMARK minimizedAffinity -1.16438437
REMARK minimizedRMSD -1
REMARK  0 active torsions:
REMARK  status: ('A' for Active; 'I' for Inactive)
ROOT
ATOM      1  O1  BZF d   1       0.104   1.180   0.559  0.00  0.00    -0.204 OA
ATOM      2  C2  BZF d   1      -0.506   0.628  -0.551  0.00  0.00     0.174 A 
ATOM      3  C3  BZF d   1      -1.661   0.022  -0.210  0.00  0.00    -0.012 A 
ATOM      4  C3A BZF d   1      -1.827   0.286   1.186  0.00  0.00    -0.107 A 
ATOM      5  C4  BZF d   1      -2.793  -0.040   2.095  0.00  0.00     0.055 A 
ATOM      6  C5  BZF d   1      -2.620   0.309   3.397  0.00  0.00    -0.016 A 
ATOM      7  C6  BZF d   1      -1.492   0.979   3.825  0.00  0.00     0.022 A 
ATOM      8  C7  BZF d   1      -0.510   1.329   2.959  0.00  0.00     0.029 A 
ATOM      9  C7A BZF d   1      -0.697   1.006   1.638  0.00  0.00     0.058 A 
ENDROOT
TORSDOF 0
ENDMDL
