MODEL 1
REMARK minimizedAffinity -1.44551468
REMARK minimizedRMSD -1
REMARK  0 active torsions:
REMARK  status: ('A' for Active; 'I' for Inactive)
ROOT
ATOM      1  O1  BZF d   1       0.298   1.794  -1.824  0.00  0.00    -0.204 OA
ATOM      2  C2  BZF d   1       1.134   1.675  -2.918  0.00  0.00     0.174 A 
ATOM      3  C3  BZF d   1       1.763   0.483  -2.912  0.00  0.00    -0.012 A 
ATOM      4  C3A BZF d   1       1.222  -0.224  -1.792  0.00  0.00    -0.107 A 
ATOM      5  C4  BZF d   1       1.437  -1.468  -1.273  0.00  0.00     0.055 A 
ATOM      6  C5  BZF d   1       0.800  -1.825  -0.127  0.00  0.00    -0.016 A 
ATOM      7  C6  BZF d   1      -0.054  -0.963   0.528  0.00  0.00     0.022 A 
ATOM      8  C7  BZF d   1      -0.303   0.280   0.049  0.00  0.00     0.029 A 
ATOM      9  C7A BZF d   1       0.314   0.632  -1.127  0.00  0.00     0.058 A 
ENDROOT
TORSDOF 0
ENDMDL
