MODEL 1
REMARK minimizedAffinity -2.95990872
REMARK minimizedRMSD -1
REMARK  0 active torsions:
REMARK  status: ('A' for Active; 'I' for Inactive)
ROOT
ATOM      1  O1  BZF d   1      -0.809   2.082   1.662  0.00  0.00    -0.204 OA
ATOM      2  C2  BZF d   1      -1.900   1.419   2.191  0.00  0.00     0.174 A 
ATOM      3  C3  BZF d   1      -2.013   0.184   1.661  0.00  0.00    -0.012 A 
ATOM      4  C3A BZF d   1      -0.871   0.033   0.812  0.00  0.00    -0.107 A 
ATOM      5  C4  BZF d   1      -0.416  -0.984   0.022  0.00  0.00     0.055 A 
ATOM      6  C5  BZF d   1       0.693  -0.785  -0.738  0.00  0.00    -0.016 A 
ATOM      7  C6  BZF d   1       1.367   0.418  -0.737  0.00  0.00     0.022 A 
ATOM      8  C7  BZF d   1       0.957   1.455   0.034  0.00  0.00     0.029 A 
ATOM      9  C7A BZF d   1      -0.144   1.246   0.828  0.00  0.00     0.058 A 
ENDROOT
TORSDOF 0
ENDMDL
