MODEL 1
REMARK minimizedAffinity 14.2380409
REMARK minimizedRMSD -1
REMARK  3 active torsions:
REMARK  status: ('A' for Active; 'I' for Inactive)
REMARK    1  A    between atoms: C3'_2  and  C2'_3 
REMARK    2  A    between atoms: C2'_3  and  C1'_4 
REMARK    3  A    between atoms: C1'_4  and  C1_5 
ROOT
ATOM      1  C1  N4B d   1       0.837  -1.991   3.018  0.00  0.00    -0.075 A 
ATOM      2  C2  N4B d   1       1.610  -2.329   1.886  0.00  0.00     0.002 A 
ATOM      3  C3  N4B d   1       2.287  -1.350   1.200  0.00  0.00     0.002 A 
ATOM      4  C4  N4B d   1       2.191  -0.030   1.616  0.00  0.00    -0.004 A 
ATOM      5  C5  N4B d   1       1.463   0.284   2.726  0.00  0.00     0.002 A 
ATOM      6  C6  N4B d   1       0.781  -0.690   3.427  0.00  0.00     0.002 A 
ENDROOT
BRANCH   1   7
ATOM      7  C1' N4B d   1       0.010  -3.013   3.749  0.00  0.00     0.057 C 
BRANCH   7   8
ATOM      8  C2' N4B d   1       0.385  -2.997   5.228  0.00  0.00     0.009 C 
BRANCH   8   9
ATOM      9  C3' N4B d   1      -0.286  -4.122   5.997  0.00  0.00     0.004 C 
ATOM     10  C4' N4B d   1       0.437  -5.429   5.862  0.00  0.00     0.003 C 
ENDBRANCH   8   9
ENDBRANCH   7   8
ENDBRANCH   1   7
TORSDOF 3
ENDMDL
