MODEL 1
REMARK minimizedAffinity 2.50875926
REMARK minimizedRMSD -1
REMARK  3 active torsions:
REMARK  status: ('A' for Active; 'I' for Inactive)
REMARK    1  A    between atoms: C3'_2  and  C2'_3 
REMARK    2  A    between atoms: C2'_3  and  C1'_4 
REMARK    3  A    between atoms: C1'_4  and  C1_5 
ROOT
ATOM      1  C1  N4B d   1       0.893  -5.219   0.901  0.00  0.00    -0.075 A 
ATOM      2  C2  N4B d   1      -0.395  -5.588   0.455  0.00  0.00     0.002 A 
ATOM      3  C3  N4B d   1      -0.585  -5.983  -0.846  0.00  0.00     0.002 A 
ATOM      4  C4  N4B d   1       0.491  -5.999  -1.722  0.00  0.00    -0.004 A 
ATOM      5  C5  N4B d   1       1.737  -5.666  -1.277  0.00  0.00     0.002 A 
ATOM      6  C6  N4B d   1       1.942  -5.271   0.030  0.00  0.00     0.002 A 
ENDROOT
BRANCH   1   7
ATOM      7  C1' N4B d   1       1.133  -4.699   2.291  0.00  0.00     0.057 C 
BRANCH   7   8
ATOM      8  C2' N4B d   1       0.376  -3.386   2.472  0.00  0.00     0.009 C 
BRANCH   8   9
ATOM      9  C3' N4B d   1       1.312  -2.226   2.765  0.00  0.00     0.004 C 
ATOM     10  C4' N4B d   1       1.468  -1.297   1.599  0.00  0.00     0.003 C 
ENDBRANCH   8   9
ENDBRANCH   7   8
ENDBRANCH   1   7
TORSDOF 3
ENDMDL
