MODEL 1
REMARK minimizedAffinity 19.1368313
REMARK minimizedRMSD -1
REMARK  3 active torsions:
REMARK  status: ('A' for Active; 'I' for Inactive)
REMARK    1  A    between atoms: C3'_2  and  C2'_3 
REMARK    2  A    between atoms: C2'_3  and  C1'_4 
REMARK    3  A    between atoms: C1'_4  and  C1_5 
ROOT
ATOM      1  C1  N4B d   1      -4.923   0.829  -3.468  0.00  0.00    -0.075 A 
ATOM      2  C2  N4B d   1      -4.815   2.188  -3.837  0.00  0.00     0.002 A 
ATOM      3  C3  N4B d   1      -5.198   2.591  -5.092  0.00  0.00     0.002 A 
ATOM      4  C4  N4B d   1      -5.672   1.655  -5.999  0.00  0.00    -0.004 A 
ATOM      5  C5  N4B d   1      -5.797   0.348  -5.627  0.00  0.00     0.002 A 
ATOM      6  C6  N4B d   1      -5.420  -0.071  -4.367  0.00  0.00     0.002 A 
ENDROOT
BRANCH   1   7
ATOM      7  C1' N4B d   1      -4.436   0.326  -2.137  0.00  0.00     0.057 C 
BRANCH   7   8
ATOM      8  C2' N4B d   1      -2.924   0.514  -2.053  0.00  0.00     0.009 C 
BRANCH   8   9
ATOM      9  C3' N4B d   1      -2.546   1.703  -1.186  0.00  0.00     0.004 C 
ATOM     10  C4' N4B d   1      -2.171   1.308   0.211  0.00  0.00     0.003 C 
ENDBRANCH   8   9
ENDBRANCH   7   8
ENDBRANCH   1   7
TORSDOF 3
ENDMDL
