MODEL 1
REMARK minimizedAffinity 15.1878147
REMARK minimizedRMSD -1
REMARK  3 active torsions:
REMARK  status: ('A' for Active; 'I' for Inactive)
REMARK    1  A    between atoms: C3'_2  and  C2'_3 
REMARK    2  A    between atoms: C2'_3  and  C1'_4 
REMARK    3  A    between atoms: C1'_4  and  C1_5 
ROOT
ATOM      1  C1  N4B d   1      -5.201  -3.181  -4.724  0.00  0.00    -0.075 A 
ATOM      2  C2  N4B d   1      -4.326  -3.993  -3.969  0.00  0.00     0.002 A 
ATOM      3  C3  N4B d   1      -4.223  -5.334  -4.247  0.00  0.00     0.002 A 
ATOM      4  C4  N4B d   1      -4.994  -5.886  -5.259  0.00  0.00    -0.004 A 
ATOM      5  C5  N4B d   1      -5.817  -5.090  -6.000  0.00  0.00     0.002 A 
ATOM      6  C6  N4B d   1      -5.929  -3.740  -5.734  0.00  0.00     0.002 A 
ENDROOT
BRANCH   1   7
ATOM      7  C1' N4B d   1      -5.412  -1.727  -4.400  0.00  0.00     0.057 C 
BRANCH   7   8
ATOM      8  C2' N4B d   1      -4.171  -1.185  -3.696  0.00  0.00     0.009 C 
BRANCH   8   9
ATOM      9  C3' N4B d   1      -4.525  -0.172  -2.621  0.00  0.00     0.004 C 
ATOM     10  C4' N4B d   1      -3.487   0.899  -2.468  0.00  0.00     0.003 C 
ENDBRANCH   8   9
ENDBRANCH   7   8
ENDBRANCH   1   7
TORSDOF 3
ENDMDL
