MODEL 1
REMARK minimizedAffinity -0.395107478
REMARK minimizedRMSD -1
REMARK  0 active torsions:
REMARK  status: ('A' for Active; 'I' for Inactive)
ROOT
ATOM      1  C   UNL d   1      -1.365   1.515   1.409  0.00  0.00     0.172 C 
ATOM      2  N   UNL d   1      -0.828   2.387   0.391  0.00  0.00    -0.070 N 
ATOM      3  C1  UNL d   1      -0.144   1.986  -0.726  0.00  0.00    -0.004 A 
ATOM      4  C2  UNL d   1       0.195   3.113  -1.441  0.00  0.00    -0.047 A 
ATOM      5  C3  UNL d   1      -0.301   4.232  -0.730  0.00  0.00    -0.047 A 
ATOM      6  C4  UNL d   1      -0.930   3.753   0.400  0.00  0.00    -0.004 A 
ENDROOT
TORSDOF 0
ENDMDL
