MODEL 1
REMARK minimizedAffinity 1.98126769
REMARK minimizedRMSD -1
REMARK  0 active torsions:
REMARK  status: ('A' for Active; 'I' for Inactive)
ROOT
ATOM      1  C   UNL d   1       2.783  -3.481  -0.693  0.00  0.00     0.172 C 
ATOM      2  N   UNL d   1       3.936  -3.872  -1.471  0.00  0.00    -0.070 N 
ATOM      3  C1  UNL d   1       4.933  -4.711  -1.053  0.00  0.00    -0.004 A 
ATOM      4  C2  UNL d   1       5.844  -4.830  -2.081  0.00  0.00    -0.047 A 
ATOM      5  C3  UNL d   1       5.377  -4.033  -3.154  0.00  0.00    -0.047 A 
ATOM      6  C4  UNL d   1       4.194  -3.451  -2.749  0.00  0.00    -0.004 A 
ENDROOT
TORSDOF 0
ENDMDL
