MODEL 1
REMARK minimizedAffinity 2.10027075
REMARK minimizedRMSD -1
REMARK  0 active torsions:
REMARK  status: ('A' for Active; 'I' for Inactive)
ROOT
ATOM      1  C   UNL d   1      -1.336   1.694   1.510  0.00  0.00     0.172 C 
ATOM      2  N   UNL d   1      -0.764   2.643   0.585  0.00  0.00    -0.070 N 
ATOM      3  C1  UNL d   1      -0.939   4.001   0.624  0.00  0.00    -0.004 A 
ATOM      4  C2  UNL d   1      -0.232   4.548  -0.425  0.00  0.00    -0.047 A 
ATOM      5  C3  UNL d   1       0.388   3.482  -1.119  0.00  0.00    -0.047 A 
ATOM      6  C4  UNL d   1       0.042   2.314  -0.473  0.00  0.00    -0.004 A 
ENDROOT
TORSDOF 0
ENDMDL
