MODEL 1
REMARK minimizedAffinity 2.58726406
REMARK minimizedRMSD -1
REMARK  0 active torsions:
REMARK  status: ('A' for Active; 'I' for Inactive)
ROOT
ATOM      1  C   UNL d   1       1.311  -0.353   3.107  0.00  0.00     0.172 C 
ATOM      2  N   UNL d   1       0.489   0.392   2.183  0.00  0.00    -0.070 N 
ATOM      3  C1  UNL d   1       0.646   0.427   0.824  0.00  0.00    -0.004 A 
ATOM      4  C2  UNL d   1      -0.333   1.246   0.306  0.00  0.00    -0.047 A 
ATOM      5  C3  UNL d   1      -1.106   1.722   1.393  0.00  0.00    -0.047 A 
ATOM      6  C4  UNL d   1      -0.575   1.177   2.543  0.00  0.00    -0.004 A 
ENDROOT
TORSDOF 0
ENDMDL
