MODEL 1
REMARK minimizedAffinity -1.18715799
REMARK minimizedRMSD -1
REMARK  0 active torsions:
REMARK  status: ('A' for Active; 'I' for Inactive)
ROOT
ATOM      1  C   UNL d   1      -0.213   4.209  -0.472  0.00  0.00     0.172 C 
ATOM      2  N   UNL d   1      -0.644   3.026   0.236  0.00  0.00    -0.070 N 
ATOM      3  C1  UNL d   1      -0.087   1.781   0.122  0.00  0.00    -0.004 A 
ATOM      4  C2  UNL d   1      -0.780   0.930   0.956  0.00  0.00    -0.047 A 
ATOM      5  C3  UNL d   1      -1.789   1.691   1.593  0.00  0.00    -0.047 A 
ATOM      6  C4  UNL d   1      -1.682   2.985   1.129  0.00  0.00    -0.004 A 
ENDROOT
TORSDOF 0
ENDMDL
