MODEL 1
REMARK minimizedAffinity 1.71519709
REMARK minimizedRMSD -1
REMARK  0 active torsions:
REMARK  status: ('A' for Active; 'I' for Inactive)
ROOT
ATOM      1  C   UNL d   1      -0.913   1.864  -0.069  0.00  0.00     0.172 C 
ATOM      2  N   UNL d   1      -0.352   0.838  -0.917  0.00  0.00    -0.070 N 
ATOM      3  C1  UNL d   1       0.902   0.301  -0.798  0.00  0.00    -0.004 A 
ATOM      4  C2  UNL d   1       1.052  -0.643  -1.791  0.00  0.00    -0.047 A 
ATOM      5  C3  UNL d   1      -0.153  -0.673  -2.533  0.00  0.00    -0.047 A 
ATOM      6  C4  UNL d   1      -1.005   0.253  -1.970  0.00  0.00    -0.004 A 
ENDROOT
TORSDOF 0
ENDMDL
