MODEL 1
REMARK minimizedAffinity -1.37739754
REMARK minimizedRMSD -1
REMARK  0 active torsions:
REMARK  status: ('A' for Active; 'I' for Inactive)
ROOT
ATOM      1  C   UNL d   1      -2.280   0.633   2.645  0.00  0.00     0.172 C 
ATOM      2  N   UNL d   1      -2.136   1.775   1.772  0.00  0.00    -0.070 N 
ATOM      3  C1  UNL d   1      -3.093   2.726   1.538  0.00  0.00    -0.004 A 
ATOM      4  C2  UNL d   1      -2.569   3.642   0.651  0.00  0.00    -0.047 A 
ATOM      5  C3  UNL d   1      -1.252   3.226   0.341  0.00  0.00    -0.047 A 
ATOM      6  C4  UNL d   1      -1.011   2.067   1.049  0.00  0.00    -0.004 A 
ENDROOT
TORSDOF 0
ENDMDL
