MODEL 1
REMARK minimizedAffinity 1.63152242
REMARK minimizedRMSD -1
REMARK  0 active torsions:
REMARK  status: ('A' for Active; 'I' for Inactive)
ROOT
ATOM      1  C   UNL d   1      -1.041   3.470   0.420  0.00  0.00     0.172 C 
ATOM      2  N   UNL d   1      -1.174   2.208   1.109  0.00  0.00    -0.070 N 
ATOM      3  C1  UNL d   1      -0.141   1.397   1.495  0.00  0.00    -0.004 A 
ATOM      4  C2  UNL d   1      -0.682   0.294   2.119  0.00  0.00    -0.047 A 
ATOM      5  C3  UNL d   1      -2.089   0.447   2.107  0.00  0.00    -0.047 A 
ATOM      6  C4  UNL d   1      -2.366   1.641   1.475  0.00  0.00    -0.004 A 
ENDROOT
TORSDOF 0
ENDMDL
