MODEL 1
REMARK minimizedAffinity -2.3688345
REMARK minimizedRMSD -1
REMARK  0 active torsions:
REMARK  status: ('A' for Active; 'I' for Inactive)
ROOT
ATOM      1  C   UNL d   1       0.125   3.751  -0.775  0.00  0.00     0.172 C 
ATOM      2  N   UNL d   1      -0.769   2.954   0.031  0.00  0.00    -0.070 N 
ATOM      3  C1  UNL d   1      -0.402   1.906   0.833  0.00  0.00    -0.004 A 
ATOM      4  C2  UNL d   1      -1.541   1.413   1.431  0.00  0.00    -0.047 A 
ATOM      5  C3  UNL d   1      -2.631   2.190   0.972  0.00  0.00    -0.047 A 
ATOM      6  C4  UNL d   1      -2.125   3.137   0.107  0.00  0.00    -0.004 A 
ENDROOT
TORSDOF 0
ENDMDL
