MODEL 1
REMARK minimizedAffinity -0.865828395
REMARK minimizedRMSD -1
REMARK  0 active torsions:
REMARK  status: ('A' for Active; 'I' for Inactive)
ROOT
ATOM      1  C   UNL d   1      -2.098   0.784   2.316  0.00  0.00     0.172 C 
ATOM      2  N   UNL d   1      -1.883   1.845   1.362  0.00  0.00    -0.070 N 
ATOM      3  C1  UNL d   1      -2.690   2.938   1.187  0.00  0.00    -0.004 A 
ATOM      4  C2  UNL d   1      -2.143   3.711   0.186  0.00  0.00    -0.047 A 
ATOM      5  C3  UNL d   1      -0.967   3.060  -0.257  0.00  0.00    -0.047 A 
ATOM      6  C4  UNL d   1      -0.830   1.908   0.488  0.00  0.00    -0.004 A 
ENDROOT
TORSDOF 0
ENDMDL
