MODEL 1
REMARK minimizedAffinity 3.03811526
REMARK minimizedRMSD -1
REMARK  0 active torsions:
REMARK  status: ('A' for Active; 'I' for Inactive)
ROOT
ATOM      1  C   UNL d   1      -1.997   1.486   1.668  0.00  0.00     0.172 C 
ATOM      2  N   UNL d   1      -1.272   2.334   0.751  0.00  0.00    -0.070 N 
ATOM      3  C1  UNL d   1      -1.047   3.675   0.912  0.00  0.00    -0.004 A 
ATOM      4  C2  UNL d   1      -0.321   4.115  -0.173  0.00  0.00    -0.047 A 
ATOM      5  C3  UNL d   1      -0.103   3.000  -1.017  0.00  0.00    -0.047 A 
ATOM      6  C4  UNL d   1      -0.703   1.911  -0.421  0.00  0.00    -0.004 A 
ENDROOT
TORSDOF 0
ENDMDL
