MODEL 1
REMARK minimizedAffinity 2.37423158
REMARK minimizedRMSD -1
REMARK  0 active torsions:
REMARK  status: ('A' for Active; 'I' for Inactive)
ROOT
ATOM      1  C   UNL d   1      -0.376  -4.530   5.988  0.00  0.00     0.172 C 
ATOM      2  N   UNL d   1      -1.457  -3.754   5.428  0.00  0.00    -0.070 N 
ATOM      3  C1  UNL d   1      -1.410  -3.051   4.254  0.00  0.00    -0.004 A 
ATOM      4  C2  UNL d   1      -2.637  -2.450   4.072  0.00  0.00    -0.047 A 
ATOM      5  C3  UNL d   1      -3.449  -2.804   5.176  0.00  0.00    -0.047 A 
ATOM      6  C4  UNL d   1      -2.694  -3.611   6.000  0.00  0.00    -0.004 A 
ENDROOT
TORSDOF 0
ENDMDL
