MODEL 1
REMARK minimizedAffinity 1.23132777
REMARK minimizedRMSD -1
REMARK  0 active torsions:
REMARK  status: ('A' for Active; 'I' for Inactive)
ROOT
ATOM      1  C   UNL d   1      -0.007  -4.704   6.000  0.00  0.00     0.172 C 
ATOM      2  N   UNL d   1      -1.003  -3.933   5.293  0.00  0.00    -0.070 N 
ATOM      3  C1  UNL d   1      -2.308  -3.771   5.675  0.00  0.00    -0.004 A 
ATOM      4  C2  UNL d   1      -2.926  -2.970   4.740  0.00  0.00    -0.047 A 
ATOM      5  C3  UNL d   1      -1.959  -2.639   3.761  0.00  0.00    -0.047 A 
ATOM      6  C4  UNL d   1      -0.777  -3.248   4.128  0.00  0.00    -0.004 A 
ENDROOT
TORSDOF 0
ENDMDL
