MODEL 1
REMARK minimizedAffinity 4.29105949
REMARK minimizedRMSD -1
REMARK  0 active torsions:
REMARK  status: ('A' for Active; 'I' for Inactive)
ROOT
ATOM      1  C   UNL d   1      -0.556   3.498  -0.107  0.00  0.00     0.172 C 
ATOM      2  N   UNL d   1      -0.682   3.010   1.246  0.00  0.00    -0.070 N 
ATOM      3  C1  UNL d   1       0.113   3.368   2.301  0.00  0.00    -0.004 A 
ATOM      4  C2  UNL d   1      -0.330   2.687   3.414  0.00  0.00    -0.047 A 
ATOM      5  C3  UNL d   1      -1.430   1.892   3.014  0.00  0.00    -0.047 A 
ATOM      6  C4  UNL d   1      -1.626   2.111   1.667  0.00  0.00    -0.004 A 
ENDROOT
TORSDOF 0
ENDMDL
