MODEL 1
REMARK minimizedAffinity 3.76818061
REMARK minimizedRMSD -1
REMARK  0 active torsions:
REMARK  status: ('A' for Active; 'I' for Inactive)
ROOT
ATOM      1  C   UNL d   1      -4.477   3.194  -3.415  0.00  0.00     0.172 C 
ATOM      2  N   UNL d   1      -3.690   4.321  -3.854  0.00  0.00    -0.070 N 
ATOM      3  C1  UNL d   1      -2.768   4.994  -3.099  0.00  0.00    -0.004 A 
ATOM      4  C2  UNL d   1      -2.236   6.000  -3.877  0.00  0.00    -0.047 A 
ATOM      5  C3  UNL d   1      -2.862   5.929  -5.145  0.00  0.00    -0.047 A 
ATOM      6  C4  UNL d   1      -3.757   4.881  -5.103  0.00  0.00    -0.004 A 
ENDROOT
TORSDOF 0
ENDMDL
