MODEL 1
REMARK minimizedAffinity 7.29109335
REMARK minimizedRMSD -1
REMARK  0 active torsions:
REMARK  status: ('A' for Active; 'I' for Inactive)
ROOT
ATOM      1  C   UNL d   1       1.852   0.078   1.064  0.00  0.00     0.172 C 
ATOM      2  N   UNL d   1       0.893   0.960   1.686  0.00  0.00    -0.070 N 
ATOM      3  C1  UNL d   1      -0.415   0.656   1.953  0.00  0.00    -0.004 A 
ATOM      4  C2  UNL d   1      -0.992   1.757   2.548  0.00  0.00    -0.047 A 
ATOM      5  C3  UNL d   1       0.004   2.758   2.641  0.00  0.00    -0.047 A 
ATOM      6  C4  UNL d   1       1.161   2.238   2.100  0.00  0.00    -0.004 A 
ENDROOT
TORSDOF 0
ENDMDL
