MODEL 1
REMARK minimizedAffinity 2.96679258
REMARK minimizedRMSD -1
REMARK  0 active torsions:
REMARK  status: ('A' for Active; 'I' for Inactive)
ROOT
ATOM      1  C   UNL d   1       1.610  -0.026   1.447  0.00  0.00     0.172 C 
ATOM      2  N   UNL d   1       0.598   0.879   1.939  0.00  0.00    -0.070 N 
ATOM      3  C1  UNL d   1      -0.724   0.868   1.584  0.00  0.00    -0.004 A 
ATOM      4  C2  UNL d   1      -1.354   1.884   2.269  0.00  0.00    -0.047 A 
ATOM      5  C3  UNL d   1      -0.377   2.528   3.063  0.00  0.00    -0.047 A 
ATOM      6  C4  UNL d   1       0.823   1.886   2.840  0.00  0.00    -0.004 A 
ENDROOT
TORSDOF 0
ENDMDL
