MODEL 1
REMARK minimizedAffinity -5.85953426
REMARK minimizedRMSD -1
REMARK  2 active torsions:
REMARK  status: ('A' for Active; 'I' for Inactive)
REMARK    1  A    between atoms: C1_2  and  C2_3 
REMARK    2  A    between atoms: C2_3  and  C3_4 
ROOT
ATOM      1  C3  UNL d   1       1.131   0.464  -0.475  0.00  0.00    -0.075 A 
ATOM      2  C4  UNL d   1       0.199  -0.225   0.315  0.00  0.00     0.002 A 
ATOM      3  C5  UNL d   1      -1.160   0.083   0.239  0.00  0.00     0.002 A 
ATOM      4  C6  UNL d   1      -1.602   1.089  -0.617  0.00  0.00    -0.004 A 
ATOM      5  C7  UNL d   1      -0.683   1.792  -1.394  0.00  0.00     0.002 A 
ATOM      6  C8  UNL d   1       0.676   1.482  -1.323  0.00  0.00     0.002 A 
ENDROOT
BRANCH   1   7
ATOM      7  C2  UNL d   1       2.599   0.115  -0.419  0.00  0.00     0.056 C 
BRANCH   7   8
ATOM      8  C1  UNL d   1       3.127  -0.561  -1.688  0.00  0.00     0.007 C 
ATOM      9  C   UNL d   1       2.142  -1.551  -2.296  0.00  0.00     0.009 C 
ENDBRANCH   7   8
ENDBRANCH   1   7
TORSDOF 2
ENDMDL
