MODEL 1
REMARK minimizedAffinity -4.9488492
REMARK minimizedRMSD -1
REMARK  2 active torsions:
REMARK  status: ('A' for Active; 'I' for Inactive)
REMARK    1  A    between atoms: C1_2  and  C2_3 
REMARK    2  A    between atoms: C2_3  and  C3_4 
ROOT
ATOM      1  C3  UNL d   1       0.315   0.167  -0.663  0.00  0.00    -0.075 A 
ATOM      2  C4  UNL d   1       0.777   0.895  -1.769  0.00  0.00     0.002 A 
ATOM      3  C5  UNL d   1       1.951   0.519  -2.424  0.00  0.00     0.002 A 
ATOM      4  C6  UNL d   1       2.681  -0.580  -1.977  0.00  0.00    -0.004 A 
ATOM      5  C7  UNL d   1       2.240  -1.300  -0.869  0.00  0.00     0.002 A 
ATOM      6  C8  UNL d   1       1.064  -0.929  -0.214  0.00  0.00     0.002 A 
ENDROOT
BRANCH   1   7
ATOM      7  C2  UNL d   1      -0.969   0.550   0.032  0.00  0.00     0.056 C 
BRANCH   7   8
ATOM      8  C1  UNL d   1      -0.768   1.161   1.423  0.00  0.00     0.007 C 
ATOM      9  C   UNL d   1      -1.765   0.649   2.453  0.00  0.00     0.009 C 
ENDBRANCH   7   8
ENDBRANCH   1   7
TORSDOF 2
ENDMDL
