MODEL 1
REMARK minimizedAffinity -3.11164379
REMARK minimizedRMSD -1
REMARK  2 active torsions:
REMARK  status: ('A' for Active; 'I' for Inactive)
REMARK    1  A    between atoms: C1_2  and  C2_3 
REMARK    2  A    between atoms: C2_3  and  C3_4 
ROOT
ATOM      1  C3  UNL d   1      -0.328  -0.222   0.023  0.00  0.00    -0.075 A 
ATOM      2  C4  UNL d   1      -0.697  -1.572   0.109  0.00  0.00     0.002 A 
ATOM      3  C5  UNL d   1       0.148  -2.570  -0.377  0.00  0.00     0.002 A 
ATOM      4  C6  UNL d   1       1.365  -2.231  -0.964  0.00  0.00    -0.004 A 
ATOM      5  C7  UNL d   1       1.735  -0.892  -1.070  0.00  0.00     0.002 A 
ATOM      6  C8  UNL d   1       0.894   0.108  -0.580  0.00  0.00     0.002 A 
ENDROOT
BRANCH   1   7
ATOM      7  C2  UNL d   1      -1.224   0.862   0.574  0.00  0.00     0.056 C 
BRANCH   7   8
ATOM      8  C1  UNL d   1      -0.850   1.323   1.986  0.00  0.00     0.007 C 
ATOM      9  C   UNL d   1      -2.006   1.233   2.973  0.00  0.00     0.009 C 
ENDBRANCH   7   8
ENDBRANCH   1   7
TORSDOF 2
ENDMDL
