MODEL 1
REMARK minimizedAffinity -5.23318338
REMARK minimizedRMSD -1
REMARK  2 active torsions:
REMARK  status: ('A' for Active; 'I' for Inactive)
REMARK    1  A    between atoms: C1_2  and  C2_3 
REMARK    2  A    between atoms: C2_3  and  C3_4 
ROOT
ATOM      1  C3  UNL d   1       0.388  -0.208  -0.207  0.00  0.00    -0.075 A 
ATOM      2  C4  UNL d   1       1.506   0.490   0.273  0.00  0.00     0.002 A 
ATOM      3  C5  UNL d   1       2.777   0.230  -0.239  0.00  0.00     0.002 A 
ATOM      4  C6  UNL d   1       2.949  -0.735  -1.228  0.00  0.00    -0.004 A 
ATOM      5  C7  UNL d   1       1.849  -1.446  -1.701  0.00  0.00     0.002 A 
ATOM      6  C8  UNL d   1       0.575  -1.186  -1.194  0.00  0.00     0.002 A 
ENDROOT
BRANCH   1   7
ATOM      7  C2  UNL d   1      -0.994   0.089   0.322  0.00  0.00     0.056 C 
BRANCH   7   8
ATOM      8  C1  UNL d   1      -1.155  -0.165   1.824  0.00  0.00     0.007 C 
ATOM      9  C   UNL d   1      -1.617   1.065   2.595  0.00  0.00     0.009 C 
ENDBRANCH   7   8
ENDBRANCH   1   7
TORSDOF 2
ENDMDL
