MODEL 1
REMARK minimizedAffinity -4.48217487
REMARK minimizedRMSD -1
REMARK  2 active torsions:
REMARK  status: ('A' for Active; 'I' for Inactive)
REMARK    1  A    between atoms: C1_2  and  C2_3 
REMARK    2  A    between atoms: C2_3  and  C3_4 
ROOT
ATOM      1  C3  UNL d   1      -0.149   0.005   0.009  0.00  0.00    -0.075 A 
ATOM      2  C4  UNL d   1       1.091   0.662   0.024  0.00  0.00     0.002 A 
ATOM      3  C5  UNL d   1       2.247   0.002  -0.395  0.00  0.00     0.002 A 
ATOM      4  C6  UNL d   1       2.181  -1.321  -0.823  0.00  0.00    -0.004 A 
ATOM      5  C7  UNL d   1       0.958  -1.989  -0.827  0.00  0.00     0.002 A 
ATOM      6  C8  UNL d   1      -0.201  -1.330  -0.413  0.00  0.00     0.002 A 
ENDROOT
BRANCH   1   7
ATOM      7  C2  UNL d   1      -1.408   0.722   0.432  0.00  0.00     0.056 C 
BRANCH   7   8
ATOM      8  C1  UNL d   1      -1.979   0.242   1.771  0.00  0.00     0.007 C 
ATOM      9  C   UNL d   1      -1.991   1.325   2.841  0.00  0.00     0.009 C 
ENDBRANCH   7   8
ENDBRANCH   1   7
TORSDOF 2
ENDMDL
