MODEL 1
REMARK minimizedAffinity -3.44819951
REMARK minimizedRMSD -1
REMARK  2 active torsions:
REMARK  status: ('A' for Active; 'I' for Inactive)
REMARK    1  A    between atoms: C1_2  and  C2_3 
REMARK    2  A    between atoms: C2_3  and  C3_4 
ROOT
ATOM      1  C3  UNL d   1      -1.427   0.606   1.302  0.00  0.00    -0.075 A 
ATOM      2  C4  UNL d   1      -0.640   0.987   2.398  0.00  0.00     0.002 A 
ATOM      3  C5  UNL d   1      -1.162   0.952   3.692  0.00  0.00     0.002 A 
ATOM      4  C6  UNL d   1      -2.478   0.548   3.904  0.00  0.00    -0.004 A 
ATOM      5  C7  UNL d   1      -3.274   0.183   2.820  0.00  0.00     0.002 A 
ATOM      6  C8  UNL d   1      -2.753   0.212   1.526  0.00  0.00     0.002 A 
ENDROOT
BRANCH   1   7
ATOM      7  C2  UNL d   1      -0.858   0.613  -0.097  0.00  0.00     0.056 C 
BRANCH   7   8
ATOM      8  C1  UNL d   1       0.093  -0.553  -0.389  0.00  0.00     0.007 C 
ATOM      9  C   UNL d   1       1.563  -0.164  -0.307  0.00  0.00     0.009 C 
ENDBRANCH   7   8
ENDBRANCH   1   7
TORSDOF 2
ENDMDL
