MODEL 1
REMARK minimizedAffinity -5.03509426
REMARK minimizedRMSD -1
REMARK  2 active torsions:
REMARK  status: ('A' for Active; 'I' for Inactive)
REMARK    1  A    between atoms: C1_2  and  C2_3 
REMARK    2  A    between atoms: C2_3  and  C3_4 
ROOT
ATOM      1  C3  UNL d   1      -0.449   0.403   0.139  0.00  0.00    -0.075 A 
ATOM      2  C4  UNL d   1       0.503  -0.625   0.208  0.00  0.00     0.002 A 
ATOM      3  C5  UNL d   1       1.644  -0.588  -0.593  0.00  0.00     0.002 A 
ATOM      4  C6  UNL d   1       1.844   0.468  -1.478  0.00  0.00    -0.004 A 
ATOM      5  C7  UNL d   1       0.897   1.486  -1.568  0.00  0.00     0.002 A 
ATOM      6  C8  UNL d   1      -0.244   1.455  -0.764  0.00  0.00     0.002 A 
ENDROOT
BRANCH   1   7
ATOM      7  C2  UNL d   1      -1.672   0.384   1.025  0.00  0.00     0.056 C 
BRANCH   7   8
ATOM      8  C1  UNL d   1      -1.552   1.266   2.272  0.00  0.00     0.007 C 
ATOM      9  C   UNL d   1      -2.109   0.608   3.528  0.00  0.00     0.009 C 
ENDBRANCH   7   8
ENDBRANCH   1   7
TORSDOF 2
ENDMDL
