MODEL 1
REMARK minimizedAffinity -5.25491047
REMARK minimizedRMSD -1
REMARK  2 active torsions:
REMARK  status: ('A' for Active; 'I' for Inactive)
REMARK    1  A    between atoms: C1_2  and  C2_3 
REMARK    2  A    between atoms: C2_3  and  C3_4 
ROOT
ATOM      1  C3  UNL d   1      -0.212  -0.403   0.021  0.00  0.00    -0.075 A 
ATOM      2  C4  UNL d   1       0.779   0.519  -0.346  0.00  0.00     0.002 A 
ATOM      3  C5  UNL d   1       1.849   0.127  -1.151  0.00  0.00     0.002 A 
ATOM      4  C6  UNL d   1       1.947  -1.191  -1.590  0.00  0.00    -0.004 A 
ATOM      5  C7  UNL d   1       0.978  -2.120  -1.219  0.00  0.00     0.002 A 
ATOM      6  C8  UNL d   1      -0.096  -1.729  -0.417  0.00  0.00     0.002 A 
ENDROOT
BRANCH   1   7
ATOM      7  C2  UNL d   1      -1.387   0.023   0.867  0.00  0.00     0.056 C 
BRANCH   7   8
ATOM      8  C1  UNL d   1      -1.020   0.377   2.312  0.00  0.00     0.007 C 
ATOM      9  C   UNL d   1      -2.136   1.100   3.055  0.00  0.00     0.009 C 
ENDBRANCH   7   8
ENDBRANCH   1   7
TORSDOF 2
ENDMDL
