MODEL 1
REMARK minimizedAffinity -5.52077675
REMARK minimizedRMSD -1
REMARK  2 active torsions:
REMARK  status: ('A' for Active; 'I' for Inactive)
REMARK    1  A    between atoms: C1_2  and  C2_3 
REMARK    2  A    between atoms: C2_3  and  C3_4 
ROOT
ATOM      1  C3  UNL d   1       0.338  -0.480  -0.370  0.00  0.00    -0.075 A 
ATOM      2  C4  UNL d   1       0.707  -1.550  -1.198  0.00  0.00     0.002 A 
ATOM      3  C5  UNL d   1       1.902  -1.510  -1.918  0.00  0.00     0.002 A 
ATOM      4  C6  UNL d   1       2.736  -0.398  -1.828  0.00  0.00    -0.004 A 
ATOM      5  C7  UNL d   1       2.371   0.678  -1.022  0.00  0.00     0.002 A 
ATOM      6  C8  UNL d   1       1.179   0.639  -0.297  0.00  0.00     0.002 A 
ENDROOT
BRANCH   1   7
ATOM      7  C2  UNL d   1      -0.939  -0.529   0.434  0.00  0.00     0.056 C 
BRANCH   7   8
ATOM      8  C1  UNL d   1      -1.484   0.849   0.824  0.00  0.00     0.007 C 
ATOM      9  C   UNL d   1      -1.910   0.935   2.283  0.00  0.00     0.009 C 
ENDBRANCH   7   8
ENDBRANCH   1   7
TORSDOF 2
ENDMDL
