MODEL 1
REMARK minimizedAffinity -2.44798255
REMARK minimizedRMSD -1
REMARK  2 active torsions:
REMARK  status: ('A' for Active; 'I' for Inactive)
REMARK    1  A    between atoms: C1_2  and  C2_3 
REMARK    2  A    between atoms: C2_3  and  C3_4 
ROOT
ATOM      1  C3  UNL d   1      -1.006   0.702   0.595  0.00  0.00    -0.075 A 
ATOM      2  C4  UNL d   1      -1.027   1.772  -0.311  0.00  0.00     0.002 A 
ATOM      3  C5  UNL d   1       0.120   2.117  -1.027  0.00  0.00     0.002 A 
ATOM      4  C6  UNL d   1       1.303   1.406  -0.839  0.00  0.00    -0.004 A 
ATOM      5  C7  UNL d   1       1.340   0.352   0.071  0.00  0.00     0.002 A 
ATOM      6  C8  UNL d   1       0.193   0.001   0.785  0.00  0.00     0.002 A 
ENDROOT
BRANCH   1   7
ATOM      7  C2  UNL d   1      -2.251   0.304   1.350  0.00  0.00     0.056 C 
BRANCH   7   8
ATOM      8  C1  UNL d   1      -2.581   1.219   2.534  0.00  0.00     0.007 C 
ATOM      9  C   UNL d   1      -1.882   0.808   3.823  0.00  0.00     0.009 C 
ENDBRANCH   7   8
ENDBRANCH   1   7
TORSDOF 2
ENDMDL
