MODEL 1
REMARK minimizedAffinity -4.25062466
REMARK minimizedRMSD -1
REMARK  2 active torsions:
REMARK  status: ('A' for Active; 'I' for Inactive)
REMARK    1  A    between atoms: C1_2  and  C2_3 
REMARK    2  A    between atoms: C2_3  and  C3_4 
ROOT
ATOM      1  C3  UNL d   1       0.991   1.051  -0.697  0.00  0.00    -0.075 A 
ATOM      2  C4  UNL d   1       0.403   2.170  -1.304  0.00  0.00     0.002 A 
ATOM      3  C5  UNL d   1       0.833   2.605  -2.558  0.00  0.00     0.002 A 
ATOM      4  C6  UNL d   1       1.862   1.934  -3.216  0.00  0.00    -0.004 A 
ATOM      5  C7  UNL d   1       2.465   0.832  -2.615  0.00  0.00     0.002 A 
ATOM      6  C8  UNL d   1       2.034   0.392  -1.362  0.00  0.00     0.002 A 
ENDROOT
BRANCH   1   7
ATOM      7  C2  UNL d   1       0.510   0.558   0.646  0.00  0.00     0.056 C 
BRANCH   7   8
ATOM      8  C1  UNL d   1      -0.800  -0.233   0.588  0.00  0.00     0.007 C 
ATOM      9  C   UNL d   1      -0.658  -1.578  -0.112  0.00  0.00     0.009 C 
ENDBRANCH   7   8
ENDBRANCH   1   7
TORSDOF 2
ENDMDL
