MODEL 1
REMARK minimizedAffinity 0.927929282
REMARK minimizedRMSD -1
REMARK  2 active torsions:
REMARK  status: ('A' for Active; 'I' for Inactive)
REMARK    1  A    between atoms: C1_2  and  C2_3 
REMARK    2  A    between atoms: C2_3  and  C3_4 
ROOT
ATOM      1  C3  UNL d   1       1.214   0.454  -0.411  0.00  0.00    -0.075 A 
ATOM      2  C4  UNL d   1       0.814   1.542  -1.200  0.00  0.00     0.002 A 
ATOM      3  C5  UNL d   1      -0.541   1.818  -1.391  0.00  0.00     0.002 A 
ATOM      4  C6  UNL d   1      -1.509   1.006  -0.805  0.00  0.00    -0.004 A 
ATOM      5  C7  UNL d   1      -1.123  -0.087  -0.032  0.00  0.00     0.002 A 
ATOM      6  C8  UNL d   1       0.231  -0.363   0.164  0.00  0.00     0.002 A 
ENDROOT
BRANCH   1   7
ATOM      7  C2  UNL d   1       2.678   0.167  -0.177  0.00  0.00     0.056 C 
BRANCH   7   8
ATOM      8  C1  UNL d   1       3.358  -0.586  -1.325  0.00  0.00     0.007 C 
ATOM      9  C   UNL d   1       2.396  -1.453  -2.127  0.00  0.00     0.009 C 
ENDBRANCH   7   8
ENDBRANCH   1   7
TORSDOF 2
ENDMDL
