MODEL 1
REMARK minimizedAffinity -3.13316154
REMARK minimizedRMSD -1
REMARK  2 active torsions:
REMARK  status: ('A' for Active; 'I' for Inactive)
REMARK    1  A    between atoms: C1_2  and  C2_3 
REMARK    2  A    between atoms: C2_3  and  C3_4 
ROOT
ATOM      1  C3  UNL d   1       0.494   0.205  -0.181  0.00  0.00    -0.075 A 
ATOM      2  C4  UNL d   1       1.284   1.186  -0.797  0.00  0.00     0.002 A 
ATOM      3  C5  UNL d   1       2.265   0.827  -1.723  0.00  0.00     0.002 A 
ATOM      4  C6  UNL d   1       2.474  -0.514  -2.035  0.00  0.00    -0.004 A 
ATOM      5  C7  UNL d   1       1.706  -1.499  -1.417  0.00  0.00     0.002 A 
ATOM      6  C8  UNL d   1       0.721  -1.142  -0.494  0.00  0.00     0.002 A 
ENDROOT
BRANCH   1   7
ATOM      7  C2  UNL d   1      -0.589   0.588   0.799  0.00  0.00     0.056 C 
BRANCH   7   8
ATOM      8  C1  UNL d   1      -0.529  -0.176   2.126  0.00  0.00     0.007 C 
ATOM      9  C   UNL d   1      -1.575   0.284   3.132  0.00  0.00     0.009 C 
ENDBRANCH   7   8
ENDBRANCH   1   7
TORSDOF 2
ENDMDL
