MODEL 1
REMARK minimizedAffinity -3.55030823
REMARK minimizedRMSD -1
REMARK  1 active torsions:
REMARK  status: ('A' for Active; 'I' for Inactive)
REMARK    1  A    between atoms: C1_2  and  C2_3 
ROOT
ATOM      1  C2  UNL d   1       0.103  -0.478   1.216  0.00  0.00    -0.073 A 
ATOM      2  C3  UNL d   1      -0.986   0.167   0.618  0.00  0.00    -0.002 A 
ATOM      3  C4  UNL d   1      -1.098   0.218  -0.772  0.00  0.00     0.004 A 
ATOM      4  C5  UNL d   1      -0.130  -0.381  -1.578  0.00  0.00    -0.004 A 
ATOM      5  C6  UNL d   1       0.959  -1.041  -0.999  0.00  0.00    -0.075 A 
ATOM      6  C7  UNL d   1       2.011  -1.688  -1.851  0.00  0.00     0.076 C 
ATOM      7  C8  UNL d   1       1.067  -1.085   0.398  0.00  0.00     0.001 A 
ENDROOT
BRANCH   1   8
ATOM      8  C1  UNL d   1       0.226  -0.540   2.716  0.00  0.00     0.053 C 
ATOM      9  C   UNL d   1       1.632  -0.206   3.187  0.00  0.00     0.018 C 
ENDBRANCH   1   8
TORSDOF 1
ENDMDL
