MODEL 1
REMARK minimizedAffinity 1.46272767
REMARK minimizedRMSD -1
REMARK  1 active torsions:
REMARK  status: ('A' for Active; 'I' for Inactive)
REMARK    1  A    between atoms: C1_2  and  C2_3 
ROOT
ATOM      1  C2  UNL d   1       1.090  -0.724   1.066  0.00  0.00    -0.073 A 
ATOM      2  C3  UNL d   1       2.080  -1.153   0.175  0.00  0.00    -0.002 A 
ATOM      3  C4  UNL d   1       2.033  -0.772  -1.167  0.00  0.00     0.004 A 
ATOM      4  C5  UNL d   1       1.002   0.045  -1.630  0.00  0.00    -0.004 A 
ATOM      5  C6  UNL d   1       0.010   0.493  -0.752  0.00  0.00    -0.075 A 
ATOM      6  C7  UNL d   1      -1.108   1.371  -1.234  0.00  0.00     0.076 C 
ATOM      7  C8  UNL d   1       0.062   0.104   0.594  0.00  0.00     0.001 A 
ENDROOT
BRANCH   1   8
ATOM      8  C1  UNL d   1       1.140  -1.127   2.517  0.00  0.00     0.053 C 
ATOM      9  C   UNL d   1       0.221  -2.302   2.814  0.00  0.00     0.018 C 
ENDBRANCH   1   8
TORSDOF 1
ENDMDL
