MODEL 1
REMARK minimizedAffinity -3.91194105
REMARK minimizedRMSD -1
REMARK  1 active torsions:
REMARK  status: ('A' for Active; 'I' for Inactive)
REMARK    1  A    between atoms: C1_2  and  C2_3 
ROOT
ATOM      1  C2  UNL d   1       0.739  -0.643   1.515  0.00  0.00    -0.073 A 
ATOM      2  C3  UNL d   1       1.307  -0.612   0.236  0.00  0.00    -0.002 A 
ATOM      3  C4  UNL d   1       0.494  -0.669  -0.897  0.00  0.00     0.004 A 
ATOM      4  C5  UNL d   1      -0.891  -0.751  -0.764  0.00  0.00    -0.004 A 
ATOM      5  C6  UNL d   1      -1.478  -0.772   0.506  0.00  0.00    -0.075 A 
ATOM      6  C7  UNL d   1      -2.967  -0.863   0.666  0.00  0.00     0.076 C 
ATOM      7  C8  UNL d   1      -0.656  -0.717   1.639  0.00  0.00     0.001 A 
ENDROOT
BRANCH   1   8
ATOM      8  C1  UNL d   1       1.612  -0.575   2.742  0.00  0.00     0.053 C 
ATOM      9  C   UNL d   1       1.134  -1.518   3.835  0.00  0.00     0.018 C 
ENDBRANCH   1   8
TORSDOF 1
ENDMDL
