MODEL 1
REMARK minimizedAffinity -4.31107855
REMARK minimizedRMSD -1
REMARK  1 active torsions:
REMARK  status: ('A' for Active; 'I' for Inactive)
REMARK    1  A    between atoms: C1_2  and  C2_3 
ROOT
ATOM      1  C2  UNL d   1      -0.251  -0.070   0.243  0.00  0.00    -0.073 A 
ATOM      2  C3  UNL d   1       0.518  -1.069  -0.364  0.00  0.00    -0.002 A 
ATOM      3  C4  UNL d   1       0.721  -1.060  -1.745  0.00  0.00     0.004 A 
ATOM      4  C5  UNL d   1       0.164  -0.051  -2.530  0.00  0.00    -0.004 A 
ATOM      5  C6  UNL d   1      -0.598   0.962  -1.940  0.00  0.00    -0.075 A 
ATOM      6  C7  UNL d   1      -1.206   2.054  -2.771  0.00  0.00     0.076 C 
ATOM      7  C8  UNL d   1      -0.799   0.945  -0.553  0.00  0.00     0.001 A 
ENDROOT
BRANCH   1   8
ATOM      8  C1  UNL d   1      -0.468  -0.072   1.735  0.00  0.00     0.053 C 
ATOM      9  C   UNL d   1       0.684  -0.729   2.478  0.00  0.00     0.018 C 
ENDBRANCH   1   8
TORSDOF 1
ENDMDL
