MODEL 1
REMARK minimizedAffinity -0.349778295
REMARK minimizedRMSD -1
REMARK  1 active torsions:
REMARK  status: ('A' for Active; 'I' for Inactive)
REMARK    1  A    between atoms: C1_2  and  C2_3 
ROOT
ATOM      1  C2  UNL d   1       2.101  -1.159   0.027  0.00  0.00    -0.073 A 
ATOM      2  C3  UNL d   1       0.785  -1.634   0.000  0.00  0.00    -0.002 A 
ATOM      3  C4  UNL d   1       0.389  -2.559  -0.967  0.00  0.00     0.004 A 
ATOM      4  C5  UNL d   1       1.305  -3.022  -1.911  0.00  0.00    -0.004 A 
ATOM      5  C6  UNL d   1       2.627  -2.569  -1.893  0.00  0.00    -0.075 A 
ATOM      6  C7  UNL d   1       3.624  -3.056  -2.904  0.00  0.00     0.076 C 
ATOM      7  C8  UNL d   1       3.017  -1.638  -0.921  0.00  0.00     0.001 A 
ENDROOT
BRANCH   1   8
ATOM      8  C1  UNL d   1       2.535  -0.166   1.074  0.00  0.00     0.053 C 
ATOM      9  C   UNL d   1       1.829   1.172   0.918  0.00  0.00     0.018 C 
ENDBRANCH   1   8
TORSDOF 1
ENDMDL
