MODEL 1
REMARK minimizedAffinity 3.86028147
REMARK minimizedRMSD -1
REMARK  1 active torsions:
REMARK  status: ('A' for Active; 'I' for Inactive)
REMARK    1  A    between atoms: C1_2  and  C2_3 
ROOT
ATOM      1  C2  UNL d   1       0.169   2.010   1.132  0.00  0.00    -0.073 A 
ATOM      2  C3  UNL d   1       0.536   1.479   2.373  0.00  0.00    -0.002 A 
ATOM      3  C4  UNL d   1      -0.440   1.126   3.305  0.00  0.00     0.004 A 
ATOM      4  C5  UNL d   1      -1.792   1.294   3.004  0.00  0.00    -0.004 A 
ATOM      5  C6  UNL d   1      -2.179   1.812   1.764  0.00  0.00    -0.075 A 
ATOM      6  C7  UNL d   1      -3.629   2.002   1.426  0.00  0.00     0.076 C 
ATOM      7  C8  UNL d   1      -1.193   2.167   0.835  0.00  0.00     0.001 A 
ENDROOT
BRANCH   1   8
ATOM      8  C1  UNL d   1       1.219   2.387   0.119  0.00  0.00     0.053 C 
ATOM      9  C   UNL d   1       2.481   2.920   0.779  0.00  0.00     0.018 C 
ENDBRANCH   1   8
TORSDOF 1
ENDMDL
