MODEL 1
REMARK minimizedAffinity 12.2980852
REMARK minimizedRMSD -1
REMARK  1 active torsions:
REMARK  status: ('A' for Active; 'I' for Inactive)
REMARK    1  A    between atoms: C1_2  and  C2_3 
ROOT
ATOM      1  C2  UNL d   1      -0.627  -2.300  -2.152  0.00  0.00    -0.073 A 
ATOM      2  C3  UNL d   1      -1.174  -1.014  -2.068  0.00  0.00    -0.002 A 
ATOM      3  C4  UNL d   1      -0.617  -0.066  -1.208  0.00  0.00     0.004 A 
ATOM      4  C5  UNL d   1       0.494  -0.391  -0.430  0.00  0.00    -0.004 A 
ATOM      5  C6  UNL d   1       1.062  -1.666  -0.509  0.00  0.00    -0.075 A 
ATOM      6  C7  UNL d   1       2.256  -2.032   0.324  0.00  0.00     0.076 C 
ATOM      7  C8  UNL d   1       0.496  -2.614  -1.372  0.00  0.00     0.001 A 
ENDROOT
BRANCH   1   8
ATOM      8  C1  UNL d   1      -1.220  -3.325  -3.084  0.00  0.00     0.053 C 
ATOM      9  C   UNL d   1      -0.996  -2.965  -4.544  0.00  0.00     0.018 C 
ENDBRANCH   1   8
TORSDOF 1
ENDMDL
