MODEL 1
REMARK minimizedAffinity 3.77042413
REMARK minimizedRMSD -1
REMARK  1 active torsions:
REMARK  status: ('A' for Active; 'I' for Inactive)
REMARK    1  A    between atoms: C1_2  and  C2_3 
ROOT
ATOM      1  C2  UNL d   1      -5.511   2.730   0.369  0.00  0.00    -0.081 A 
ATOM      2  C3  UNL d   1      -5.758   2.805  -1.007  0.00  0.00     0.006 A 
ATOM      3  C4  UNL d   1      -5.253   3.868  -1.760  0.00  0.00     0.002 A 
ATOM      4  C5  UNL d   1      -4.487   4.869  -1.151  0.00  0.00    -0.080 A 
ATOM      5  C6  UNL d   1      -3.914   5.999  -1.953  0.00  0.00     0.076 C 
ATOM      6  C7  UNL d   1      -4.256   4.803   0.227  0.00  0.00     0.002 A 
ATOM      7  C8  UNL d   1      -4.761   3.741   0.980  0.00  0.00     0.006 A 
ENDROOT
BRANCH   1   8
ATOM      8  C1  UNL d   1      -5.999   1.551   1.172  0.00  0.00     0.054 C 
ATOM      9  C   UNL d   1      -5.955   0.268   0.354  0.00  0.00     0.018 C 
ENDBRANCH   1   8
TORSDOF 1
ENDMDL
