MODEL 1
REMARK minimizedAffinity 9.80342197
REMARK minimizedRMSD -1
REMARK  1 active torsions:
REMARK  status: ('A' for Active; 'I' for Inactive)
REMARK    1  A    between atoms: C1_2  and  C2_3 
ROOT
ATOM      1  C2  UNL d   1       0.641   4.915  -4.463  0.00  0.00    -0.081 A 
ATOM      2  C3  UNL d   1       1.926   4.689  -3.954  0.00  0.00     0.006 A 
ATOM      3  C4  UNL d   1       2.140   3.706  -2.985  0.00  0.00     0.002 A 
ATOM      4  C5  UNL d   1       1.077   2.928  -2.515  0.00  0.00    -0.080 A 
ATOM      5  C6  UNL d   1       1.299   1.849  -1.498  0.00  0.00     0.076 C 
ATOM      6  C7  UNL d   1      -0.210   3.166  -3.011  0.00  0.00     0.002 A 
ATOM      7  C8  UNL d   1      -0.425   4.149  -3.979  0.00  0.00     0.006 A 
ENDROOT
BRANCH   1   8
ATOM      8  C1  UNL d   1       0.417   5.931  -5.554  0.00  0.00     0.054 C 
ATOM      9  C   UNL d   1      -1.039   5.953  -5.999  0.00  0.00     0.018 C 
ENDBRANCH   1   8
TORSDOF 1
ENDMDL
