MODEL 1
REMARK minimizedAffinity 10.0290699
REMARK minimizedRMSD -1
REMARK  1 active torsions:
REMARK  status: ('A' for Active; 'I' for Inactive)
REMARK    1  A    between atoms: C1_2  and  C2_3 
ROOT
ATOM      1  C2  UNL d   1       1.515   3.664  -3.425  0.00  0.00    -0.081 A 
ATOM      2  C3  UNL d   1       1.757   5.014  -3.707  0.00  0.00     0.006 A 
ATOM      3  C4  UNL d   1       0.898   5.727  -4.548  0.00  0.00     0.002 A 
ATOM      4  C5  UNL d   1      -0.220   5.105  -5.113  0.00  0.00    -0.080 A 
ATOM      5  C6  UNL d   1      -1.166   5.867  -5.993  0.00  0.00     0.076 C 
ATOM      6  C7  UNL d   1      -0.452   3.752  -4.845  0.00  0.00     0.002 A 
ATOM      7  C8  UNL d   1       0.407   3.038  -4.006  0.00  0.00     0.006 A 
ENDROOT
BRANCH   1   8
ATOM      8  C1  UNL d   1       2.402   2.910  -2.468  0.00  0.00     0.054 C 
ATOM      9  C   UNL d   1       1.874   1.506  -2.213  0.00  0.00     0.018 C 
ENDBRANCH   1   8
TORSDOF 1
ENDMDL
