MODEL 1
REMARK minimizedAffinity 9.52211952
REMARK minimizedRMSD -1
REMARK  1 active torsions:
REMARK  status: ('A' for Active; 'I' for Inactive)
REMARK    1  A    between atoms: C1_2  and  C2_3 
ROOT
ATOM      1  C2  UNL d   1      -5.846   1.518  -3.530  0.00  0.00    -0.081 A 
ATOM      2  C3  UNL d   1      -5.867   0.152  -3.838  0.00  0.00     0.006 A 
ATOM      3  C4  UNL d   1      -5.786  -0.804  -2.823  0.00  0.00     0.002 A 
ATOM      4  C5  UNL d   1      -5.691  -0.411  -1.484  0.00  0.00    -0.080 A 
ATOM      5  C6  UNL d   1      -5.634  -1.428  -0.382  0.00  0.00     0.076 C 
ATOM      6  C7  UNL d   1      -5.652   0.953  -1.177  0.00  0.00     0.002 A 
ATOM      7  C8  UNL d   1      -5.732   1.910  -2.191  0.00  0.00     0.006 A 
ENDROOT
BRANCH   1   8
ATOM      8  C1  UNL d   1      -5.998   2.552  -4.617  0.00  0.00     0.054 C 
ATOM      9  C   UNL d   1      -5.884   1.923  -5.998  0.00  0.00     0.018 C 
ENDBRANCH   1   8
TORSDOF 1
ENDMDL
