MODEL 1
REMARK minimizedAffinity 1.83316886
REMARK minimizedRMSD -1
REMARK  1 active torsions:
REMARK  status: ('A' for Active; 'I' for Inactive)
REMARK    1  A    between atoms: C1_2  and  C2_3 
ROOT
ATOM      1  C2  UNL d   1      -5.668   2.466  -2.335  0.00  0.00    -0.081 A 
ATOM      2  C3  UNL d   1      -4.986   3.658  -2.608  0.00  0.00     0.006 A 
ATOM      3  C4  UNL d   1      -4.632   4.524  -1.570  0.00  0.00     0.002 A 
ATOM      4  C5  UNL d   1      -4.947   4.209  -0.244  0.00  0.00    -0.080 A 
ATOM      5  C6  UNL d   1      -4.545   5.115   0.882  0.00  0.00     0.076 C 
ATOM      6  C7  UNL d   1      -5.643   3.027   0.026  0.00  0.00     0.002 A 
ATOM      7  C8  UNL d   1      -5.998   2.161  -1.011  0.00  0.00     0.006 A 
ENDROOT
BRANCH   1   8
ATOM      8  C1  UNL d   1      -5.994   1.499  -3.445  0.00  0.00     0.054 C 
ATOM      9  C   UNL d   1      -5.885   0.057  -2.972  0.00  0.00     0.018 C 
ENDBRANCH   1   8
TORSDOF 1
ENDMDL
