MODEL 1
REMARK minimizedAffinity 4.63174582
REMARK minimizedRMSD -1
REMARK  1 active torsions:
REMARK  status: ('A' for Active; 'I' for Inactive)
REMARK    1  A    between atoms: C1_2  and  C2_3 
ROOT
ATOM      1  C2  UNL d   1       0.710   4.737  -4.627  0.00  0.00    -0.081 A 
ATOM      2  C3  UNL d   1       1.917   4.841  -3.925  0.00  0.00     0.006 A 
ATOM      3  C4  UNL d   1       2.163   4.029  -2.815  0.00  0.00     0.002 A 
ATOM      4  C5  UNL d   1       1.211   3.094  -2.394  0.00  0.00    -0.080 A 
ATOM      5  C6  UNL d   1       1.476   2.195  -1.223  0.00  0.00     0.076 C 
ATOM      6  C7  UNL d   1      -0.002   3.002  -3.085  0.00  0.00     0.002 A 
ATOM      7  C8  UNL d   1      -0.249   3.814  -4.194  0.00  0.00     0.006 A 
ENDROOT
BRANCH   1   8
ATOM      8  C1  UNL d   1       0.467   5.565  -5.862  0.00  0.00     0.054 C 
ATOM      9  C   UNL d   1      -1.001   5.941  -5.997  0.00  0.00     0.018 C 
ENDBRANCH   1   8
TORSDOF 1
ENDMDL
