MODEL 1
REMARK minimizedAffinity 0.215017363
REMARK minimizedRMSD -1
REMARK  1 active torsions:
REMARK  status: ('A' for Active; 'I' for Inactive)
REMARK    1  A    between atoms: C1_2  and  C2_3 
ROOT
ATOM      1  C2  UNL d   1       0.880   4.165  -4.010  0.00  0.00    -0.081 A 
ATOM      2  C3  UNL d   1       0.067   3.073  -3.685  0.00  0.00     0.006 A 
ATOM      3  C4  UNL d   1       0.328   2.310  -2.544  0.00  0.00     0.002 A 
ATOM      4  C5  UNL d   1       1.402   2.631  -1.706  0.00  0.00    -0.080 A 
ATOM      5  C6  UNL d   1       1.676   1.838  -0.463  0.00  0.00     0.076 C 
ATOM      6  C7  UNL d   1       2.225   3.711  -2.041  0.00  0.00     0.002 A 
ATOM      7  C8  UNL d   1       1.964   4.474  -3.181  0.00  0.00     0.006 A 
ENDROOT
BRANCH   1   8
ATOM      8  C1  UNL d   1       0.562   5.029  -5.203  0.00  0.00     0.054 C 
ATOM      9  C   UNL d   1      -0.941   5.192  -5.384  0.00  0.00     0.018 C 
ENDBRANCH   1   8
TORSDOF 1
ENDMDL
