MODEL 1
REMARK minimizedAffinity -2.07590938
REMARK minimizedRMSD -1
REMARK  1 active torsions:
REMARK  status: ('A' for Active; 'I' for Inactive)
REMARK    1  A    between atoms: C1_2  and  C2_3 
ROOT
ATOM      1  C2  UNL d   1      -4.644  -0.124   1.959  0.00  0.00    -0.081 A 
ATOM      2  C3  UNL d   1      -4.374  -1.263   1.190  0.00  0.00     0.006 A 
ATOM      3  C4  UNL d   1      -3.138  -1.906   1.288  0.00  0.00     0.002 A 
ATOM      4  C5  UNL d   1      -2.156  -1.428   2.162  0.00  0.00    -0.080 A 
ATOM      5  C6  UNL d   1      -0.836  -2.127   2.299  0.00  0.00     0.076 C 
ATOM      6  C7  UNL d   1      -2.419  -0.280   2.917  0.00  0.00     0.002 A 
ATOM      7  C8  UNL d   1      -3.655   0.364   2.819  0.00  0.00     0.006 A 
ENDROOT
BRANCH   1   8
ATOM      8  C1  UNL d   1      -5.999   0.534   1.903  0.00  0.00     0.054 C 
ATOM      9  C   UNL d   1      -5.940   1.860   1.159  0.00  0.00     0.018 C 
ENDBRANCH   1   8
TORSDOF 1
ENDMDL
