MODEL 1
REMARK minimizedAffinity 5.20014429
REMARK minimizedRMSD -1
REMARK  1 active torsions:
REMARK  status: ('A' for Active; 'I' for Inactive)
REMARK    1  A    between atoms: C1_2  and  C2_3 
ROOT
ATOM      1  C2  UNL d   1      -3.947  -1.098   1.098  0.00  0.00    -0.081 A 
ATOM      2  C3  UNL d   1      -4.779  -0.337   1.928  0.00  0.00     0.006 A 
ATOM      3  C4  UNL d   1      -4.356   0.033   3.207  0.00  0.00     0.002 A 
ATOM      4  C5  UNL d   1      -3.092  -0.345   3.674  0.00  0.00    -0.080 A 
ATOM      5  C6  UNL d   1      -2.614   0.071   5.033  0.00  0.00     0.076 C 
ATOM      6  C7  UNL d   1      -2.268  -1.121   2.851  0.00  0.00     0.002 A 
ATOM      7  C8  UNL d   1      -2.691  -1.491   1.573  0.00  0.00     0.006 A 
ENDROOT
BRANCH   1   8
ATOM      8  C1  UNL d   1      -4.374  -1.444  -0.306  0.00  0.00     0.054 C 
ATOM      9  C   UNL d   1      -3.252  -1.194  -1.303  0.00  0.00     0.018 C 
ENDBRANCH   1   8
TORSDOF 1
ENDMDL
