MODEL 1
REMARK minimizedAffinity 1.86658275
REMARK minimizedRMSD -1
REMARK  1 active torsions:
REMARK  status: ('A' for Active; 'I' for Inactive)
REMARK    1  A    between atoms: C1_2  and  C2_3 
ROOT
ATOM      1  C2  UNL d   1       1.263   3.555  -2.422  0.00  0.00    -0.081 A 
ATOM      2  C3  UNL d   1       2.346   4.204  -3.027  0.00  0.00     0.006 A 
ATOM      3  C4  UNL d   1       2.162   4.957  -4.189  0.00  0.00     0.002 A 
ATOM      4  C5  UNL d   1       0.891   5.079  -4.761  0.00  0.00    -0.080 A 
ATOM      5  C6  UNL d   1       0.675   5.909  -5.992  0.00  0.00     0.076 C 
ATOM      6  C7  UNL d   1      -0.188   4.416  -4.168  0.00  0.00     0.002 A 
ATOM      7  C8  UNL d   1      -0.004   3.663  -3.006  0.00  0.00     0.006 A 
ENDROOT
BRANCH   1   8
ATOM      8  C1  UNL d   1       1.447   2.796  -1.133  0.00  0.00     0.054 C 
ATOM      9  C   UNL d   1       1.619   1.305  -1.388  0.00  0.00     0.018 C 
ENDBRANCH   1   8
TORSDOF 1
ENDMDL
