MODEL 1
REMARK minimizedAffinity 0.819689751
REMARK minimizedRMSD -1
REMARK  1 active torsions:
REMARK  status: ('A' for Active; 'I' for Inactive)
REMARK    1  A    between atoms: C1_2  and  C2_3 
ROOT
ATOM      1  C2  UNL d   1      -5.936   1.120  -3.385  0.00  0.00    -0.081 A 
ATOM      2  C3  UNL d   1      -5.880   0.702  -4.720  0.00  0.00     0.006 A 
ATOM      3  C4  UNL d   1      -5.888  -0.659  -5.036  0.00  0.00     0.002 A 
ATOM      4  C5  UNL d   1      -5.959  -1.622  -4.025  0.00  0.00    -0.080 A 
ATOM      5  C6  UNL d   1      -5.999  -3.085  -4.353  0.00  0.00     0.076 C 
ATOM      6  C7  UNL d   1      -5.998  -1.205  -2.690  0.00  0.00     0.002 A 
ATOM      7  C8  UNL d   1      -5.990   0.155  -2.373  0.00  0.00     0.006 A 
ENDROOT
BRANCH   1   8
ATOM      8  C1  UNL d   1      -5.994   2.588  -3.044  0.00  0.00     0.054 C 
ATOM      9  C   UNL d   1      -5.971   2.806  -1.538  0.00  0.00     0.018 C 
ENDBRANCH   1   8
TORSDOF 1
ENDMDL
