MODEL 1
REMARK minimizedAffinity 4.82382441
REMARK minimizedRMSD -1
REMARK  1 active torsions:
REMARK  status: ('A' for Active; 'I' for Inactive)
REMARK    1  A    between atoms: C1_2  and  C2_3 
ROOT
ATOM      1  C2  UNL d   1      -3.680  -1.157   1.790  0.00  0.00    -0.081 A 
ATOM      2  C3  UNL d   1      -3.091  -1.833   0.714  0.00  0.00     0.006 A 
ATOM      3  C4  UNL d   1      -3.583  -1.665  -0.582  0.00  0.00     0.002 A 
ATOM      4  C5  UNL d   1      -4.666  -0.814  -0.825  0.00  0.00    -0.080 A 
ATOM      5  C6  UNL d   1      -5.185  -0.601  -2.217  0.00  0.00     0.076 C 
ATOM      6  C7  UNL d   1      -5.266  -0.152   0.252  0.00  0.00     0.002 A 
ATOM      7  C8  UNL d   1      -4.775  -0.320   1.548  0.00  0.00     0.006 A 
ENDROOT
BRANCH   1   8
ATOM      8  C1  UNL d   1      -3.111  -1.286   3.180  0.00  0.00     0.054 C 
ATOM      9  C   UNL d   1      -1.919  -0.360   3.378  0.00  0.00     0.018 C 
ENDBRANCH   1   8
TORSDOF 1
ENDMDL
