MODEL 1
REMARK minimizedAffinity 4.70400143
REMARK minimizedRMSD -1
REMARK  1 active torsions:
REMARK  status: ('A' for Active; 'I' for Inactive)
REMARK    1  A    between atoms: C1_2  and  C2_3 
ROOT
ATOM      1  C2  UNL d   1       0.511   4.782  -4.811  0.00  0.00    -0.081 A 
ATOM      2  C3  UNL d   1      -0.379   3.782  -4.400  0.00  0.00     0.006 A 
ATOM      3  C4  UNL d   1      -0.074   2.969  -3.306  0.00  0.00     0.002 A 
ATOM      4  C5  UNL d   1       1.121   3.147  -2.600  0.00  0.00    -0.080 A 
ATOM      5  C6  UNL d   1       1.447   2.301  -1.405  0.00  0.00     0.076 C 
ATOM      6  C7  UNL d   1       2.018   4.135  -3.021  0.00  0.00     0.002 A 
ATOM      7  C8  UNL d   1       1.714   4.948  -4.115  0.00  0.00     0.006 A 
ENDROOT
BRANCH   1   8
ATOM      8  C1  UNL d   1       0.155   5.703  -5.950  0.00  0.00     0.054 C 
ATOM      9  C   UNL d   1      -1.342   5.970  -5.999  0.00  0.00     0.018 C 
ENDBRANCH   1   8
TORSDOF 1
ENDMDL
