MODEL 1
REMARK minimizedAffinity 7.54662037
REMARK minimizedRMSD -1
REMARK  1 active torsions:
REMARK  status: ('A' for Active; 'I' for Inactive)
REMARK    1  A    between atoms: C1_2  and  C2_3 
ROOT
ATOM      1  C2  UNL d   1      -5.539   2.089  -2.439  0.00  0.00    -0.081 A 
ATOM      2  C3  UNL d   1      -5.833   2.696  -3.666  0.00  0.00     0.006 A 
ATOM      3  C4  UNL d   1      -5.971   1.925  -4.823  0.00  0.00     0.002 A 
ATOM      4  C5  UNL d   1      -5.825   0.535  -4.771  0.00  0.00    -0.080 A 
ATOM      5  C6  UNL d   1      -6.000  -0.307  -6.000  0.00  0.00     0.076 C 
ATOM      6  C7  UNL d   1      -5.514  -0.070  -3.549  0.00  0.00     0.002 A 
ATOM      7  C8  UNL d   1      -5.376   0.700  -2.392  0.00  0.00     0.006 A 
ENDROOT
BRANCH   1   8
ATOM      8  C1  UNL d   1      -5.454   2.910  -1.178  0.00  0.00     0.054 C 
ATOM      9  C   UNL d   1      -4.570   4.134  -1.374  0.00  0.00     0.018 C 
ENDBRANCH   1   8
TORSDOF 1
ENDMDL
