MODEL 1
REMARK minimizedAffinity 7.39389372
REMARK minimizedRMSD -1
REMARK  1 active torsions:
REMARK  status: ('A' for Active; 'I' for Inactive)
REMARK    1  A    between atoms: C1_2  and  C2_3 
ROOT
ATOM      1  C2  UNL d   1      -1.821  -3.351   1.569  0.00  0.00    -0.081 A 
ATOM      2  C3  UNL d   1      -0.743  -4.164   1.201  0.00  0.00     0.006 A 
ATOM      3  C4  UNL d   1       0.543  -3.895   1.677  0.00  0.00     0.002 A 
ATOM      4  C5  UNL d   1       0.770  -2.813   2.535  0.00  0.00    -0.080 A 
ATOM      5  C6  UNL d   1       2.139  -2.530   3.077  0.00  0.00     0.076 C 
ATOM      6  C7  UNL d   1      -0.305  -1.990   2.889  0.00  0.00     0.002 A 
ATOM      7  C8  UNL d   1      -1.590  -2.258   2.413  0.00  0.00     0.006 A 
ENDROOT
BRANCH   1   8
ATOM      8  C1  UNL d   1      -3.219  -3.677   1.110  0.00  0.00     0.054 C 
ATOM      9  C   UNL d   1      -4.099  -4.107   2.276  0.00  0.00     0.018 C 
ENDBRANCH   1   8
TORSDOF 1
ENDMDL
