MODEL 1
REMARK minimizedAffinity 7.29419184
REMARK minimizedRMSD -1
REMARK  1 active torsions:
REMARK  status: ('A' for Active; 'I' for Inactive)
REMARK    1  A    between atoms: C1_2  and  C2_3 
ROOT
ATOM      1  C2  UNL d   1       2.134   0.449   0.552  0.00  0.00    -0.081 A 
ATOM      2  C3  UNL d   1       2.318  -0.019  -0.755  0.00  0.00     0.006 A 
ATOM      3  C4  UNL d   1       2.098   0.826  -1.846  0.00  0.00     0.002 A 
ATOM      4  C5  UNL d   1       1.700   2.152  -1.649  0.00  0.00    -0.080 A 
ATOM      5  C6  UNL d   1       1.490   3.077  -2.811  0.00  0.00     0.076 C 
ATOM      6  C7  UNL d   1       1.499   2.614  -0.344  0.00  0.00     0.002 A 
ATOM      7  C8  UNL d   1       1.718   1.770   0.748  0.00  0.00     0.006 A 
ENDROOT
BRANCH   1   8
ATOM      8  C1  UNL d   1       2.432  -0.440   1.733  0.00  0.00     0.054 C 
ATOM      9  C   UNL d   1       3.931  -0.630   1.918  0.00  0.00     0.018 C 
ENDBRANCH   1   8
TORSDOF 1
ENDMDL
