MODEL 1
REMARK minimizedAffinity 3.69055939
REMARK minimizedRMSD -1
REMARK  1 active torsions:
REMARK  status: ('A' for Active; 'I' for Inactive)
REMARK    1  A    between atoms: C1_2  and  C2_3 
ROOT
ATOM      1  C2  UNL d   1       1.389   4.278  -3.691  0.00  0.00    -0.081 A 
ATOM      2  C3  UNL d   1       1.126   2.956  -3.312  0.00  0.00     0.006 A 
ATOM      3  C4  UNL d   1       1.271   2.558  -1.981  0.00  0.00     0.002 A 
ATOM      4  C5  UNL d   1       1.672   3.478  -1.005  0.00  0.00    -0.080 A 
ATOM      5  C6  UNL d   1       1.802   3.072   0.433  0.00  0.00     0.076 C 
ATOM      6  C7  UNL d   1       1.951   4.794  -1.387  0.00  0.00     0.002 A 
ATOM      7  C8  UNL d   1       1.808   5.192  -2.718  0.00  0.00     0.006 A 
ENDROOT
BRANCH   1   8
ATOM      8  C1  UNL d   1       1.172   4.725  -5.114  0.00  0.00     0.054 C 
ATOM      9  C   UNL d   1       0.027   5.723  -5.212  0.00  0.00     0.018 C 
ENDBRANCH   1   8
TORSDOF 1
ENDMDL
