MODEL 1
REMARK minimizedAffinity 4.33154631
REMARK minimizedRMSD -1
REMARK  0 active torsions:
REMARK  status: ('A' for Active; 'I' for Inactive)
ROOT
ATOM      1  C   UNL d   1       2.039   1.189   0.654  0.00  0.00     0.077 C 
ATOM      2  C1  UNL d   1       1.558   1.221  -0.766  0.00  0.00    -0.074 A 
ATOM      3  C2  UNL d   1       2.276   0.583  -1.783  0.00  0.00    -0.005 A 
ATOM      4  C3  UNL d   1       1.811   0.613  -3.098  0.00  0.00     0.006 A 
ATOM      5  C4  UNL d   1       0.625   1.279  -3.408  0.00  0.00    -0.005 A 
ATOM      6  C5  UNL d   1      -0.107   1.922  -2.405  0.00  0.00    -0.074 A 
ATOM      7  C6  UNL d   1      -1.389   2.634  -2.720  0.00  0.00     0.077 C 
ATOM      8  C7  UNL d   1       0.363   1.881  -1.085  0.00  0.00    -0.001 A 
ENDROOT
TORSDOF 0
ENDMDL
