MODEL 1
REMARK minimizedAffinity 4.74349403
REMARK minimizedRMSD -1
REMARK  0 active torsions:
REMARK  status: ('A' for Active; 'I' for Inactive)
ROOT
ATOM      1  C   UNL d   1       1.113   4.619  -4.478  0.00  0.00     0.077 C 
ATOM      2  C1  UNL d   1      -0.189   4.119  -3.927  0.00  0.00    -0.074 A 
ATOM      3  C2  UNL d   1      -1.392   4.770  -4.220  0.00  0.00    -0.005 A 
ATOM      4  C3  UNL d   1      -2.596   4.287  -3.708  0.00  0.00     0.006 A 
ATOM      5  C4  UNL d   1      -2.610   3.150  -2.899  0.00  0.00    -0.005 A 
ATOM      6  C5  UNL d   1      -1.418   2.485  -2.596  0.00  0.00    -0.074 A 
ATOM      7  C6  UNL d   1      -1.416   1.256  -1.736  0.00  0.00     0.077 C 
ATOM      8  C7  UNL d   1      -0.213   2.973  -3.120  0.00  0.00    -0.001 A 
ENDROOT
TORSDOF 0
ENDMDL
