MODEL 1
REMARK minimizedAffinity 5.79616737
REMARK minimizedRMSD -1
REMARK  0 active torsions:
REMARK  status: ('A' for Active; 'I' for Inactive)
ROOT
ATOM      1  C   UNL d   1       2.360   1.071   0.197  0.00  0.00     0.077 C 
ATOM      2  C1  UNL d   1       1.833   1.231  -1.198  0.00  0.00    -0.074 A 
ATOM      3  C2  UNL d   1       2.519   0.693  -2.291  0.00  0.00    -0.005 A 
ATOM      4  C3  UNL d   1       2.011   0.842  -3.582  0.00  0.00     0.006 A 
ATOM      5  C4  UNL d   1       0.815   1.529  -3.792  0.00  0.00    -0.005 A 
ATOM      6  C5  UNL d   1       0.115   2.073  -2.711  0.00  0.00    -0.074 A 
ATOM      7  C6  UNL d   1      -1.177   2.806  -2.918  0.00  0.00     0.077 C 
ATOM      8  C7  UNL d   1       0.628   1.913  -1.416  0.00  0.00    -0.001 A 
ENDROOT
TORSDOF 0
ENDMDL
