MODEL 1
REMARK minimizedAffinity 2.88522363
REMARK minimizedRMSD -1
REMARK  0 active torsions:
REMARK  status: ('A' for Active; 'I' for Inactive)
ROOT
ATOM      1  C   UNL d   1       5.946   2.996  -4.773  0.00  0.00     0.077 C 
ATOM      2  C1  UNL d   1       5.962   1.558  -4.349  0.00  0.00    -0.074 A 
ATOM      3  C2  UNL d   1       5.981   1.209  -2.994  0.00  0.00    -0.005 A 
ATOM      4  C3  UNL d   1       5.987  -0.133  -2.614  0.00  0.00     0.006 A 
ATOM      5  C4  UNL d   1       5.973  -1.138  -3.583  0.00  0.00    -0.005 A 
ATOM      6  C5  UNL d   1       5.953  -0.808  -4.941  0.00  0.00    -0.074 A 
ATOM      7  C6  UNL d   1       5.927  -1.875  -5.995  0.00  0.00     0.077 C 
ATOM      8  C7  UNL d   1       5.940   0.543  -5.315  0.00  0.00    -0.001 A 
ENDROOT
TORSDOF 0
ENDMDL
