MODEL 1
REMARK minimizedAffinity 7.61209011
REMARK minimizedRMSD -1
REMARK  0 active torsions:
REMARK  status: ('A' for Active; 'I' for Inactive)
ROOT
ATOM      1  C   UNL d   1       0.723  -1.555  -1.645  0.00  0.00     0.077 C 
ATOM      2  C1  UNL d   1       1.019  -1.811  -0.197  0.00  0.00    -0.074 A 
ATOM      3  C2  UNL d   1       2.334  -1.979   0.250  0.00  0.00    -0.005 A 
ATOM      4  C3  UNL d   1       2.594  -2.207   1.601  0.00  0.00     0.006 A 
ATOM      5  C4  UNL d   1       1.544  -2.268   2.518  0.00  0.00    -0.005 A 
ATOM      6  C5  UNL d   1       0.223  -2.101   2.091  0.00  0.00    -0.074 A 
ATOM      7  C6  UNL d   1      -0.916  -2.154   3.065  0.00  0.00     0.077 C 
ATOM      8  C7  UNL d   1      -0.030  -1.866   0.732  0.00  0.00    -0.001 A 
ENDROOT
TORSDOF 0
ENDMDL
