MODEL 1
REMARK minimizedAffinity 8.14645386
REMARK minimizedRMSD -1
REMARK  0 active torsions:
REMARK  status: ('A' for Active; 'I' for Inactive)
ROOT
ATOM      1  C   UNL d   1       4.929  -2.279   1.076  0.00  0.00     0.077 C 
ATOM      2  C1  UNL d   1       3.433  -2.287   1.181  0.00  0.00    -0.074 A 
ATOM      3  C2  UNL d   1       2.799  -2.579   2.393  0.00  0.00    -0.005 A 
ATOM      4  C3  UNL d   1       1.407  -2.574   2.477  0.00  0.00     0.006 A 
ATOM      5  C4  UNL d   1       0.636  -2.277   1.353  0.00  0.00    -0.005 A 
ATOM      6  C5  UNL d   1       1.252  -1.982   0.133  0.00  0.00    -0.074 A 
ATOM      7  C6  UNL d   1       0.439  -1.651  -1.083  0.00  0.00     0.077 C 
ATOM      8  C7  UNL d   1       2.652  -1.983   0.057  0.00  0.00    -0.001 A 
ENDROOT
TORSDOF 0
ENDMDL
