MODEL 1
REMARK minimizedAffinity 3.29050016
REMARK minimizedRMSD -1
REMARK  0 active torsions:
REMARK  status: ('A' for Active; 'I' for Inactive)
ROOT
ATOM      1  C   UNL d   1       0.178  -0.699   3.473  0.00  0.00     0.077 C 
ATOM      2  C1  UNL d   1       0.465  -1.997   2.778  0.00  0.00    -0.074 A 
ATOM      3  C2  UNL d   1      -0.407  -3.084   2.897  0.00  0.00    -0.005 A 
ATOM      4  C3  UNL d   1      -0.132  -4.282   2.237  0.00  0.00     0.006 A 
ATOM      5  C4  UNL d   1       1.015  -4.404   1.453  0.00  0.00    -0.005 A 
ATOM      6  C5  UNL d   1       1.898  -3.328   1.321  0.00  0.00    -0.074 A 
ATOM      7  C6  UNL d   1       3.130  -3.440   0.473  0.00  0.00     0.077 C 
ATOM      8  C7  UNL d   1       1.611  -2.126   1.981  0.00  0.00    -0.001 A 
ENDROOT
TORSDOF 0
ENDMDL
