MODEL 1
REMARK minimizedAffinity 8.11341095
REMARK minimizedRMSD -1
REMARK  0 active torsions:
REMARK  status: ('A' for Active; 'I' for Inactive)
ROOT
ATOM      1  C   UNL d   1       5.999   2.742  -3.900  0.00  0.00     0.077 C 
ATOM      2  C1  UNL d   1       5.989   1.265  -4.156  0.00  0.00    -0.074 A 
ATOM      3  C2  UNL d   1       5.989   0.761  -5.461  0.00  0.00    -0.005 A 
ATOM      4  C3  UNL d   1       5.989  -0.615  -5.684  0.00  0.00     0.006 A 
ATOM      5  C4  UNL d   1       5.989  -1.502  -4.606  0.00  0.00    -0.005 A 
ATOM      6  C5  UNL d   1       5.990  -1.017  -3.295  0.00  0.00    -0.074 A 
ATOM      7  C6  UNL d   1       6.000  -1.956  -2.125  0.00  0.00     0.077 C 
ATOM      8  C7  UNL d   1       5.997   0.368  -3.079  0.00  0.00    -0.001 A 
ENDROOT
TORSDOF 0
ENDMDL
