MODEL 1
REMARK minimizedAffinity 3.75690508
REMARK minimizedRMSD -1
REMARK  0 active torsions:
REMARK  status: ('A' for Active; 'I' for Inactive)
ROOT
ATOM      1  C   UNL d   1       5.884   1.870  -5.602  0.00  0.00     0.077 C 
ATOM      2  C1  UNL d   1       4.390   1.871  -5.466  0.00  0.00    -0.074 A 
ATOM      3  C2  UNL d   1       3.709   0.737  -5.014  0.00  0.00    -0.005 A 
ATOM      4  C3  UNL d   1       2.320   0.755  -4.884  0.00  0.00     0.006 A 
ATOM      5  C4  UNL d   1       1.600   1.907  -5.203  0.00  0.00    -0.005 A 
ATOM      6  C5  UNL d   1       2.264   3.052  -5.656  0.00  0.00    -0.074 A 
ATOM      7  C6  UNL d   1       1.506   4.301  -5.994  0.00  0.00     0.077 C 
ATOM      8  C7  UNL d   1       3.660   3.027  -5.777  0.00  0.00    -0.001 A 
ENDROOT
TORSDOF 0
ENDMDL
