MODEL 1
REMARK minimizedAffinity 7.40516138
REMARK minimizedRMSD -1
REMARK  0 active torsions:
REMARK  status: ('A' for Active; 'I' for Inactive)
ROOT
ATOM      1  C   UNL d   1       2.899   1.834   0.190  0.00  0.00     0.077 C 
ATOM      2  C1  UNL d   1       2.125   1.548  -1.063  0.00  0.00    -0.074 A 
ATOM      3  C2  UNL d   1       2.398   0.413  -1.834  0.00  0.00    -0.005 A 
ATOM      4  C3  UNL d   1       1.664   0.156  -2.991  0.00  0.00     0.006 A 
ATOM      5  C4  UNL d   1       0.650   1.028  -3.388  0.00  0.00    -0.005 A 
ATOM      6  C5  UNL d   1       0.361   2.167  -2.630  0.00  0.00    -0.074 A 
ATOM      7  C6  UNL d   1      -0.732   3.110  -3.038  0.00  0.00     0.077 C 
ATOM      8  C7  UNL d   1       1.099   2.415  -1.464  0.00  0.00    -0.001 A 
ENDROOT
TORSDOF 0
ENDMDL
