MODEL 1
REMARK minimizedAffinity 4.13972473
REMARK minimizedRMSD -1
REMARK  1 active torsions:
REMARK  status: ('A' for Active; 'I' for Inactive)
REMARK    1  A    between atoms: C3_4  and  O_7 
ROOT
ATOM      1  C   UNL d   1       1.370   0.972  -0.103  0.00  0.00    -0.033 A 
ATOM      2  C1  UNL d   1       1.027  -0.343  -0.422  0.00  0.00     0.039 A 
ATOM      3  C2  UNL d   1       1.077  -0.778  -1.748  0.00  0.00    -0.080 A 
ATOM      4  C3  UNL d   1       1.472   0.110  -2.744  0.00  0.00     0.150 A 
ATOM      5  C4  UNL d   1       1.819   1.421  -2.433  0.00  0.00    -0.007 A 
ATOM      6  C5  UNL d   1       1.768   1.854  -1.109  0.00  0.00     0.039 A 
ENDROOT
BRANCH   4   7
ATOM      7  O   UNL d   1       1.532  -0.267  -4.053  0.00  0.00    -0.526 OA
ATOM      8  H5  UNL d   1       1.237  -1.190  -4.120  0.00  0.00     0.418 HD
ENDBRANCH   4   7
TORSDOF 1
ENDMDL
