MODEL 1
REMARK minimizedAffinity -4.16697359
REMARK minimizedRMSD -1
REMARK  1 active torsions:
REMARK  status: ('A' for Active; 'I' for Inactive)
REMARK    1  A    between atoms: C3_4  and  O_7 
ROOT
ATOM      1  C   UNL d   1       0.308   0.471   0.352  0.00  0.00    -0.033 A 
ATOM      2  C1  UNL d   1      -0.072  -0.569  -0.498  0.00  0.00     0.039 A 
ATOM      3  C2  UNL d   1       0.426  -0.625  -1.802  0.00  0.00    -0.080 A 
ATOM      4  C3  UNL d   1       1.303   0.364  -2.241  0.00  0.00     0.150 A 
ATOM      5  C4  UNL d   1       1.689   1.400  -1.397  0.00  0.00    -0.007 A 
ATOM      6  C5  UNL d   1       1.190   1.455  -0.097  0.00  0.00     0.039 A 
ENDROOT
BRANCH   4   7
ATOM      7  O   UNL d   1       1.812   0.355  -3.506  0.00  0.00    -0.526 OA
ATOM      8  H5  UNL d   1       1.435  -0.404  -3.983  0.00  0.00     0.418 HD
ENDBRANCH   4   7
TORSDOF 1
ENDMDL
