MODEL 1
REMARK minimizedAffinity -4.91187382
REMARK minimizedRMSD -1
REMARK  1 active torsions:
REMARK  status: ('A' for Active; 'I' for Inactive)
REMARK    1  A    between atoms: C3_4  and  O_7 
ROOT
ATOM      1  C   UNL d   1      -0.200   0.288   0.234  0.00  0.00    -0.033 A 
ATOM      2  C1  UNL d   1      -0.146  -0.915  -0.472  0.00  0.00     0.039 A 
ATOM      3  C2  UNL d   1       0.550  -0.988  -1.680  0.00  0.00    -0.080 A 
ATOM      4  C3  UNL d   1       1.187   0.149  -2.171  0.00  0.00     0.150 A 
ATOM      5  C4  UNL d   1       1.141   1.350  -1.471  0.00  0.00    -0.007 A 
ATOM      6  C5  UNL d   1       0.444   1.421  -0.265  0.00  0.00     0.039 A 
ENDROOT
BRANCH   4   7
ATOM      7  O   UNL d   1       1.875   0.128  -3.348  0.00  0.00    -0.526 OA
ATOM      8  H5  UNL d   1       1.797  -0.760  -3.734  0.00  0.00     0.418 HD
ENDBRANCH   4   7
TORSDOF 1
ENDMDL
