MODEL 1
REMARK minimizedAffinity -5.06221914
REMARK minimizedRMSD -1
REMARK  1 active torsions:
REMARK  status: ('A' for Active; 'I' for Inactive)
REMARK    1  A    between atoms: C3_4  and  O_7 
ROOT
ATOM      1  C   UNL d   1      -0.058   0.565   0.540  0.00  0.00    -0.033 A 
ATOM      2  C1  UNL d   1      -0.474  -0.555  -0.182  0.00  0.00     0.039 A 
ATOM      3  C2  UNL d   1      -0.028  -0.750  -1.491  0.00  0.00    -0.080 A 
ATOM      4  C3  UNL d   1       0.832   0.182  -2.065  0.00  0.00     0.150 A 
ATOM      5  C4  UNL d   1       1.253   1.299  -1.351  0.00  0.00    -0.007 A 
ATOM      6  C5  UNL d   1       0.807   1.492  -0.044  0.00  0.00     0.039 A 
ENDROOT
BRANCH   4   7
ATOM      7  O   UNL d   1       1.290   0.038  -3.341  0.00  0.00    -0.526 OA
ATOM      8  H5  UNL d   1       0.893  -0.764  -3.722  0.00  0.00     0.418 HD
ENDBRANCH   4   7
TORSDOF 1
ENDMDL
