MODEL 1
REMARK minimizedAffinity -4.64359808
REMARK minimizedRMSD -1
REMARK  1 active torsions:
REMARK  status: ('A' for Active; 'I' for Inactive)
REMARK    1  A    between atoms: C3_4  and  O_7 
ROOT
ATOM      1  C   UNL d   1      -0.066  -0.481   0.522  0.00  0.00    -0.033 A 
ATOM      2  C1  UNL d   1       0.182  -1.623  -0.242  0.00  0.00     0.039 A 
ATOM      3  C2  UNL d   1       0.867  -1.520  -1.454  0.00  0.00    -0.080 A 
ATOM      4  C3  UNL d   1       1.298  -0.270  -1.890  0.00  0.00     0.150 A 
ATOM      5  C4  UNL d   1       1.059   0.871  -1.132  0.00  0.00    -0.007 A 
ATOM      6  C5  UNL d   1       0.374   0.766   0.078  0.00  0.00     0.039 A 
ENDROOT
BRANCH   4   7
ATOM      7  O   UNL d   1       1.966  -0.118  -3.069  0.00  0.00    -0.526 OA
ATOM      8  H5  UNL d   1       2.034  -0.987  -3.498  0.00  0.00     0.418 HD
ENDBRANCH   4   7
TORSDOF 1
ENDMDL
