MODEL 1
REMARK minimizedAffinity -5.38274908
REMARK minimizedRMSD -1
REMARK  1 active torsions:
REMARK  status: ('A' for Active; 'I' for Inactive)
REMARK    1  A    between atoms: C3_4  and  O_7 
ROOT
ATOM      1  C   UNL d   1       1.493   0.439  -2.375  0.00  0.00    -0.033 A 
ATOM      2  C1  UNL d   1       1.207   1.483  -1.493  0.00  0.00     0.039 A 
ATOM      3  C2  UNL d   1       0.433   1.246  -0.355  0.00  0.00    -0.080 A 
ATOM      4  C3  UNL d   1      -0.049  -0.037  -0.111  0.00  0.00     0.150 A 
ATOM      5  C4  UNL d   1       0.235  -1.083  -0.984  0.00  0.00    -0.007 A 
ATOM      6  C5  UNL d   1       1.008  -0.844  -2.120  0.00  0.00     0.039 A 
ENDROOT
BRANCH   4   7
ATOM      7  O   UNL d   1      -0.812  -0.316   0.983  0.00  0.00    -0.526 OA
ATOM      8  H5  UNL d   1      -0.951   0.508   1.480  0.00  0.00     0.418 HD
ENDBRANCH   4   7
TORSDOF 1
ENDMDL
