MODEL 1
REMARK minimizedAffinity -2.92172766
REMARK minimizedRMSD -1
REMARK  1 active torsions:
REMARK  status: ('A' for Active; 'I' for Inactive)
REMARK    1  A    between atoms: C3_4  and  O_7 
ROOT
ATOM      1  C   UNL d   1      -0.235  -0.861   0.842  0.00  0.00    -0.033 A 
ATOM      2  C1  UNL d   1       0.374  -1.572  -0.194  0.00  0.00     0.039 A 
ATOM      3  C2  UNL d   1       1.032  -0.890  -1.219  0.00  0.00    -0.080 A 
ATOM      4  C3  UNL d   1       1.075   0.501  -1.196  0.00  0.00     0.150 A 
ATOM      5  C4  UNL d   1       0.474   1.216  -0.165  0.00  0.00    -0.007 A 
ATOM      6  C5  UNL d   1      -0.183   0.533   0.857  0.00  0.00     0.039 A 
ENDROOT
BRANCH   4   7
ATOM      7  O   UNL d   1       1.701   1.211  -2.177  0.00  0.00    -0.526 OA
ATOM      8  H5  UNL d   1       2.045   0.586  -2.837  0.00  0.00     0.418 HD
ENDBRANCH   4   7
TORSDOF 1
ENDMDL
