MODEL 1
REMARK minimizedAffinity -4.66818619
REMARK minimizedRMSD -1
REMARK  1 active torsions:
REMARK  status: ('A' for Active; 'I' for Inactive)
REMARK    1  A    between atoms: C3_4  and  O_7 
ROOT
ATOM      1  C   UNL d   1       0.347   0.310   0.334  0.00  0.00    -0.033 A 
ATOM      2  C1  UNL d   1       1.202   1.285  -0.183  0.00  0.00     0.039 A 
ATOM      3  C2  UNL d   1       1.690   1.168  -1.486  0.00  0.00    -0.080 A 
ATOM      4  C3  UNL d   1       1.315   0.074  -2.261  0.00  0.00     0.150 A 
ATOM      5  C4  UNL d   1       0.460  -0.899  -1.754  0.00  0.00    -0.007 A 
ATOM      6  C5  UNL d   1      -0.026  -0.781  -0.452  0.00  0.00     0.039 A 
ENDROOT
BRANCH   4   7
ATOM      7  O   UNL d   1       1.769  -0.085  -3.536  0.00  0.00    -0.526 OA
ATOM      8  H5  UNL d   1       2.373   0.648  -3.742  0.00  0.00     0.418 HD
ENDBRANCH   4   7
TORSDOF 1
ENDMDL
