MODEL 1
REMARK minimizedAffinity -2.87527299
REMARK minimizedRMSD -1
REMARK  1 active torsions:
REMARK  status: ('A' for Active; 'I' for Inactive)
REMARK    1  A    between atoms: C3_4  and  O_7 
ROOT
ATOM      1  C   UNL d   1       1.488   0.042  -2.766  0.00  0.00    -0.033 A 
ATOM      2  C1  UNL d   1       1.431   1.221  -2.020  0.00  0.00     0.039 A 
ATOM      3  C2  UNL d   1       0.724   1.254  -0.817  0.00  0.00    -0.080 A 
ATOM      4  C3  UNL d   1       0.080   0.104  -0.370  0.00  0.00     0.150 A 
ATOM      5  C4  UNL d   1       0.135  -1.075  -1.106  0.00  0.00    -0.007 A 
ATOM      6  C5  UNL d   1       0.841  -1.107  -2.308  0.00  0.00     0.039 A 
ENDROOT
BRANCH   4   7
ATOM      7  O   UNL d   1      -0.627   0.089   0.796  0.00  0.00    -0.526 OA
ATOM      8  H5  UNL d   1      -0.602   0.981   1.182  0.00  0.00     0.418 HD
ENDBRANCH   4   7
TORSDOF 1
ENDMDL
