MODEL 1
REMARK minimizedAffinity -4.2443428
REMARK minimizedRMSD -1
REMARK  1 active torsions:
REMARK  status: ('A' for Active; 'I' for Inactive)
REMARK    1  A    between atoms: C3_4  and  O_7 
ROOT
ATOM      1  C   UNL d   1       1.027   0.433  -2.861  0.00  0.00    -0.033 A 
ATOM      2  C1  UNL d   1      -0.050  -0.444  -2.711  0.00  0.00     0.039 A 
ATOM      3  C2  UNL d   1      -0.493  -0.796  -1.435  0.00  0.00    -0.080 A 
ATOM      4  C3  UNL d   1       0.148  -0.265  -0.319  0.00  0.00     0.150 A 
ATOM      5  C4  UNL d   1       1.219   0.611  -0.461  0.00  0.00    -0.007 A 
ATOM      6  C5  UNL d   1       1.660   0.961  -1.736  0.00  0.00     0.039 A 
ENDROOT
BRANCH   4   7
ATOM      7  O   UNL d   1      -0.245  -0.584   0.947  0.00  0.00    -0.526 OA
ATOM      8  H5  UNL d   1      -0.977  -1.221   0.891  0.00  0.00     0.418 HD
ENDBRANCH   4   7
TORSDOF 1
ENDMDL
