MODEL 1
REMARK minimizedAffinity -3.4841156
REMARK minimizedRMSD -1
REMARK  1 active torsions:
REMARK  status: ('A' for Active; 'I' for Inactive)
REMARK    1  A    between atoms: C3_4  and  O_7 
ROOT
ATOM      1  C   UNL d   1      -0.025   0.194   0.582  0.00  0.00    -0.033 A 
ATOM      2  C1  UNL d   1      -0.408  -0.807  -0.313  0.00  0.00     0.039 A 
ATOM      3  C2  UNL d   1       0.179  -0.878  -1.578  0.00  0.00    -0.080 A 
ATOM      4  C3  UNL d   1       1.148   0.056  -1.934  0.00  0.00     0.150 A 
ATOM      5  C4  UNL d   1       1.537   1.054  -1.047  0.00  0.00    -0.007 A 
ATOM      6  C5  UNL d   1       0.949   1.123   0.215  0.00  0.00     0.039 A 
ENDROOT
BRANCH   4   7
ATOM      7  O   UNL d   1       1.746   0.031  -3.159  0.00  0.00    -0.526 OA
ATOM      8  H5  UNL d   1       1.357  -0.694  -3.676  0.00  0.00     0.418 HD
ENDBRANCH   4   7
TORSDOF 1
ENDMDL
