MODEL 1
REMARK minimizedAffinity -1.77497244
REMARK minimizedRMSD -1
REMARK  1 active torsions:
REMARK  status: ('A' for Active; 'I' for Inactive)
REMARK    1  A    between atoms: C3_4  and  O_7 
ROOT
ATOM      1  C   UNL d   1      -4.994   5.983  -5.747  0.00  0.00    -0.033 A 
ATOM      2  C1  UNL d   1      -3.662   5.601  -5.916  0.00  0.00     0.039 A 
ATOM      3  C2  UNL d   1      -3.326   4.248  -5.987  0.00  0.00    -0.080 A 
ATOM      4  C3  UNL d   1      -4.330   3.288  -5.888  0.00  0.00     0.150 A 
ATOM      5  C4  UNL d   1      -5.659   3.662  -5.722  0.00  0.00    -0.007 A 
ATOM      6  C5  UNL d   1      -5.993   5.014  -5.651  0.00  0.00     0.039 A 
ENDROOT
BRANCH   4   7
ATOM      7  O   UNL d   1      -4.050   1.955  -5.946  0.00  0.00    -0.526 OA
ATOM      8  H5  UNL d   1      -3.088   1.846  -6.033  0.00  0.00     0.418 HD
ENDBRANCH   4   7
TORSDOF 1
ENDMDL
