MODEL 1
REMARK minimizedAffinity -4.62574625
REMARK minimizedRMSD -1
REMARK  1 active torsions:
REMARK  status: ('A' for Active; 'I' for Inactive)
REMARK    1  A    between atoms: C3_4  and  O_7 
ROOT
ATOM      1  C   UNL d   1       0.211   0.168   0.549  0.00  0.00    -0.033 A 
ATOM      2  C1  UNL d   1      -0.217  -0.847  -0.309  0.00  0.00     0.039 A 
ATOM      3  C2  UNL d   1       0.205  -0.862  -1.640  0.00  0.00    -0.080 A 
ATOM      4  C3  UNL d   1       1.054   0.142  -2.099  0.00  0.00     0.150 A 
ATOM      5  C4  UNL d   1       1.486   1.154  -1.249  0.00  0.00    -0.007 A 
ATOM      6  C5  UNL d   1       1.064   1.167   0.080  0.00  0.00     0.039 A 
ENDROOT
BRANCH   4   7
ATOM      7  O   UNL d   1       1.488   0.172  -3.391  0.00  0.00    -0.526 OA
ATOM      8  H5  UNL d   1       1.085  -0.573  -3.869  0.00  0.00     0.418 HD
ENDBRANCH   4   7
TORSDOF 1
ENDMDL
