MODEL 1
REMARK minimizedAffinity -4.82537651
REMARK minimizedRMSD -1
REMARK  1 active torsions:
REMARK  status: ('A' for Active; 'I' for Inactive)
REMARK    1  A    between atoms: C3_4  and  O_7 
ROOT
ATOM      1  C   UNL d   1       2.417  -0.214  -3.006  0.00  0.00    -0.033 A 
ATOM      2  C1  UNL d   1       2.023   0.962  -2.365  0.00  0.00     0.039 A 
ATOM      3  C2  UNL d   1       1.073   0.917  -1.343  0.00  0.00    -0.080 A 
ATOM      4  C3  UNL d   1       0.527  -0.308  -0.971  0.00  0.00     0.150 A 
ATOM      5  C4  UNL d   1       0.917  -1.484  -1.603  0.00  0.00    -0.007 A 
ATOM      6  C5  UNL d   1       1.865  -1.437  -2.624  0.00  0.00     0.039 A 
ENDROOT
BRANCH   4   7
ATOM      7  O   UNL d   1      -0.407  -0.401   0.017  0.00  0.00    -0.526 OA
ATOM      8  H5  UNL d   1      -0.601   0.494   0.343  0.00  0.00     0.418 HD
ENDBRANCH   4   7
TORSDOF 1
ENDMDL
