MODEL 1
REMARK minimizedAffinity -2.95106173
REMARK minimizedRMSD -1
REMARK  1 active torsions:
REMARK  status: ('A' for Active; 'I' for Inactive)
REMARK    1  A    between atoms: C1_2  and  C2_3 
ROOT
ATOM      1  C2  UNL d   1       3.496  -5.127  -4.667  0.00  0.00    -0.077 A 
ATOM      2  C3  UNL d   1       4.670  -5.022  -5.426  0.00  0.00     0.002 A 
ATOM      3  C4  UNL d   1       5.899  -5.401  -4.882  0.00  0.00     0.002 A 
ATOM      4  C5  UNL d   1       5.965  -5.892  -3.580  0.00  0.00    -0.004 A 
ATOM      5  C6  UNL d   1       4.803  -5.998  -2.816  0.00  0.00     0.002 A 
ATOM      6  C7  UNL d   1       3.574  -5.618  -3.358  0.00  0.00     0.002 A 
ENDROOT
BRANCH   1   7
ATOM      7  C1  UNL d   1       2.164  -4.764  -5.269  0.00  0.00     0.055 C 
ATOM      8  C   UNL d   1       1.546  -5.948  -5.999  0.00  0.00     0.019 C 
ENDBRANCH   1   7
TORSDOF 1
ENDMDL
