MODEL 1
REMARK minimizedAffinity -3.5415976
REMARK minimizedRMSD -1
REMARK  1 active torsions:
REMARK  status: ('A' for Active; 'I' for Inactive)
REMARK    1  A    between atoms: C1_2  and  C2_3 
ROOT
ATOM      1  C2  UNL d   1       4.020  -5.820  -4.381  0.00  0.00    -0.077 A 
ATOM      2  C3  UNL d   1       5.404  -6.000  -4.247  0.00  0.00     0.002 A 
ATOM      3  C4  UNL d   1       5.999  -5.984  -2.984  0.00  0.00     0.002 A 
ATOM      4  C5  UNL d   1       5.219  -5.793  -1.846  0.00  0.00    -0.004 A 
ATOM      5  C6  UNL d   1       3.842  -5.612  -1.969  0.00  0.00     0.002 A 
ATOM      6  C7  UNL d   1       3.245  -5.626  -3.230  0.00  0.00     0.002 A 
ENDROOT
BRANCH   1   7
ATOM      7  C1  UNL d   1       3.369  -5.886  -5.738  0.00  0.00     0.055 C 
ATOM      8  C   UNL d   1       1.851  -5.880  -5.624  0.00  0.00     0.019 C 
ENDBRANCH   1   7
TORSDOF 1
ENDMDL
