MODEL 1
REMARK minimizedAffinity -1.63285005
REMARK minimizedRMSD -1
REMARK  1 active torsions:
REMARK  status: ('A' for Active; 'I' for Inactive)
REMARK    1  A    between atoms: C1_2  and  C2_3 
ROOT
ATOM      1  C2  UNL d   1       3.758  -5.472  -3.315  0.00  0.00    -0.077 A 
ATOM      2  C3  UNL d   1       5.093  -5.400  -3.736  0.00  0.00     0.002 A 
ATOM      3  C4  UNL d   1       5.425  -5.627  -5.073  0.00  0.00     0.002 A 
ATOM      4  C5  UNL d   1       4.427  -5.923  -6.000  0.00  0.00    -0.004 A 
ATOM      5  C6  UNL d   1       3.097  -5.999  -5.590  0.00  0.00     0.002 A 
ATOM      6  C7  UNL d   1       2.763  -5.774  -4.254  0.00  0.00     0.002 A 
ENDROOT
BRANCH   1   7
ATOM      7  C1  UNL d   1       3.392  -5.180  -1.883  0.00  0.00     0.055 C 
ATOM      8  C   UNL d   1       2.033  -4.502  -1.786  0.00  0.00     0.019 C 
ENDBRANCH   1   7
TORSDOF 1
ENDMDL
