MODEL 1
REMARK minimizedAffinity -1.54620528
REMARK minimizedRMSD -1
REMARK  1 active torsions:
REMARK  status: ('A' for Active; 'I' for Inactive)
REMARK    1  A    between atoms: C1_2  and  C2_3 
ROOT
ATOM      1  C2  UNL d   1       3.644  -5.855  -3.198  0.00  0.00    -0.077 A 
ATOM      2  C3  UNL d   1       2.424  -5.782  -3.885  0.00  0.00     0.002 A 
ATOM      3  C4  UNL d   1       2.397  -5.815  -5.280  0.00  0.00     0.002 A 
ATOM      4  C5  UNL d   1       3.584  -5.927  -6.000  0.00  0.00    -0.004 A 
ATOM      5  C6  UNL d   1       4.803  -5.999  -5.326  0.00  0.00     0.002 A 
ATOM      6  C7  UNL d   1       4.833  -5.964  -3.931  0.00  0.00     0.002 A 
ENDROOT
BRANCH   1   7
ATOM      7  C1  UNL d   1       3.673  -5.868  -1.691  0.00  0.00     0.055 C 
ATOM      8  C   UNL d   1       2.271  -5.997  -1.112  0.00  0.00     0.019 C 
ENDBRANCH   1   7
TORSDOF 1
ENDMDL
