MODEL 1
REMARK minimizedAffinity -2.94121122
REMARK minimizedRMSD -1
REMARK  1 active torsions:
REMARK  status: ('A' for Active; 'I' for Inactive)
REMARK    1  A    between atoms: C1_2  and  C2_3 
ROOT
ATOM      1  C2  UNL d   1       4.648  -5.300  -4.703  0.00  0.00    -0.077 A 
ATOM      2  C3  UNL d   1       3.249  -5.262  -4.618  0.00  0.00     0.002 A 
ATOM      3  C4  UNL d   1       2.605  -5.592  -3.424  0.00  0.00     0.002 A 
ATOM      4  C5  UNL d   1       3.352  -5.958  -2.305  0.00  0.00    -0.004 A 
ATOM      5  C6  UNL d   1       4.743  -6.000  -2.380  0.00  0.00     0.002 A 
ATOM      6  C7  UNL d   1       5.389  -5.671  -3.573  0.00  0.00     0.002 A 
ENDROOT
BRANCH   1   7
ATOM      7  C1  UNL d   1       5.347  -4.896  -5.975  0.00  0.00     0.055 C 
ATOM      8  C   UNL d   1       5.999  -3.529  -5.839  0.00  0.00     0.019 C 
ENDBRANCH   1   7
TORSDOF 1
ENDMDL
