MODEL 1
REMARK minimizedAffinity -3.72258472
REMARK minimizedRMSD -1
REMARK  1 active torsions:
REMARK  status: ('A' for Active; 'I' for Inactive)
REMARK    1  A    between atoms: C1_2  and  C2_3 
ROOT
ATOM      1  C2  UNL d   1       3.600   2.846   2.430  0.00  0.00    -0.077 A 
ATOM      2  C3  UNL d   1       4.780   2.107   2.594  0.00  0.00     0.002 A 
ATOM      3  C4  UNL d   1       5.974   2.748   2.928  0.00  0.00     0.002 A 
ATOM      4  C5  UNL d   1       5.999   4.130   3.106  0.00  0.00    -0.004 A 
ATOM      5  C6  UNL d   1       4.832   4.874   2.944  0.00  0.00     0.002 A 
ATOM      6  C7  UNL d   1       3.637   4.235   2.608  0.00  0.00     0.002 A 
ENDROOT
BRANCH   1   7
ATOM      7  C1  UNL d   1       2.301   2.151   2.118  0.00  0.00     0.055 C 
ATOM      8  C   UNL d   1       1.457   2.965   1.147  0.00  0.00     0.019 C 
ENDBRANCH   1   7
TORSDOF 1
ENDMDL
