MODEL 1
REMARK minimizedAffinity -2.99542427
REMARK minimizedRMSD -1
REMARK  1 active torsions:
REMARK  status: ('A' for Active; 'I' for Inactive)
REMARK    1  A    between atoms: C1_2  and  C2_3 
ROOT
ATOM      1  C2  UNL d   1       4.575  -5.725  -3.860  0.00  0.00    -0.077 A 
ATOM      2  C3  UNL d   1       4.439  -5.451  -2.492  0.00  0.00     0.002 A 
ATOM      3  C4  UNL d   1       3.178  -5.450  -1.893  0.00  0.00     0.002 A 
ATOM      4  C5  UNL d   1       2.044  -5.727  -2.653  0.00  0.00    -0.004 A 
ATOM      5  C6  UNL d   1       2.168  -5.999  -4.015  0.00  0.00     0.002 A 
ATOM      6  C7  UNL d   1       3.428  -5.999  -4.616  0.00  0.00     0.002 A 
ENDROOT
BRANCH   1   7
ATOM      7  C1  UNL d   1       5.939  -5.774  -4.497  0.00  0.00     0.055 C 
ATOM      8  C   UNL d   1       5.840  -5.993  -6.000  0.00  0.00     0.019 C 
ENDBRANCH   1   7
TORSDOF 1
ENDMDL
