MODEL 1
REMARK minimizedAffinity -3.49441767
REMARK minimizedRMSD -1
REMARK  1 active torsions:
REMARK  status: ('A' for Active; 'I' for Inactive)
REMARK    1  A    between atoms: C1_2  and  C2_3 
ROOT
ATOM      1  C2  UNL d   1       3.314   2.182   1.987  0.00  0.00    -0.077 A 
ATOM      2  C3  UNL d   1       3.752   3.513   2.016  0.00  0.00     0.002 A 
ATOM      3  C4  UNL d   1       5.089   3.810   2.290  0.00  0.00     0.002 A 
ATOM      4  C5  UNL d   1       5.997   2.782   2.533  0.00  0.00    -0.004 A 
ATOM      5  C6  UNL d   1       5.570   1.455   2.509  0.00  0.00     0.002 A 
ATOM      6  C7  UNL d   1       4.235   1.156   2.236  0.00  0.00     0.002 A 
ENDROOT
BRANCH   1   7
ATOM      7  C1  UNL d   1       1.884   1.856   1.644  0.00  0.00     0.055 C 
ATOM      8  C   UNL d   1       1.264   2.938   0.770  0.00  0.00     0.019 C 
ENDBRANCH   1   7
TORSDOF 1
ENDMDL
