MODEL 1
REMARK minimizedAffinity -3.22071767
REMARK minimizedRMSD -1
REMARK  1 active torsions:
REMARK  status: ('A' for Active; 'I' for Inactive)
REMARK    1  A    between atoms: C1_2  and  C2_3 
ROOT
ATOM      1  C2  UNL d   1       4.960  -5.556  -3.608  0.00  0.00    -0.077 A 
ATOM      2  C3  UNL d   1       5.368  -5.569  -4.950  0.00  0.00     0.002 A 
ATOM      3  C4  UNL d   1       4.439  -5.792  -5.968  0.00  0.00     0.002 A 
ATOM      4  C5  UNL d   1       3.097  -6.000  -5.656  0.00  0.00    -0.004 A 
ATOM      5  C6  UNL d   1       2.682  -5.991  -4.325  0.00  0.00     0.002 A 
ATOM      6  C7  UNL d   1       3.609  -5.769  -3.306  0.00  0.00     0.002 A 
ENDROOT
BRANCH   1   7
ATOM      7  C1  UNL d   1       5.952  -5.266  -2.512  0.00  0.00     0.055 C 
ATOM      8  C   UNL d   1       5.969  -3.786  -2.158  0.00  0.00     0.019 C 
ENDBRANCH   1   7
TORSDOF 1
ENDMDL
