MODEL 1
REMARK minimizedAffinity -2.77801013
REMARK minimizedRMSD -1
REMARK  1 active torsions:
REMARK  status: ('A' for Active; 'I' for Inactive)
REMARK    1  A    between atoms: C1_2  and  C2_3 
ROOT
ATOM      1  C2  UNL d   1       3.786  -5.109  -3.355  0.00  0.00    -0.077 A 
ATOM      2  C3  UNL d   1       5.068  -4.665  -3.708  0.00  0.00     0.002 A 
ATOM      3  C4  UNL d   1       5.564  -4.889  -4.994  0.00  0.00     0.002 A 
ATOM      4  C5  UNL d   1       4.783  -5.553  -5.938  0.00  0.00    -0.004 A 
ATOM      5  C6  UNL d   1       3.507  -6.000  -5.596  0.00  0.00     0.002 A 
ATOM      6  C7  UNL d   1       3.010  -5.778  -4.311  0.00  0.00     0.002 A 
ENDROOT
BRANCH   1   7
ATOM      7  C1  UNL d   1       3.230  -4.825  -1.984  0.00  0.00     0.055 C 
ATOM      8  C   UNL d   1       1.722  -4.629  -2.028  0.00  0.00     0.019 C 
ENDBRANCH   1   7
TORSDOF 1
ENDMDL
