MODEL 1
REMARK minimizedAffinity 5.65388823
REMARK minimizedRMSD -1
REMARK  1 active torsions:
REMARK  status: ('A' for Active; 'I' for Inactive)
REMARK    1  A    between atoms: C1_2  and  C2_3 
ROOT
ATOM      1  C2  UNL d   1       1.019  -0.185   1.723  0.00  0.00    -0.076 A 
ATOM      2  C3  UNL d   1       1.425  -0.684   0.473  0.00  0.00     0.004 A 
ATOM      3  C4  UNL d   1       2.115  -1.891   0.372  0.00  0.00    -0.003 A 
ATOM      4  C5  UNL d   1       2.408  -2.620   1.520  0.00  0.00     0.000 A 
ATOM      5  C6  UNL d   1       1.997  -2.149   2.766  0.00  0.00     0.000 A 
ATOM      6  C7  UNL d   1       1.287  -0.942   2.884  0.00  0.00    -0.073 A 
ATOM      7  C8  UNL d   1       0.873  -0.478   4.254  0.00  0.00     0.078 C 
ENDROOT
BRANCH   1   8
ATOM      8  C1  UNL d   1       0.298   1.143   1.773  0.00  0.00     0.053 C 
ATOM      9  C   UNL d   1      -0.589   1.371   0.559  0.00  0.00     0.018 C 
ENDBRANCH   1   8
TORSDOF 1
ENDMDL
