MODEL 1
REMARK minimizedAffinity 20.1049232
REMARK minimizedRMSD -1
REMARK  1 active torsions:
REMARK  status: ('A' for Active; 'I' for Inactive)
REMARK    1  A    between atoms: C1_2  and  C2_3 
ROOT
ATOM      1  C2  UNL d   1      -2.487   0.688  -0.939  0.00  0.00    -0.076 A 
ATOM      2  C3  UNL d   1      -1.460   1.404  -0.301  0.00  0.00     0.004 A 
ATOM      3  C4  UNL d   1      -0.790   0.871   0.800  0.00  0.00    -0.003 A 
ATOM      4  C5  UNL d   1      -1.137  -0.386   1.280  0.00  0.00     0.000 A 
ATOM      5  C6  UNL d   1      -2.143  -1.118   0.649  0.00  0.00     0.000 A 
ATOM      6  C7  UNL d   1      -2.816  -0.603  -0.471  0.00  0.00    -0.073 A 
ATOM      7  C8  UNL d   1      -3.897  -1.433  -1.109  0.00  0.00     0.078 C 
ENDROOT
BRANCH   1   8
ATOM      8  C1  UNL d   1      -3.196   1.327  -2.111  0.00  0.00     0.053 C 
ATOM      9  C   UNL d   1      -2.425   1.173  -3.413  0.00  0.00     0.018 C 
ENDBRANCH   1   8
TORSDOF 1
ENDMDL
