MODEL 1
REMARK minimizedAffinity 5.8998127
REMARK minimizedRMSD -1
REMARK  1 active torsions:
REMARK  status: ('A' for Active; 'I' for Inactive)
REMARK    1  A    between atoms: C1_2  and  C2_3 
ROOT
ATOM      1  C2  UNL d   1       0.636  -2.099   1.423  0.00  0.00    -0.076 A 
ATOM      2  C3  UNL d   1       1.086  -0.822   1.800  0.00  0.00     0.004 A 
ATOM      3  C4  UNL d   1       0.214   0.265   1.833  0.00  0.00    -0.003 A 
ATOM      4  C5  UNL d   1      -1.123   0.093   1.492  0.00  0.00     0.000 A 
ATOM      5  C6  UNL d   1      -1.591  -1.171   1.133  0.00  0.00     0.000 A 
ATOM      6  C7  UNL d   1      -0.728  -2.281   1.110  0.00  0.00    -0.073 A 
ATOM      7  C8  UNL d   1      -1.285  -3.619   0.709  0.00  0.00     0.078 C 
ENDROOT
BRANCH   1   8
ATOM      8  C1  UNL d   1       1.633  -3.235   1.379  0.00  0.00     0.053 C 
ATOM      9  C   UNL d   1       2.215  -3.553   2.747  0.00  0.00     0.018 C 
ENDBRANCH   1   8
TORSDOF 1
ENDMDL
