MODEL 1
REMARK minimizedAffinity 7.37223864
REMARK minimizedRMSD -1
REMARK  1 active torsions:
REMARK  status: ('A' for Active; 'I' for Inactive)
REMARK    1  A    between atoms: C1_2  and  C2_3 
ROOT
ATOM      1  C2  UNL d   1       2.379  -1.613   1.841  0.00  0.00    -0.076 A 
ATOM      2  C3  UNL d   1       1.785  -0.426   1.381  0.00  0.00     0.004 A 
ATOM      3  C4  UNL d   1       1.120   0.430   2.257  0.00  0.00    -0.003 A 
ATOM      4  C5  UNL d   1       1.038   0.113   3.608  0.00  0.00     0.000 A 
ATOM      5  C6  UNL d   1       1.637  -1.053   4.085  0.00  0.00     0.000 A 
ATOM      6  C7  UNL d   1       2.326  -1.918   3.218  0.00  0.00    -0.073 A 
ATOM      7  C8  UNL d   1       2.948  -3.165   3.786  0.00  0.00     0.078 C 
ENDROOT
BRANCH   1   8
ATOM      8  C1  UNL d   1       3.064  -2.516   0.840  0.00  0.00     0.053 C 
ATOM      9  C   UNL d   1       4.537  -2.181   0.665  0.00  0.00     0.018 C 
ENDBRANCH   1   8
TORSDOF 1
ENDMDL
