MODEL 1
REMARK minimizedAffinity 9.62736034
REMARK minimizedRMSD -1
REMARK  1 active torsions:
REMARK  status: ('A' for Active; 'I' for Inactive)
REMARK    1  A    between atoms: C1_2  and  C2_3 
ROOT
ATOM      1  C2  UNL d   1       1.307  -1.507   4.053  0.00  0.00    -0.076 A 
ATOM      2  C3  UNL d   1       0.725  -0.245   3.845  0.00  0.00     0.004 A 
ATOM      3  C4  UNL d   1       0.583   0.277   2.560  0.00  0.00    -0.003 A 
ATOM      4  C5  UNL d   1       1.020  -0.456   1.462  0.00  0.00     0.000 A 
ATOM      5  C6  UNL d   1       1.584  -1.718   1.649  0.00  0.00     0.000 A 
ATOM      6  C7  UNL d   1       1.719  -2.265   2.936  0.00  0.00    -0.073 A 
ATOM      7  C8  UNL d   1       2.340  -3.628   3.080  0.00  0.00     0.078 C 
ENDROOT
BRANCH   1   8
ATOM      8  C1  UNL d   1       1.460  -2.010   5.471  0.00  0.00     0.053 C 
ATOM      9  C   UNL d   1       0.189  -2.658   5.999  0.00  0.00     0.018 C 
ENDBRANCH   1   8
TORSDOF 1
ENDMDL
