MODEL 1
REMARK minimizedAffinity 6.72553301
REMARK minimizedRMSD -1
REMARK  1 active torsions:
REMARK  status: ('A' for Active; 'I' for Inactive)
REMARK    1  A    between atoms: C1_2  and  C2_3 
ROOT
ATOM      1  C2  UNL d   1      -5.677   3.879  -1.685  0.00  0.00    -0.076 A 
ATOM      2  C3  UNL d   1      -5.997   5.248  -1.695  0.00  0.00     0.004 A 
ATOM      3  C4  UNL d   1      -5.940   5.989  -2.874  0.00  0.00    -0.003 A 
ATOM      4  C5  UNL d   1      -5.563   5.374  -4.062  0.00  0.00     0.000 A 
ATOM      5  C6  UNL d   1      -5.260   4.013  -4.074  0.00  0.00     0.000 A 
ATOM      6  C7  UNL d   1      -5.328   3.247  -2.897  0.00  0.00    -0.073 A 
ATOM      7  C8  UNL d   1      -4.984   1.785  -2.967  0.00  0.00     0.078 C 
ENDROOT
BRANCH   1   8
ATOM      8  C1  UNL d   1      -5.731   3.133  -0.371  0.00  0.00     0.053 C 
ATOM      9  C   UNL d   1      -5.996   4.052   0.811  0.00  0.00     0.018 C 
ENDBRANCH   1   8
TORSDOF 1
ENDMDL
