MODEL 1
REMARK minimizedAffinity 9.99557018
REMARK minimizedRMSD -1
REMARK  1 active torsions:
REMARK  status: ('A' for Active; 'I' for Inactive)
REMARK    1  A    between atoms: C1_2  and  C2_3 
ROOT
ATOM      1  C2  UNL d   1       1.454  -0.932   3.004  0.00  0.00    -0.076 A 
ATOM      2  C3  UNL d   1       1.160  -0.865   4.377  0.00  0.00     0.004 A 
ATOM      3  C4  UNL d   1       1.558  -1.879   5.247  0.00  0.00    -0.003 A 
ATOM      4  C5  UNL d   1       2.256  -2.977   4.757  0.00  0.00     0.000 A 
ATOM      5  C6  UNL d   1       2.571  -3.052   3.401  0.00  0.00     0.000 A 
ATOM      6  C7  UNL d   1       2.192  -2.030   2.513  0.00  0.00    -0.073 A 
ATOM      7  C8  UNL d   1       2.552  -2.166   1.059  0.00  0.00     0.078 C 
ENDROOT
BRANCH   1   8
ATOM      8  C1  UNL d   1       0.973   0.185   2.105  0.00  0.00     0.053 C 
ATOM      9  C   UNL d   1      -0.060  -0.286   1.093  0.00  0.00     0.018 C 
ENDBRANCH   1   8
TORSDOF 1
ENDMDL
