MODEL 1
REMARK minimizedAffinity -2.30989385
REMARK minimizedRMSD -1
REMARK  1 active torsions:
REMARK  status: ('A' for Active; 'I' for Inactive)
REMARK    1  A    between atoms: C1_2  and  C2_3 
ROOT
ATOM      1  C2  UNL d   1      -3.074  -1.704  -1.363  0.00  0.00    -0.076 A 
ATOM      2  C3  UNL d   1      -2.849  -2.301  -0.110  0.00  0.00     0.004 A 
ATOM      3  C4  UNL d   1      -2.485  -3.643  -0.009  0.00  0.00    -0.003 A 
ATOM      4  C5  UNL d   1      -2.340  -4.409  -1.160  0.00  0.00     0.000 A 
ATOM      5  C6  UNL d   1      -2.542  -3.829  -2.412  0.00  0.00     0.000 A 
ATOM      6  C7  UNL d   1      -2.893  -2.474  -2.532  0.00  0.00    -0.073 A 
ATOM      7  C8  UNL d   1      -3.104  -1.901  -3.907  0.00  0.00     0.078 C 
ENDROOT
BRANCH   1   8
ATOM      8  C1  UNL d   1      -3.493  -0.252  -1.408  0.00  0.00     0.053 C 
ATOM      9  C   UNL d   1      -2.757   0.534  -2.482  0.00  0.00     0.018 C 
ENDBRANCH   1   8
TORSDOF 1
ENDMDL
