MODEL 1
REMARK minimizedAffinity 4.37975359
REMARK minimizedRMSD -1
REMARK  1 active torsions:
REMARK  status: ('A' for Active; 'I' for Inactive)
REMARK    1  A    between atoms: C1_2  and  C2_3 
ROOT
ATOM      1  C2  UNL d   1      -0.210   0.363   1.239  0.00  0.00    -0.076 A 
ATOM      2  C3  UNL d   1       0.216   1.688   1.039  0.00  0.00     0.004 A 
ATOM      3  C4  UNL d   1      -0.595   2.610   0.380  0.00  0.00    -0.003 A 
ATOM      4  C5  UNL d   1      -1.846   2.223  -0.089  0.00  0.00     0.000 A 
ATOM      5  C6  UNL d   1      -2.291   0.918   0.116  0.00  0.00     0.000 A 
ATOM      6  C7  UNL d   1      -1.493  -0.020   0.793  0.00  0.00    -0.073 A 
ATOM      7  C8  UNL d   1      -2.021  -1.416   0.981  0.00  0.00     0.078 C 
ENDROOT
BRANCH   1   8
ATOM      8  C1  UNL d   1       0.724  -0.600   1.936  0.00  0.00     0.053 C 
ATOM      9  C   UNL d   1       1.032  -0.182   3.366  0.00  0.00     0.018 C 
ENDBRANCH   1   8
TORSDOF 1
ENDMDL
