MODEL 1
REMARK minimizedAffinity 7.32717896
REMARK minimizedRMSD -1
REMARK  1 active torsions:
REMARK  status: ('A' for Active; 'I' for Inactive)
REMARK    1  A    between atoms: C1_2  and  C2_3 
ROOT
ATOM      1  C2  UNL d   1      -3.998   2.931  -3.496  0.00  0.00    -0.076 A 
ATOM      2  C3  UNL d   1      -4.241   3.751  -2.381  0.00  0.00     0.004 A 
ATOM      3  C4  UNL d   1      -4.254   5.140  -2.500  0.00  0.00    -0.003 A 
ATOM      4  C5  UNL d   1      -4.025   5.731  -3.738  0.00  0.00     0.000 A 
ATOM      5  C6  UNL d   1      -3.800   4.932  -4.859  0.00  0.00     0.000 A 
ATOM      6  C7  UNL d   1      -3.800   3.530  -4.759  0.00  0.00    -0.073 A 
ATOM      7  C8  UNL d   1      -3.546   2.718  -5.999  0.00  0.00     0.078 C 
ENDROOT
BRANCH   1   8
ATOM      8  C1  UNL d   1      -3.969   1.432  -3.301  0.00  0.00     0.053 C 
ATOM      9  C   UNL d   1      -2.975   1.003  -2.233  0.00  0.00     0.018 C 
ENDBRANCH   1   8
TORSDOF 1
ENDMDL
