MODEL 1
REMARK minimizedAffinity 13.4366026
REMARK minimizedRMSD -1
REMARK  1 active torsions:
REMARK  status: ('A' for Active; 'I' for Inactive)
REMARK    1  A    between atoms: C1_2  and  C2_3 
ROOT
ATOM      1  C2  UNL d   1       1.291  -1.318   4.171  0.00  0.00    -0.076 A 
ATOM      2  C3  UNL d   1       1.464  -2.353   3.236  0.00  0.00     0.004 A 
ATOM      3  C4  UNL d   1       1.578  -2.078   1.875  0.00  0.00    -0.003 A 
ATOM      4  C5  UNL d   1       1.522  -0.763   1.426  0.00  0.00     0.000 A 
ATOM      5  C6  UNL d   1       1.368   0.277   2.341  0.00  0.00     0.000 A 
ATOM      6  C7  UNL d   1       1.268   0.018   3.719  0.00  0.00    -0.073 A 
ATOM      7  C8  UNL d   1       1.098   1.179   4.661  0.00  0.00     0.078 C 
ENDROOT
BRANCH   1   8
ATOM      8  C1  UNL d   1       1.146  -1.679   5.632  0.00  0.00     0.053 C 
ATOM      9  C   UNL d   1       1.911  -2.941   6.000  0.00  0.00     0.018 C 
ENDBRANCH   1   8
TORSDOF 1
ENDMDL
