MODEL 1
REMARK minimizedAffinity 4.0042367
REMARK minimizedRMSD -1
REMARK  1 active torsions:
REMARK  status: ('A' for Active; 'I' for Inactive)
REMARK    1  A    between atoms: C1_2  and  C2_3 
ROOT
ATOM      1  C2  UNL d   1       1.499  -1.256   4.543  0.00  0.00    -0.076 A 
ATOM      2  C3  UNL d   1       1.778  -2.147   3.492  0.00  0.00     0.004 A 
ATOM      3  C4  UNL d   1       1.869  -1.698   2.176  0.00  0.00    -0.003 A 
ATOM      4  C5  UNL d   1       1.682  -0.350   1.889  0.00  0.00     0.000 A 
ATOM      5  C6  UNL d   1       1.421   0.550   2.921  0.00  0.00     0.000 A 
ATOM      6  C7  UNL d   1       1.343   0.117   4.255  0.00  0.00    -0.073 A 
ATOM      7  C8  UNL d   1       1.053   1.131   5.328  0.00  0.00     0.078 C 
ENDROOT
BRANCH   1   8
ATOM      8  C1  UNL d   1       1.385  -1.805   5.947  0.00  0.00     0.053 C 
ATOM      9  C   UNL d   1       1.561  -3.315   5.999  0.00  0.00     0.018 C 
ENDBRANCH   1   8
TORSDOF 1
ENDMDL
