MODEL 1
REMARK minimizedAffinity -4.36738253
REMARK minimizedRMSD -1
REMARK  0 active torsions:
REMARK  status: ('A' for Active; 'I' for Inactive)
ROOT
ATOM      1  C1  BNZ d   1       2.227   0.069   1.263  0.00  0.00     0.000 A 
ATOM      2  C2  BNZ d   1       0.955   0.558   1.127  0.00  0.00     0.000 A 
ATOM      3  C3  BNZ d   1       0.008  -0.140   0.431  0.00  0.00     0.000 A 
ATOM      4  C4  BNZ d   1       0.343  -1.305  -0.160  0.00  0.00     0.000 A 
ATOM      5  C5  BNZ d   1       1.624  -1.806  -0.040  0.00  0.00     0.000 A 
ATOM      6  C6  BNZ d   1       2.564  -1.120   0.694  0.00  0.00     0.000 A 
ENDROOT
TORSDOF 0
ENDMDL
