MODEL 1
REMARK minimizedAffinity -3.87690639
REMARK minimizedRMSD -1
REMARK  0 active torsions:
REMARK  status: ('A' for Active; 'I' for Inactive)
ROOT
ATOM      1  C1  BNZ d   1       1.865  -0.929   1.305  0.00  0.00     0.000 A 
ATOM      2  C2  BNZ d   1       0.568  -0.537   1.108  0.00  0.00     0.000 A 
ATOM      3  C3  BNZ d   1      -0.135  -0.964   0.015  0.00  0.00     0.000 A 
ATOM      4  C4  BNZ d   1       0.473  -1.748  -0.898  0.00  0.00     0.000 A 
ATOM      5  C5  BNZ d   1       1.783  -2.144  -0.719  0.00  0.00     0.000 A 
ATOM      6  C6  BNZ d   1       2.474  -1.745   0.402  0.00  0.00     0.000 A 
ENDROOT
TORSDOF 0
ENDMDL
