MODEL 1
REMARK minimizedAffinity -4.31922913
REMARK minimizedRMSD -1
REMARK  0 active torsions:
REMARK  status: ('A' for Active; 'I' for Inactive)
ROOT
ATOM      1  C1  BNZ d   1       0.688  -1.505  -0.765  0.00  0.00     0.000 A 
ATOM      2  C2  BNZ d   1       1.951  -1.998  -0.571  0.00  0.00     0.000 A 
ATOM      3  C3  BNZ d   1       2.775  -1.459   0.377  0.00  0.00     0.000 A 
ATOM      4  C4  BNZ d   1       2.351  -0.403   1.101  0.00  0.00     0.000 A 
ATOM      5  C5  BNZ d   1       1.084   0.112   0.911  0.00  0.00     0.000 A 
ATOM      6  C6  BNZ d   1       0.243  -0.458  -0.017  0.00  0.00     0.000 A 
ENDROOT
TORSDOF 0
ENDMDL
