MODEL 1
REMARK minimizedAffinity -4.03585243
REMARK minimizedRMSD -1
REMARK  0 active torsions:
REMARK  status: ('A' for Active; 'I' for Inactive)
ROOT
ATOM      1  C1  BNZ d   1       1.454  -0.437   0.835  0.00  0.00     0.000 A 
ATOM      2  C2  BNZ d   1       0.736   0.729   0.811  0.00  0.00     0.000 A 
ATOM      3  C3  BNZ d   1      -0.424   0.822   0.094  0.00  0.00     0.000 A 
ATOM      4  C4  BNZ d   1      -0.842  -0.235  -0.631  0.00  0.00     0.000 A 
ATOM      5  C5  BNZ d   1      -0.124  -1.414  -0.626  0.00  0.00     0.000 A 
ATOM      6  C6  BNZ d   1       1.022  -1.518   0.129  0.00  0.00     0.000 A 
ENDROOT
TORSDOF 0
ENDMDL
