MODEL 1
REMARK minimizedAffinity -4.5237937
REMARK minimizedRMSD -1
REMARK  0 active torsions:
REMARK  status: ('A' for Active; 'I' for Inactive)
ROOT
ATOM      1  C1  BNZ d   1       0.110   0.182   0.525  0.00  0.00     0.000 A 
ATOM      2  C2  BNZ d   1      -0.231  -0.262  -0.725  0.00  0.00     0.000 A 
ATOM      3  C3  BNZ d   1       0.464  -1.279  -1.320  0.00  0.00     0.000 A 
ATOM      4  C4  BNZ d   1       1.521  -1.821  -0.682  0.00  0.00     0.000 A 
ATOM      5  C5  BNZ d   1       1.883  -1.377   0.574  0.00  0.00     0.000 A 
ATOM      6  C6  BNZ d   1       1.158  -0.380   1.186  0.00  0.00     0.000 A 
ENDROOT
TORSDOF 0
ENDMDL
