MODEL 1
REMARK minimizedAffinity -4.65387821
REMARK minimizedRMSD -1
REMARK  0 active torsions:
REMARK  status: ('A' for Active; 'I' for Inactive)
ROOT
ATOM      1  C1  BNZ d   1       1.362  -2.079  -0.564  0.00  0.00     0.000 A 
ATOM      2  C2  BNZ d   1       0.152  -1.785  -1.135  0.00  0.00     0.000 A 
ATOM      3  C3  BNZ d   1      -0.359  -0.519  -1.079  0.00  0.00     0.000 A 
ATOM      4  C4  BNZ d   1       0.319   0.441  -0.418  0.00  0.00     0.000 A 
ATOM      5  C5  BNZ d   1       1.536   0.158   0.171  0.00  0.00     0.000 A 
ATOM      6  C6  BNZ d   1       2.066  -1.108   0.078  0.00  0.00     0.000 A 
ENDROOT
TORSDOF 0
ENDMDL
