MODEL 1
REMARK minimizedAffinity -4.23526144
REMARK minimizedRMSD -1
REMARK  0 active torsions:
REMARK  status: ('A' for Active; 'I' for Inactive)
ROOT
ATOM      1  C   UNL d   1      -0.796   3.694   0.081  0.00  0.00     0.023 A 
ATOM      2  C1  UNL d   1      -0.621   3.189  -1.207  0.00  0.00     0.003 A 
ATOM      3  C2  UNL d   1      -0.254   1.855  -1.392  0.00  0.00     0.048 A 
ATOM      4  C3  UNL d   1      -0.065   1.030  -0.284  0.00  0.00     0.023 A 
ATOM      5  C4  UNL d   1      -0.240   1.530   1.008  0.00  0.00     0.048 A 
ATOM      6  C5  UNL d   1      -0.606   2.865   1.187  0.00  0.00     0.003 A 
ATOM      7  I   UNL d   1       0.481  -0.957  -0.556  0.00  0.00    -0.146 I 
ENDROOT
TORSDOF 0
ENDMDL
