MODEL 1
REMARK minimizedAffinity -1.75820255
REMARK minimizedRMSD -1
REMARK  0 active torsions:
REMARK  status: ('A' for Active; 'I' for Inactive)
ROOT
ATOM      1  C   UNL d   1       0.283  -4.375  -1.102  0.00  0.00     0.023 A 
ATOM      2  C1  UNL d   1      -0.933  -3.715  -0.919  0.00  0.00     0.003 A 
ATOM      3  C2  UNL d   1      -0.951  -2.351  -0.622  0.00  0.00     0.048 A 
ATOM      4  C3  UNL d   1       0.250  -1.652  -0.510  0.00  0.00     0.023 A 
ATOM      5  C4  UNL d   1       1.469  -2.307  -0.692  0.00  0.00     0.048 A 
ATOM      6  C5  UNL d   1       1.482  -3.672  -0.988  0.00  0.00     0.003 A 
ATOM      7  I   UNL d   1       0.226   0.379  -0.068  0.00  0.00    -0.146 I 
ENDROOT
TORSDOF 0
ENDMDL
