MODEL 1
REMARK minimizedAffinity -1.73690069
REMARK minimizedRMSD -1
REMARK  0 active torsions:
REMARK  status: ('A' for Active; 'I' for Inactive)
ROOT
ATOM      1  C   UNL d   1       1.344  -0.733   3.058  0.00  0.00     0.023 A 
ATOM      2  C1  UNL d   1      -0.017  -0.461   2.916  0.00  0.00     0.003 A 
ATOM      3  C2  UNL d   1      -0.566  -0.285   1.644  0.00  0.00     0.048 A 
ATOM      4  C3  UNL d   1       0.252  -0.383   0.519  0.00  0.00     0.023 A 
ATOM      5  C4  UNL d   1       1.614  -0.655   0.656  0.00  0.00     0.048 A 
ATOM      6  C5  UNL d   1       2.158  -0.830   1.930  0.00  0.00     0.003 A 
ATOM      7  I   UNL d   1      -0.563  -0.122  -1.376  0.00  0.00    -0.146 I 
ENDROOT
TORSDOF 0
ENDMDL
