MODEL 1
REMARK minimizedAffinity -3.83403111
REMARK minimizedRMSD -1
REMARK  0 active torsions:
REMARK  status: ('A' for Active; 'I' for Inactive)
ROOT
ATOM      1  C   UNL d   1      -0.826   1.832   2.166  0.00  0.00     0.023 A 
ATOM      2  C1  UNL d   1      -1.043   0.491   2.485  0.00  0.00     0.003 A 
ATOM      3  C2  UNL d   1      -0.976  -0.485   1.489  0.00  0.00     0.048 A 
ATOM      4  C3  UNL d   1      -0.690  -0.114   0.176  0.00  0.00     0.023 A 
ATOM      5  C4  UNL d   1      -0.471   1.226  -0.148  0.00  0.00     0.048 A 
ATOM      6  C5  UNL d   1      -0.541   2.199   0.851  0.00  0.00     0.003 A 
ATOM      7  I   UNL d   1      -0.588  -1.565  -1.308  0.00  0.00    -0.146 I 
ENDROOT
TORSDOF 0
ENDMDL
