MODEL 1
REMARK minimizedAffinity -0.722913742
REMARK minimizedRMSD -1
REMARK  0 active torsions:
REMARK  status: ('A' for Active; 'I' for Inactive)
ROOT
ATOM      1  C   UNL d   1      -0.471   2.485   1.427  0.00  0.00     0.023 A 
ATOM      2  C1  UNL d   1      -0.359   2.342   0.044  0.00  0.00     0.003 A 
ATOM      3  C2  UNL d   1      -0.025   1.103  -0.507  0.00  0.00     0.048 A 
ATOM      4  C3  UNL d   1       0.194   0.011   0.332  0.00  0.00     0.023 A 
ATOM      5  C4  UNL d   1       0.082   0.149   1.716  0.00  0.00     0.048 A 
ATOM      6  C5  UNL d   1      -0.251   1.390   2.262  0.00  0.00     0.003 A 
ATOM      7  I   UNL d   1       0.691  -1.835  -0.485  0.00  0.00    -0.146 I 
ENDROOT
TORSDOF 0
ENDMDL
