MODEL 1
REMARK minimizedAffinity 1.9710598
REMARK minimizedRMSD -1
REMARK  0 active torsions:
REMARK  status: ('A' for Active; 'I' for Inactive)
ROOT
ATOM      1  C   UNL d   1       0.511   1.095   2.539  0.00  0.00     0.023 A 
ATOM      2  C1  UNL d   1       0.910  -0.078   1.898  0.00  0.00     0.003 A 
ATOM      3  C2  UNL d   1       0.813  -0.184   0.509  0.00  0.00     0.048 A 
ATOM      4  C3  UNL d   1       0.317   0.887  -0.233  0.00  0.00     0.023 A 
ATOM      5  C4  UNL d   1      -0.083   2.064   0.403  0.00  0.00     0.048 A 
ATOM      6  C5  UNL d   1       0.016   2.165   1.792  0.00  0.00     0.003 A 
ATOM      7  I   UNL d   1       0.171   0.732  -2.301  0.00  0.00    -0.146 I 
ENDROOT
TORSDOF 0
ENDMDL
