MODEL 1
REMARK minimizedAffinity -2.21964288
REMARK minimizedRMSD -1
REMARK  0 active torsions:
REMARK  status: ('A' for Active; 'I' for Inactive)
ROOT
ATOM      1  C   UNL d   1       0.130  -0.661   1.775  0.00  0.00     0.023 A 
ATOM      2  C1  UNL d   1       0.070  -0.582   0.383  0.00  0.00     0.003 A 
ATOM      3  C2  UNL d   1      -0.106   0.655  -0.240  0.00  0.00     0.048 A 
ATOM      4  C3  UNL d   1      -0.220   1.809   0.533  0.00  0.00     0.023 A 
ATOM      5  C4  UNL d   1      -0.159   1.735   1.926  0.00  0.00     0.048 A 
ATOM      6  C5  UNL d   1       0.016   0.496   2.545  0.00  0.00     0.003 A 
ATOM      7  I   UNL d   1      -0.481   3.651  -0.393  0.00  0.00    -0.146 I 
ENDROOT
TORSDOF 0
ENDMDL
