MODEL 1
REMARK minimizedAffinity -3.73206019
REMARK minimizedRMSD -1
REMARK  0 active torsions:
REMARK  status: ('A' for Active; 'I' for Inactive)
ROOT
ATOM      1  C   UNL d   1      -0.002  -2.977  -2.573  0.00  0.00     0.023 A 
ATOM      2  C1  UNL d   1      -0.821  -3.145  -1.456  0.00  0.00     0.003 A 
ATOM      3  C2  UNL d   1      -0.779  -2.217  -0.413  0.00  0.00     0.048 A 
ATOM      4  C3  UNL d   1       0.083  -1.124  -0.494  0.00  0.00     0.023 A 
ATOM      5  C4  UNL d   1       0.903  -0.952  -1.610  0.00  0.00     0.048 A 
ATOM      6  C5  UNL d   1       0.859  -1.882  -2.650  0.00  0.00     0.003 A 
ATOM      7  I   UNL d   1       0.146   0.257   1.058  0.00  0.00    -0.146 I 
ENDROOT
TORSDOF 0
ENDMDL
