MODEL 1
REMARK minimizedAffinity 7.97750378
REMARK minimizedRMSD -1
REMARK  0 active torsions:
REMARK  status: ('A' for Active; 'I' for Inactive)
ROOT
ATOM      1  C1  DEN d   1       1.175  -1.760   5.460  0.00  0.00     0.130 A 
ATOM      2  C2  DEN d   1       1.749  -2.990   5.999  0.00  0.00    -0.031 A 
ATOM      3  C3  DEN d   1       2.370  -3.732   4.884  0.00  0.00     0.027 A 
ATOM      4  C4  DEN d   1       2.503  -3.097   2.387  0.00  0.00     0.027 A 
ATOM      5  C5  DEN d   1       2.150  -2.152   1.449  0.00  0.00    -0.003 A 
ATOM      6  C6  DEN d   1       1.423  -1.037   1.773  0.00  0.00     0.001 A 
ATOM      7  C7  DEN d   1       1.066  -0.815   3.077  0.00  0.00     0.017 A 
ATOM      8  C8  DEN d   1       1.412  -1.767   4.027  0.00  0.00    -0.094 A 
ATOM      9  C9  DEN d   1       2.157  -2.881   3.682  0.00  0.00    -0.072 A 
ENDROOT
TORSDOF 0
ENDMDL
