MODEL 1
REMARK minimizedAffinity 11.2275734
REMARK minimizedRMSD -1
REMARK  0 active torsions:
REMARK  status: ('A' for Active; 'I' for Inactive)
ROOT
ATOM      1  C1  DEN d   1       2.703  -3.137   2.422  0.00  0.00     0.130 A 
ATOM      2  C2  DEN d   1       3.064  -4.061   3.494  0.00  0.00    -0.031 A 
ATOM      3  C3  DEN d   1       2.760  -3.406   4.782  0.00  0.00     0.027 A 
ATOM      4  C4  DEN d   1       1.767  -1.066   5.219  0.00  0.00     0.027 A 
ATOM      5  C5  DEN d   1       1.311   0.088   4.623  0.00  0.00    -0.003 A 
ATOM      6  C6  DEN d   1       1.318   0.261   3.264  0.00  0.00     0.001 A 
ATOM      7  C7  DEN d   1       1.750  -0.756   2.453  0.00  0.00     0.017 A 
ATOM      8  C8  DEN d   1       2.218  -1.920   3.047  0.00  0.00    -0.094 A 
ATOM      9  C9  DEN d   1       2.191  -2.080   4.422  0.00  0.00    -0.072 A 
ENDROOT
TORSDOF 0
ENDMDL
