MODEL 1
REMARK minimizedAffinity 1.20037329
REMARK minimizedRMSD -1
REMARK  0 active torsions:
REMARK  status: ('A' for Active; 'I' for Inactive)
ROOT
ATOM      1  C1  DEN d   1      -1.536  -3.997   0.077  0.00  0.00     0.130 A 
ATOM      2  C2  DEN d   1      -2.964  -3.911  -0.217  0.00  0.00    -0.031 A 
ATOM      3  C3  DEN d   1      -3.383  -2.506  -0.041  0.00  0.00     0.027 A 
ATOM      4  C4  DEN d   1      -1.967  -0.465   0.650  0.00  0.00     0.027 A 
ATOM      5  C5  DEN d   1      -0.707  -0.044   1.016  0.00  0.00    -0.003 A 
ATOM      6  C6  DEN d   1       0.348  -0.911   1.126  0.00  0.00     0.001 A 
ATOM      7  C7  DEN d   1       0.174  -2.235   0.824  0.00  0.00     0.017 A 
ATOM      8  C8  DEN d   1      -1.095  -2.668   0.462  0.00  0.00    -0.094 A 
ATOM      9  C9  DEN d   1      -2.146  -1.775   0.345  0.00  0.00    -0.072 A 
ENDROOT
TORSDOF 0
ENDMDL
