MODEL 1
REMARK minimizedAffinity 19.8763752
REMARK minimizedRMSD -1
REMARK  0 active torsions:
REMARK  status: ('A' for Active; 'I' for Inactive)
ROOT
ATOM      1  C1  DEN d   1      -0.151  -0.989   1.907  0.00  0.00     0.130 A 
ATOM      2  C2  DEN d   1       1.145  -0.428   2.282  0.00  0.00    -0.031 A 
ATOM      3  C3  DEN d   1       1.248   0.920   1.687  0.00  0.00     0.027 A 
ATOM      4  C4  DEN d   1      -0.464   2.188   0.234  0.00  0.00     0.027 A 
ATOM      5  C5  DEN d   1      -1.704   2.115  -0.361  0.00  0.00    -0.003 A 
ATOM      6  C6  DEN d   1      -2.493   0.998  -0.271  0.00  0.00     0.001 A 
ATOM      7  C7  DEN d   1      -2.068  -0.074   0.468  0.00  0.00     0.017 A 
ATOM      8  C8  DEN d   1      -0.816  -0.011   1.065  0.00  0.00    -0.094 A 
ATOM      9  C9  DEN d   1      -0.039   1.131   0.972  0.00  0.00    -0.072 A 
ENDROOT
TORSDOF 0
ENDMDL
