MODEL 1
REMARK minimizedAffinity 12.8404846
REMARK minimizedRMSD -1
REMARK  0 active torsions:
REMARK  status: ('A' for Active; 'I' for Inactive)
ROOT
ATOM      1  C1  DEN d   1       0.195  -1.154   1.948  0.00  0.00     0.130 A 
ATOM      2  C2  DEN d   1       0.775   0.165   2.184  0.00  0.00    -0.031 A 
ATOM      3  C3  DEN d   1      -0.015   1.154   1.424  0.00  0.00     0.027 A 
ATOM      4  C4  DEN d   1      -2.073   0.773  -0.083  0.00  0.00     0.027 A 
ATOM      5  C5  DEN d   1      -2.926  -0.178  -0.600  0.00  0.00    -0.003 A 
ATOM      6  C6  DEN d   1      -2.779  -1.513  -0.332  0.00  0.00     0.001 A 
ATOM      7  C7  DEN d   1      -1.782  -1.931   0.510  0.00  0.00     0.017 A 
ATOM      8  C8  DEN d   1      -0.914  -0.979   1.028  0.00  0.00    -0.094 A 
ATOM      9  C9  DEN d   1      -1.087   0.367   0.756  0.00  0.00    -0.072 A 
ENDROOT
TORSDOF 0
ENDMDL
