MODEL 1
REMARK minimizedAffinity 5.23106241
REMARK minimizedRMSD -1
REMARK  0 active torsions:
REMARK  status: ('A' for Active; 'I' for Inactive)
ROOT
ATOM      1  C1  DEN d   1       2.778  -3.810   2.863  0.00  0.00     0.130 A 
ATOM      2  C2  DEN d   1       2.731  -3.276   1.505  0.00  0.00    -0.031 A 
ATOM      3  C3  DEN d   1       2.169  -1.912   1.570  0.00  0.00     0.027 A 
ATOM      4  C4  DEN d   1       1.377  -0.580   3.632  0.00  0.00     0.027 A 
ATOM      5  C5  DEN d   1       1.212  -0.621   4.999  0.00  0.00    -0.003 A 
ATOM      6  C6  DEN d   1       1.523  -1.730   5.739  0.00  0.00     0.001 A 
ATOM      7  C7  DEN d   1       2.058  -2.830   5.122  0.00  0.00     0.017 A 
ATOM      8  C8  DEN d   1       2.221  -2.799   3.743  0.00  0.00    -0.094 A 
ATOM      9  C9  DEN d   1       1.912  -1.663   3.014  0.00  0.00    -0.072 A 
ENDROOT
TORSDOF 0
ENDMDL
