MODEL 1
REMARK minimizedAffinity 12.7698412
REMARK minimizedRMSD -1
REMARK  0 active torsions:
REMARK  status: ('A' for Active; 'I' for Inactive)
ROOT
ATOM      1  C1  DEN d   1      -0.051  -0.025   1.832  0.00  0.00     0.130 A 
ATOM      2  C2  DEN d   1       1.197  -0.708   2.166  0.00  0.00    -0.031 A 
ATOM      3  C3  DEN d   1       1.095  -2.102   1.691  0.00  0.00     0.027 A 
ATOM      4  C4  DEN d   1      -0.861  -3.264   0.475  0.00  0.00     0.027 A 
ATOM      5  C5  DEN d   1      -2.136  -3.094  -0.017  0.00  0.00    -0.003 A 
ATOM      6  C6  DEN d   1      -2.813  -1.910   0.103  0.00  0.00     0.001 A 
ATOM      7  C7  DEN d   1      -2.201  -0.834   0.689  0.00  0.00     0.017 A 
ATOM      8  C8  DEN d   1      -0.917  -0.999   1.194  0.00  0.00    -0.094 A 
ATOM      9  C9  DEN d   1      -0.245  -2.201   1.052  0.00  0.00    -0.072 A 
ENDROOT
TORSDOF 0
ENDMDL
