MODEL 1
REMARK minimizedAffinity 19.5680943
REMARK minimizedRMSD -1
REMARK  0 active torsions:
REMARK  status: ('A' for Active; 'I' for Inactive)
ROOT
ATOM      1  C1  DEN d   1       1.874  -3.004   4.839  0.00  0.00     0.130 A 
ATOM      2  C2  DEN d   1       1.297  -2.331   6.000  0.00  0.00    -0.031 A 
ATOM      3  C3  DEN d   1       0.757  -1.032   5.552  0.00  0.00     0.027 A 
ATOM      4  C4  DEN d   1       0.753  -0.005   3.186  0.00  0.00     0.027 A 
ATOM      5  C5  DEN d   1       1.139  -0.198   1.878  0.00  0.00    -0.003 A 
ATOM      6  C6  DEN d   1       1.821  -1.315   1.475  0.00  0.00     0.001 A 
ATOM      7  C7  DEN d   1       2.099  -2.304   2.381  0.00  0.00     0.017 A 
ATOM      8  C8  DEN d   1       1.720  -2.113   3.704  0.00  0.00    -0.094 A 
ATOM      9  C9  DEN d   1       1.020  -0.982   4.088  0.00  0.00    -0.072 A 
ENDROOT
TORSDOF 0
ENDMDL
