MODEL 1
REMARK minimizedAffinity -4.28075886
REMARK minimizedRMSD -1
REMARK  0 active torsions:
REMARK  status: ('A' for Active; 'I' for Inactive)
ROOT
ATOM      1  C   UNL d   1      -1.581   0.940   2.487  0.00  0.00     0.078 C 
ATOM      2  C1  UNL d   1      -0.957   0.626   1.160  0.00  0.00    -0.077 A 
ATOM      3  C2  UNL d   1      -0.178  -0.524   0.984  0.00  0.00    -0.001 A 
ATOM      4  C3  UNL d   1       0.405  -0.799  -0.254  0.00  0.00     0.003 A 
ATOM      5  C4  UNL d   1       0.215   0.071  -1.325  0.00  0.00    -0.005 A 
ATOM      6  C5  UNL d   1      -0.558   1.219  -1.159  0.00  0.00     0.003 A 
ATOM      7  C6  UNL d   1      -1.141   1.495   0.078  0.00  0.00    -0.001 A 
ENDROOT
TORSDOF 0
ENDMDL
