MODEL 1
REMARK minimizedAffinity -5.99242258
REMARK minimizedRMSD -1
REMARK  0 active torsions:
REMARK  status: ('A' for Active; 'I' for Inactive)
ROOT
ATOM      1  C   UNL d   1       0.289  -0.131  -1.082  0.00  0.00     0.078 C 
ATOM      2  C1  UNL d   1       0.127   0.141   0.384  0.00  0.00    -0.077 A 
ATOM      3  C2  UNL d   1       1.215   0.042   1.260  0.00  0.00    -0.001 A 
ATOM      4  C3  UNL d   1       1.048   0.288   2.624  0.00  0.00     0.003 A 
ATOM      5  C4  UNL d   1      -0.206   0.633   3.124  0.00  0.00    -0.005 A 
ATOM      6  C5  UNL d   1      -1.295   0.731   2.261  0.00  0.00     0.003 A 
ATOM      7  C6  UNL d   1      -1.130   0.485   0.897  0.00  0.00    -0.001 A 
ENDROOT
TORSDOF 0
ENDMDL
