MODEL 1
REMARK minimizedAffinity -5.32698774
REMARK minimizedRMSD -1
REMARK  0 active torsions:
REMARK  status: ('A' for Active; 'I' for Inactive)
ROOT
ATOM      1  C   UNL d   1      -2.115   1.055  -0.602  0.00  0.00     0.078 C 
ATOM      2  C1  UNL d   1      -1.304   0.997   0.658  0.00  0.00    -0.077 A 
ATOM      3  C2  UNL d   1      -1.822   1.467   1.871  0.00  0.00    -0.001 A 
ATOM      4  C3  UNL d   1      -1.053   1.416   3.035  0.00  0.00     0.003 A 
ATOM      5  C4  UNL d   1       0.240   0.896   2.997  0.00  0.00    -0.005 A 
ATOM      6  C5  UNL d   1       0.764   0.428   1.794  0.00  0.00     0.003 A 
ATOM      7  C6  UNL d   1      -0.003   0.478   0.629  0.00  0.00    -0.001 A 
ENDROOT
TORSDOF 0
ENDMDL
