MODEL 1
REMARK minimizedAffinity -3.67452598
REMARK minimizedRMSD -1
REMARK  0 active torsions:
REMARK  status: ('A' for Active; 'I' for Inactive)
ROOT
ATOM      1  C   UNL d   1      -1.805  -0.022   2.536  0.00  0.00     0.078 C 
ATOM      2  C1  UNL d   1      -0.895   0.079   1.349  0.00  0.00    -0.077 A 
ATOM      3  C2  UNL d   1      -1.348   0.613   0.137  0.00  0.00    -0.001 A 
ATOM      4  C3  UNL d   1      -0.492   0.692  -0.963  0.00  0.00     0.003 A 
ATOM      5  C4  UNL d   1       0.821   0.238  -0.862  0.00  0.00    -0.005 A 
ATOM      6  C5  UNL d   1       1.280  -0.297   0.340  0.00  0.00     0.003 A 
ATOM      7  C6  UNL d   1       0.426  -0.377   1.441  0.00  0.00    -0.001 A 
ENDROOT
TORSDOF 0
ENDMDL
