MODEL 1
REMARK minimizedAffinity -3.16434479
REMARK minimizedRMSD -1
REMARK  0 active torsions:
REMARK  status: ('A' for Active; 'I' for Inactive)
ROOT
ATOM      1  C   UNL d   1      -0.064  -0.673  -0.598  0.00  0.00     0.078 C 
ATOM      2  C1  UNL d   1       0.295  -0.642   0.858  0.00  0.00    -0.077 A 
ATOM      3  C2  UNL d   1       1.566  -1.033   1.296  0.00  0.00    -0.001 A 
ATOM      4  C3  UNL d   1       1.883  -1.008   2.655  0.00  0.00     0.003 A 
ATOM      5  C4  UNL d   1       0.934  -0.593   3.588  0.00  0.00    -0.005 A 
ATOM      6  C5  UNL d   1      -0.334  -0.204   3.161  0.00  0.00     0.003 A 
ATOM      7  C6  UNL d   1      -0.653  -0.229   1.803  0.00  0.00    -0.001 A 
ENDROOT
TORSDOF 0
ENDMDL
