MODEL 1
REMARK minimizedAffinity -5.24619007
REMARK minimizedRMSD -1
REMARK  0 active torsions:
REMARK  status: ('A' for Active; 'I' for Inactive)
ROOT
ATOM      1  C   UNL d   1       0.544  -0.334  -0.711  0.00  0.00     0.078 C 
ATOM      2  C1  UNL d   1      -0.066   0.274   0.517  0.00  0.00    -0.077 A 
ATOM      3  C2  UNL d   1       0.704   1.040   1.400  0.00  0.00    -0.001 A 
ATOM      4  C3  UNL d   1       0.125   1.591   2.545  0.00  0.00     0.003 A 
ATOM      5  C4  UNL d   1      -1.225   1.381   2.816  0.00  0.00    -0.005 A 
ATOM      6  C5  UNL d   1      -1.999   0.618   1.944  0.00  0.00     0.003 A 
ATOM      7  C6  UNL d   1      -1.421   0.066   0.799  0.00  0.00    -0.001 A 
ENDROOT
TORSDOF 0
ENDMDL
