MODEL 1
REMARK minimizedAffinity -1.77942216
REMARK minimizedRMSD -1
REMARK  0 active torsions:
REMARK  status: ('A' for Active; 'I' for Inactive)
ROOT
ATOM      1  C   UNL d   1       1.726   0.398  -3.412  0.00  0.00     0.078 C 
ATOM      2  C1  UNL d   1       0.956   0.257  -2.133  0.00  0.00    -0.077 A 
ATOM      3  C2  UNL d   1       0.604   1.381  -1.376  0.00  0.00    -0.001 A 
ATOM      4  C3  UNL d   1      -0.105   1.235  -0.183  0.00  0.00     0.003 A 
ATOM      5  C4  UNL d   1      -0.467  -0.034   0.265  0.00  0.00    -0.005 A 
ATOM      6  C5  UNL d   1      -0.120  -1.159  -0.481  0.00  0.00     0.003 A 
ATOM      7  C6  UNL d   1       0.589  -1.014  -1.675  0.00  0.00    -0.001 A 
ENDROOT
TORSDOF 0
ENDMDL
