MODEL 1
REMARK minimizedAffinity -2.86596656
REMARK minimizedRMSD -1
REMARK  0 active torsions:
REMARK  status: ('A' for Active; 'I' for Inactive)
ROOT
ATOM      1  C   UNL d   1      -2.074   0.271   1.954  0.00  0.00    -0.002 A 
ATOM      2  C1  UNL d   1      -1.058   0.068   2.877  0.00  0.00     0.010 A 
ATOM      3  C2  UNL d   1       0.265  -0.081   2.455  0.00  0.00     0.041 A 
ATOM      4  C3  UNL d   1       0.552  -0.020   1.078  0.00  0.00    -0.075 A 
ATOM      5  S   UNL d   1       2.098  -0.175   0.330  0.00  0.00     0.015 SA
ATOM      6  C4  UNL d   1       1.446   0.026  -1.232  0.00  0.00     0.022 A 
ATOM      7  C5  UNL d   1       0.084   0.207  -1.202  0.00  0.00     0.026 A 
ATOM      8  C6  UNL d   1      -0.454   0.184   0.129  0.00  0.00    -0.082 A 
ATOM      9  C7  UNL d   1      -1.785   0.331   0.588  0.00  0.00     0.045 A 
ENDROOT
TORSDOF 0
ENDMDL
