MODEL 1
REMARK minimizedAffinity -3.65064406
REMARK minimizedRMSD -1
REMARK  0 active torsions:
REMARK  status: ('A' for Active; 'I' for Inactive)
ROOT
ATOM      1  C   UNL d   1      -0.407  -0.302   3.130  0.00  0.00    -0.002 A 
ATOM      2  C1  UNL d   1      -1.526  -0.719   2.423  0.00  0.00     0.010 A 
ATOM      3  C2  UNL d   1      -1.534  -0.691   1.027  0.00  0.00     0.041 A 
ATOM      4  C3  UNL d   1      -0.387  -0.234   0.347  0.00  0.00    -0.075 A 
ATOM      5  S   UNL d   1      -0.169  -0.113  -1.358  0.00  0.00     0.015 SA
ATOM      6  C4  UNL d   1       1.414   0.494  -1.188  0.00  0.00     0.022 A 
ATOM      7  C5  UNL d   1       1.783   0.608   0.131  0.00  0.00     0.026 A 
ATOM      8  C6  UNL d   1       0.751   0.190   1.038  0.00  0.00    -0.082 A 
ATOM      9  C7  UNL d   1       0.728   0.150   2.453  0.00  0.00     0.045 A 
ENDROOT
TORSDOF 0
ENDMDL
