MODEL 1
REMARK minimizedAffinity 0.901812077
REMARK minimizedRMSD -1
REMARK  0 active torsions:
REMARK  status: ('A' for Active; 'I' for Inactive)
ROOT
ATOM      1  C   UNL d   1      -0.418  -0.413   2.966  0.00  0.00    -0.002 A 
ATOM      2  C1  UNL d   1      -1.442  -1.094   2.323  0.00  0.00     0.010 A 
ATOM      3  C2  UNL d   1      -1.497  -1.142   0.928  0.00  0.00     0.041 A 
ATOM      4  C3  UNL d   1      -0.495  -0.489   0.184  0.00  0.00    -0.075 A 
ATOM      5  S   UNL d   1      -0.358  -0.415  -1.533  0.00  0.00     0.015 SA
ATOM      6  C4  UNL d   1       1.064   0.522  -1.454  0.00  0.00     0.022 A 
ATOM      7  C5  UNL d   1       1.438   0.782  -0.157  0.00  0.00     0.026 A 
ATOM      8  C6  UNL d   1       0.547   0.203   0.808  0.00  0.00    -0.082 A 
ATOM      9  C7  UNL d   1       0.574   0.234   2.224  0.00  0.00     0.045 A 
ENDROOT
TORSDOF 0
ENDMDL
