MODEL 1
REMARK minimizedAffinity -4.5404973
REMARK minimizedRMSD -1
REMARK  0 active torsions:
REMARK  status: ('A' for Active; 'I' for Inactive)
ROOT
ATOM      1  C   UNL d   1       1.382   1.291  -0.113  0.00  0.00    -0.002 A 
ATOM      2  C1  UNL d   1       0.344   1.150  -1.023  0.00  0.00     0.010 A 
ATOM      3  C2  UNL d   1      -0.832   0.490  -0.662  0.00  0.00     0.041 A 
ATOM      4  C3  UNL d   1      -0.950  -0.029   0.643  0.00  0.00    -0.075 A 
ATOM      5  S   UNL d   1      -2.298  -0.874   1.308  0.00  0.00     0.015 SA
ATOM      6  C4  UNL d   1      -1.528  -1.066   2.816  0.00  0.00     0.022 A 
ATOM      7  C5  UNL d   1      -0.273  -0.506   2.830  0.00  0.00     0.026 A 
ATOM      8  C6  UNL d   1       0.081   0.102   1.577  0.00  0.00    -0.082 A 
ATOM      9  C7  UNL d   1       1.261   0.775   1.181  0.00  0.00     0.045 A 
ENDROOT
TORSDOF 0
ENDMDL
