MODEL 1
REMARK minimizedAffinity -2.36538386
REMARK minimizedRMSD -1
REMARK  0 active torsions:
REMARK  status: ('A' for Active; 'I' for Inactive)
ROOT
ATOM      1  C   UNL d   1      -0.754  -0.595   3.253  0.00  0.00    -0.002 A 
ATOM      2  C1  UNL d   1      -1.961  -0.806   2.600  0.00  0.00     0.010 A 
ATOM      3  C2  UNL d   1      -2.060  -0.635   1.218  0.00  0.00     0.041 A 
ATOM      4  C3  UNL d   1      -0.915  -0.246   0.496  0.00  0.00    -0.075 A 
ATOM      5  S   UNL d   1      -0.799   0.023  -1.203  0.00  0.00     0.015 SA
ATOM      6  C4  UNL d   1       0.854   0.424  -1.103  0.00  0.00     0.022 A 
ATOM      7  C5  UNL d   1       1.323   0.359   0.188  0.00  0.00     0.026 A 
ATOM      8  C6  UNL d   1       0.311  -0.028   1.131  0.00  0.00    -0.082 A 
ATOM      9  C7  UNL d   1       0.379  -0.209   2.533  0.00  0.00     0.045 A 
ENDROOT
TORSDOF 0
ENDMDL
