MODEL 1
REMARK minimizedAffinity -2.11439109
REMARK minimizedRMSD -1
REMARK  0 active torsions:
REMARK  status: ('A' for Active; 'I' for Inactive)
ROOT
ATOM      1  C   UNL d   1       1.005   0.035   2.831  0.00  0.00    -0.002 A 
ATOM      2  C1  UNL d   1      -0.194  -0.657   2.924  0.00  0.00     0.010 A 
ATOM      3  C2  UNL d   1      -0.941  -0.942   1.779  0.00  0.00     0.041 A 
ATOM      4  C3  UNL d   1      -0.455  -0.519   0.527  0.00  0.00    -0.075 A 
ATOM      5  S   UNL d   1      -1.199  -0.757  -1.011  0.00  0.00     0.015 SA
ATOM      6  C4  UNL d   1       0.059   0.053  -1.828  0.00  0.00     0.022 A 
ATOM      7  C5  UNL d   1       1.030   0.501  -0.964  0.00  0.00     0.026 A 
ATOM      8  C6  UNL d   1       0.750   0.178   0.407  0.00  0.00    -0.082 A 
ATOM      9  C7  UNL d   1       1.483   0.453   1.586  0.00  0.00     0.045 A 
ENDROOT
TORSDOF 0
ENDMDL
