MODEL 1
REMARK minimizedAffinity -5.62000799
REMARK minimizedRMSD -1
REMARK  0 active torsions:
REMARK  status: ('A' for Active; 'I' for Inactive)
ROOT
ATOM      1  C   UNL d   1      -1.465  -0.232   3.912  0.00  0.00    -0.002 A 
ATOM      2  C1  UNL d   1      -2.588  -0.411   3.117  0.00  0.00     0.010 A 
ATOM      3  C2  UNL d   1      -2.496  -0.322   1.727  0.00  0.00     0.041 A 
ATOM      4  C3  UNL d   1      -1.243  -0.050   1.143  0.00  0.00    -0.075 A 
ATOM      5  S   UNL d   1      -0.891   0.103  -0.538  0.00  0.00     0.015 SA
ATOM      6  C4  UNL d   1       0.759   0.409  -0.240  0.00  0.00     0.022 A 
ATOM      7  C5  UNL d   1       1.052   0.398   1.103  0.00  0.00     0.026 A 
ATOM      8  C6  UNL d   1      -0.097   0.133   1.922  0.00  0.00    -0.082 A 
ATOM      9  C7  UNL d   1      -0.224   0.038   3.329  0.00  0.00     0.045 A 
ENDROOT
TORSDOF 0
ENDMDL
