MODEL 1
REMARK minimizedAffinity -3.26133943
REMARK minimizedRMSD -1
REMARK  0 active torsions:
REMARK  status: ('A' for Active; 'I' for Inactive)
ROOT
ATOM      1  C   UNL d   1      -0.154  -0.320   3.216  0.00  0.00    -0.002 A 
ATOM      2  C1  UNL d   1       1.088  -0.182   2.613  0.00  0.00     0.010 A 
ATOM      3  C2  UNL d   1       1.189   0.090   1.247  0.00  0.00     0.041 A 
ATOM      4  C3  UNL d   1       0.009   0.225   0.490  0.00  0.00    -0.075 A 
ATOM      5  S   UNL d   1      -0.112   0.560  -1.197  0.00  0.00     0.015 SA
ATOM      6  C4  UNL d   1      -1.816   0.528  -1.157  0.00  0.00     0.022 A 
ATOM      7  C5  UNL d   1      -2.297   0.270   0.104  0.00  0.00     0.026 A 
ATOM      8  C6  UNL d   1      -1.254   0.092   1.075  0.00  0.00    -0.082 A 
ATOM      9  C7  UNL d   1      -1.323  -0.186   2.461  0.00  0.00     0.045 A 
ENDROOT
TORSDOF 0
ENDMDL
