MODEL 1
REMARK minimizedAffinity -5.24793768
REMARK minimizedRMSD -1
REMARK  0 active torsions:
REMARK  status: ('A' for Active; 'I' for Inactive)
ROOT
ATOM      1  C   UNL d   1      -1.834  -0.003   3.447  0.00  0.00    -0.002 A 
ATOM      2  C1  UNL d   1      -2.983   0.246   2.710  0.00  0.00     0.010 A 
ATOM      3  C2  UNL d   1      -2.912   0.440   1.329  0.00  0.00     0.041 A 
ATOM      4  C3  UNL d   1      -1.655   0.376   0.695  0.00  0.00    -0.075 A 
ATOM      5  S   UNL d   1      -1.327   0.581  -0.985  0.00  0.00     0.015 SA
ATOM      6  C4  UNL d   1       0.346   0.341  -0.763  0.00  0.00     0.022 A 
ATOM      7  C5  UNL d   1       0.664   0.109   0.554  0.00  0.00     0.026 A 
ATOM      8  C6  UNL d   1      -0.485   0.125   1.416  0.00  0.00    -0.082 A 
ATOM      9  C7  UNL d   1      -0.589  -0.066   2.815  0.00  0.00     0.045 A 
ENDROOT
TORSDOF 0
ENDMDL
