MODEL 1
REMARK minimizedAffinity -3.65791321
REMARK minimizedRMSD -1
REMARK  0 active torsions:
REMARK  status: ('A' for Active; 'I' for Inactive)
ROOT
ATOM      1  C   UNL d   1      -0.731  -0.910   2.768  0.00  0.00    -0.002 A 
ATOM      2  C1  UNL d   1       0.549  -0.951   2.233  0.00  0.00     0.010 A 
ATOM      3  C2  UNL d   1       0.806  -0.426   0.965  0.00  0.00     0.041 A 
ATOM      4  C3  UNL d   1      -0.255   0.148   0.237  0.00  0.00    -0.075 A 
ATOM      5  S   UNL d   1      -0.175   0.854  -1.334  0.00  0.00     0.015 SA
ATOM      6  C4  UNL d   1      -1.838   1.227  -1.332  0.00  0.00     0.022 A 
ATOM      7  C5  UNL d   1      -2.455   0.829  -0.169  0.00  0.00     0.026 A 
ATOM      8  C6  UNL d   1      -1.552   0.202   0.755  0.00  0.00    -0.082 A 
ATOM      9  C7  UNL d   1      -1.781  -0.340   2.042  0.00  0.00     0.045 A 
ENDROOT
TORSDOF 0
ENDMDL
