MODEL 1
REMARK minimizedAffinity 0.376389593
REMARK minimizedRMSD -1
REMARK  0 active torsions:
REMARK  status: ('A' for Active; 'I' for Inactive)
ROOT
ATOM      1  C   UNL d   1       1.337  -0.127   2.209  0.00  0.00    -0.002 A 
ATOM      2  C1  UNL d   1       0.090  -0.509   2.683  0.00  0.00     0.010 A 
ATOM      3  C2  UNL d   1      -1.038  -0.421   1.864  0.00  0.00     0.041 A 
ATOM      4  C3  UNL d   1      -0.889   0.059   0.548  0.00  0.00    -0.075 A 
ATOM      5  S   UNL d   1      -2.129   0.251  -0.635  0.00  0.00     0.015 SA
ATOM      6  C4  UNL d   1      -1.031   0.844  -1.797  0.00  0.00     0.022 A 
ATOM      7  C5  UNL d   1       0.254   0.900  -1.311  0.00  0.00     0.026 A 
ATOM      8  C6  UNL d   1       0.357   0.448   0.048  0.00  0.00    -0.082 A 
ATOM      9  C7  UNL d   1       1.481   0.348   0.903  0.00  0.00     0.045 A 
ENDROOT
TORSDOF 0
ENDMDL
