MODEL 1
REMARK minimizedAffinity -1.49863076
REMARK minimizedRMSD -1
REMARK  0 active torsions:
REMARK  status: ('A' for Active; 'I' for Inactive)
ROOT
ATOM      1  C   UNL d   1      -0.071  -0.016  -0.955  0.00  0.00    -0.002 A 
ATOM      2  C1  UNL d   1       1.176   0.470  -0.588  0.00  0.00     0.010 A 
ATOM      3  C2  UNL d   1       1.490   0.676   0.756  0.00  0.00     0.041 A 
ATOM      4  C3  UNL d   1       0.522   0.380   1.736  0.00  0.00    -0.075 A 
ATOM      5  S   UNL d   1       0.685   0.552   3.444  0.00  0.00     0.015 SA
ATOM      6  C4  UNL d   1      -0.896  -0.018   3.727  0.00  0.00     0.022 A 
ATOM      7  C5  UNL d   1      -1.547  -0.336   2.558  0.00  0.00     0.026 A 
ATOM      8  C6  UNL d   1      -0.740  -0.112   1.391  0.00  0.00    -0.082 A 
ATOM      9  C7  UNL d   1      -1.029  -0.309   0.019  0.00  0.00     0.045 A 
ENDROOT
TORSDOF 0
ENDMDL
