MODEL 1
REMARK minimizedAffinity 3.44009304
REMARK minimizedRMSD -1
REMARK  1 active torsions:
REMARK  status: ('A' for Active; 'I' for Inactive)
REMARK    1  A    between atoms: C1_2  and  C2_3 
ROOT
ATOM      1  C2  UNL d   1      -2.685   2.127  -2.764  0.00  0.00    -0.073 A 
ATOM      2  C3  UNL d   1      -1.784   1.634  -3.715  0.00  0.00    -0.002 A 
ATOM      3  C4  UNL d   1      -0.412   1.648  -3.461  0.00  0.00     0.004 A 
ATOM      4  C5  UNL d   1       0.072   2.147  -2.252  0.00  0.00    -0.004 A 
ATOM      5  C6  UNL d   1      -0.813   2.634  -1.284  0.00  0.00    -0.075 A 
ATOM      6  C7  UNL d   1      -0.308   3.177   0.020  0.00  0.00     0.076 C 
ATOM      7  C8  UNL d   1      -2.189   2.619  -1.549  0.00  0.00     0.001 A 
ENDROOT
BRANCH   1   8
ATOM      8  C1  UNL d   1      -4.168   2.108  -3.032  0.00  0.00     0.053 C 
ATOM      9  C   UNL d   1      -4.712   3.497  -3.326  0.00  0.00     0.018 C 
ENDBRANCH   1   8
TORSDOF 1
ENDMDL
