MODEL 1
REMARK minimizedAffinity 4.35657978
REMARK minimizedRMSD -1
REMARK  1 active torsions:
REMARK  status: ('A' for Active; 'I' for Inactive)
REMARK    1  A    between atoms: C1_2  and  C2_3 
ROOT
ATOM      1  C2  UNL d   1       2.830  -3.823  -4.123  0.00  0.00    -0.073 A 
ATOM      2  C3  UNL d   1       3.212  -2.577  -4.632  0.00  0.00    -0.002 A 
ATOM      3  C4  UNL d   1       4.435  -2.429  -5.288  0.00  0.00     0.004 A 
ATOM      4  C5  UNL d   1       5.284  -3.524  -5.447  0.00  0.00    -0.004 A 
ATOM      5  C6  UNL d   1       4.914  -4.781  -4.956  0.00  0.00    -0.075 A 
ATOM      6  C7  UNL d   1       5.816  -5.969  -5.118  0.00  0.00     0.076 C 
ATOM      7  C8  UNL d   1       3.685  -4.921  -4.297  0.00  0.00     0.001 A 
ENDROOT
BRANCH   1   8
ATOM      8  C1  UNL d   1       1.507  -3.989  -3.420  0.00  0.00     0.053 C 
ATOM      9  C   UNL d   1       0.862  -2.652  -3.096  0.00  0.00     0.018 C 
ENDBRANCH   1   8
TORSDOF 1
ENDMDL
