MODEL 1
REMARK minimizedAffinity 14.7207108
REMARK minimizedRMSD -1
REMARK  1 active torsions:
REMARK  status: ('A' for Active; 'I' for Inactive)
REMARK    1  A    between atoms: C1_2  and  C2_3 
ROOT
ATOM      1  C2  UNL d   1      -2.414   1.599  -2.876  0.00  0.00    -0.073 A 
ATOM      2  C3  UNL d   1      -3.209   2.077  -1.828  0.00  0.00    -0.002 A 
ATOM      3  C4  UNL d   1      -3.904   3.279  -1.963  0.00  0.00     0.004 A 
ATOM      4  C5  UNL d   1      -3.818   4.011  -3.147  0.00  0.00    -0.004 A 
ATOM      5  C6  UNL d   1      -3.039   3.543  -4.210  0.00  0.00    -0.075 A 
ATOM      6  C7  UNL d   1      -2.934   4.320  -5.490  0.00  0.00     0.076 C 
ATOM      7  C8  UNL d   1      -2.341   2.337  -4.066  0.00  0.00     0.001 A 
ENDROOT
BRANCH   1   8
ATOM      8  C1  UNL d   1      -1.666   0.298  -2.737  0.00  0.00     0.053 C 
ATOM      9  C   UNL d   1      -0.283   0.366  -3.364  0.00  0.00     0.018 C 
ENDBRANCH   1   8
TORSDOF 1
ENDMDL
