MODEL 1
REMARK minimizedAffinity -3.70943952
REMARK minimizedRMSD -1
REMARK  0 active torsions:
REMARK  status: ('A' for Active; 'I' for Inactive)
ROOT
ATOM      1  C   UNL d   1       6.000  -1.502  -5.593  0.00  0.00     0.077 C 
ATOM      2  C1  UNL d   1       4.934  -2.557  -5.619  0.00  0.00    -0.074 A 
ATOM      3  C2  UNL d   1       5.233  -3.872  -5.990  0.00  0.00    -0.005 A 
ATOM      4  C3  UNL d   1       4.233  -4.844  -6.000  0.00  0.00     0.006 A 
ATOM      5  C4  UNL d   1       2.926  -4.512  -5.640  0.00  0.00    -0.005 A 
ATOM      6  C5  UNL d   1       2.609  -3.203  -5.265  0.00  0.00    -0.074 A 
ATOM      7  C6  UNL d   1       1.211  -2.831  -4.866  0.00  0.00     0.077 C 
ATOM      8  C7  UNL d   1       3.620  -2.233  -5.251  0.00  0.00    -0.001 A 
ENDROOT
TORSDOF 0
ENDMDL
