MODEL 1
REMARK minimizedAffinity 2.17415881
REMARK minimizedRMSD -1
REMARK  0 active torsions:
REMARK  status: ('A' for Active; 'I' for Inactive)
ROOT
ATOM      1  C   UNL d   1       5.975  -4.705  -5.976  0.00  0.00     0.077 C 
ATOM      2  C1  UNL d   1       5.778  -3.411  -5.244  0.00  0.00    -0.074 A 
ATOM      3  C2  UNL d   1       5.442  -3.396  -3.887  0.00  0.00    -0.005 A 
ATOM      4  C3  UNL d   1       5.272  -2.184  -3.218  0.00  0.00     0.006 A 
ATOM      5  C4  UNL d   1       5.436  -0.977  -3.898  0.00  0.00    -0.005 A 
ATOM      6  C5  UNL d   1       5.773  -0.972  -5.255  0.00  0.00    -0.074 A 
ATOM      7  C6  UNL d   1       5.963   0.317  -5.999  0.00  0.00     0.077 C 
ATOM      8  C7  UNL d   1       5.949  -2.194  -5.919  0.00  0.00    -0.001 A 
ENDROOT
TORSDOF 0
ENDMDL
