MODEL 1
REMARK minimizedAffinity 8.12283897
REMARK minimizedRMSD -1
REMARK  0 active torsions:
REMARK  status: ('A' for Active; 'I' for Inactive)
ROOT
ATOM      1  C   UNL d   1      -4.773   3.358  -3.119  0.00  0.00     0.077 C 
ATOM      2  C1  UNL d   1      -3.748   2.269  -3.011  0.00  0.00    -0.074 A 
ATOM      3  C2  UNL d   1      -4.055   0.954  -3.374  0.00  0.00    -0.005 A 
ATOM      4  C3  UNL d   1      -3.088  -0.047  -3.277  0.00  0.00     0.006 A 
ATOM      5  C4  UNL d   1      -1.806   0.257  -2.817  0.00  0.00    -0.005 A 
ATOM      6  C5  UNL d   1      -1.480   1.567  -2.451  0.00  0.00    -0.074 A 
ATOM      7  C6  UNL d   1      -0.104   1.912  -1.963  0.00  0.00     0.077 C 
ATOM      8  C7  UNL d   1      -2.455   2.568  -2.557  0.00  0.00    -0.001 A 
ENDROOT
TORSDOF 0
ENDMDL
