MODEL 1
REMARK minimizedAffinity 8.86669159
REMARK minimizedRMSD -1
REMARK  0 active torsions:
REMARK  status: ('A' for Active; 'I' for Inactive)
ROOT
ATOM      1  C   UNL d   1       2.621   6.000  -1.502  0.00  0.00     0.077 C 
ATOM      2  C1  UNL d   1       2.409   4.669  -2.160  0.00  0.00    -0.074 A 
ATOM      3  C2  UNL d   1       3.471   3.991  -2.768  0.00  0.00    -0.005 A 
ATOM      4  C3  UNL d   1       3.260   2.749  -3.368  0.00  0.00     0.006 A 
ATOM      5  C4  UNL d   1       1.989   2.174  -3.366  0.00  0.00    -0.005 A 
ATOM      6  C5  UNL d   1       0.916   2.837  -2.763  0.00  0.00    -0.074 A 
ATOM      7  C6  UNL d   1      -0.455   2.229  -2.743  0.00  0.00     0.077 C 
ATOM      8  C7  UNL d   1       1.136   4.081  -2.156  0.00  0.00    -0.001 A 
ENDROOT
TORSDOF 0
ENDMDL
