MODEL 1
REMARK minimizedAffinity -0.180342197
REMARK minimizedRMSD -1
REMARK  0 active torsions:
REMARK  status: ('A' for Active; 'I' for Inactive)
ROOT
ATOM      1  C   UNL d   1      -4.371   4.708  -3.333  0.00  0.00     0.077 C 
ATOM      2  C1  UNL d   1      -4.029   3.249  -3.400  0.00  0.00    -0.074 A 
ATOM      3  C2  UNL d   1      -5.011   2.271  -3.216  0.00  0.00    -0.005 A 
ATOM      4  C3  UNL d   1      -4.679   0.918  -3.291  0.00  0.00     0.006 A 
ATOM      5  C4  UNL d   1      -3.364   0.531  -3.550  0.00  0.00    -0.005 A 
ATOM      6  C5  UNL d   1      -2.368   1.495  -3.737  0.00  0.00    -0.074 A 
ATOM      7  C6  UNL d   1      -0.951   1.096  -4.026  0.00  0.00     0.077 C 
ATOM      8  C7  UNL d   1      -2.711   2.852  -3.667  0.00  0.00    -0.001 A 
ENDROOT
TORSDOF 0
ENDMDL
