MODEL 1
REMARK minimizedAffinity 0.545082092
REMARK minimizedRMSD -1
REMARK  0 active torsions:
REMARK  status: ('A' for Active; 'I' for Inactive)
ROOT
ATOM      1  C   UNL d   1       4.448  -5.999  -4.523  0.00  0.00     0.077 C 
ATOM      2  C1  UNL d   1       4.687  -4.565  -4.888  0.00  0.00    -0.074 A 
ATOM      3  C2  UNL d   1       5.794  -4.194  -5.658  0.00  0.00    -0.005 A 
ATOM      4  C3  UNL d   1       5.999  -2.857  -5.999  0.00  0.00     0.006 A 
ATOM      5  C4  UNL d   1       5.099  -1.878  -5.574  0.00  0.00    -0.005 A 
ATOM      6  C5  UNL d   1       3.985  -2.230  -4.804  0.00  0.00    -0.074 A 
ATOM      7  C6  UNL d   1       3.004  -1.192  -4.348  0.00  0.00     0.077 C 
ATOM      8  C7  UNL d   1       3.783  -3.577  -4.472  0.00  0.00    -0.001 A 
ENDROOT
TORSDOF 0
ENDMDL
