MODEL 1
REMARK minimizedAffinity 4.30943584
REMARK minimizedRMSD -1
REMARK  0 active torsions:
REMARK  status: ('A' for Active; 'I' for Inactive)
ROOT
ATOM      1  C   UNL d   1       4.437  -1.097  -3.133  0.00  0.00     0.077 C 
ATOM      2  C1  UNL d   1       4.840  -2.224  -4.037  0.00  0.00    -0.074 A 
ATOM      3  C2  UNL d   1       5.621  -1.990  -5.173  0.00  0.00    -0.005 A 
ATOM      4  C3  UNL d   1       5.996  -3.049  -5.999  0.00  0.00     0.006 A 
ATOM      5  C4  UNL d   1       5.593  -4.351  -5.698  0.00  0.00    -0.005 A 
ATOM      6  C5  UNL d   1       4.812  -4.604  -4.566  0.00  0.00    -0.074 A 
ATOM      7  C6  UNL d   1       4.379  -5.999  -4.224  0.00  0.00     0.077 C 
ATOM      8  C7  UNL d   1       4.446  -3.536  -3.737  0.00  0.00    -0.001 A 
ENDROOT
TORSDOF 0
ENDMDL
