MODEL 1
REMARK minimizedAffinity 15.2447443
REMARK minimizedRMSD -1
REMARK  0 active torsions:
REMARK  status: ('A' for Active; 'I' for Inactive)
ROOT
ATOM      1  C   UNL d   1      -3.774   4.037  -4.472  0.00  0.00     0.077 C 
ATOM      2  C1  UNL d   1      -3.605   2.798  -3.643  0.00  0.00    -0.074 A 
ATOM      3  C2  UNL d   1      -2.592   1.877  -3.926  0.00  0.00    -0.005 A 
ATOM      4  C3  UNL d   1      -2.441   0.734  -3.141  0.00  0.00     0.006 A 
ATOM      5  C4  UNL d   1      -3.301   0.501  -2.067  0.00  0.00    -0.005 A 
ATOM      6  C5  UNL d   1      -4.319   1.412  -1.768  0.00  0.00    -0.074 A 
ATOM      7  C6  UNL d   1      -5.246   1.182  -0.611  0.00  0.00     0.077 C 
ATOM      8  C7  UNL d   1      -4.460   2.561  -2.558  0.00  0.00    -0.001 A 
ENDROOT
TORSDOF 0
ENDMDL
