MODEL 1
REMARK minimizedAffinity 13.1065207
REMARK minimizedRMSD -1
REMARK  0 active torsions:
REMARK  status: ('A' for Active; 'I' for Inactive)
ROOT
ATOM      1  C   UNL d   1      -2.161   0.393  -2.500  0.00  0.00     0.077 C 
ATOM      2  C1  UNL d   1      -3.007   1.616  -2.697  0.00  0.00    -0.074 A 
ATOM      3  C2  UNL d   1      -4.039   1.927  -1.806  0.00  0.00    -0.005 A 
ATOM      4  C3  UNL d   1      -4.811   3.073  -1.996  0.00  0.00     0.006 A 
ATOM      5  C4  UNL d   1      -4.559   3.919  -3.077  0.00  0.00    -0.005 A 
ATOM      6  C5  UNL d   1      -3.530   3.625  -3.978  0.00  0.00    -0.074 A 
ATOM      7  C6  UNL d   1      -3.239   4.528  -5.139  0.00  0.00     0.077 C 
ATOM      8  C7  UNL d   1      -2.754   2.475  -3.776  0.00  0.00    -0.001 A 
ENDROOT
TORSDOF 0
ENDMDL
