MODEL 1
REMARK minimizedAffinity 8.70962524
REMARK minimizedRMSD -1
REMARK  0 active torsions:
REMARK  status: ('A' for Active; 'I' for Inactive)
ROOT
ATOM      1  C   UNL d   1      -4.905   3.618  -3.091  0.00  0.00     0.077 C 
ATOM      2  C1  UNL d   1      -3.864   2.605  -2.718  0.00  0.00    -0.074 A 
ATOM      3  C2  UNL d   1      -3.646   1.473  -3.510  0.00  0.00    -0.005 A 
ATOM      4  C3  UNL d   1      -2.668   0.544  -3.155  0.00  0.00     0.006 A 
ATOM      5  C4  UNL d   1      -1.900   0.737  -2.006  0.00  0.00    -0.005 A 
ATOM      6  C5  UNL d   1      -2.103   1.863  -1.202  0.00  0.00    -0.074 A 
ATOM      7  C6  UNL d   1      -1.280   2.090   0.031  0.00  0.00     0.077 C 
ATOM      8  C7  UNL d   1      -3.083   2.795  -1.569  0.00  0.00    -0.001 A 
ENDROOT
TORSDOF 0
ENDMDL
