MODEL 1
REMARK minimizedAffinity 2.19290876
REMARK minimizedRMSD -1
REMARK  0 active torsions:
REMARK  status: ('A' for Active; 'I' for Inactive)
ROOT
ATOM      1  C2' OXE d   1       5.826  -4.013   3.205  0.00  0.00     0.078 C 
ATOM      2  C1' OXE d   1       5.998  -3.755   5.995  0.00  0.00     0.078 C 
ATOM      3  C1  OXE d   1       4.880  -3.030   5.289  0.00  0.00    -0.078 A 
ATOM      4  C2  OXE d   1       4.831  -3.124   3.919  0.00  0.00    -0.078 A 
ATOM      5  C3  OXE d   1       3.788  -2.519   3.223  0.00  0.00     0.003 A 
ATOM      6  C4  OXE d   1       2.878  -1.690   3.890  0.00  0.00    -0.002 A 
ATOM      7  C5  OXE d   1       2.934  -1.548   5.281  0.00  0.00    -0.002 A 
ATOM      8  C6  OXE d   1       3.900  -2.244   5.998  0.00  0.00     0.003 A 
ENDROOT
TORSDOF 0
ENDMDL
