MODEL 1
REMARK minimizedAffinity 8.18197441
REMARK minimizedRMSD -1
REMARK  0 active torsions:
REMARK  status: ('A' for Active; 'I' for Inactive)
ROOT
ATOM      1  C2' OXE d   1       2.541   3.026  -3.788  0.00  0.00     0.078 C 
ATOM      2  C1' OXE d   1       1.932   5.272  -2.219  0.00  0.00     0.078 C 
ATOM      3  C1  OXE d   1       3.368   5.072  -2.634  0.00  0.00    -0.078 A 
ATOM      4  C2  OXE d   1       3.665   3.945  -3.362  0.00  0.00    -0.078 A 
ATOM      5  C3  OXE d   1       4.964   3.740  -3.816  0.00  0.00     0.003 A 
ATOM      6  C4  OXE d   1       6.000   4.590  -3.409  0.00  0.00    -0.002 A 
ATOM      7  C5  OXE d   1       5.726   5.722  -2.634  0.00  0.00    -0.002 A 
ATOM      8  C6  OXE d   1       4.412   6.000  -2.274  0.00  0.00     0.003 A 
ENDROOT
TORSDOF 0
ENDMDL
