MODEL 1
REMARK minimizedAffinity 6.06253004
REMARK minimizedRMSD -1
REMARK  0 active torsions:
REMARK  status: ('A' for Active; 'I' for Inactive)
ROOT
ATOM      1  C2' OXE d   1       4.938   5.451  -1.724  0.00  0.00     0.078 C 
ATOM      2  C1' OXE d   1       2.728   5.978  -3.373  0.00  0.00     0.078 C 
ATOM      3  C1  OXE d   1       3.851   5.148  -3.945  0.00  0.00    -0.078 A 
ATOM      4  C2  OXE d   1       4.949   4.935  -3.146  0.00  0.00    -0.078 A 
ATOM      5  C3  OXE d   1       5.988   4.130  -3.605  0.00  0.00     0.003 A 
ATOM      6  C4  OXE d   1       5.995   3.665  -4.926  0.00  0.00    -0.002 A 
ATOM      7  C5  OXE d   1       4.905   3.905  -5.768  0.00  0.00    -0.002 A 
ATOM      8  C6  OXE d   1       3.808   4.607  -5.281  0.00  0.00     0.003 A 
ENDROOT
TORSDOF 0
ENDMDL
