MODEL 1
REMARK minimizedAffinity 2.28910351
REMARK minimizedRMSD -1
REMARK  0 active torsions:
REMARK  status: ('A' for Active; 'I' for Inactive)
ROOT
ATOM      1  C2' OXE d   1       2.994   4.512  -1.492  0.00  0.00     0.078 C 
ATOM      2  C1' OXE d   1       5.344   6.000  -1.114  0.00  0.00     0.078 C 
ATOM      3  C1  OXE d   1       5.094   5.414  -2.482  0.00  0.00    -0.078 A 
ATOM      4  C2  OXE d   1       3.965   4.648  -2.645  0.00  0.00    -0.078 A 
ATOM      5  C3  OXE d   1       3.659   4.130  -3.900  0.00  0.00     0.003 A 
ATOM      6  C4  OXE d   1       4.567   4.252  -4.958  0.00  0.00    -0.002 A 
ATOM      7  C5  OXE d   1       5.743   4.995  -4.802  0.00  0.00    -0.002 A 
ATOM      8  C6  OXE d   1       6.000   5.617  -3.586  0.00  0.00     0.003 A 
ENDROOT
TORSDOF 0
ENDMDL
