MODEL 1
REMARK minimizedAffinity 9.15392399
REMARK minimizedRMSD -1
REMARK  0 active torsions:
REMARK  status: ('A' for Active; 'I' for Inactive)
ROOT
ATOM      1  C2' OXE d   1      -3.130  -3.905   0.131  0.00  0.00     0.078 C 
ATOM      2  C1' OXE d   1      -1.800  -2.218   1.937  0.00  0.00     0.078 C 
ATOM      3  C1  OXE d   1      -1.331  -2.223   0.503  0.00  0.00    -0.078 A 
ATOM      4  C2  OXE d   1      -1.957  -3.086  -0.363  0.00  0.00    -0.078 A 
ATOM      5  C3  OXE d   1      -1.600  -3.092  -1.709  0.00  0.00     0.003 A 
ATOM      6  C4  OXE d   1      -0.508  -2.338  -2.155  0.00  0.00    -0.002 A 
ATOM      7  C5  OXE d   1       0.169  -1.482  -1.280  0.00  0.00    -0.002 A 
ATOM      8  C6  OXE d   1      -0.256  -1.381   0.040  0.00  0.00     0.003 A 
ENDROOT
TORSDOF 0
ENDMDL
