MODEL 1
REMARK minimizedAffinity 1.3586601
REMARK minimizedRMSD -1
REMARK  0 active torsions:
REMARK  status: ('A' for Active; 'I' for Inactive)
ROOT
ATOM      1  C2' OXE d   1       2.891  -1.486   4.789  0.00  0.00     0.078 C 
ATOM      2  C1' OXE d   1       3.379  -3.011   2.483  0.00  0.00     0.078 C 
ATOM      3  C1  OXE d   1       4.215  -3.297   3.706  0.00  0.00    -0.078 A 
ATOM      4  C2  OXE d   1       4.001  -2.514   4.815  0.00  0.00    -0.078 A 
ATOM      5  C3  OXE d   1       4.707  -2.772   5.987  0.00  0.00     0.003 A 
ATOM      6  C4  OXE d   1       5.739  -3.718   5.999  0.00  0.00    -0.002 A 
ATOM      7  C5  OXE d   1       5.999  -4.499   4.868  0.00  0.00    -0.002 A 
ATOM      8  C6  OXE d   1       5.220  -4.331   3.729  0.00  0.00     0.003 A 
ENDROOT
TORSDOF 0
ENDMDL
