MODEL 1
REMARK minimizedAffinity 3.87566948
REMARK minimizedRMSD -1
REMARK  0 active torsions:
REMARK  status: ('A' for Active; 'I' for Inactive)
ROOT
ATOM      1  C2' OXE d   1       3.463   4.761  -1.095  0.00  0.00     0.078 C 
ATOM      2  C1' OXE d   1       5.980   5.998  -1.227  0.00  0.00     0.078 C 
ATOM      3  C1  OXE d   1       5.359   5.527  -2.518  0.00  0.00    -0.078 A 
ATOM      4  C2  OXE d   1       4.149   4.881  -2.439  0.00  0.00    -0.078 A 
ATOM      5  C3  OXE d   1       3.507   4.474  -3.606  0.00  0.00     0.003 A 
ATOM      6  C4  OXE d   1       4.153   4.579  -4.844  0.00  0.00    -0.002 A 
ATOM      7  C5  OXE d   1       5.403   5.198  -4.942  0.00  0.00    -0.002 A 
ATOM      8  C6  OXE d   1       6.000   5.714  -3.797  0.00  0.00     0.003 A 
ENDROOT
TORSDOF 0
ENDMDL
