MODEL 1
REMARK minimizedAffinity 6.57993603
REMARK minimizedRMSD -1
REMARK  0 active torsions:
REMARK  status: ('A' for Active; 'I' for Inactive)
ROOT
ATOM      1  C2' OXE d   1       3.596  -4.131   3.869  0.00  0.00     0.078 C 
ATOM      2  C1' OXE d   1       5.996  -4.526   5.270  0.00  0.00     0.078 C 
ATOM      3  C1  OXE d   1       5.395  -3.143   5.281  0.00  0.00    -0.078 A 
ATOM      4  C2  OXE d   1       4.245  -2.948   4.554  0.00  0.00    -0.078 A 
ATOM      5  C3  OXE d   1       3.619  -1.705   4.575  0.00  0.00     0.003 A 
ATOM      6  C4  OXE d   1       4.231  -0.613   5.202  0.00  0.00    -0.002 A 
ATOM      7  C5  OXE d   1       5.423  -0.781   5.915  0.00  0.00    -0.002 A 
ATOM      8  C6  OXE d   1       5.994  -2.046   5.999  0.00  0.00     0.003 A 
ENDROOT
TORSDOF 0
ENDMDL
