MODEL 1
REMARK minimizedAffinity 1.74295425
REMARK minimizedRMSD -1
REMARK  0 active torsions:
REMARK  status: ('A' for Active; 'I' for Inactive)
ROOT
ATOM      1  C2' OXE d   1      -3.547  -3.548   0.469  0.00  0.00     0.078 C 
ATOM      2  C1' OXE d   1      -1.719  -1.930   1.855  0.00  0.00     0.078 C 
ATOM      3  C1  OXE d   1      -1.449  -2.206   0.397  0.00  0.00    -0.078 A 
ATOM      4  C2  OXE d   1      -2.324  -3.037  -0.261  0.00  0.00    -0.078 A 
ATOM      5  C3  OXE d   1      -2.152  -3.280  -1.621  0.00  0.00     0.003 A 
ATOM      6  C4  OXE d   1      -1.013  -2.811  -2.287  0.00  0.00    -0.002 A 
ATOM      7  C5  OXE d   1      -0.089  -1.996  -1.625  0.00  0.00    -0.002 A 
ATOM      8  C6  OXE d   1      -0.314  -1.650  -0.297  0.00  0.00     0.003 A 
ENDROOT
TORSDOF 0
ENDMDL
