MODEL 1
REMARK minimizedAffinity 3.61043215
REMARK minimizedRMSD -1
REMARK  0 active torsions:
REMARK  status: ('A' for Active; 'I' for Inactive)
ROOT
ATOM      1  C2' OXE d   1       0.136  -4.881  -2.276  0.00  0.00     0.078 C 
ATOM      2  C1' OXE d   1      -0.370  -2.121  -2.203  0.00  0.00     0.078 C 
ATOM      3  C1  OXE d   1      -0.330  -2.793  -3.553  0.00  0.00    -0.078 A 
ATOM      4  C2  OXE d   1      -0.035  -4.135  -3.582  0.00  0.00    -0.078 A 
ATOM      5  C3  OXE d   1      -0.040  -4.816  -4.796  0.00  0.00     0.003 A 
ATOM      6  C4  OXE d   1      -0.189  -4.116  -6.000  0.00  0.00    -0.002 A 
ATOM      7  C5  OXE d   1      -0.451  -2.742  -5.995  0.00  0.00    -0.002 A 
ATOM      8  C6  OXE d   1      -0.567  -2.075  -4.780  0.00  0.00     0.003 A 
ENDROOT
TORSDOF 0
ENDMDL
