MODEL 1
REMARK minimizedAffinity 3.30156851
REMARK minimizedRMSD -1
REMARK  0 active torsions:
REMARK  status: ('A' for Active; 'I' for Inactive)
ROOT
ATOM      1  C2' OXE d   1       2.466   5.754  -2.880  0.00  0.00     0.078 C 
ATOM      2  C1' OXE d   1       4.701   6.000  -1.198  0.00  0.00     0.078 C 
ATOM      3  C1  OXE d   1       4.799   5.049  -2.365  0.00  0.00    -0.078 A 
ATOM      4  C2  OXE d   1       3.685   4.900  -3.155  0.00  0.00    -0.078 A 
ATOM      5  C3  OXE d   1       3.740   4.077  -4.277  0.00  0.00     0.003 A 
ATOM      6  C4  OXE d   1       4.868   3.283  -4.519  0.00  0.00    -0.002 A 
ATOM      7  C5  OXE d   1       5.999   3.390  -3.703  0.00  0.00    -0.002 A 
ATOM      8  C6  OXE d   1       5.997   4.297  -2.649  0.00  0.00     0.003 A 
ENDROOT
TORSDOF 0
ENDMDL
