MODEL 1
REMARK minimizedAffinity 4.90154362
REMARK minimizedRMSD -1
REMARK  0 active torsions:
REMARK  status: ('A' for Active; 'I' for Inactive)
ROOT
ATOM      1  C2' OXE d   1       0.825  -4.698  -4.273  0.00  0.00     0.078 C 
ATOM      2  C1' OXE d   1       2.521  -2.638  -3.403  0.00  0.00     0.078 C 
ATOM      3  C1  OXE d   1       1.139  -2.711  -2.805  0.00  0.00    -0.078 A 
ATOM      4  C2  OXE d   1       0.299  -3.694  -3.270  0.00  0.00    -0.078 A 
ATOM      5  C3  OXE d   1      -0.968  -3.840  -2.713  0.00  0.00     0.003 A 
ATOM      6  C4  OXE d   1      -1.450  -2.900  -1.793  0.00  0.00    -0.002 A 
ATOM      7  C5  OXE d   1      -0.625  -1.868  -1.335  0.00  0.00    -0.002 A 
ATOM      8  C6  OXE d   1       0.684  -1.784  -1.798  0.00  0.00     0.003 A 
ENDROOT
TORSDOF 0
ENDMDL
