MODEL 1
REMARK minimizedAffinity 1.72425187
REMARK minimizedRMSD -1
REMARK  0 active torsions:
REMARK  status: ('A' for Active; 'I' for Inactive)
ROOT
ATOM      1  C2' OXE d   1      -4.030  -2.871   1.157  0.00  0.00     0.078 C 
ATOM      2  C1' OXE d   1      -2.429  -1.150   2.691  0.00  0.00     0.078 C 
ATOM      3  C1  OXE d   1      -1.959  -1.495   1.300  0.00  0.00    -0.078 A 
ATOM      4  C2  OXE d   1      -2.725  -2.375   0.574  0.00  0.00    -0.078 A 
ATOM      5  C3  OXE d   1      -2.365  -2.684  -0.735  0.00  0.00     0.003 A 
ATOM      6  C4  OXE d   1      -1.151  -2.229  -1.263  0.00  0.00    -0.002 A 
ATOM      7  C5  OXE d   1      -0.336  -1.363  -0.525  0.00  0.00    -0.002 A 
ATOM      8  C6  OXE d   1      -0.746  -0.954   0.739  0.00  0.00     0.003 A 
ENDROOT
TORSDOF 0
ENDMDL
