MODEL 1
REMARK minimizedAffinity 5.51578522
REMARK minimizedRMSD -1
REMARK  0 active torsions:
REMARK  status: ('A' for Active; 'I' for Inactive)
ROOT
ATOM      1  C2' OXE d   1       1.128  -2.006  -4.048  0.00  0.00     0.078 C 
ATOM      2  C1' OXE d   1      -0.210  -1.963  -1.581  0.00  0.00     0.078 C 
ATOM      3  C1  OXE d   1       1.298  -1.955  -1.564  0.00  0.00    -0.078 A 
ATOM      4  C2  OXE d   1       1.945  -2.024  -2.774  0.00  0.00    -0.078 A 
ATOM      5  C3  OXE d   1       3.335  -1.964  -2.818  0.00  0.00     0.003 A 
ATOM      6  C4  OXE d   1       4.083  -1.990  -1.635  0.00  0.00    -0.002 A 
ATOM      7  C5  OXE d   1       3.445  -1.961  -0.391  0.00  0.00    -0.002 A 
ATOM      8  C6  OXE d   1       2.057  -1.900  -0.338  0.00  0.00     0.003 A 
ENDROOT
TORSDOF 0
ENDMDL
