MODEL 1
REMARK minimizedAffinity 1.7231369
REMARK minimizedRMSD -1
REMARK  0 active torsions:
REMARK  status: ('A' for Active; 'I' for Inactive)
ROOT
ATOM      1  C2' OXE d   1       3.489   5.955  -5.322  0.00  0.00     0.078 C 
ATOM      2  C1' OXE d   1       5.190   3.801  -5.909  0.00  0.00     0.078 C 
ATOM      3  C1  OXE d   1       5.187   4.331  -4.497  0.00  0.00    -0.078 A 
ATOM      4  C2  OXE d   1       4.386   5.415  -4.230  0.00  0.00    -0.078 A 
ATOM      5  C3  OXE d   1       4.305   5.908  -2.931  0.00  0.00     0.003 A 
ATOM      6  C4  OXE d   1       5.146   5.409  -1.929  0.00  0.00    -0.002 A 
ATOM      7  C5  OXE d   1       5.998   4.331  -2.189  0.00  0.00    -0.002 A 
ATOM      8  C6  OXE d   1       6.000   3.754  -3.454  0.00  0.00     0.003 A 
ENDROOT
TORSDOF 0
ENDMDL
