MODEL 1
REMARK minimizedAffinity 5.73655939
REMARK minimizedRMSD -1
REMARK  0 active torsions:
REMARK  status: ('A' for Active; 'I' for Inactive)
ROOT
ATOM      1  C2' OXE d   1       0.071  -3.356   1.467  0.00  0.00     0.078 C 
ATOM      2  C1' OXE d   1      -0.032  -2.553  -1.221  0.00  0.00     0.078 C 
ATOM      3  C1  OXE d   1      -1.333  -2.646  -0.464  0.00  0.00    -0.078 A 
ATOM      4  C2  OXE d   1      -1.278  -3.085   0.837  0.00  0.00    -0.078 A 
ATOM      5  C3  OXE d   1      -2.443  -3.137   1.597  0.00  0.00     0.003 A 
ATOM      6  C4  OXE d   1      -3.688  -2.893   1.004  0.00  0.00    -0.002 A 
ATOM      7  C5  OXE d   1      -3.770  -2.484  -0.331  0.00  0.00    -0.002 A 
ATOM      8  C6  OXE d   1      -2.602  -2.314  -1.065  0.00  0.00     0.003 A 
ENDROOT
TORSDOF 0
ENDMDL
