MODEL 1
REMARK minimizedAffinity 7.1108923
REMARK minimizedRMSD -1
REMARK  0 active torsions:
REMARK  status: ('A' for Active; 'I' for Inactive)
ROOT
ATOM      1  C2' OXE d   1      -0.301  -4.978  -3.532  0.00  0.00     0.078 C 
ATOM      2  C1' OXE d   1       0.720  -2.598  -4.616  0.00  0.00     0.078 C 
ATOM      3  C1  OXE d   1       0.285  -2.583  -3.172  0.00  0.00    -0.078 A 
ATOM      4  C2  OXE d   1      -0.257  -3.739  -2.663  0.00  0.00    -0.078 A 
ATOM      5  C3  OXE d   1      -0.624  -3.796  -1.322  0.00  0.00     0.003 A 
ATOM      6  C4  OXE d   1      -0.589  -2.643  -0.528  0.00  0.00    -0.002 A 
ATOM      7  C5  OXE d   1      -0.078  -1.445  -1.038  0.00  0.00    -0.002 A 
ATOM      8  C6  OXE d   1       0.402  -1.409  -2.343  0.00  0.00     0.003 A 
ENDROOT
TORSDOF 0
ENDMDL
