MODEL 1
REMARK minimizedAffinity 4.95183992
REMARK minimizedRMSD -1
REMARK  0 active torsions:
REMARK  status: ('A' for Active; 'I' for Inactive)
ROOT
ATOM      1  C2' OXE d   1       3.082  -2.281   2.352  0.00  0.00     0.078 C 
ATOM      2  C1' OXE d   1       1.956  -1.298   4.728  0.00  0.00     0.078 C 
ATOM      3  C1  OXE d   1       3.366  -1.831   4.786  0.00  0.00    -0.078 A 
ATOM      4  C2  OXE d   1       3.892  -2.353   3.629  0.00  0.00    -0.078 A 
ATOM      5  C3  OXE d   1       5.208  -2.807   3.614  0.00  0.00     0.003 A 
ATOM      6  C4  OXE d   1       5.947  -2.879   4.801  0.00  0.00    -0.002 A 
ATOM      7  C5  OXE d   1       5.415  -2.389   5.998  0.00  0.00    -0.002 A 
ATOM      8  C6  OXE d   1       4.145  -1.824   5.999  0.00  0.00     0.003 A 
ENDROOT
TORSDOF 0
ENDMDL
