MODEL 1
REMARK minimizedAffinity 7.18753195
REMARK minimizedRMSD -1
REMARK  0 active torsions:
REMARK  status: ('A' for Active; 'I' for Inactive)
ROOT
ATOM      1  C2' OXE d   1      -4.200  -3.847  -2.357  0.00  0.00     0.078 C 
ATOM      2  C1' OXE d   1      -1.975  -2.163  -2.045  0.00  0.00     0.078 C 
ATOM      3  C1  OXE d   1      -2.364  -2.563  -3.446  0.00  0.00    -0.078 A 
ATOM      4  C2  OXE d   1      -3.425  -3.424  -3.587  0.00  0.00    -0.078 A 
ATOM      5  C3  OXE d   1      -3.860  -3.781  -4.860  0.00  0.00     0.003 A 
ATOM      6  C4  OXE d   1      -3.132  -3.394  -5.992  0.00  0.00    -0.002 A 
ATOM      7  C5  OXE d   1      -2.024  -2.549  -5.868  0.00  0.00    -0.002 A 
ATOM      8  C6  OXE d   1      -1.653  -2.091  -4.609  0.00  0.00     0.003 A 
ENDROOT
TORSDOF 0
ENDMDL
