MODEL 1
REMARK minimizedAffinity 12.4403467
REMARK minimizedRMSD -1
REMARK  0 active torsions:
REMARK  status: ('A' for Active; 'I' for Inactive)
ROOT
ATOM      1  C2' OXE d   1       1.188   2.679   1.115  0.00  0.00     0.078 C 
ATOM      2  C1' OXE d   1       3.424   4.257   0.488  0.00  0.00     0.078 C 
ATOM      3  C1  OXE d   1       2.944   3.273  -0.549  0.00  0.00    -0.078 A 
ATOM      4  C2  OXE d   1       1.879   2.472  -0.215  0.00  0.00    -0.078 A 
ATOM      5  C3  OXE d   1       1.362   1.585  -1.156  0.00  0.00     0.003 A 
ATOM      6  C4  OXE d   1       2.013   1.392  -2.381  0.00  0.00    -0.002 A 
ATOM      7  C5  OXE d   1       3.124   2.169  -2.724  0.00  0.00    -0.002 A 
ATOM      8  C6  OXE d   1       3.575   3.142  -1.839  0.00  0.00     0.003 A 
ENDROOT
TORSDOF 0
ENDMDL
