MODEL 1
REMARK minimizedAffinity 25.3998966
REMARK minimizedRMSD -1
REMARK  0 active torsions:
REMARK  status: ('A' for Active; 'I' for Inactive)
ROOT
ATOM      1  C2' OXE d   1       5.449   5.287  -3.027  0.00  0.00     0.078 C 
ATOM      2  C1' OXE d   1       5.934   5.205  -5.791  0.00  0.00     0.078 C 
ATOM      3  C1  OXE d   1       5.858   3.893  -5.051  0.00  0.00    -0.078 A 
ATOM      4  C2  OXE d   1       5.667   3.945  -3.691  0.00  0.00    -0.078 A 
ATOM      5  C3  OXE d   1       5.535   2.762  -2.969  0.00  0.00     0.003 A 
ATOM      6  C4  OXE d   1       5.749   1.525  -3.589  0.00  0.00    -0.002 A 
ATOM      7  C5  OXE d   1       5.984   1.452  -4.966  0.00  0.00    -0.002 A 
ATOM      8  C6  OXE d   1       6.000   2.622  -5.717  0.00  0.00     0.003 A 
ENDROOT
TORSDOF 0
ENDMDL
