MODEL 1
REMARK minimizedAffinity 9.4992218
REMARK minimizedRMSD -1
REMARK  0 active torsions:
REMARK  status: ('A' for Active; 'I' for Inactive)
ROOT
ATOM      1  C2' OXE d   1      -4.154  -0.105  -5.945  0.00  0.00     0.078 C 
ATOM      2  C1' OXE d   1      -5.904  -2.301  -5.969  0.00  0.00     0.078 C 
ATOM      3  C1  OXE d   1      -4.422  -2.582  -5.961  0.00  0.00    -0.078 A 
ATOM      4  C2  OXE d   1      -3.573  -1.502  -5.997  0.00  0.00    -0.078 A 
ATOM      5  C3  OXE d   1      -2.197  -1.704  -5.936  0.00  0.00     0.003 A 
ATOM      6  C4  OXE d   1      -1.668  -2.999  -5.994  0.00  0.00    -0.002 A 
ATOM      7  C5  OXE d   1      -2.515  -4.113  -5.999  0.00  0.00    -0.002 A 
ATOM      8  C6  OXE d   1      -3.891  -3.923  -5.940  0.00  0.00     0.003 A 
ENDROOT
TORSDOF 0
ENDMDL
