MODEL 1
REMARK minimizedAffinity 19.1158371
REMARK minimizedRMSD -1
REMARK  0 active torsions:
REMARK  status: ('A' for Active; 'I' for Inactive)
ROOT
ATOM      1  C2' OXE d   1       0.929  -0.367   3.369  0.00  0.00     0.078 C 
ATOM      2  C1' OXE d   1      -1.358  -1.986   3.197  0.00  0.00     0.078 C 
ATOM      3  C1  OXE d   1      -1.555  -0.491   3.220  0.00  0.00    -0.078 A 
ATOM      4  C2  OXE d   1      -0.434   0.292   3.351  0.00  0.00    -0.078 A 
ATOM      5  C3  OXE d   1      -0.554   1.679   3.322  0.00  0.00     0.003 A 
ATOM      6  C4  OXE d   1      -1.819   2.280   3.315  0.00  0.00    -0.002 A 
ATOM      7  C5  OXE d   1      -2.976   1.500   3.222  0.00  0.00    -0.002 A 
ATOM      8  C6  OXE d   1      -2.859   0.117   3.130  0.00  0.00     0.003 A 
ENDROOT
TORSDOF 0
ENDMDL
