MODEL 1
REMARK minimizedAffinity 15.285861
REMARK minimizedRMSD -1
REMARK  0 active torsions:
REMARK  status: ('A' for Active; 'I' for Inactive)
ROOT
ATOM      1  C2' OXE d   1      -2.584  -1.168   4.885  0.00  0.00     0.078 C 
ATOM      2  C1' OXE d   1      -0.994  -2.324   2.881  0.00  0.00     0.078 C 
ATOM      3  C1  OXE d   1      -0.507  -1.045   3.514  0.00  0.00    -0.078 A 
ATOM      4  C2  OXE d   1      -1.314  -0.461   4.461  0.00  0.00    -0.078 A 
ATOM      5  C3  OXE d   1      -0.887   0.690   5.116  0.00  0.00     0.003 A 
ATOM      6  C4  OXE d   1       0.284   1.343   4.711  0.00  0.00    -0.002 A 
ATOM      7  C5  OXE d   1       1.100   0.787   3.720  0.00  0.00    -0.002 A 
ATOM      8  C6  OXE d   1       0.741  -0.426   3.143  0.00  0.00     0.003 A 
ENDROOT
TORSDOF 0
ENDMDL
