MODEL 1
REMARK minimizedAffinity 17.9213467
REMARK minimizedRMSD -1
REMARK  0 active torsions:
REMARK  status: ('A' for Active; 'I' for Inactive)
ROOT
ATOM      1  C2' OXE d   1      -1.409  -5.992   4.442  0.00  0.00     0.078 C 
ATOM      2  C1' OXE d   1      -3.762  -4.680   5.229  0.00  0.00     0.078 C 
ATOM      3  C1  OXE d   1      -2.731  -3.881   4.473  0.00  0.00    -0.078 A 
ATOM      4  C2  OXE d   1      -1.562  -4.518   4.132  0.00  0.00    -0.078 A 
ATOM      5  C3  OXE d   1      -0.600  -3.843   3.386  0.00  0.00     0.003 A 
ATOM      6  C4  OXE d   1      -0.746  -2.478   3.112  0.00  0.00    -0.002 A 
ATOM      7  C5  OXE d   1      -1.911  -1.799   3.485  0.00  0.00    -0.002 A 
ATOM      8  C6  OXE d   1      -2.929  -2.495   4.127  0.00  0.00     0.003 A 
ENDROOT
TORSDOF 0
ENDMDL
