MODEL 1
REMARK minimizedAffinity 2.54810715
REMARK minimizedRMSD -1
REMARK  0 active torsions:
REMARK  status: ('A' for Active; 'I' for Inactive)
ROOT
ATOM      1  C2' OXE d   1       3.642   0.153   0.916  0.00  0.00     0.078 C 
ATOM      2  C1' OXE d   1       1.655   2.114   0.627  0.00  0.00     0.078 C 
ATOM      3  C1  OXE d   1       2.373   1.652  -0.616  0.00  0.00    -0.078 A 
ATOM      4  C2  OXE d   1       3.376   0.726  -0.459  0.00  0.00    -0.078 A 
ATOM      5  C3  OXE d   1       4.033   0.225  -1.579  0.00  0.00     0.003 A 
ATOM      6  C4  OXE d   1       3.788   0.768  -2.847  0.00  0.00    -0.002 A 
ATOM      7  C5  OXE d   1       2.798   1.741  -3.023  0.00  0.00    -0.002 A 
ATOM      8  C6  OXE d   1       2.054   2.162  -1.927  0.00  0.00     0.003 A 
ENDROOT
TORSDOF 0
ENDMDL
