MODEL 1
REMARK minimizedAffinity -0.303527325
REMARK minimizedRMSD -1
REMARK  0 active torsions:
REMARK  status: ('A' for Active; 'I' for Inactive)
ROOT
ATOM      1  C2' OXE d   1       4.858  -0.280  -4.962  0.00  0.00     0.078 C 
ATOM      2  C1' OXE d   1       2.370   0.994  -5.224  0.00  0.00     0.078 C 
ATOM      3  C1  OXE d   1       3.611   1.816  -5.468  0.00  0.00    -0.078 A 
ATOM      4  C2  OXE d   1       4.825   1.197  -5.292  0.00  0.00    -0.078 A 
ATOM      5  C3  OXE d   1       6.000   1.894  -5.557  0.00  0.00     0.003 A 
ATOM      6  C4  OXE d   1       5.961   3.262  -5.852  0.00  0.00    -0.002 A 
ATOM      7  C5  OXE d   1       4.736   3.922  -5.997  0.00  0.00    -0.002 A 
ATOM      8  C6  OXE d   1       3.554   3.205  -5.851  0.00  0.00     0.003 A 
ENDROOT
TORSDOF 0
ENDMDL
