MODEL 1
REMARK minimizedAffinity 12.5869265
REMARK minimizedRMSD -1
REMARK  0 active torsions:
REMARK  status: ('A' for Active; 'I' for Inactive)
ROOT
ATOM      1  C2' OXE d   1       0.256   2.329   2.334  0.00  0.00     0.078 C 
ATOM      2  C1' OXE d   1       1.194   1.828   4.932  0.00  0.00     0.078 C 
ATOM      3  C1  OXE d   1       1.987   1.269   3.778  0.00  0.00    -0.078 A 
ATOM      4  C2  OXE d   1       1.495   1.479   2.512  0.00  0.00    -0.078 A 
ATOM      5  C3  OXE d   1       2.217   1.032   1.409  0.00  0.00     0.003 A 
ATOM      6  C4  OXE d   1       3.357   0.238   1.582  0.00  0.00    -0.002 A 
ATOM      7  C5  OXE d   1       3.853  -0.022   2.864  0.00  0.00    -0.002 A 
ATOM      8  C6  OXE d   1       3.206   0.521   3.968  0.00  0.00     0.003 A 
ENDROOT
TORSDOF 0
ENDMDL
