MODEL 1
REMARK minimizedAffinity 17.0396709
REMARK minimizedRMSD -1
REMARK  0 active torsions:
REMARK  status: ('A' for Active; 'I' for Inactive)
ROOT
ATOM      1  C2' OXE d   1      -4.061  -4.132  -2.478  0.00  0.00     0.078 C 
ATOM      2  C1' OXE d   1      -1.488  -5.248  -2.363  0.00  0.00     0.078 C 
ATOM      3  C1  OXE d   1      -1.911  -4.585  -3.650  0.00  0.00    -0.078 A 
ATOM      4  C2  OXE d   1      -3.189  -4.084  -3.713  0.00  0.00    -0.078 A 
ATOM      5  C3  OXE d   1      -3.611  -3.414  -4.858  0.00  0.00     0.003 A 
ATOM      6  C4  OXE d   1      -2.801  -3.383  -6.000  0.00  0.00    -0.002 A 
ATOM      7  C5  OXE d   1      -1.511  -3.923  -5.970  0.00  0.00    -0.002 A 
ATOM      8  C6  OXE d   1      -1.036  -4.489  -4.792  0.00  0.00     0.003 A 
ENDROOT
TORSDOF 0
ENDMDL
