MODEL 1
REMARK minimizedAffinity 6.07882404
REMARK minimizedRMSD -1
REMARK  0 active torsions:
REMARK  status: ('A' for Active; 'I' for Inactive)
ROOT
ATOM      1  C2' OXE d   1       0.473  -4.664  -0.066  0.00  0.00     0.078 C 
ATOM      2  C1' OXE d   1      -0.415  -5.932   2.275  0.00  0.00     0.078 C 
ATOM      3  C1  OXE d   1      -0.523  -4.429   2.205  0.00  0.00    -0.078 A 
ATOM      4  C2  OXE d   1      -0.043  -3.813   1.074  0.00  0.00    -0.078 A 
ATOM      5  C3  OXE d   1      -0.168  -2.434   0.935  0.00  0.00     0.003 A 
ATOM      6  C4  OXE d   1      -0.638  -1.654   1.998  0.00  0.00    -0.002 A 
ATOM      7  C5  OXE d   1      -1.095  -2.258   3.174  0.00  0.00    -0.002 A 
ATOM      8  C6  OXE d   1      -1.084  -3.644   3.277  0.00  0.00     0.003 A 
ENDROOT
TORSDOF 0
ENDMDL
