MODEL 1
REMARK minimizedAffinity 16.4353371
REMARK minimizedRMSD -1
REMARK  0 active torsions:
REMARK  status: ('A' for Active; 'I' for Inactive)
ROOT
ATOM      1  C2' OXE d   1      -5.344  -3.553  -5.880  0.00  0.00     0.078 C 
ATOM      2  C1' OXE d   1      -4.279  -0.956  -5.860  0.00  0.00     0.078 C 
ATOM      3  C1  OXE d   1      -3.313  -2.112  -5.924  0.00  0.00    -0.078 A 
ATOM      4  C2  OXE d   1      -3.840  -3.380  -5.886  0.00  0.00    -0.078 A 
ATOM      5  C3  OXE d   1      -2.996  -4.481  -5.997  0.00  0.00     0.003 A 
ATOM      6  C4  OXE d   1      -1.606  -4.312  -5.991  0.00  0.00    -0.002 A 
ATOM      7  C5  OXE d   1      -1.047  -3.030  -5.990  0.00  0.00    -0.002 A 
ATOM      8  C6  OXE d   1      -1.885  -1.921  -5.999  0.00  0.00     0.003 A 
ENDROOT
TORSDOF 0
ENDMDL
