MODEL 1
REMARK minimizedAffinity 10.8459892
REMARK minimizedRMSD -1
REMARK  0 active torsions:
REMARK  status: ('A' for Active; 'I' for Inactive)
ROOT
ATOM      1  C2' OXE d   1       2.101   1.308  -0.010  0.00  0.00     0.078 C 
ATOM      2  C1' OXE d   1       4.175  -0.494   0.561  0.00  0.00     0.078 C 
ATOM      3  C1  OXE d   1       3.348   0.014   1.715  0.00  0.00    -0.078 A 
ATOM      4  C2  OXE d   1       2.365   0.932   1.432  0.00  0.00    -0.078 A 
ATOM      5  C3  OXE d   1       1.537   1.392   2.452  0.00  0.00     0.003 A 
ATOM      6  C4  OXE d   1       1.794   1.046   3.784  0.00  0.00    -0.002 A 
ATOM      7  C5  OXE d   1       2.815   0.144   4.099  0.00  0.00    -0.002 A 
ATOM      8  C6  OXE d   1       3.572  -0.413   3.074  0.00  0.00     0.003 A 
ENDROOT
TORSDOF 0
ENDMDL
