MODEL 1
REMARK minimizedAffinity 13.7348728
REMARK minimizedRMSD -1
REMARK  0 active torsions:
REMARK  status: ('A' for Active; 'I' for Inactive)
ROOT
ATOM      1  C2' OXE d   1      -0.456  -4.529   1.675  0.00  0.00     0.078 C 
ATOM      2  C1' OXE d   1      -2.122  -4.735   3.925  0.00  0.00     0.078 C 
ATOM      3  C1  OXE d   1      -1.735  -3.354   3.460  0.00  0.00    -0.078 A 
ATOM      4  C2  OXE d   1      -0.882  -3.263   2.386  0.00  0.00    -0.078 A 
ATOM      5  C3  OXE d   1      -0.537  -2.012   1.883  0.00  0.00     0.003 A 
ATOM      6  C4  OXE d   1      -0.927  -0.847   2.553  0.00  0.00    -0.002 A 
ATOM      7  C5  OXE d   1      -1.763  -0.917   3.672  0.00  0.00    -0.002 A 
ATOM      8  C6  OXE d   1      -2.210  -2.158   4.112  0.00  0.00     0.003 A 
ENDROOT
TORSDOF 0
ENDMDL
