MODEL 1
REMARK minimizedAffinity 10.6219692
REMARK minimizedRMSD -1
REMARK  0 active torsions:
REMARK  status: ('A' for Active; 'I' for Inactive)
ROOT
ATOM      1  C2' OXE d   1       0.237   3.053   1.526  0.00  0.00     0.078 C 
ATOM      2  C1' OXE d   1       1.520   0.877   0.301  0.00  0.00     0.078 C 
ATOM      3  C1  OXE d   1       1.749   1.089   1.777  0.00  0.00    -0.078 A 
ATOM      4  C2  OXE d   1       1.154   2.184   2.358  0.00  0.00    -0.078 A 
ATOM      5  C3  OXE d   1       1.289   2.395   3.727  0.00  0.00     0.003 A 
ATOM      6  C4  OXE d   1       2.147   1.592   4.488  0.00  0.00    -0.002 A 
ATOM      7  C5  OXE d   1       2.794   0.496   3.907  0.00  0.00    -0.002 A 
ATOM      8  C6  OXE d   1       2.572   0.206   2.565  0.00  0.00     0.003 A 
ENDROOT
TORSDOF 0
ENDMDL
