MODEL 1
REMARK minimizedAffinity 3.35285139
REMARK minimizedRMSD -1
REMARK  0 active torsions:
REMARK  status: ('A' for Active; 'I' for Inactive)
ROOT
ATOM      1  C2' OXE d   1      -2.851  -1.547   3.921  0.00  0.00     0.078 C 
ATOM      2  C1' OXE d   1      -0.402  -2.410   2.855  0.00  0.00     0.078 C 
ATOM      3  C1  OXE d   1      -1.272  -3.435   3.539  0.00  0.00    -0.078 A 
ATOM      4  C2  OXE d   1      -2.447  -2.995   4.099  0.00  0.00    -0.078 A 
ATOM      5  C3  OXE d   1      -3.312  -3.909   4.694  0.00  0.00     0.003 A 
ATOM      6  C4  OXE d   1      -2.926  -5.244   4.863  0.00  0.00    -0.002 A 
ATOM      7  C5  OXE d   1      -1.715  -5.705   4.335  0.00  0.00    -0.002 A 
ATOM      8  C6  OXE d   1      -0.898  -4.825   3.635  0.00  0.00     0.003 A 
ENDROOT
TORSDOF 0
ENDMDL
