MODEL 1
REMARK minimizedAffinity 12.3433962
REMARK minimizedRMSD -1
REMARK  0 active torsions:
REMARK  status: ('A' for Active; 'I' for Inactive)
ROOT
ATOM      1  C2' OXE d   1       1.968   1.106   2.407  0.00  0.00     0.078 C 
ATOM      2  C1' OXE d   1       2.349   3.277   0.669  0.00  0.00     0.078 C 
ATOM      3  C1  OXE d   1       0.984   3.101   1.285  0.00  0.00    -0.078 A 
ATOM      4  C2  OXE d   1       0.793   2.009   2.098  0.00  0.00    -0.078 A 
ATOM      5  C3  OXE d   1      -0.431   1.829   2.735  0.00  0.00     0.003 A 
ATOM      6  C4  OXE d   1      -1.516   2.663   2.435  0.00  0.00    -0.002 A 
ATOM      7  C5  OXE d   1      -1.354   3.758   1.579  0.00  0.00    -0.002 A 
ATOM      8  C6  OXE d   1      -0.102   4.015   1.031  0.00  0.00     0.003 A 
ENDROOT
TORSDOF 0
ENDMDL
