MODEL 1
REMARK minimizedAffinity 10.9599533
REMARK minimizedRMSD -1
REMARK  0 active torsions:
REMARK  status: ('A' for Active; 'I' for Inactive)
ROOT
ATOM      1  C2' OXE d   1       5.621  -0.914  -5.346  0.00  0.00     0.078 C 
ATOM      2  C1' OXE d   1       2.870  -0.759  -5.883  0.00  0.00     0.078 C 
ATOM      3  C1  OXE d   1       3.432   0.155  -4.823  0.00  0.00    -0.078 A 
ATOM      4  C2  OXE d   1       4.771   0.040  -4.534  0.00  0.00    -0.078 A 
ATOM      5  C3  OXE d   1       5.351   0.896  -3.603  0.00  0.00     0.003 A 
ATOM      6  C4  OXE d   1       4.556   1.768  -2.850  0.00  0.00    -0.002 A 
ATOM      7  C5  OXE d   1       3.184   1.873  -3.100  0.00  0.00    -0.002 A 
ATOM      8  C6  OXE d   1       2.615   1.106  -4.111  0.00  0.00     0.003 A 
ENDROOT
TORSDOF 0
ENDMDL
