MODEL 1
REMARK minimizedAffinity 14.843852
REMARK minimizedRMSD -1
REMARK  0 active torsions:
REMARK  status: ('A' for Active; 'I' for Inactive)
ROOT
ATOM      1  C2' OXE d   1      -4.550   0.085   3.395  0.00  0.00     0.078 C 
ATOM      2  C1' OXE d   1      -4.893   2.796   4.037  0.00  0.00     0.078 C 
ATOM      3  C1  OXE d   1      -3.594   2.386   3.390  0.00  0.00    -0.078 A 
ATOM      4  C2  OXE d   1      -3.416   1.050   3.122  0.00  0.00    -0.078 A 
ATOM      5  C3  OXE d   1      -2.259   0.624   2.475  0.00  0.00     0.003 A 
ATOM      6  C4  OXE d   1      -1.211   1.521   2.235  0.00  0.00    -0.002 A 
ATOM      7  C5  OXE d   1      -1.355   2.879   2.537  0.00  0.00    -0.002 A 
ATOM      8  C6  OXE d   1      -2.554   3.334   3.074  0.00  0.00     0.003 A 
ENDROOT
TORSDOF 0
ENDMDL
