MODEL 1
REMARK minimizedAffinity -3.22241664
REMARK minimizedRMSD -1
REMARK  0 active torsions:
REMARK  status: ('A' for Active; 'I' for Inactive)
ROOT
ATOM      1  C2' OXE d   1       1.547  -4.624  -1.717  0.00  0.00     0.078 C 
ATOM      2  C1' OXE d   1       3.664  -4.053  -3.471  0.00  0.00     0.078 C 
ATOM      3  C1  OXE d   1       3.988  -4.221  -2.008  0.00  0.00    -0.078 A 
ATOM      4  C2  OXE d   1       2.940  -4.454  -1.150  0.00  0.00    -0.078 A 
ATOM      5  C3  OXE d   1       3.191  -4.672   0.202  0.00  0.00     0.003 A 
ATOM      6  C4  OXE d   1       4.481  -4.503   0.720  0.00  0.00    -0.002 A 
ATOM      7  C5  OXE d   1       5.557  -4.226  -0.131  0.00  0.00    -0.002 A 
ATOM      8  C6  OXE d   1       5.335  -4.125  -1.500  0.00  0.00     0.003 A 
ENDROOT
TORSDOF 0
ENDMDL
