MODEL 1
REMARK minimizedAffinity 7.48337221
REMARK minimizedRMSD -1
REMARK  0 active torsions:
REMARK  status: ('A' for Active; 'I' for Inactive)
ROOT
ATOM      1  C2' OXE d   1       2.266  -1.541  -1.955  0.00  0.00     0.078 C 
ATOM      2  C1' OXE d   1       3.613   0.179  -0.192  0.00  0.00     0.078 C 
ATOM      3  C1  OXE d   1       2.839   0.801  -1.328  0.00  0.00    -0.078 A 
ATOM      4  C2  OXE d   1       2.222  -0.050  -2.213  0.00  0.00    -0.078 A 
ATOM      5  C3  OXE d   1       1.449   0.472  -3.246  0.00  0.00     0.003 A 
ATOM      6  C4  OXE d   1       1.421   1.851  -3.483  0.00  0.00    -0.002 A 
ATOM      7  C5  OXE d   1       2.076   2.734  -2.617  0.00  0.00    -0.002 A 
ATOM      8  C6  OXE d   1       2.753   2.228  -1.513  0.00  0.00     0.003 A 
ENDROOT
TORSDOF 0
ENDMDL
