MODEL 1
REMARK minimizedAffinity 16.4457836
REMARK minimizedRMSD -1
REMARK  0 active torsions:
REMARK  status: ('A' for Active; 'I' for Inactive)
ROOT
ATOM      1  C2' OXE d   1      -0.817  -0.482  -1.650  0.00  0.00     0.078 C 
ATOM      2  C1' OXE d   1       1.548  -1.035  -3.058  0.00  0.00     0.078 C 
ATOM      3  C1  OXE d   1       1.674  -0.508  -1.651  0.00  0.00    -0.078 A 
ATOM      4  C2  OXE d   1       0.513  -0.196  -0.986  0.00  0.00    -0.078 A 
ATOM      5  C3  OXE d   1       0.571   0.241   0.334  0.00  0.00     0.003 A 
ATOM      6  C4  OXE d   1       1.804   0.513   0.938  0.00  0.00    -0.002 A 
ATOM      7  C5  OXE d   1       3.000   0.240   0.264  0.00  0.00    -0.002 A 
ATOM      8  C6  OXE d   1       2.952  -0.310  -1.013  0.00  0.00     0.003 A 
ENDROOT
TORSDOF 0
ENDMDL
