MODEL 1
REMARK minimizedAffinity 6.64985704
REMARK minimizedRMSD -1
REMARK  0 active torsions:
REMARK  status: ('A' for Active; 'I' for Inactive)
ROOT
ATOM      1  C2' OXE d   1       1.237  -2.569  -0.141  0.00  0.00     0.078 C 
ATOM      2  C1' OXE d   1      -0.169  -2.421  -2.566  0.00  0.00     0.078 C 
ATOM      3  C1  OXE d   1       0.869  -1.363  -2.290  0.00  0.00    -0.078 A 
ATOM      4  C2  OXE d   1       1.520  -1.416  -1.080  0.00  0.00    -0.078 A 
ATOM      5  C3  OXE d   1       2.526  -0.497  -0.797  0.00  0.00     0.003 A 
ATOM      6  C4  OXE d   1       2.774   0.572  -1.667  0.00  0.00    -0.002 A 
ATOM      7  C5  OXE d   1       2.094   0.668  -2.886  0.00  0.00    -0.002 A 
ATOM      8  C6  OXE d   1       1.171  -0.313  -3.231  0.00  0.00     0.003 A 
ENDROOT
TORSDOF 0
ENDMDL
