MODEL 1
REMARK minimizedAffinity -0.222661614
REMARK minimizedRMSD -1
REMARK  0 active torsions:
REMARK  status: ('A' for Active; 'I' for Inactive)
ROOT
ATOM      1  C2' OXE d   1       0.071   5.995  -0.012  0.00  0.00     0.078 C 
ATOM      2  C1' OXE d   1       2.499   6.000  -1.422  0.00  0.00     0.078 C 
ATOM      3  C1  OXE d   1       1.884   4.664  -1.084  0.00  0.00    -0.078 A 
ATOM      4  C2  OXE d   1       0.720   4.671  -0.354  0.00  0.00    -0.078 A 
ATOM      5  C3  OXE d   1       0.082   3.468  -0.062  0.00  0.00     0.003 A 
ATOM      6  C4  OXE d   1       0.695   2.248  -0.373  0.00  0.00    -0.002 A 
ATOM      7  C5  OXE d   1       1.900   2.219  -1.082  0.00  0.00    -0.002 A 
ATOM      8  C6  OXE d   1       2.485   3.415  -1.481  0.00  0.00     0.003 A 
ENDROOT
TORSDOF 0
ENDMDL
