MODEL 1
REMARK minimizedAffinity 0.432470173
REMARK minimizedRMSD -1
REMARK  0 active torsions:
REMARK  status: ('A' for Active; 'I' for Inactive)
ROOT
ATOM      1  C2' OXE d   1       1.379   4.554  -1.458  0.00  0.00     0.078 C 
ATOM      2  C1' OXE d   1      -0.049   2.979   0.375  0.00  0.00     0.078 C 
ATOM      3  C1  OXE d   1       0.956   2.288  -0.513  0.00  0.00    -0.078 A 
ATOM      4  C2  OXE d   1       1.616   3.060  -1.439  0.00  0.00    -0.078 A 
ATOM      5  C3  OXE d   1       2.593   2.483  -2.246  0.00  0.00     0.003 A 
ATOM      6  C4  OXE d   1       2.799   1.098  -2.229  0.00  0.00    -0.002 A 
ATOM      7  C5  OXE d   1       2.109   0.288  -1.322  0.00  0.00    -0.002 A 
ATOM      8  C6  OXE d   1       1.216   0.872  -0.429  0.00  0.00     0.003 A 
ENDROOT
TORSDOF 0
ENDMDL
