MODEL 1
REMARK minimizedAffinity 3.83959007
REMARK minimizedRMSD -1
REMARK  0 active torsions:
REMARK  status: ('A' for Active; 'I' for Inactive)
ROOT
ATOM      1  C2' OXE d   1       1.759   0.410  -3.100  0.00  0.00     0.078 C 
ATOM      2  C1' OXE d   1       3.856   0.261  -1.239  0.00  0.00     0.078 C 
ATOM      3  C1  OXE d   1       2.788  -0.803  -1.183  0.00  0.00    -0.078 A 
ATOM      4  C2  OXE d   1       1.742  -0.696  -2.067  0.00  0.00    -0.078 A 
ATOM      5  C3  OXE d   1       0.759  -1.681  -2.094  0.00  0.00     0.003 A 
ATOM      6  C4  OXE d   1       0.745  -2.695  -1.128  0.00  0.00    -0.002 A 
ATOM      7  C5  OXE d   1       1.780  -2.800  -0.193  0.00  0.00    -0.002 A 
ATOM      8  C6  OXE d   1       2.830  -1.888  -0.234  0.00  0.00     0.003 A 
ENDROOT
TORSDOF 0
ENDMDL
