MODEL 1
REMARK minimizedAffinity 2.82334399
REMARK minimizedRMSD -1
REMARK  0 active torsions:
REMARK  status: ('A' for Active; 'I' for Inactive)
ROOT
ATOM      1  C2' OXE d   1       2.375   5.999  -0.553  0.00  0.00     0.078 C 
ATOM      2  C1' OXE d   1      -0.375   5.997   0.011  0.00  0.00     0.078 C 
ATOM      3  C1  OXE d   1       0.253   4.700  -0.433  0.00  0.00    -0.078 A 
ATOM      4  C2  OXE d   1       1.590   4.721  -0.751  0.00  0.00    -0.078 A 
ATOM      5  C3  OXE d   1       2.231   3.539  -1.113  0.00  0.00     0.003 A 
ATOM      6  C4  OXE d   1       1.495   2.364  -1.304  0.00  0.00    -0.002 A 
ATOM      7  C5  OXE d   1       0.125   2.330  -1.024  0.00  0.00    -0.002 A 
ATOM      8  C6  OXE d   1      -0.501   3.476  -0.547  0.00  0.00     0.003 A 
ENDROOT
TORSDOF 0
ENDMDL
