MODEL 1
REMARK minimizedAffinity 16.6788921
REMARK minimizedRMSD -1
REMARK  0 active torsions:
REMARK  status: ('A' for Active; 'I' for Inactive)
ROOT
ATOM      1  C2' OXE d   1       1.394  -0.077  -0.643  0.00  0.00     0.078 C 
ATOM      2  C1' OXE d   1       3.676   0.960   0.620  0.00  0.00     0.078 C 
ATOM      3  C1  OXE d   1       2.378   0.978   1.388  0.00  0.00    -0.078 A 
ATOM      4  C2  OXE d   1       1.257   0.511   0.745  0.00  0.00    -0.078 A 
ATOM      5  C3  OXE d   1       0.045   0.454   1.427  0.00  0.00     0.003 A 
ATOM      6  C4  OXE d   1      -0.075   1.009   2.707  0.00  0.00    -0.002 A 
ATOM      7  C5  OXE d   1       1.046   1.526   3.364  0.00  0.00    -0.002 A 
ATOM      8  C6  OXE d   1       2.286   1.479   2.737  0.00  0.00     0.003 A 
ENDROOT
TORSDOF 0
ENDMDL
