MODEL 1
REMARK minimizedAffinity 9.41365147
REMARK minimizedRMSD -1
REMARK  0 active torsions:
REMARK  status: ('A' for Active; 'I' for Inactive)
ROOT
ATOM      1  C2' OXE d   1      -5.953  -2.295   3.192  0.00  0.00     0.078 C 
ATOM      2  C1' OXE d   1      -3.352  -1.302   3.557  0.00  0.00     0.078 C 
ATOM      3  C1  OXE d   1      -3.501  -2.700   3.009  0.00  0.00    -0.078 A 
ATOM      4  C2  OXE d   1      -4.777  -3.194   2.877  0.00  0.00    -0.078 A 
ATOM      5  C3  OXE d   1      -4.973  -4.457   2.325  0.00  0.00     0.003 A 
ATOM      6  C4  OXE d   1      -3.880  -5.286   2.046  0.00  0.00    -0.002 A 
ATOM      7  C5  OXE d   1      -2.572  -4.816   2.210  0.00  0.00    -0.002 A 
ATOM      8  C6  OXE d   1      -2.366  -3.513   2.650  0.00  0.00     0.003 A 
ENDROOT
TORSDOF 0
ENDMDL
