MODEL 1
REMARK minimizedAffinity 20.5918236
REMARK minimizedRMSD -1
REMARK  0 active torsions:
REMARK  status: ('A' for Active; 'I' for Inactive)
ROOT
ATOM      1  C2' OXE d   1       3.443   0.355   0.869  0.00  0.00     0.078 C 
ATOM      2  C1' OXE d   1       3.782  -2.356   0.223  0.00  0.00     0.078 C 
ATOM      3  C1  OXE d   1       2.782  -1.561  -0.579  0.00  0.00    -0.078 A 
ATOM      4  C2  OXE d   1       2.589  -0.248  -0.225  0.00  0.00    -0.078 A 
ATOM      5  C3  OXE d   1       1.717   0.545  -0.967  0.00  0.00     0.003 A 
ATOM      6  C4  OXE d   1       0.923  -0.022  -1.971  0.00  0.00    -0.002 A 
ATOM      7  C5  OXE d   1       1.076  -1.368  -2.321  0.00  0.00    -0.002 A 
ATOM      8  C6  OXE d   1       2.029  -2.139  -1.665  0.00  0.00     0.003 A 
ENDROOT
TORSDOF 0
ENDMDL
