MODEL 1
REMARK minimizedAffinity -2.78373742
REMARK minimizedRMSD -1
REMARK  0 active torsions:
REMARK  status: ('A' for Active; 'I' for Inactive)
ROOT
ATOM      1  C2' OXE d   1      -3.396   1.715  -5.635  0.00  0.00     0.078 C 
ATOM      2  C1' OXE d   1      -5.998   2.734  -5.898  0.00  0.00     0.078 C 
ATOM      3  C1  OXE d   1      -4.857   3.720  -5.864  0.00  0.00    -0.078 A 
ATOM      4  C2  OXE d   1      -3.591   3.215  -5.688  0.00  0.00    -0.078 A 
ATOM      5  C3  OXE d   1      -2.497   4.076  -5.704  0.00  0.00     0.003 A 
ATOM      6  C4  OXE d   1      -2.687   5.463  -5.743  0.00  0.00    -0.002 A 
ATOM      7  C5  OXE d   1      -3.972   6.000  -5.882  0.00  0.00    -0.002 A 
ATOM      8  C6  OXE d   1      -5.061   5.142  -5.987  0.00  0.00     0.003 A 
ENDROOT
TORSDOF 0
ENDMDL
