MODEL 1
REMARK minimizedAffinity 7.91671658
REMARK minimizedRMSD -1
REMARK  0 active torsions:
REMARK  status: ('A' for Active; 'I' for Inactive)
ROOT
ATOM      1  C2' OXE d   1       1.698  -0.617  -2.731  0.00  0.00     0.078 C 
ATOM      2  C1' OXE d   1       3.334   0.092  -0.562  0.00  0.00     0.078 C 
ATOM      3  C1  OXE d   1       2.503   1.177  -1.200  0.00  0.00    -0.078 A 
ATOM      4  C2  OXE d   1       1.741   0.831  -2.290  0.00  0.00    -0.078 A 
ATOM      5  C3  OXE d   1       0.914   1.781  -2.883  0.00  0.00     0.003 A 
ATOM      6  C4  OXE d   1       0.967   3.119  -2.476  0.00  0.00    -0.002 A 
ATOM      7  C5  OXE d   1       1.766   3.501  -1.393  0.00  0.00    -0.002 A 
ATOM      8  C6  OXE d   1       2.506   2.536  -0.719  0.00  0.00     0.003 A 
ENDROOT
TORSDOF 0
ENDMDL
