MODEL 1
REMARK minimizedAffinity 6.04317331
REMARK minimizedRMSD -1
REMARK  0 active torsions:
REMARK  status: ('A' for Active; 'I' for Inactive)
ROOT
ATOM      1  C2' OXE d   1      -2.264  -2.299  -6.000  0.00  0.00     0.078 C 
ATOM      2  C1' OXE d   1      -3.725  -4.689  -5.825  0.00  0.00     0.078 C 
ATOM      3  C1  OXE d   1      -2.778  -4.359  -4.698  0.00  0.00    -0.078 A 
ATOM      4  C2  OXE d   1      -2.033  -3.211  -4.814  0.00  0.00    -0.078 A 
ATOM      5  C3  OXE d   1      -1.185  -2.832  -3.778  0.00  0.00     0.003 A 
ATOM      6  C4  OXE d   1      -0.970  -3.686  -2.689  0.00  0.00    -0.002 A 
ATOM      7  C5  OXE d   1      -1.689  -4.879  -2.571  0.00  0.00    -0.002 A 
ATOM      8  C6  OXE d   1      -2.627  -5.210  -3.543  0.00  0.00     0.003 A 
ENDROOT
TORSDOF 0
ENDMDL
