MODEL 1
REMARK minimizedAffinity 10.0065632
REMARK minimizedRMSD -1
REMARK  0 active torsions:
REMARK  status: ('A' for Active; 'I' for Inactive)
ROOT
ATOM      1  C2' OXE d   1       0.357  -1.617   3.975  0.00  0.00     0.078 C 
ATOM      2  C1' OXE d   1       0.532  -3.185   1.653  0.00  0.00     0.078 C 
ATOM      3  C1  OXE d   1      -0.779  -3.175   2.398  0.00  0.00    -0.078 A 
ATOM      4  C2  OXE d   1      -0.842  -2.442   3.558  0.00  0.00    -0.078 A 
ATOM      5  C3  OXE d   1      -2.044  -2.354   4.255  0.00  0.00     0.003 A 
ATOM      6  C4  OXE d   1      -3.145  -3.128   3.868  0.00  0.00    -0.002 A 
ATOM      7  C5  OXE d   1      -3.090  -3.913   2.711  0.00  0.00    -0.002 A 
ATOM      8  C6  OXE d   1      -1.931  -3.914   1.943  0.00  0.00     0.003 A 
ENDROOT
TORSDOF 0
ENDMDL
