MODEL 1
REMARK minimizedAffinity 6.15012026
REMARK minimizedRMSD -1
REMARK  0 active torsions:
REMARK  status: ('A' for Active; 'I' for Inactive)
ROOT
ATOM      1  C2' OXE d   1       1.503   4.234   1.457  0.00  0.00     0.078 C 
ATOM      2  C1' OXE d   1       1.687   6.000  -0.718  0.00  0.00     0.078 C 
ATOM      3  C1  OXE d   1       1.639   4.521  -1.014  0.00  0.00    -0.078 A 
ATOM      4  C2  OXE d   1       1.596   3.663   0.058  0.00  0.00    -0.078 A 
ATOM      5  C3  OXE d   1       1.495   2.292  -0.160  0.00  0.00     0.003 A 
ATOM      6  C4  OXE d   1       1.591   1.772  -1.456  0.00  0.00    -0.002 A 
ATOM      7  C5  OXE d   1       1.676   2.627  -2.560  0.00  0.00    -0.002 A 
ATOM      8  C6  OXE d   1       1.658   4.003  -2.359  0.00  0.00     0.003 A 
ENDROOT
TORSDOF 0
ENDMDL
