MODEL 1
REMARK minimizedAffinity 4.47151279
REMARK minimizedRMSD -1
REMARK  0 active torsions:
REMARK  status: ('A' for Active; 'I' for Inactive)
ROOT
ATOM      1  C2' OXE d   1       1.102  -2.837   0.329  0.00  0.00     0.078 C 
ATOM      2  C1' OXE d   1      -1.077  -3.882  -1.099  0.00  0.00     0.078 C 
ATOM      3  C1  OXE d   1      -1.287  -3.542   0.355  0.00  0.00    -0.078 A 
ATOM      4  C2  OXE d   1      -0.202  -3.075   1.058  0.00  0.00    -0.078 A 
ATOM      5  C3  OXE d   1      -0.355  -2.695   2.388  0.00  0.00     0.003 A 
ATOM      6  C4  OXE d   1      -1.563  -2.927   3.058  0.00  0.00    -0.002 A 
ATOM      7  C5  OXE d   1      -2.668  -3.439   2.371  0.00  0.00    -0.002 A 
ATOM      8  C6  OXE d   1      -2.560  -3.711   1.011  0.00  0.00     0.003 A 
ENDROOT
TORSDOF 0
ENDMDL
