MODEL 1
REMARK minimizedAffinity -2.71040845
REMARK minimizedRMSD -1
REMARK  1 active torsions:
REMARK  status: ('A' for Active; 'I' for Inactive)
REMARK    1  A    between atoms: C3_4  and  O_7 
ROOT
ATOM      1  C   UNL d   1       4.647   4.491  -4.689  0.00  0.00    -0.033 A 
ATOM      2  C1  UNL d   1       4.530   5.530  -5.614  0.00  0.00     0.039 A 
ATOM      3  C2  UNL d   1       3.268   5.999  -5.985  0.00  0.00    -0.080 A 
ATOM      4  C3  UNL d   1       2.133   5.422  -5.424  0.00  0.00     0.150 A 
ATOM      5  C4  UNL d   1       2.242   4.389  -4.498  0.00  0.00    -0.007 A 
ATOM      6  C5  UNL d   1       3.502   3.921  -4.130  0.00  0.00     0.039 A 
ENDROOT
BRANCH   4   7
ATOM      7  O   UNL d   1       0.880   5.842  -5.758  0.00  0.00    -0.526 OA
ATOM      8  H5  UNL d   1       0.959   6.541  -6.429  0.00  0.00     0.418 HD
ENDBRANCH   4   7
TORSDOF 1
ENDMDL
