MODEL 1
REMARK minimizedAffinity -0.890976906
REMARK minimizedRMSD -1
REMARK  1 active torsions:
REMARK  status: ('A' for Active; 'I' for Inactive)
REMARK    1  A    between atoms: C3_4  and  O_7 
ROOT
ATOM      1  C   UNL d   1       4.504   5.078  -4.508  0.00  0.00    -0.033 A 
ATOM      2  C1  UNL d   1       4.125   6.000  -5.485  0.00  0.00     0.039 A 
ATOM      3  C2  UNL d   1       2.826   5.982  -5.998  0.00  0.00    -0.080 A 
ATOM      4  C3  UNL d   1       1.918   5.039  -5.526  0.00  0.00     0.150 A 
ATOM      5  C4  UNL d   1       2.287   4.120  -4.549  0.00  0.00    -0.007 A 
ATOM      6  C5  UNL d   1       3.584   4.139  -4.039  0.00  0.00     0.039 A 
ENDROOT
BRANCH   4   7
ATOM      7  O   UNL d   1       0.641   4.980  -6.000  0.00  0.00    -0.526 OA
ATOM      8  H5  UNL d   1       0.537   5.656  -6.690  0.00  0.00     0.418 HD
ENDBRANCH   4   7
TORSDOF 1
ENDMDL
