MODEL 1
REMARK minimizedAffinity -0.0589917451
REMARK minimizedRMSD -1
REMARK  1 active torsions:
REMARK  status: ('A' for Active; 'I' for Inactive)
REMARK    1  A    between atoms: C3_4  and  O_7 
ROOT
ATOM      1  C   UNL d   1      -0.272   5.990  -4.728  0.00  0.00    -0.033 A 
ATOM      2  C1  UNL d   1       0.376   5.996  -3.491  0.00  0.00     0.039 A 
ATOM      3  C2  UNL d   1       1.771   6.000  -3.431  0.00  0.00    -0.080 A 
ATOM      4  C3  UNL d   1       2.505   5.998  -4.613  0.00  0.00     0.150 A 
ATOM      5  C4  UNL d   1       1.867   5.996  -5.849  0.00  0.00    -0.007 A 
ATOM      6  C5  UNL d   1       0.474   5.992  -5.907  0.00  0.00     0.039 A 
ENDROOT
BRANCH   4   7
ATOM      7  O   UNL d   1       3.869   5.997  -4.605  0.00  0.00    -0.526 OA
ATOM      8  H5  UNL d   1       4.171   5.969  -3.681  0.00  0.00     0.418 HD
ENDBRANCH   4   7
TORSDOF 1
ENDMDL
