MODEL 1
REMARK minimizedAffinity -0.44478479
REMARK minimizedRMSD -1
REMARK  1 active torsions:
REMARK  status: ('A' for Active; 'I' for Inactive)
REMARK    1  A    between atoms: C3_4  and  O_7 
ROOT
ATOM      1  C   UNL d   1      -0.884   5.998  -4.538  0.00  0.00    -0.033 A 
ATOM      2  C1  UNL d   1      -0.491   5.992  -3.199  0.00  0.00     0.039 A 
ATOM      3  C2  UNL d   1      -1.454   5.991  -2.187  0.00  0.00    -0.080 A 
ATOM      4  C3  UNL d   1      -2.803   5.995  -2.528  0.00  0.00     0.150 A 
ATOM      5  C4  UNL d   1      -3.202   5.997  -3.861  0.00  0.00    -0.007 A 
ATOM      6  C5  UNL d   1      -2.239   5.999  -4.869  0.00  0.00     0.039 A 
ENDROOT
BRANCH   4   7
ATOM      7  O   UNL d   1      -3.779   6.000  -1.576  0.00  0.00    -0.526 OA
ATOM      8  H5  UNL d   1      -3.355   6.027  -0.701  0.00  0.00     0.418 HD
ENDBRANCH   4   7
TORSDOF 1
ENDMDL
