MODEL 1
REMARK minimizedAffinity -0.10267885
REMARK minimizedRMSD -1
REMARK  1 active torsions:
REMARK  status: ('A' for Active; 'I' for Inactive)
REMARK    1  A    between atoms: C3_4  and  O_7 
ROOT
ATOM      1  C   UNL d   1       3.760   5.455  -5.346  0.00  0.00    -0.033 A 
ATOM      2  C1  UNL d   1       3.607   4.333  -4.529  0.00  0.00     0.039 A 
ATOM      3  C2  UNL d   1       2.346   3.757  -4.361  0.00  0.00    -0.080 A 
ATOM      4  C3  UNL d   1       1.249   4.310  -5.016  0.00  0.00     0.150 A 
ATOM      5  C4  UNL d   1       1.396   5.425  -5.835  0.00  0.00    -0.007 A 
ATOM      6  C5  UNL d   1       2.655   6.000  -6.000  0.00  0.00     0.039 A 
ENDROOT
BRANCH   4   7
ATOM      7  O   UNL d   1      -0.002   3.785  -4.879  0.00  0.00    -0.526 OA
ATOM      8  H5  UNL d   1       0.045   3.037  -4.262  0.00  0.00     0.418 HD
ENDBRANCH   4   7
TORSDOF 1
ENDMDL
