MODEL 1
REMARK minimizedAffinity 5.37117338
REMARK minimizedRMSD -1
REMARK  1 active torsions:
REMARK  status: ('A' for Active; 'I' for Inactive)
REMARK    1  A    between atoms: C3_4  and  O_7 
ROOT
ATOM      1  C   UNL d   1      -3.566   6.000  -2.579  0.00  0.00    -0.033 A 
ATOM      2  C1  UNL d   1      -3.757   5.687  -1.232  0.00  0.00     0.039 A 
ATOM      3  C2  UNL d   1      -2.671   5.311  -0.440  0.00  0.00    -0.080 A 
ATOM      4  C3  UNL d   1      -1.400   5.253  -1.006  0.00  0.00     0.150 A 
ATOM      5  C4  UNL d   1      -1.202   5.567  -2.347  0.00  0.00    -0.007 A 
ATOM      6  C5  UNL d   1      -2.288   5.941  -3.136  0.00  0.00     0.039 A 
ENDROOT
BRANCH   4   7
ATOM      7  O   UNL d   1      -0.310   4.887  -0.274  0.00  0.00    -0.526 OA
ATOM      8  H5  UNL d   1      -0.603   4.671   0.627  0.00  0.00     0.418 HD
ENDBRANCH   4   7
TORSDOF 1
ENDMDL
