MODEL 1
REMARK minimizedAffinity -0.293726772
REMARK minimizedRMSD -1
REMARK  1 active torsions:
REMARK  status: ('A' for Active; 'I' for Inactive)
REMARK    1  A    between atoms: C3_4  and  O_7 
ROOT
ATOM      1  C   UNL d   1       1.501   1.886  -1.739  0.00  0.00    -0.033 A 
ATOM      2  C1  UNL d   1       1.616   0.510  -1.534  0.00  0.00     0.039 A 
ATOM      3  C2  UNL d   1       1.487  -0.020  -0.249  0.00  0.00    -0.080 A 
ATOM      4  C3  UNL d   1       1.243   0.836   0.822  0.00  0.00     0.150 A 
ATOM      5  C4  UNL d   1       1.124   2.208   0.625  0.00  0.00    -0.007 A 
ATOM      6  C5  UNL d   1       1.254   2.735  -0.659  0.00  0.00     0.039 A 
ENDROOT
BRANCH   4   7
ATOM      7  O   UNL d   1       1.114   0.366   2.095  0.00  0.00    -0.526 OA
ATOM      8  H5  UNL d   1       1.249  -0.596   2.083  0.00  0.00     0.418 HD
ENDBRANCH   4   7
TORSDOF 1
ENDMDL
