MODEL 1
REMARK minimizedAffinity -3.62311029
REMARK minimizedRMSD -1
REMARK  1 active torsions:
REMARK  status: ('A' for Active; 'I' for Inactive)
REMARK    1  A    between atoms: C3_4  and  O_7 
ROOT
ATOM      1  C   UNL d   1      -2.460   6.000  -3.988  0.00  0.00    -0.033 A 
ATOM      2  C1  UNL d   1      -1.621   6.000  -2.872  0.00  0.00     0.039 A 
ATOM      3  C2  UNL d   1      -0.235   5.983  -3.038  0.00  0.00    -0.080 A 
ATOM      4  C3  UNL d   1       0.299   5.968  -4.324  0.00  0.00     0.150 A 
ATOM      5  C4  UNL d   1      -0.531   5.972  -5.440  0.00  0.00    -0.007 A 
ATOM      6  C5  UNL d   1      -1.915   5.987  -5.272  0.00  0.00     0.039 A 
ENDROOT
BRANCH   4   7
ATOM      7  O   UNL d   1       1.645   5.946  -4.536  0.00  0.00    -0.526 OA
ATOM      8  H5  UNL d   1       2.092   5.917  -3.674  0.00  0.00     0.418 HD
ENDBRANCH   4   7
TORSDOF 1
ENDMDL
