MODEL 1
REMARK minimizedAffinity 2.9014504
REMARK minimizedRMSD -1
REMARK  1 active torsions:
REMARK  status: ('A' for Active; 'I' for Inactive)
REMARK    1  A    between atoms: C3_4  and  O_7 
ROOT
ATOM      1  C   UNL d   1       1.144   3.033   0.768  0.00  0.00    -0.033 A 
ATOM      2  C1  UNL d   1       0.978   2.444  -0.487  0.00  0.00     0.039 A 
ATOM      3  C2  UNL d   1       0.710   1.077  -0.589  0.00  0.00    -0.080 A 
ATOM      4  C3  UNL d   1       0.609   0.312   0.570  0.00  0.00     0.150 A 
ATOM      5  C4  UNL d   1       0.769   0.893   1.824  0.00  0.00    -0.007 A 
ATOM      6  C5  UNL d   1       1.038   2.258   1.923  0.00  0.00     0.039 A 
ENDROOT
BRANCH   4   7
ATOM      7  O   UNL d   1       0.353  -1.026   0.520  0.00  0.00    -0.526 OA
ATOM      8  H5  UNL d   1       0.295  -1.294  -0.412  0.00  0.00     0.418 HD
ENDBRANCH   4   7
TORSDOF 1
ENDMDL
