MODEL 1
REMARK minimizedAffinity 1.70427454
REMARK minimizedRMSD -1
REMARK  1 active torsions:
REMARK  status: ('A' for Active; 'I' for Inactive)
REMARK    1  A    between atoms: C3_4  and  O_7 
ROOT
ATOM      1  C   UNL d   1       1.665   1.499   1.364  0.00  0.00    -0.033 A 
ATOM      2  C1  UNL d   1       1.169   2.301   0.334  0.00  0.00     0.039 A 
ATOM      3  C2  UNL d   1      -0.035   1.972  -0.292  0.00  0.00    -0.080 A 
ATOM      4  C3  UNL d   1      -0.733   0.841   0.122  0.00  0.00     0.150 A 
ATOM      5  C4  UNL d   1      -0.247   0.039   1.150  0.00  0.00    -0.007 A 
ATOM      6  C5  UNL d   1       0.956   0.369   1.773  0.00  0.00     0.039 A 
ENDROOT
BRANCH   4   7
ATOM      7  O   UNL d   1      -1.910   0.477  -0.462  0.00  0.00    -0.526 OA
ATOM      8  H5  UNL d   1      -2.108   1.107  -1.175  0.00  0.00     0.418 HD
ENDBRANCH   4   7
TORSDOF 1
ENDMDL
