MODEL 1
REMARK minimizedAffinity -0.390144825
REMARK minimizedRMSD -1
REMARK  1 active torsions:
REMARK  status: ('A' for Active; 'I' for Inactive)
REMARK    1  A    between atoms: C3_4  and  O_7 
ROOT
ATOM      1  C   UNL d   1      -0.331   2.276   0.263  0.00  0.00    -0.033 A 
ATOM      2  C1  UNL d   1      -0.361   0.950   0.698  0.00  0.00     0.039 A 
ATOM      3  C2  UNL d   1       0.784   0.367   1.245  0.00  0.00    -0.080 A 
ATOM      4  C3  UNL d   1       1.949   1.121   1.352  0.00  0.00     0.150 A 
ATOM      5  C4  UNL d   1       1.985   2.444   0.924  0.00  0.00    -0.007 A 
ATOM      6  C5  UNL d   1       0.841   3.024   0.377  0.00  0.00     0.039 A 
ENDROOT
BRANCH   4   7
ATOM      7  O   UNL d   1       3.093   0.594   1.875  0.00  0.00    -0.526 OA
ATOM      8  H5  UNL d   1       2.928  -0.337   2.101  0.00  0.00     0.418 HD
ENDBRANCH   4   7
TORSDOF 1
ENDMDL
