MODEL 1
REMARK minimizedAffinity 0.808416963
REMARK minimizedRMSD -1
REMARK  1 active torsions:
REMARK  status: ('A' for Active; 'I' for Inactive)
REMARK    1  A    between atoms: C3_4  and  O_7 
ROOT
ATOM      1  C   UNL d   1      -4.185   5.995  -2.047  0.00  0.00    -0.033 A 
ATOM      2  C1  UNL d   1      -4.052   6.000  -3.436  0.00  0.00     0.039 A 
ATOM      3  C2  UNL d   1      -2.783   5.999  -4.018  0.00  0.00    -0.080 A 
ATOM      4  C3  UNL d   1      -1.657   5.993  -3.200  0.00  0.00     0.150 A 
ATOM      5  C4  UNL d   1      -1.782   5.984  -1.815  0.00  0.00    -0.007 A 
ATOM      6  C5  UNL d   1      -3.050   5.985  -1.236  0.00  0.00     0.039 A 
ENDROOT
BRANCH   4   7
ATOM      7  O   UNL d   1      -0.397   5.997  -3.722  0.00  0.00    -0.526 OA
ATOM      8  H5  UNL d   1      -0.466   6.033  -4.691  0.00  0.00     0.418 HD
ENDBRANCH   4   7
TORSDOF 1
ENDMDL
