MODEL 1
REMARK minimizedAffinity -0.986281157
REMARK minimizedRMSD -1
REMARK  1 active torsions:
REMARK  status: ('A' for Active; 'I' for Inactive)
REMARK    1  A    between atoms: C3_4  and  O_7 
ROOT
ATOM      1  C   UNL d   1       3.028   5.674  -4.083  0.00  0.00    -0.033 A 
ATOM      2  C1  UNL d   1       2.326   4.467  -4.070  0.00  0.00     0.039 A 
ATOM      3  C2  UNL d   1       3.017   3.257  -3.976  0.00  0.00    -0.080 A 
ATOM      4  C3  UNL d   1       4.406   3.268  -3.894  0.00  0.00     0.150 A 
ATOM      5  C4  UNL d   1       5.111   4.467  -3.902  0.00  0.00    -0.007 A 
ATOM      6  C5  UNL d   1       4.420   5.674  -3.998  0.00  0.00     0.039 A 
ENDROOT
BRANCH   4   7
ATOM      7  O   UNL d   1       5.124   2.112  -3.806  0.00  0.00    -0.526 OA
ATOM      8  H5  UNL d   1       4.506   1.363  -3.840  0.00  0.00     0.418 HD
ENDBRANCH   4   7
TORSDOF 1
ENDMDL
