MODEL 1
REMARK minimizedAffinity -0.246123627
REMARK minimizedRMSD -1
REMARK  1 active torsions:
REMARK  status: ('A' for Active; 'I' for Inactive)
REMARK    1  A    between atoms: C3_4  and  O_7 
ROOT
ATOM      1  C   UNL d   1       0.394   5.759  -4.849  0.00  0.00    -0.033 A 
ATOM      2  C1  UNL d   1       1.146   5.515  -6.000  0.00  0.00     0.039 A 
ATOM      3  C2  UNL d   1       2.541   5.514  -5.938  0.00  0.00    -0.080 A 
ATOM      4  C3  UNL d   1       3.170   5.758  -4.720  0.00  0.00     0.150 A 
ATOM      5  C4  UNL d   1       2.427   5.998  -3.569  0.00  0.00    -0.007 A 
ATOM      6  C5  UNL d   1       1.034   6.000  -3.633  0.00  0.00     0.039 A 
ENDROOT
BRANCH   4   7
ATOM      7  O   UNL d   1       4.529   5.772  -4.611  0.00  0.00    -0.526 OA
ATOM      8  H5  UNL d   1       4.910   5.619  -5.491  0.00  0.00     0.418 HD
ENDBRANCH   4   7
TORSDOF 1
ENDMDL
