MODEL 1
REMARK minimizedAffinity 0.381409615
REMARK minimizedRMSD -1
REMARK  1 active torsions:
REMARK  status: ('A' for Active; 'I' for Inactive)
REMARK    1  A    between atoms: C3_4  and  O_7 
ROOT
ATOM      1  C   UNL d   1      -4.213   5.992  -2.588  0.00  0.00    -0.033 A 
ATOM      2  C1  UNL d   1      -3.136   5.990  -3.477  0.00  0.00     0.039 A 
ATOM      3  C2  UNL d   1      -1.827   5.991  -2.991  0.00  0.00    -0.080 A 
ATOM      4  C3  UNL d   1      -1.608   5.993  -1.616  0.00  0.00     0.150 A 
ATOM      5  C4  UNL d   1      -2.676   5.992  -0.725  0.00  0.00    -0.007 A 
ATOM      6  C5  UNL d   1      -3.982   5.992  -1.212  0.00  0.00     0.039 A 
ENDROOT
BRANCH   4   7
ATOM      7  O   UNL d   1      -0.349   6.000  -1.095  0.00  0.00    -0.526 OA
ATOM      8  H5  UNL d   1       0.288   6.029  -1.829  0.00  0.00     0.418 HD
ENDBRANCH   4   7
TORSDOF 1
ENDMDL
