MODEL 1
REMARK minimizedAffinity 1.33505309
REMARK minimizedRMSD -1
REMARK  0 active torsions:
REMARK  status: ('A' for Active; 'I' for Inactive)
ROOT
ATOM      1  C   UNL d   1       0.407  -0.885  -0.769  0.00  0.00     0.077 C 
ATOM      2  C1  UNL d   1       1.433  -1.475   0.153  0.00  0.00    -0.074 A 
ATOM      3  C2  UNL d   1       1.100  -2.514   1.028  0.00  0.00    -0.005 A 
ATOM      4  C3  UNL d   1       2.067  -3.059   1.873  0.00  0.00     0.006 A 
ATOM      5  C4  UNL d   1       3.374  -2.572   1.851  0.00  0.00    -0.005 A 
ATOM      6  C5  UNL d   1       3.726  -1.534   0.982  0.00  0.00    -0.074 A 
ATOM      7  C6  UNL d   1       5.129  -1.005   0.939  0.00  0.00     0.077 C 
ATOM      8  C7  UNL d   1       2.750  -0.996   0.132  0.00  0.00    -0.001 A 
ENDROOT
TORSDOF 0
ENDMDL
