MODEL 1
REMARK minimizedAffinity 8.05660152
REMARK minimizedRMSD -1
REMARK  0 active torsions:
REMARK  status: ('A' for Active; 'I' for Inactive)
ROOT
ATOM      1  C   UNL d   1       1.741  -5.750   0.993  0.00  0.00     0.077 C 
ATOM      2  C1  UNL d   1       1.596  -4.269   1.175  0.00  0.00    -0.074 A 
ATOM      3  C2  UNL d   1       2.316  -3.373   0.378  0.00  0.00    -0.005 A 
ATOM      4  C3  UNL d   1       2.164  -1.997   0.553  0.00  0.00     0.006 A 
ATOM      5  C4  UNL d   1       1.292  -1.505   1.524  0.00  0.00    -0.005 A 
ATOM      6  C5  UNL d   1       0.563  -2.385   2.330  0.00  0.00    -0.074 A 
ATOM      7  C6  UNL d   1      -0.386  -1.872   3.372  0.00  0.00     0.077 C 
ATOM      8  C7  UNL d   1       0.716  -3.766   2.144  0.00  0.00    -0.001 A 
ENDROOT
TORSDOF 0
ENDMDL
