MODEL 1
REMARK minimizedAffinity 4.29515553
REMARK minimizedRMSD -1
REMARK  0 active torsions:
REMARK  status: ('A' for Active; 'I' for Inactive)
ROOT
ATOM      1  C   UNL d   1       2.505  -5.068   1.295  0.00  0.00     0.077 C 
ATOM      2  C1  UNL d   1       2.072  -3.637   1.173  0.00  0.00    -0.074 A 
ATOM      3  C2  UNL d   1       2.447  -2.864   0.069  0.00  0.00    -0.005 A 
ATOM      4  C3  UNL d   1       2.029  -1.538  -0.035  0.00  0.00     0.006 A 
ATOM      5  C4  UNL d   1       1.233  -0.971   0.962  0.00  0.00    -0.005 A 
ATOM      6  C5  UNL d   1       0.848  -1.729   2.073  0.00  0.00    -0.074 A 
ATOM      7  C6  UNL d   1      -0.015  -1.139   3.149  0.00  0.00     0.077 C 
ATOM      8  C7  UNL d   1       1.266  -3.064   2.167  0.00  0.00    -0.001 A 
ENDROOT
TORSDOF 0
ENDMDL
