MODEL 1
REMARK minimizedAffinity 8.53464794
REMARK minimizedRMSD -1
REMARK  0 active torsions:
REMARK  status: ('A' for Active; 'I' for Inactive)
ROOT
ATOM      1  C   UNL d   1       2.379  -5.388   0.902  0.00  0.00     0.077 C 
ATOM      2  C1  UNL d   1       2.043  -3.927   0.896  0.00  0.00    -0.074 A 
ATOM      3  C2  UNL d   1       2.592  -3.066  -0.060  0.00  0.00    -0.005 A 
ATOM      4  C3  UNL d   1       2.263  -1.711  -0.058  0.00  0.00     0.006 A 
ATOM      5  C4  UNL d   1       1.383  -1.203   0.899  0.00  0.00    -0.005 A 
ATOM      6  C5  UNL d   1       0.823  -2.049   1.862  0.00  0.00    -0.074 A 
ATOM      7  C6  UNL d   1      -0.132  -1.521   2.891  0.00  0.00     0.077 C 
ATOM      8  C7  UNL d   1       1.153  -3.411   1.849  0.00  0.00    -0.001 A 
ENDROOT
TORSDOF 0
ENDMDL
