MODEL 1
REMARK minimizedAffinity 6.22863054
REMARK minimizedRMSD -1
REMARK  0 active torsions:
REMARK  status: ('A' for Active; 'I' for Inactive)
ROOT
ATOM      1  C   UNL d   1       2.119  -2.266  -0.408  0.00  0.00     0.077 C 
ATOM      2  C1  UNL d   1       1.817  -1.427   0.798  0.00  0.00    -0.074 A 
ATOM      3  C2  UNL d   1       1.269  -1.996   1.951  0.00  0.00    -0.005 A 
ATOM      4  C3  UNL d   1       1.003  -1.204   3.068  0.00  0.00     0.006 A 
ATOM      5  C4  UNL d   1       1.282   0.163   3.043  0.00  0.00    -0.005 A 
ATOM      6  C5  UNL d   1       1.831   0.750   1.899  0.00  0.00    -0.074 A 
ATOM      7  C6  UNL d   1       2.145   2.216   1.858  0.00  0.00     0.077 C 
ATOM      8  C7  UNL d   1       2.102  -0.054   0.783  0.00  0.00    -0.001 A 
ENDROOT
TORSDOF 0
ENDMDL
