MODEL 1
REMARK minimizedAffinity -0.0665878579
REMARK minimizedRMSD -1
REMARK  0 active torsions:
REMARK  status: ('A' for Active; 'I' for Inactive)
ROOT
ATOM      1  C   UNL d   1       5.983  -1.134  -4.948  0.00  0.00     0.077 C 
ATOM      2  C1  UNL d   1       5.993  -0.489  -3.595  0.00  0.00    -0.074 A 
ATOM      3  C2  UNL d   1       5.998   0.904  -3.462  0.00  0.00    -0.005 A 
ATOM      4  C3  UNL d   1       5.997   1.490  -2.196  0.00  0.00     0.006 A 
ATOM      5  C4  UNL d   1       5.991   0.691  -1.052  0.00  0.00    -0.005 A 
ATOM      6  C5  UNL d   1       5.985  -0.703  -1.165  0.00  0.00    -0.074 A 
ATOM      7  C6  UNL d   1       5.969  -1.576   0.054  0.00  0.00     0.077 C 
ATOM      8  C7  UNL d   1       5.979  -1.284  -2.440  0.00  0.00    -0.001 A 
ENDROOT
TORSDOF 0
ENDMDL
