MODEL 1
REMARK minimizedAffinity 6.1522584
REMARK minimizedRMSD -1
REMARK  0 active torsions:
REMARK  status: ('A' for Active; 'I' for Inactive)
ROOT
ATOM      1  C   UNL d   1       2.676  -3.746   2.685  0.00  0.00     0.077 C 
ATOM      2  C1  UNL d   1       1.634  -2.834   2.108  0.00  0.00    -0.074 A 
ATOM      3  C2  UNL d   1       1.590  -2.570   0.735  0.00  0.00    -0.005 A 
ATOM      4  C3  UNL d   1       0.609  -1.728   0.212  0.00  0.00     0.006 A 
ATOM      5  C4  UNL d   1      -0.335  -1.141   1.055  0.00  0.00    -0.005 A 
ATOM      6  C5  UNL d   1      -0.307  -1.393   2.430  0.00  0.00    -0.074 A 
ATOM      7  C6  UNL d   1      -1.321  -0.779   3.349  0.00  0.00     0.077 C 
ATOM      8  C7  UNL d   1       0.677  -2.247   2.947  0.00  0.00    -0.001 A 
ENDROOT
TORSDOF 0
ENDMDL
