MODEL 1
REMARK minimizedAffinity 2.48128462
REMARK minimizedRMSD -1
REMARK  0 active torsions:
REMARK  status: ('A' for Active; 'I' for Inactive)
ROOT
ATOM      1  C   UNL d   1      -0.655  -1.275   3.141  0.00  0.00     0.077 C 
ATOM      2  C1  UNL d   1       0.284  -1.725   2.062  0.00  0.00    -0.074 A 
ATOM      3  C2  UNL d   1       0.008  -1.466   0.715  0.00  0.00    -0.005 A 
ATOM      4  C3  UNL d   1       0.896  -1.882  -0.277  0.00  0.00     0.006 A 
ATOM      5  C4  UNL d   1       2.066  -2.560   0.066  0.00  0.00    -0.005 A 
ATOM      6  C5  UNL d   1       2.359  -2.827   1.407  0.00  0.00    -0.074 A 
ATOM      7  C6  UNL d   1       3.617  -3.547   1.794  0.00  0.00     0.077 C 
ATOM      8  C7  UNL d   1       1.465  -2.400   2.399  0.00  0.00    -0.001 A 
ENDROOT
TORSDOF 0
ENDMDL
