MODEL 1
REMARK minimizedAffinity 1.5950135
REMARK minimizedRMSD -1
REMARK  0 active torsions:
REMARK  status: ('A' for Active; 'I' for Inactive)
ROOT
ATOM      1  C   UNL d   1      -1.778   1.917  -2.201  0.00  0.00     0.077 C 
ATOM      2  C1  UNL d   1      -0.719   2.106  -3.246  0.00  0.00    -0.074 A 
ATOM      3  C2  UNL d   1      -0.548   1.171  -4.273  0.00  0.00    -0.005 A 
ATOM      4  C3  UNL d   1       0.435   1.365  -5.243  0.00  0.00     0.006 A 
ATOM      5  C4  UNL d   1       1.256   2.493  -5.197  0.00  0.00    -0.005 A 
ATOM      6  C5  UNL d   1       1.099   3.438  -4.179  0.00  0.00    -0.074 A 
ATOM      7  C6  UNL d   1       1.965   4.661  -4.120  0.00  0.00     0.077 C 
ATOM      8  C7  UNL d   1       0.104   3.240  -3.211  0.00  0.00    -0.001 A 
ENDROOT
TORSDOF 0
ENDMDL
