MODEL 1
REMARK minimizedAffinity 4.67165804
REMARK minimizedRMSD -1
REMARK  0 active torsions:
REMARK  status: ('A' for Active; 'I' for Inactive)
ROOT
ATOM      1  C   UNL d   1       3.615  -5.259   1.516  0.00  0.00     0.077 C 
ATOM      2  C1  UNL d   1       3.234  -3.820   1.331  0.00  0.00    -0.074 A 
ATOM      3  C2  UNL d   1       1.910  -3.400   1.496  0.00  0.00    -0.005 A 
ATOM      4  C3  UNL d   1       1.573  -2.057   1.330  0.00  0.00     0.006 A 
ATOM      5  C4  UNL d   1       2.554  -1.122   0.998  0.00  0.00    -0.005 A 
ATOM      6  C5  UNL d   1       3.883  -1.523   0.830  0.00  0.00    -0.074 A 
ATOM      7  C6  UNL d   1       4.951  -0.529   0.484  0.00  0.00     0.077 C 
ATOM      8  C7  UNL d   1       4.215  -2.873   1.006  0.00  0.00    -0.001 A 
ENDROOT
TORSDOF 0
ENDMDL
