MODEL 1
REMARK minimizedAffinity 5.81799746
REMARK minimizedRMSD -1
REMARK  0 active torsions:
REMARK  status: ('A' for Active; 'I' for Inactive)
ROOT
ATOM      1  C   UNL d   1       0.105  -1.318   2.877  0.00  0.00     0.077 C 
ATOM      2  C1  UNL d   1      -1.213  -0.729   2.468  0.00  0.00    -0.074 A 
ATOM      3  C2  UNL d   1      -1.833  -1.117   1.276  0.00  0.00    -0.005 A 
ATOM      4  C3  UNL d   1      -3.063  -0.568   0.913  0.00  0.00     0.006 A 
ATOM      5  C4  UNL d   1      -3.684   0.372   1.736  0.00  0.00    -0.005 A 
ATOM      6  C5  UNL d   1      -3.079   0.771   2.932  0.00  0.00    -0.074 A 
ATOM      7  C6  UNL d   1      -3.737   1.772   3.834  0.00  0.00     0.077 C 
ATOM      8  C7  UNL d   1      -1.846   0.210   3.294  0.00  0.00    -0.001 A 
ENDROOT
TORSDOF 0
ENDMDL
