MODEL 1
REMARK minimizedAffinity 4.76737165
REMARK minimizedRMSD -1
REMARK  0 active torsions:
REMARK  status: ('A' for Active; 'I' for Inactive)
ROOT
ATOM      1  C   UNL d   1       2.250   4.724  -4.109  0.00  0.00     0.077 C 
ATOM      2  C1  UNL d   1       1.292   3.590  -4.325  0.00  0.00    -0.074 A 
ATOM      3  C2  UNL d   1       1.473   2.687  -5.378  0.00  0.00    -0.005 A 
ATOM      4  C3  UNL d   1       0.580   1.632  -5.561  0.00  0.00     0.006 A 
ATOM      5  C4  UNL d   1      -0.502   1.469  -4.694  0.00  0.00    -0.005 A 
ATOM      6  C5  UNL d   1      -0.698   2.361  -3.636  0.00  0.00    -0.074 A 
ATOM      7  C6  UNL d   1      -1.850   2.194  -2.690  0.00  0.00     0.077 C 
ATOM      8  C7  UNL d   1       0.208   3.415  -3.454  0.00  0.00    -0.001 A 
ENDROOT
TORSDOF 0
ENDMDL
