MODEL 1
REMARK minimizedAffinity -5.54698467
REMARK minimizedRMSD -1
REMARK  0 active torsions:
REMARK  status: ('A' for Active; 'I' for Inactive)
ROOT
ATOM      1  O1  BZF d   1       0.494  -1.520  -0.805  0.00  0.00    -0.204 OA
ATOM      2  C2  BZF d   1      -0.193  -1.270   0.367  0.00  0.00     0.174 A 
ATOM      3  C3  BZF d   1      -0.037   0.014   0.748  0.00  0.00    -0.012 A 
ATOM      4  C3A BZF d   1       0.724   0.627  -0.297  0.00  0.00    -0.107 A 
ATOM      5  C4  BZF d   1       1.185   1.896  -0.502  0.00  0.00     0.055 A 
ATOM      6  C5  BZF d   1       1.960   2.149  -1.590  0.00  0.00    -0.016 A 
ATOM      7  C6  BZF d   1       2.297   1.158  -2.488  0.00  0.00     0.022 A 
ATOM      8  C7  BZF d   1       1.859  -0.115  -2.329  0.00  0.00     0.029 A 
ATOM      9  C7A BZF d   1       1.048  -0.367  -1.249  0.00  0.00     0.058 A 
ENDROOT
TORSDOF 0
ENDMDL
