MODEL 1
REMARK minimizedAffinity -5.68915892
REMARK minimizedRMSD -1
REMARK  0 active torsions:
REMARK  status: ('A' for Active; 'I' for Inactive)
ROOT
ATOM      1  O1  BZF d   1       1.021  -1.700  -0.787  0.00  0.00    -0.204 OA
ATOM      2  C2  BZF d   1       1.793  -2.089  -1.864  0.00  0.00     0.174 A 
ATOM      3  C3  BZF d   1       2.282  -1.013  -2.515  0.00  0.00    -0.012 A 
ATOM      4  C3A BZF d   1       1.859   0.116  -1.745  0.00  0.00    -0.107 A 
ATOM      5  C4  BZF d   1       2.047   1.463  -1.873  0.00  0.00     0.055 A 
ATOM      6  C5  BZF d   1       1.440   2.301  -0.992  0.00  0.00    -0.016 A 
ATOM      7  C6  BZF d   1       0.635   1.828   0.024  0.00  0.00     0.022 A 
ATOM      8  C7  BZF d   1       0.423   0.500   0.194  0.00  0.00     0.029 A 
ATOM      9  C7A BZF d   1       1.062  -0.351  -0.674  0.00  0.00     0.058 A 
ENDROOT
TORSDOF 0
ENDMDL
