MODEL 1
REMARK minimizedAffinity -5.5757165
REMARK minimizedRMSD -1
REMARK  0 active torsions:
REMARK  status: ('A' for Active; 'I' for Inactive)
ROOT
ATOM      1  O1  BZF d   1       1.875   0.803  -2.622  0.00  0.00    -0.204 OA
ATOM      2  C2  BZF d   1       1.684  -0.486  -3.081  0.00  0.00     0.174 A 
ATOM      3  C3  BZF d   1       0.981  -1.212  -2.188  0.00  0.00    -0.012 A 
ATOM      4  C3A BZF d   1       0.637  -0.295  -1.144  0.00  0.00    -0.107 A 
ATOM      5  C4  BZF d   1      -0.072  -0.416   0.016  0.00  0.00     0.055 A 
ATOM      6  C5  BZF d   1      -0.162   0.653   0.850  0.00  0.00    -0.016 A 
ATOM      7  C6  BZF d   1       0.448   1.856   0.557  0.00  0.00     0.022 A 
ATOM      8  C7  BZF d   1       1.158   2.026  -0.585  0.00  0.00     0.029 A 
ATOM      9  C7A BZF d   1       1.223   0.957  -1.445  0.00  0.00     0.058 A 
ENDROOT
TORSDOF 0
ENDMDL
