MODEL 1
REMARK minimizedAffinity -2.54059291
REMARK minimizedRMSD -1
REMARK  0 active torsions:
REMARK  status: ('A' for Active; 'I' for Inactive)
ROOT
ATOM      1  O1  BZF d   1      -0.188  -1.289  -0.072  0.00  0.00    -0.204 OA
ATOM      2  C2  BZF d   1      -0.889  -0.912   1.057  0.00  0.00     0.174 A 
ATOM      3  C3  BZF d   1      -0.489   0.303   1.486  0.00  0.00    -0.012 A 
ATOM      4  C3A BZF d   1       0.462   0.750   0.514  0.00  0.00    -0.107 A 
ATOM      5  C4  BZF d   1       1.201   1.890   0.380  0.00  0.00     0.055 A 
ATOM      6  C5  BZF d   1       2.091   1.984  -0.643  0.00  0.00    -0.016 A 
ATOM      7  C6  BZF d   1       2.272   0.955  -1.545  0.00  0.00     0.022 A 
ATOM      8  C7  BZF d   1       1.558  -0.193  -1.455  0.00  0.00     0.029 A 
ATOM      9  C7A BZF d   1       0.634  -0.278  -0.442  0.00  0.00     0.058 A 
ENDROOT
TORSDOF 0
ENDMDL
