MODEL 1
REMARK minimizedAffinity -1.99093378
REMARK minimizedRMSD -1
REMARK  0 active torsions:
REMARK  status: ('A' for Active; 'I' for Inactive)
ROOT
ATOM      1  O1  BZF d   1       0.546   1.483  -0.954  0.00  0.00    -0.204 OA
ATOM      2  C2  BZF d   1       1.067   1.058  -2.161  0.00  0.00     0.174 A 
ATOM      3  C3  BZF d   1       1.256  -0.278  -2.157  0.00  0.00    -0.012 A 
ATOM      4  C3A BZF d   1       0.740  -0.726  -0.900  0.00  0.00    -0.107 A 
ATOM      5  C4  BZF d   1       0.629  -1.956  -0.315  0.00  0.00     0.055 A 
ATOM      6  C5  BZF d   1       0.145  -2.043   0.952  0.00  0.00    -0.016 A 
ATOM      7  C6  BZF d   1      -0.232  -0.924   1.664  0.00  0.00     0.022 A 
ATOM      8  C7  BZF d   1      -0.145   0.316   1.125  0.00  0.00     0.029 A 
ATOM      9  C7A BZF d   1       0.313   0.405  -0.167  0.00  0.00     0.058 A 
ENDROOT
TORSDOF 0
ENDMDL
