MODEL 1
REMARK minimizedAffinity -4.1398983
REMARK minimizedRMSD -1
REMARK  0 active torsions:
REMARK  status: ('A' for Active; 'I' for Inactive)
ROOT
ATOM      1  O1  BZF d   1      -0.753  -0.686  -0.074  0.00  0.00    -0.204 OA
ATOM      2  C2  BZF d   1      -1.047   0.142   0.992  0.00  0.00     0.174 A 
ATOM      3  C3  BZF d   1      -0.232   1.217   1.001  0.00  0.00    -0.012 A 
ATOM      4  C3A BZF d   1       0.563   1.097  -0.183  0.00  0.00    -0.107 A 
ATOM      5  C4  BZF d   1       1.544   1.868  -0.736  0.00  0.00     0.055 A 
ATOM      6  C5  BZF d   1       2.171   1.433  -1.861  0.00  0.00    -0.016 A 
ATOM      7  C6  BZF d   1       1.844   0.231  -2.455  0.00  0.00     0.022 A 
ATOM      8  C7  BZF d   1       0.873  -0.565  -1.945  0.00  0.00     0.029 A 
ATOM      9  C7A BZF d   1       0.216  -0.113  -0.827  0.00  0.00     0.058 A 
ENDROOT
TORSDOF 0
ENDMDL
