MODEL 1
REMARK minimizedAffinity -4.13793993
REMARK minimizedRMSD -1
REMARK  0 active torsions:
REMARK  status: ('A' for Active; 'I' for Inactive)
ROOT
ATOM      1  O1  BZF d   1       0.231   0.762   0.578  0.00  0.00    -0.204 OA
ATOM      2  C2  BZF d   1      -0.943   0.068   0.359  0.00  0.00     0.174 A 
ATOM      3  C3  BZF d   1      -0.985  -0.417  -0.899  0.00  0.00    -0.012 A 
ATOM      4  C3A BZF d   1       0.280  -0.078  -1.475  0.00  0.00    -0.107 A 
ATOM      5  C4  BZF d   1       0.845  -0.301  -2.698  0.00  0.00     0.055 A 
ATOM      6  C5  BZF d   1       2.068   0.226  -2.967  0.00  0.00    -0.016 A 
ATOM      7  C6  BZF d   1       2.752   0.984  -2.039  0.00  0.00     0.022 A 
ATOM      8  C7  BZF d   1       2.234   1.229  -0.811  0.00  0.00     0.029 A 
ATOM      9  C7A BZF d   1       1.013   0.670  -0.525  0.00  0.00     0.058 A 
ENDROOT
TORSDOF 0
ENDMDL
