MODEL 1
REMARK minimizedAffinity -3.04603243
REMARK minimizedRMSD -1
REMARK  0 active torsions:
REMARK  status: ('A' for Active; 'I' for Inactive)
ROOT
ATOM      1  O1  BZF d   1      -0.956  -0.817  -0.268  0.00  0.00    -0.204 OA
ATOM      2  C2  BZF d   1      -0.918  -0.151   0.942  0.00  0.00     0.174 A 
ATOM      3  C3  BZF d   1       0.182   0.624   1.027  0.00  0.00    -0.012 A 
ATOM      4  C3A BZF d   1       0.828   0.502  -0.244  0.00  0.00    -0.107 A 
ATOM      5  C4  BZF d   1       1.960   1.048  -0.778  0.00  0.00     0.055 A 
ATOM      6  C5  BZF d   1       2.354   0.667  -2.022  0.00  0.00    -0.016 A 
ATOM      7  C6  BZF d   1       1.643  -0.259  -2.756  0.00  0.00     0.022 A 
ATOM      8  C7  BZF d   1       0.511  -0.824  -2.271  0.00  0.00     0.029 A 
ATOM      9  C7A BZF d   1       0.092  -0.417  -1.027  0.00  0.00     0.058 A 
ENDROOT
TORSDOF 0
ENDMDL
