MODEL 1
REMARK minimizedAffinity -4.87504387
REMARK minimizedRMSD -1
REMARK  0 active torsions:
REMARK  status: ('A' for Active; 'I' for Inactive)
ROOT
ATOM      1  O1  BZF d   1      -0.177  -0.906   0.338  0.00  0.00    -0.204 OA
ATOM      2  C2  BZF d   1      -0.444   0.428   0.578  0.00  0.00     0.174 A 
ATOM      3  C3  BZF d   1       0.307   1.217  -0.217  0.00  0.00    -0.012 A 
ATOM      4  C3A BZF d   1       1.025   0.319  -1.068  0.00  0.00    -0.107 A 
ATOM      5  C4  BZF d   1       1.922   0.500  -2.082  0.00  0.00     0.055 A 
ATOM      6  C5  BZF d   1       2.494  -0.588  -2.661  0.00  0.00    -0.016 A 
ATOM      7  C6  BZF d   1       2.197  -1.870  -2.248  0.00  0.00     0.022 A 
ATOM      8  C7  BZF d   1       1.309  -2.101  -1.250  0.00  0.00     0.029 A 
ATOM      9  C7A BZF d   1       0.705  -1.004  -0.685  0.00  0.00     0.058 A 
ENDROOT
TORSDOF 0
ENDMDL
