MODEL 1
REMARK minimizedAffinity -4.14008856
REMARK minimizedRMSD -1
REMARK  0 active torsions:
REMARK  status: ('A' for Active; 'I' for Inactive)
ROOT
ATOM      1  O1  BZF d   1       0.638   0.699   0.919  0.00  0.00    -0.204 OA
ATOM      2  C2  BZF d   1      -0.314  -0.303   0.937  0.00  0.00     0.174 A 
ATOM      3  C3  BZF d   1      -0.492  -0.815  -0.298  0.00  0.00    -0.012 A 
ATOM      4  C3A BZF d   1       0.471  -0.151  -1.123  0.00  0.00    -0.107 A 
ATOM      5  C4  BZF d   1       0.795  -0.242  -2.447  0.00  0.00     0.055 A 
ATOM      6  C5  BZF d   1       1.733   0.599  -2.956  0.00  0.00    -0.016 A 
ATOM      7  C6  BZF d   1       2.363   1.544  -2.173  0.00  0.00     0.022 A 
ATOM      8  C7  BZF d   1       2.078   1.669  -0.854  0.00  0.00     0.029 A 
ATOM      9  C7A BZF d   1       1.154   0.798  -0.329  0.00  0.00     0.058 A 
ENDROOT
TORSDOF 0
ENDMDL
