MODEL 1
REMARK minimizedAffinity -4.6191864
REMARK minimizedRMSD -1
REMARK  0 active torsions:
REMARK  status: ('A' for Active; 'I' for Inactive)
ROOT
ATOM      1  O1  BZF d   1       1.235  -0.422  -1.514  0.00  0.00    -0.204 OA
ATOM      2  C2  BZF d   1       1.455   0.942  -1.521  0.00  0.00     0.174 A 
ATOM      3  C3  BZF d   1       0.864   1.527  -0.459  0.00  0.00    -0.012 A 
ATOM      4  C3A BZF d   1       0.314   0.451   0.306  0.00  0.00    -0.107 A 
ATOM      5  C4  BZF d   1      -0.380   0.393   1.481  0.00  0.00     0.055 A 
ATOM      6  C5  BZF d   1      -0.837  -0.810   1.919  0.00  0.00    -0.016 A 
ATOM      7  C6  BZF d   1      -0.622  -1.972   1.207  0.00  0.00     0.022 A 
ATOM      8  C7  BZF d   1       0.066  -1.965   0.039  0.00  0.00     0.029 A 
ATOM      9  C7A BZF d   1       0.557  -0.756  -0.390  0.00  0.00     0.058 A 
ENDROOT
TORSDOF 0
ENDMDL
