MODEL 1
REMARK minimizedAffinity -5.07669115
REMARK minimizedRMSD -1
REMARK  0 active torsions:
REMARK  status: ('A' for Active; 'I' for Inactive)
ROOT
ATOM      1  O1  BZF d   1       0.066   0.811   0.238  0.00  0.00    -0.204 OA
ATOM      2  C2  BZF d   1      -0.746   0.171   1.154  0.00  0.00     0.174 A 
ATOM      3  C3  BZF d   1      -0.824  -1.148   0.885  0.00  0.00    -0.012 A 
ATOM      4  C3A BZF d   1       0.065  -1.360  -0.217  0.00  0.00    -0.107 A 
ATOM      5  C4  BZF d   1       0.432  -2.467  -0.927  0.00  0.00     0.055 A 
ATOM      6  C5  BZF d   1       1.265  -2.323  -1.991  0.00  0.00    -0.016 A 
ATOM      7  C6  BZF d   1       1.745  -1.088  -2.375  0.00  0.00     0.022 A 
ATOM      8  C7  BZF d   1       1.413   0.038  -1.698  0.00  0.00     0.029 A 
ATOM      9  C7A BZF d   1       0.597  -0.108  -0.603  0.00  0.00     0.058 A 
ENDROOT
TORSDOF 0
ENDMDL
