MODEL 1
REMARK minimizedAffinity -5.27145815
REMARK minimizedRMSD -1
REMARK  0 active torsions:
REMARK  status: ('A' for Active; 'I' for Inactive)
ROOT
ATOM      1  O1  BZF d   1       0.822   1.216  -1.142  0.00  0.00    -0.204 OA
ATOM      2  C2  BZF d   1       1.309   0.760  -2.352  0.00  0.00     0.174 A 
ATOM      3  C3  BZF d   1       1.335  -0.588  -2.380  0.00  0.00    -0.012 A 
ATOM      4  C3A BZF d   1       0.746  -1.001  -1.143  0.00  0.00    -0.107 A 
ATOM      5  C4  BZF d   1       0.478  -2.222  -0.593  0.00  0.00     0.055 A 
ATOM      6  C5  BZF d   1      -0.035  -2.281   0.664  0.00  0.00    -0.016 A 
ATOM      7  C6  BZF d   1      -0.287  -1.142   1.400  0.00  0.00     0.022 A 
ATOM      8  C7  BZF d   1      -0.042   0.091   0.895  0.00  0.00     0.029 A 
ATOM      9  C7A BZF d   1       0.446   0.156  -0.388  0.00  0.00     0.058 A 
ENDROOT
TORSDOF 0
ENDMDL
