MODEL 1
REMARK minimizedAffinity -5.1853528
REMARK minimizedRMSD -1
REMARK  0 active torsions:
REMARK  status: ('A' for Active; 'I' for Inactive)
ROOT
ATOM      1  O1  BZF d   1       0.237   0.657   0.624  0.00  0.00    -0.204 OA
ATOM      2  C2  BZF d   1      -0.365  -0.362   1.338  0.00  0.00     0.174 A 
ATOM      3  C3  BZF d   1      -0.348  -1.513   0.636  0.00  0.00    -0.012 A 
ATOM      4  C3A BZF d   1       0.388  -1.216  -0.555  0.00  0.00    -0.107 A 
ATOM      5  C4  BZF d   1       0.757  -1.959  -1.640  0.00  0.00     0.055 A 
ATOM      6  C5  BZF d   1       1.407  -1.350  -2.667  0.00  0.00    -0.016 A 
ATOM      7  C6  BZF d   1       1.700  -0.003  -2.643  0.00  0.00     0.022 A 
ATOM      8  C7  BZF d   1       1.358   0.774  -1.587  0.00  0.00     0.029 A 
ATOM      9  C7A BZF d   1       0.730   0.156  -0.534  0.00  0.00     0.058 A 
ENDROOT
TORSDOF 0
ENDMDL
