MODEL 1
REMARK minimizedAffinity -3.01979184
REMARK minimizedRMSD -1
REMARK  0 active torsions:
REMARK  status: ('A' for Active; 'I' for Inactive)
ROOT
ATOM      1  O1  BZF d   1       1.226  -1.051  -2.385  0.00  0.00    -0.204 OA
ATOM      2  C2  BZF d   1       1.952  -0.027  -2.963  0.00  0.00     0.174 A 
ATOM      3  C3  BZF d   1       1.952   1.065  -2.172  0.00  0.00    -0.012 A 
ATOM      4  C3A BZF d   1       1.254   0.671  -0.986  0.00  0.00    -0.107 A 
ATOM      5  C4  BZF d   1       0.941   1.315   0.177  0.00  0.00     0.055 A 
ATOM      6  C5  BZF d   1       0.187   0.671   1.106  0.00  0.00    -0.016 A 
ATOM      7  C6  BZF d   1      -0.274  -0.613   0.904  0.00  0.00     0.022 A 
ATOM      8  C7  BZF d   1       0.015  -1.294  -0.232  0.00  0.00     0.029 A 
ATOM      9  C7A BZF d   1       0.804  -0.658  -1.159  0.00  0.00     0.058 A 
ENDROOT
TORSDOF 0
ENDMDL
