MODEL 1
REMARK minimizedAffinity -3.88379073
REMARK minimizedRMSD -1
REMARK  0 active torsions:
REMARK  status: ('A' for Active; 'I' for Inactive)
ROOT
ATOM      1  O1  BZF d   1      -0.303  -1.122  -0.526  0.00  0.00    -0.204 OA
ATOM      2  C2  BZF d   1      -0.977  -0.763   0.625  0.00  0.00     0.174 A 
ATOM      3  C3  BZF d   1      -0.628   0.480   1.015  0.00  0.00    -0.012 A 
ATOM      4  C3A BZF d   1       0.255   0.961  -0.003  0.00  0.00    -0.107 A 
ATOM      5  C4  BZF d   1       0.921   2.138  -0.189  0.00  0.00     0.055 A 
ATOM      6  C5  BZF d   1       1.761   2.261  -1.250  0.00  0.00    -0.016 A 
ATOM      7  C6  BZF d   1       1.961   1.228  -2.141  0.00  0.00     0.022 A 
ATOM      8  C7  BZF d   1       1.318   0.043  -2.002  0.00  0.00     0.029 A 
ATOM      9  C7A BZF d   1       0.444  -0.074  -0.949  0.00  0.00     0.058 A 
ENDROOT
TORSDOF 0
ENDMDL
