MODEL 1
REMARK minimizedAffinity -5.04386759
REMARK minimizedRMSD -1
REMARK  0 active torsions:
REMARK  status: ('A' for Active; 'I' for Inactive)
ROOT
ATOM      1  O1  BZF d   1      -0.393  -1.054  -0.480  0.00  0.00    -0.204 OA
ATOM      2  C2  BZF d   1      -0.960  -0.807   0.756  0.00  0.00     0.174 A 
ATOM      3  C3  BZF d   1      -0.541   0.377   1.246  0.00  0.00    -0.012 A 
ATOM      4  C3A BZF d   1       0.271   0.946   0.215  0.00  0.00    -0.107 A 
ATOM      5  C4  BZF d   1       0.958   2.121   0.101  0.00  0.00     0.055 A 
ATOM      6  C5  BZF d   1       1.713   2.340  -1.008  0.00  0.00    -0.016 A 
ATOM      7  C6  BZF d   1       1.807   1.406  -2.018  0.00  0.00     0.022 A 
ATOM      8  C7  BZF d   1       1.140   0.228  -1.952  0.00  0.00     0.029 A 
ATOM      9  C7A BZF d   1       0.351   0.017  -0.848  0.00  0.00     0.058 A 
ENDROOT
TORSDOF 0
ENDMDL
