MODEL 1
REMARK minimizedAffinity -3.46705484
REMARK minimizedRMSD -1
REMARK  0 active torsions:
REMARK  status: ('A' for Active; 'I' for Inactive)
ROOT
ATOM      1  O1  BZF d   1       0.191  -1.871  -1.364  0.00  0.00    -0.204 OA
ATOM      2  C2  BZF d   1       0.981  -1.430  -2.408  0.00  0.00     0.174 A 
ATOM      3  C3  BZF d   1       1.354  -0.148  -2.218  0.00  0.00    -0.012 A 
ATOM      4  C3A BZF d   1       0.835   0.208  -0.932  0.00  0.00    -0.107 A 
ATOM      5  C4  BZF d   1       0.890   1.347  -0.181  0.00  0.00     0.055 A 
ATOM      6  C5  BZF d   1       0.217   1.392   0.999  0.00  0.00    -0.016 A 
ATOM      7  C6  BZF d   1      -0.523   0.321   1.455  0.00  0.00     0.022 A 
ATOM      8  C7  BZF d   1      -0.602  -0.832   0.747  0.00  0.00     0.029 A 
ATOM      9  C7A BZF d   1       0.103  -0.893  -0.430  0.00  0.00     0.058 A 
ENDROOT
TORSDOF 0
ENDMDL
