MODEL 1
REMARK minimizedAffinity -4.48759365
REMARK minimizedRMSD -1
REMARK  0 active torsions:
REMARK  status: ('A' for Active; 'I' for Inactive)
ROOT
ATOM      1  O1  BZF d   1       0.928  -2.386  -0.717  0.00  0.00    -0.204 OA
ATOM      2  C2  BZF d   1       1.818  -2.808  -1.686  0.00  0.00     0.174 A 
ATOM      3  C3  BZF d   1       2.415  -1.753  -2.278  0.00  0.00    -0.012 A 
ATOM      4  C3A BZF d   1       1.931  -0.604  -1.576  0.00  0.00    -0.107 A 
ATOM      5  C4  BZF d   1       2.171   0.736  -1.691  0.00  0.00     0.055 A 
ATOM      6  C5  BZF d   1       1.482   1.600  -0.900  0.00  0.00    -0.016 A 
ATOM      7  C6  BZF d   1       0.544   1.160   0.011  0.00  0.00     0.022 A 
ATOM      8  C7  BZF d   1       0.275  -0.160   0.164  0.00  0.00     0.029 A 
ATOM      9  C7A BZF d   1       0.994  -1.038  -0.611  0.00  0.00     0.058 A 
ENDROOT
TORSDOF 0
ENDMDL
