MODEL 1
REMARK minimizedAffinity -3.61528563
REMARK minimizedRMSD -1
REMARK  1 active torsions:
REMARK  status: ('A' for Active; 'I' for Inactive)
REMARK    1  A    between atoms: C1_2  and  C2_3 
ROOT
ATOM      1  C2  UNL d   1      -0.109   0.287   0.792  0.00  0.00    -0.073 A 
ATOM      2  C3  UNL d   1       1.027  -0.111   1.505  0.00  0.00    -0.002 A 
ATOM      3  C4  UNL d   1       2.074  -0.767   0.855  0.00  0.00     0.004 A 
ATOM      4  C5  UNL d   1       1.998  -1.025  -0.514  0.00  0.00    -0.004 A 
ATOM      5  C6  UNL d   1       0.876  -0.624  -1.246  0.00  0.00    -0.075 A 
ATOM      6  C7  UNL d   1       0.778  -0.896  -2.719  0.00  0.00     0.076 C 
ATOM      7  C8  UNL d   1      -0.172   0.031  -0.586  0.00  0.00     0.001 A 
ENDROOT
BRANCH   1   8
ATOM      8  C1  UNL d   1      -1.239   1.000   1.488  0.00  0.00     0.053 C 
ATOM      9  C   UNL d   1      -1.161   0.852   2.999  0.00  0.00     0.018 C 
ENDBRANCH   1   8
TORSDOF 1
ENDMDL
