MODEL 1
REMARK minimizedAffinity -0.190777734
REMARK minimizedRMSD -1
REMARK  1 active torsions:
REMARK  status: ('A' for Active; 'I' for Inactive)
REMARK    1  A    between atoms: C1_2  and  C2_3 
ROOT
ATOM      1  C2  UNL d   1       0.128  -0.456  -1.873  0.00  0.00    -0.073 A 
ATOM      2  C3  UNL d   1      -1.189  -0.185  -1.483  0.00  0.00    -0.002 A 
ATOM      3  C4  UNL d   1      -1.487   0.078  -0.145  0.00  0.00     0.004 A 
ATOM      4  C5  UNL d   1      -0.474   0.081   0.813  0.00  0.00    -0.004 A 
ATOM      5  C6  UNL d   1       0.850  -0.176   0.441  0.00  0.00    -0.075 A 
ATOM      6  C7  UNL d   1       1.951  -0.180   1.460  0.00  0.00     0.076 C 
ATOM      7  C8  UNL d   1       1.141  -0.442  -0.904  0.00  0.00     0.001 A 
ENDROOT
BRANCH   1   8
ATOM      8  C1  UNL d   1       0.456  -0.735  -3.317  0.00  0.00     0.053 C 
ATOM      9  C   UNL d   1       1.326   0.355  -3.924  0.00  0.00     0.018 C 
ENDBRANCH   1   8
TORSDOF 1
ENDMDL
