MODEL 1
REMARK minimizedAffinity -1.77757704
REMARK minimizedRMSD -1
REMARK  1 active torsions:
REMARK  status: ('A' for Active; 'I' for Inactive)
REMARK    1  A    between atoms: C1_2  and  C2_3 
ROOT
ATOM      1  C2  UNL d   1      -1.177   0.098   0.190  0.00  0.00    -0.073 A 
ATOM      2  C3  UNL d   1      -0.539   1.234   0.700  0.00  0.00    -0.002 A 
ATOM      3  C4  UNL d   1      -0.758   1.634   2.019  0.00  0.00     0.004 A 
ATOM      4  C5  UNL d   1      -1.611   0.899   2.842  0.00  0.00    -0.004 A 
ATOM      5  C6  UNL d   1      -2.249  -0.246   2.355  0.00  0.00    -0.075 A 
ATOM      6  C7  UNL d   1      -3.171  -1.046   3.228  0.00  0.00     0.076 C 
ATOM      7  C8  UNL d   1      -2.025  -0.640   1.029  0.00  0.00     0.001 A 
ENDROOT
BRANCH   1   8
ATOM      8  C1  UNL d   1      -0.939  -0.342  -1.231  0.00  0.00     0.053 C 
ATOM      9  C   UNL d   1       0.512  -0.726  -1.473  0.00  0.00     0.018 C 
ENDBRANCH   1   8
TORSDOF 1
ENDMDL
