MODEL 1
REMARK minimizedAffinity -3.06663179
REMARK minimizedRMSD -1
REMARK  1 active torsions:
REMARK  status: ('A' for Active; 'I' for Inactive)
REMARK    1  A    between atoms: C1_2  and  C2_3 
ROOT
ATOM      1  C2  UNL d   1      -0.005   0.051  -0.453  0.00  0.00    -0.073 A 
ATOM      2  C3  UNL d   1      -1.207  -0.643  -0.631  0.00  0.00    -0.002 A 
ATOM      3  C4  UNL d   1      -2.215  -0.565   0.330  0.00  0.00     0.004 A 
ATOM      4  C5  UNL d   1      -2.035   0.211   1.475  0.00  0.00    -0.004 A 
ATOM      5  C6  UNL d   1      -0.846   0.922   1.666  0.00  0.00    -0.075 A 
ATOM      6  C7  UNL d   1      -0.636   1.760   2.893  0.00  0.00     0.076 C 
ATOM      7  C8  UNL d   1       0.163   0.837   0.697  0.00  0.00     0.001 A 
ENDROOT
BRANCH   1   8
ATOM      8  C1  UNL d   1       1.085  -0.024  -1.491  0.00  0.00     0.053 C 
ATOM      9  C   UNL d   1       0.540  -0.393  -2.862  0.00  0.00     0.018 C 
ENDBRANCH   1   8
TORSDOF 1
ENDMDL
