MODEL 1
REMARK minimizedAffinity -3.7143178
REMARK minimizedRMSD -1
REMARK  1 active torsions:
REMARK  status: ('A' for Active; 'I' for Inactive)
REMARK    1  A    between atoms: C1_2  and  C2_3 
ROOT
ATOM      1  C2  UNL d   1       0.108   0.066  -0.492  0.00  0.00    -0.073 A 
ATOM      2  C3  UNL d   1      -1.115  -0.606  -0.587  0.00  0.00    -0.002 A 
ATOM      3  C4  UNL d   1      -2.022  -0.572   0.473  0.00  0.00     0.004 A 
ATOM      4  C5  UNL d   1      -1.719   0.140   1.634  0.00  0.00    -0.004 A 
ATOM      5  C6  UNL d   1      -0.506   0.828   1.743  0.00  0.00    -0.075 A 
ATOM      6  C7  UNL d   1      -0.164   1.597   2.985  0.00  0.00     0.076 C 
ATOM      7  C8  UNL d   1       0.400   0.786   0.675  0.00  0.00     0.001 A 
ENDROOT
BRANCH   1   8
ATOM      8  C1  UNL d   1       1.088   0.037  -1.636  0.00  0.00     0.053 C 
ATOM      9  C   UNL d   1       0.389   0.049  -2.986  0.00  0.00     0.018 C 
ENDBRANCH   1   8
TORSDOF 1
ENDMDL
