MODEL 1
REMARK minimizedAffinity -3.93582726
REMARK minimizedRMSD -1
REMARK  1 active torsions:
REMARK  status: ('A' for Active; 'I' for Inactive)
REMARK    1  A    between atoms: C1_2  and  C2_3 
ROOT
ATOM      1  C2  UNL d   1       0.232  -0.030  -0.460  0.00  0.00    -0.073 A 
ATOM      2  C3  UNL d   1       1.384   0.399   0.210  0.00  0.00    -0.002 A 
ATOM      3  C4  UNL d   1       1.298   0.906   1.507  0.00  0.00     0.004 A 
ATOM      4  C5  UNL d   1       0.062   0.984   2.149  0.00  0.00    -0.004 A 
ATOM      5  C6  UNL d   1      -1.098   0.550   1.501  0.00  0.00    -0.075 A 
ATOM      6  C7  UNL d   1      -2.435   0.629   2.178  0.00  0.00     0.076 C 
ATOM      7  C8  UNL d   1      -1.004   0.044   0.198  0.00  0.00     0.001 A 
ENDROOT
BRANCH   1   8
ATOM      8  C1  UNL d   1       0.321  -0.584  -1.858  0.00  0.00     0.053 C 
ATOM      9  C   UNL d   1       1.037   0.367  -2.804  0.00  0.00     0.018 C 
ENDBRANCH   1   8
TORSDOF 1
ENDMDL
