MODEL 1
REMARK minimizedAffinity 1.6347158
REMARK minimizedRMSD -1
REMARK  0 active torsions:
REMARK  status: ('A' for Active; 'I' for Inactive)
ROOT
ATOM      1  C   UNL d   1       2.611  -3.668   0.662  0.00  0.00     0.077 C 
ATOM      2  C1  UNL d   1       1.607  -2.557   0.738  0.00  0.00    -0.074 A 
ATOM      3  C2  UNL d   1       1.463  -1.646  -0.314  0.00  0.00    -0.005 A 
ATOM      4  C3  UNL d   1       0.518  -0.623  -0.233  0.00  0.00     0.006 A 
ATOM      5  C4  UNL d   1      -0.290  -0.500   0.898  0.00  0.00    -0.005 A 
ATOM      6  C5  UNL d   1      -0.160  -1.402   1.959  0.00  0.00    -0.074 A 
ATOM      7  C6  UNL d   1      -1.028  -1.291   3.177  0.00  0.00     0.077 C 
ATOM      8  C7  UNL d   1       0.786  -2.432   1.867  0.00  0.00    -0.001 A 
ENDROOT
TORSDOF 0
ENDMDL
