MODEL 1
REMARK minimizedAffinity -3.66064119
REMARK minimizedRMSD -1
REMARK  0 active torsions:
REMARK  status: ('A' for Active; 'I' for Inactive)
ROOT
ATOM      1  C   UNL d   1       0.126  -1.398   2.803  0.00  0.00     0.077 C 
ATOM      2  C1  UNL d   1       1.375  -2.142   2.435  0.00  0.00    -0.074 A 
ATOM      3  C2  UNL d   1       1.913  -2.051   1.147  0.00  0.00    -0.005 A 
ATOM      4  C3  UNL d   1       3.081  -2.741   0.822  0.00  0.00     0.006 A 
ATOM      5  C4  UNL d   1       3.722  -3.527   1.780  0.00  0.00    -0.005 A 
ATOM      6  C5  UNL d   1       3.200  -3.629   3.073  0.00  0.00    -0.074 A 
ATOM      7  C6  UNL d   1       3.882  -4.462   4.117  0.00  0.00     0.077 C 
ATOM      8  C7  UNL d   1       2.030  -2.927   3.394  0.00  0.00    -0.001 A 
ENDROOT
TORSDOF 0
ENDMDL
