MODEL 1
REMARK minimizedAffinity 2.97687173
REMARK minimizedRMSD -1
REMARK  0 active torsions:
REMARK  status: ('A' for Active; 'I' for Inactive)
ROOT
ATOM      1  C   UNL d   1       0.676   0.346  -0.854  0.00  0.00     0.077 C 
ATOM      2  C1  UNL d   1       2.016   0.969  -0.599  0.00  0.00    -0.074 A 
ATOM      3  C2  UNL d   1       2.208   2.346  -0.750  0.00  0.00    -0.005 A 
ATOM      4  C3  UNL d   1       3.458   2.913  -0.500  0.00  0.00     0.006 A 
ATOM      5  C4  UNL d   1       4.526   2.111  -0.096  0.00  0.00    -0.005 A 
ATOM      6  C5  UNL d   1       4.352   0.732   0.061  0.00  0.00    -0.074 A 
ATOM      7  C6  UNL d   1       5.486  -0.143   0.504  0.00  0.00     0.077 C 
ATOM      8  C7  UNL d   1       3.092   0.171  -0.185  0.00  0.00    -0.001 A 
ENDROOT
TORSDOF 0
ENDMDL
