MODEL 1
REMARK minimizedAffinity 1.43850553
REMARK minimizedRMSD -1
REMARK  0 active torsions:
REMARK  status: ('A' for Active; 'I' for Inactive)
ROOT
ATOM      1  C   UNL d   1       3.286   5.838   2.242  0.00  0.00     0.077 C 
ATOM      2  C1  UNL d   1       2.550   5.880   3.548  0.00  0.00    -0.074 A 
ATOM      3  C2  UNL d   1       3.243   5.919   4.762  0.00  0.00    -0.005 A 
ATOM      4  C3  UNL d   1       2.544   5.967   5.969  0.00  0.00     0.006 A 
ATOM      5  C4  UNL d   1       1.149   5.977   5.973  0.00  0.00    -0.005 A 
ATOM      6  C5  UNL d   1       0.440   5.939   4.769  0.00  0.00    -0.074 A 
ATOM      7  C6  UNL d   1      -1.060   5.959   4.755  0.00  0.00     0.077 C 
ATOM      8  C7  UNL d   1       1.148   5.898   3.560  0.00  0.00    -0.001 A 
ENDROOT
TORSDOF 0
ENDMDL
