MODEL 1
REMARK minimizedAffinity 2.10754943
REMARK minimizedRMSD -1
REMARK  0 active torsions:
REMARK  status: ('A' for Active; 'I' for Inactive)
ROOT
ATOM      1  C   UNL d   1      -0.704  -0.170   1.473  0.00  0.00     0.077 C 
ATOM      2  C1  UNL d   1      -0.113  -1.511   1.793  0.00  0.00    -0.074 A 
ATOM      3  C2  UNL d   1      -0.681  -2.331   2.773  0.00  0.00    -0.005 A 
ATOM      4  C3  UNL d   1      -0.126  -3.580   3.053  0.00  0.00     0.006 A 
ATOM      5  C4  UNL d   1       1.001  -4.020   2.358  0.00  0.00    -0.005 A 
ATOM      6  C5  UNL d   1       1.582  -3.213   1.374  0.00  0.00    -0.074 A 
ATOM      7  C6  UNL d   1       2.788  -3.675   0.610  0.00  0.00     0.077 C 
ATOM      8  C7  UNL d   1       1.014  -1.963   1.093  0.00  0.00    -0.001 A 
ENDROOT
TORSDOF 0
ENDMDL
