MODEL 1
REMARK minimizedAffinity 14.0928087
REMARK minimizedRMSD -1
REMARK  0 active torsions:
REMARK  status: ('A' for Active; 'I' for Inactive)
ROOT
ATOM      1  C   UNL d   1       5.279  -3.965   1.150  0.00  0.00     0.077 C 
ATOM      2  C1  UNL d   1       4.948  -4.328   2.567  0.00  0.00    -0.074 A 
ATOM      3  C2  UNL d   1       4.478  -5.604   2.892  0.00  0.00    -0.005 A 
ATOM      4  C3  UNL d   1       4.184  -5.929   4.216  0.00  0.00     0.006 A 
ATOM      5  C4  UNL d   1       4.357  -4.984   5.227  0.00  0.00    -0.005 A 
ATOM      6  C5  UNL d   1       4.828  -3.702   4.921  0.00  0.00    -0.074 A 
ATOM      7  C6  UNL d   1       5.029  -2.677   5.997  0.00  0.00     0.077 C 
ATOM      8  C7  UNL d   1       5.127  -3.385   3.590  0.00  0.00    -0.001 A 
ENDROOT
TORSDOF 0
ENDMDL
