MODEL 1
REMARK minimizedAffinity -1.34913313
REMARK minimizedRMSD -1
REMARK  0 active torsions:
REMARK  status: ('A' for Active; 'I' for Inactive)
ROOT
ATOM      1  C   UNL d   1       1.776  -1.023  -0.180  0.00  0.00     0.077 C 
ATOM      2  C1  UNL d   1       0.331  -0.623  -0.208  0.00  0.00    -0.074 A 
ATOM      3  C2  UNL d   1      -0.458  -0.699   0.944  0.00  0.00    -0.005 A 
ATOM      4  C3  UNL d   1      -1.799  -0.315   0.904  0.00  0.00     0.006 A 
ATOM      5  C4  UNL d   1      -2.362   0.148  -0.285  0.00  0.00    -0.005 A 
ATOM      6  C5  UNL d   1      -1.588   0.231  -1.447  0.00  0.00    -0.074 A 
ATOM      7  C6  UNL d   1      -2.176   0.736  -2.732  0.00  0.00     0.077 C 
ATOM      8  C7  UNL d   1      -0.240  -0.150  -1.398  0.00  0.00    -0.001 A 
ENDROOT
TORSDOF 0
ENDMDL
