MODEL 1
REMARK minimizedAffinity -0.00297329598
REMARK minimizedRMSD -1
REMARK  0 active torsions:
REMARK  status: ('A' for Active; 'I' for Inactive)
ROOT
ATOM      1  C   UNL d   1       0.105  -0.283  -0.544  0.00  0.00     0.077 C 
ATOM      2  C1  UNL d   1       0.177  -1.094   0.715  0.00  0.00    -0.074 A 
ATOM      3  C2  UNL d   1      -0.630  -0.786   1.815  0.00  0.00    -0.005 A 
ATOM      4  C3  UNL d   1      -0.560  -1.556   2.977  0.00  0.00     0.006 A 
ATOM      5  C4  UNL d   1       0.317  -2.640   3.049  0.00  0.00    -0.005 A 
ATOM      6  C5  UNL d   1       1.130  -2.963   1.959  0.00  0.00    -0.074 A 
ATOM      7  C6  UNL d   1       2.070  -4.131   2.017  0.00  0.00     0.077 C 
ATOM      8  C7  UNL d   1       1.048  -2.189   0.793  0.00  0.00    -0.001 A 
ENDROOT
TORSDOF 0
ENDMDL
