MODEL 1
REMARK minimizedAffinity -2.03547859
REMARK minimizedRMSD -1
REMARK  0 active torsions:
REMARK  status: ('A' for Active; 'I' for Inactive)
ROOT
ATOM      1  C   UNL d   1       3.170   0.492  -3.782  0.00  0.00     0.020 A 
ATOM      2  C1  UNL d   1       3.164  -0.837  -4.202  0.00  0.00     0.020 A 
ATOM      3  C2  UNL d   1       2.108  -1.678  -3.843  0.00  0.00     0.034 A 
ATOM      4  C3  UNL d   1       1.054  -1.191  -3.062  0.00  0.00     0.017 A 
ATOM      5  C4  UNL d   1       1.061   0.144  -2.640  0.00  0.00     0.017 A 
ATOM      6  C5  UNL d   1       2.120   0.982  -3.002  0.00  0.00     0.034 A 
ATOM      7 Cl   UNL d   1      -0.204   0.817  -1.674  0.00  0.00    -0.070 Cl
ATOM      8 Cl1  UNL d   1      -0.218  -2.287  -2.656  0.00  0.00    -0.070 Cl
ENDROOT
TORSDOF 0
ENDMDL
