MODEL 1
REMARK minimizedAffinity -4.19181585
REMARK minimizedRMSD -1
REMARK  0 active torsions:
REMARK  status: ('A' for Active; 'I' for Inactive)
ROOT
ATOM      1  C   UNL d   1      -2.499  -0.545   2.129  0.00  0.00     0.020 A 
ATOM      2  C1  UNL d   1      -1.428  -0.341   2.999  0.00  0.00     0.020 A 
ATOM      3  C2  UNL d   1      -0.174   0.009   2.493  0.00  0.00     0.034 A 
ATOM      4  C3  UNL d   1       0.012   0.155   1.113  0.00  0.00     0.017 A 
ATOM      5  C4  UNL d   1      -1.063  -0.051   0.241  0.00  0.00     0.017 A 
ATOM      6  C5  UNL d   1      -2.316  -0.401   0.753  0.00  0.00     0.034 A 
ATOM      7 Cl   UNL d   1      -0.910   0.111  -1.473  0.00  0.00    -0.070 Cl
ATOM      8 Cl1  UNL d   1       1.589   0.589   0.557  0.00  0.00    -0.070 Cl
ENDROOT
TORSDOF 0
ENDMDL
