MODEL 1
REMARK minimizedAffinity -2.80614281
REMARK minimizedRMSD -1
REMARK  0 active torsions:
REMARK  status: ('A' for Active; 'I' for Inactive)
ROOT
ATOM      1  C   UNL d   1       5.528   4.059  -5.873  0.00  0.00     0.020 A 
ATOM      2  C1  UNL d   1       6.000   2.997  -5.102  0.00  0.00     0.020 A 
ATOM      3  C2  UNL d   1       5.098   2.148  -4.458  0.00  0.00     0.034 A 
ATOM      4  C3  UNL d   1       3.720   2.358  -4.583  0.00  0.00     0.017 A 
ATOM      5  C4  UNL d   1       3.248   3.424  -5.356  0.00  0.00     0.017 A 
ATOM      6  C5  UNL d   1       4.155   4.272  -5.999  0.00  0.00     0.034 A 
ATOM      7 Cl   UNL d   1       1.562   3.748  -5.558  0.00  0.00    -0.070 Cl
ATOM      8 Cl1  UNL d   1       2.663   1.268  -3.758  0.00  0.00    -0.070 Cl
ENDROOT
TORSDOF 0
ENDMDL
