MODEL 1
REMARK minimizedAffinity -1.99479222
REMARK minimizedRMSD -1
REMARK  0 active torsions:
REMARK  status: ('A' for Active; 'I' for Inactive)
ROOT
ATOM      1  C   UNL d   1       1.059   0.605  -0.443  0.00  0.00     0.020 A 
ATOM      2  C1  UNL d   1       0.014   0.781  -1.350  0.00  0.00     0.020 A 
ATOM      3  C2  UNL d   1      -1.292   0.453  -0.982  0.00  0.00     0.034 A 
ATOM      4  C3  UNL d   1      -1.557  -0.054   0.295  0.00  0.00     0.017 A 
ATOM      5  C4  UNL d   1      -0.508  -0.231   1.205  0.00  0.00     0.017 A 
ATOM      6  C5  UNL d   1       0.798   0.100   0.831  0.00  0.00     0.034 A 
ATOM      7 Cl   UNL d   1      -0.757  -0.850   2.799  0.00  0.00    -0.070 Cl
ATOM      8 Cl1  UNL d   1      -3.197  -0.439   0.683  0.00  0.00    -0.070 Cl
ENDROOT
TORSDOF 0
ENDMDL
