MODEL 1
REMARK minimizedAffinity -2.32214546
REMARK minimizedRMSD -1
REMARK  0 active torsions:
REMARK  status: ('A' for Active; 'I' for Inactive)
ROOT
ATOM      1  C   UNL d   1       0.722   0.800  -0.870  0.00  0.00     0.020 A 
ATOM      2  C1  UNL d   1       1.525   0.664   0.262  0.00  0.00     0.020 A 
ATOM      3  C2  UNL d   1       0.978   0.177   1.451  0.00  0.00     0.034 A 
ATOM      4  C3  UNL d   1      -0.375  -0.175   1.512  0.00  0.00     0.017 A 
ATOM      5  C4  UNL d   1      -1.180  -0.038   0.375  0.00  0.00     0.017 A 
ATOM      6  C5  UNL d   1      -0.628   0.450  -0.813  0.00  0.00     0.034 A 
ATOM      7 Cl   UNL d   1      -2.858  -0.452   0.372  0.00  0.00    -0.070 Cl
ATOM      8 Cl1  UNL d   1      -0.984  -0.770   3.015  0.00  0.00    -0.070 Cl
ENDROOT
TORSDOF 0
ENDMDL
