MODEL 1
REMARK minimizedAffinity -0.814303041
REMARK minimizedRMSD -1
REMARK  0 active torsions:
REMARK  status: ('A' for Active; 'I' for Inactive)
ROOT
ATOM      1  C   UNL d   1       1.604   0.150   1.804  0.00  0.00     0.020 A 
ATOM      2  C1  UNL d   1       0.499  -0.087   2.620  0.00  0.00     0.020 A 
ATOM      3  C2  UNL d   1      -0.785  -0.093   2.071  0.00  0.00     0.034 A 
ATOM      4  C3  UNL d   1      -0.967   0.138   0.702  0.00  0.00     0.017 A 
ATOM      5  C4  UNL d   1       0.143   0.376  -0.116  0.00  0.00     0.017 A 
ATOM      6  C5  UNL d   1       1.427   0.381   0.439  0.00  0.00     0.034 A 
ATOM      7 Cl   UNL d   1      -0.002   0.670  -1.813  0.00  0.00    -0.070 Cl
ATOM      8 Cl1  UNL d   1      -2.583   0.116   0.092  0.00  0.00    -0.070 Cl
ENDROOT
TORSDOF 0
ENDMDL
