MODEL 1
REMARK minimizedAffinity -3.95673275
REMARK minimizedRMSD -1
REMARK  0 active torsions:
REMARK  status: ('A' for Active; 'I' for Inactive)
ROOT
ATOM      1  C   UNL d   1      -1.481   0.384   2.174  0.00  0.00     0.020 A 
ATOM      2  C1  UNL d   1      -2.168   0.302   0.964  0.00  0.00     0.020 A 
ATOM      3  C2  UNL d   1      -1.470   0.393  -0.242  0.00  0.00     0.034 A 
ATOM      4  C3  UNL d   1      -0.082   0.568  -0.241  0.00  0.00     0.017 A 
ATOM      5  C4  UNL d   1       0.607   0.651   0.975  0.00  0.00     0.017 A 
ATOM      6  C5  UNL d   1      -0.097   0.559   2.180  0.00  0.00     0.034 A 
ATOM      7 Cl   UNL d   1       2.320   0.866   1.057  0.00  0.00    -0.070 Cl
ATOM      8 Cl1  UNL d   1       0.717   0.673  -1.769  0.00  0.00    -0.070 Cl
ENDROOT
TORSDOF 0
ENDMDL
