MODEL 1
REMARK minimizedAffinity -4.38469458
REMARK minimizedRMSD -1
REMARK  0 active torsions:
REMARK  status: ('A' for Active; 'I' for Inactive)
ROOT
ATOM      1  C   UNL d   1       1.358  -0.782   2.319  0.00  0.00     0.020 A 
ATOM      2  C1  UNL d   1       0.372  -0.887   3.299  0.00  0.00     0.020 A 
ATOM      3  C2  UNL d   1      -0.919  -0.419   3.043  0.00  0.00     0.034 A 
ATOM      4  C3  UNL d   1      -1.227   0.156   1.805  0.00  0.00     0.017 A 
ATOM      5  C4  UNL d   1      -0.236   0.261   0.822  0.00  0.00     0.017 A 
ATOM      6  C5  UNL d   1       1.055  -0.209   1.083  0.00  0.00     0.034 A 
ATOM      7 Cl   UNL d   1      -0.540   0.958  -0.730  0.00  0.00    -0.070 Cl
ATOM      8 Cl1  UNL d   1      -2.844   0.713   1.557  0.00  0.00    -0.070 Cl
ENDROOT
TORSDOF 0
ENDMDL
