MODEL 1
REMARK minimizedAffinity -3.86939502
REMARK minimizedRMSD -1
REMARK  0 active torsions:
REMARK  status: ('A' for Active; 'I' for Inactive)
ROOT
ATOM      1  C   UNL d   1      -0.039  -0.930   2.982  0.00  0.00     0.020 A 
ATOM      2  C1  UNL d   1      -1.211  -1.217   2.285  0.00  0.00     0.020 A 
ATOM      3  C2  UNL d   1      -1.418  -0.678   1.013  0.00  0.00     0.034 A 
ATOM      4  C3  UNL d   1      -0.450   0.152   0.435  0.00  0.00     0.017 A 
ATOM      5  C4  UNL d   1       0.727   0.439   1.136  0.00  0.00     0.017 A 
ATOM      6  C5  UNL d   1       0.928  -0.103   2.409  0.00  0.00     0.034 A 
ATOM      7 Cl   UNL d   1       1.967   1.454   0.488  0.00  0.00    -0.070 Cl
ATOM      8 Cl1  UNL d   1      -0.771   0.784  -1.140  0.00  0.00    -0.070 Cl
ENDROOT
TORSDOF 0
ENDMDL
