MODEL 1
REMARK minimizedAffinity -5.0710187
REMARK minimizedRMSD -1
REMARK  0 active torsions:
REMARK  status: ('A' for Active; 'I' for Inactive)
ROOT
ATOM      1  C   UNL d   1       0.775  -0.143   2.646  0.00  0.00     0.020 A 
ATOM      2  C1  UNL d   1      -0.448  -0.316   3.294  0.00  0.00     0.020 A 
ATOM      3  C2  UNL d   1      -1.635  -0.303   2.559  0.00  0.00     0.034 A 
ATOM      4  C3  UNL d   1      -1.603  -0.118   1.172  0.00  0.00     0.017 A 
ATOM      5  C4  UNL d   1      -0.375   0.055   0.523  0.00  0.00     0.017 A 
ATOM      6  C5  UNL d   1       0.811   0.042   1.264  0.00  0.00     0.034 A 
ATOM      7 Cl   UNL d   1      -0.255   0.290  -1.185  0.00  0.00    -0.070 Cl
ATOM      8 Cl1  UNL d   1      -3.109  -0.114   0.326  0.00  0.00    -0.070 Cl
ENDROOT
TORSDOF 0
ENDMDL
