MODEL 1
REMARK minimizedAffinity -3.17885852
REMARK minimizedRMSD -1
REMARK  0 active torsions:
REMARK  status: ('A' for Active; 'I' for Inactive)
ROOT
ATOM      1  C   UNL d   1       1.345   0.383  -0.156  0.00  0.00     0.020 A 
ATOM      2  C1  UNL d   1       0.345   0.542  -1.115  0.00  0.00     0.020 A 
ATOM      3  C2  UNL d   1      -0.993   0.346  -0.766  0.00  0.00     0.034 A 
ATOM      4  C3  UNL d   1      -1.335  -0.008   0.544  0.00  0.00     0.017 A 
ATOM      5  C4  UNL d   1      -0.330  -0.167   1.505  0.00  0.00     0.017 A 
ATOM      6  C5  UNL d   1       1.008   0.030   1.151  0.00  0.00     0.034 A 
ATOM      7 Cl   UNL d   1      -0.674  -0.603   3.142  0.00  0.00    -0.070 Cl
ATOM      8 Cl1  UNL d   1      -3.010  -0.233   0.904  0.00  0.00    -0.070 Cl
ENDROOT
TORSDOF 0
ENDMDL
