MODEL 1
REMARK minimizedAffinity -4.94898748
REMARK minimizedRMSD -1
REMARK  0 active torsions:
REMARK  status: ('A' for Active; 'I' for Inactive)
ROOT
ATOM      1  C   UNL d   1       0.477   0.405  -0.449  0.00  0.00     0.020 A 
ATOM      2  C1  UNL d   1      -0.629   0.775  -1.214  0.00  0.00     0.020 A 
ATOM      3  C2  UNL d   1      -1.918   0.593  -0.711  0.00  0.00     0.034 A 
ATOM      4  C3  UNL d   1      -2.106   0.039   0.561  0.00  0.00     0.017 A 
ATOM      5  C4  UNL d   1      -0.996  -0.332   1.328  0.00  0.00     0.017 A 
ATOM      6  C5  UNL d   1       0.293  -0.147   0.819  0.00  0.00     0.034 A 
ATOM      7 Cl   UNL d   1      -1.148  -1.021   2.906  0.00  0.00    -0.070 Cl
ATOM      8 Cl1  UNL d   1      -3.729  -0.156   1.120  0.00  0.00    -0.070 Cl
ENDROOT
TORSDOF 0
ENDMDL
