MODEL 1
REMARK minimizedAffinity -4.89894295
REMARK minimizedRMSD -1
REMARK  0 active torsions:
REMARK  status: ('A' for Active; 'I' for Inactive)
ROOT
ATOM      1  C   UNL d   1      -2.677  -0.050   2.374  0.00  0.00     0.020 A 
ATOM      2  C1  UNL d   1      -1.567  -0.260   3.191  0.00  0.00     0.020 A 
ATOM      3  C2  UNL d   1      -0.284  -0.256   2.640  0.00  0.00     0.034 A 
ATOM      4  C3  UNL d   1      -0.107  -0.042   1.268  0.00  0.00     0.017 A 
ATOM      5  C4  UNL d   1      -1.222   0.169   0.449  0.00  0.00     0.017 A 
ATOM      6  C5  UNL d   1      -2.505   0.164   1.006  0.00  0.00     0.034 A 
ATOM      7 Cl   UNL d   1      -1.084   0.441  -1.252  0.00  0.00    -0.070 Cl
ATOM      8 Cl1  UNL d   1       1.508  -0.050   0.655  0.00  0.00    -0.070 Cl
ENDROOT
TORSDOF 0
ENDMDL
