MODEL 1
REMARK minimizedAffinity -2.4528439
REMARK minimizedRMSD -1
REMARK  0 active torsions:
REMARK  status: ('A' for Active; 'I' for Inactive)
ROOT
ATOM      1  C   UNL d   1      -1.084   0.219   3.112  0.00  0.00     0.020 A 
ATOM      2  C1  UNL d   1      -2.003  -0.341   2.226  0.00  0.00     0.020 A 
ATOM      3  C2  UNL d   1      -1.654  -0.535   0.888  0.00  0.00     0.034 A 
ATOM      4  C3  UNL d   1      -0.383  -0.168   0.432  0.00  0.00     0.017 A 
ATOM      5  C4  UNL d   1       0.539   0.395   1.322  0.00  0.00     0.017 A 
ATOM      6  C5  UNL d   1       0.184   0.587   2.661  0.00  0.00     0.034 A 
ATOM      7 Cl   UNL d   1       2.126   0.873   0.833  0.00  0.00    -0.070 Cl
ATOM      8 Cl1  UNL d   1      -0.018  -0.437  -1.236  0.00  0.00    -0.070 Cl
ENDROOT
TORSDOF 0
ENDMDL
