MODEL 1
REMARK minimizedAffinity -3.58778286
REMARK minimizedRMSD -1
REMARK  0 active torsions:
REMARK  status: ('A' for Active; 'I' for Inactive)
ROOT
ATOM      1  C   UNL d   1      -2.426  -0.438   2.342  0.00  0.00     0.020 A 
ATOM      2  C1  UNL d   1      -1.438  -0.340   3.320  0.00  0.00     0.020 A 
ATOM      3  C2  UNL d   1      -0.104  -0.156   2.949  0.00  0.00     0.034 A 
ATOM      4  C3  UNL d   1       0.244  -0.070   1.596  0.00  0.00     0.017 A 
ATOM      5  C4  UNL d   1      -0.749  -0.168   0.615  0.00  0.00     0.017 A 
ATOM      6  C5  UNL d   1      -2.083  -0.353   0.992  0.00  0.00     0.034 A 
ATOM      7 Cl   UNL d   1      -0.396  -0.071  -1.074  0.00  0.00    -0.070 Cl
ATOM      8 Cl1  UNL d   1       1.913   0.159   1.209  0.00  0.00    -0.070 Cl
ENDROOT
TORSDOF 0
ENDMDL
