MODEL 1
REMARK minimizedAffinity -4.15699959
REMARK minimizedRMSD -1
REMARK  0 active torsions:
REMARK  status: ('A' for Active; 'I' for Inactive)
ROOT
ATOM      1  C   UNL d   1       0.881  -0.062   0.029  0.00  0.00     0.020 A 
ATOM      2  C1  UNL d   1      -0.130   0.300  -0.859  0.00  0.00     0.020 A 
ATOM      3  C2  UNL d   1      -1.446   0.423  -0.408  0.00  0.00     0.034 A 
ATOM      4  C3  UNL d   1      -1.754   0.183   0.936  0.00  0.00     0.017 A 
ATOM      5  C4  UNL d   1      -0.738  -0.180   1.828  0.00  0.00     0.017 A 
ATOM      6  C5  UNL d   1       0.578  -0.302   1.370  0.00  0.00     0.034 A 
ATOM      7 Cl   UNL d   1      -1.041  -0.492   3.501  0.00  0.00    -0.070 Cl
ATOM      8 Cl1  UNL d   1      -3.402   0.354   1.426  0.00  0.00    -0.070 Cl
ENDROOT
TORSDOF 0
ENDMDL
