MODEL 1
REMARK minimizedAffinity 4.40734291
REMARK minimizedRMSD -1
REMARK  0 active torsions:
REMARK  status: ('A' for Active; 'I' for Inactive)
ROOT
ATOM      1  C2' OXE d   1       3.017   1.639  -1.436  0.00  0.00     0.078 C 
ATOM      2  C1' OXE d   1       3.347   1.361   1.338  0.00  0.00     0.078 C 
ATOM      3  C1  OXE d   1       1.959   1.187   0.773  0.00  0.00    -0.078 A 
ATOM      4  C2  OXE d   1       1.799   1.371  -0.579  0.00  0.00    -0.078 A 
ATOM      5  C3  OXE d   1       0.550   1.169  -1.159  0.00  0.00     0.003 A 
ATOM      6  C4  OXE d   1      -0.574   0.931  -0.359  0.00  0.00    -0.002 A 
ATOM      7  C5  OXE d   1      -0.440   0.780   1.026  0.00  0.00    -0.002 A 
ATOM      8  C6  OXE d   1       0.824   0.862   1.601  0.00  0.00     0.003 A 
ENDROOT
TORSDOF 0
ENDMDL
