MODEL 1
REMARK minimizedAffinity -4.88978529
REMARK minimizedRMSD -1
REMARK  0 active torsions:
REMARK  status: ('A' for Active; 'I' for Inactive)
ROOT
ATOM      1  C2' OXE d   1      -0.453   0.004   0.826  0.00  0.00     0.078 C 
ATOM      2  C1' OXE d   1       0.739   2.257  -0.349  0.00  0.00     0.078 C 
ATOM      3  C1  OXE d   1       1.014   0.911  -0.971  0.00  0.00    -0.078 A 
ATOM      4  C2  OXE d   1       0.464  -0.191  -0.362  0.00  0.00    -0.078 A 
ATOM      5  C3  OXE d   1       0.641  -1.451  -0.927  0.00  0.00     0.003 A 
ATOM      6  C4  OXE d   1       1.499  -1.624  -2.019  0.00  0.00    -0.002 A 
ATOM      7  C5  OXE d   1       2.101  -0.519  -2.631  0.00  0.00    -0.002 A 
ATOM      8  C6  OXE d   1       1.835   0.757  -2.146  0.00  0.00     0.003 A 
ENDROOT
TORSDOF 0
ENDMDL
