MODEL 1
REMARK minimizedAffinity -5.92036772
REMARK minimizedRMSD -1
REMARK  0 active torsions:
REMARK  status: ('A' for Active; 'I' for Inactive)
ROOT
ATOM      1  C2' OXE d   1      -0.414  -0.129   1.012  0.00  0.00     0.078 C 
ATOM      2  C1' OXE d   1       0.917   2.095  -0.068  0.00  0.00     0.078 C 
ATOM      3  C1  OXE d   1       1.082   0.769  -0.767  0.00  0.00    -0.078 A 
ATOM      4  C2  OXE d   1       0.465  -0.323  -0.205  0.00  0.00    -0.078 A 
ATOM      5  C3  OXE d   1       0.540  -1.559  -0.840  0.00  0.00     0.003 A 
ATOM      6  C4  OXE d   1       1.364  -1.733  -1.959  0.00  0.00    -0.002 A 
ATOM      7  C5  OXE d   1       2.032  -0.642  -2.524  0.00  0.00    -0.002 A 
ATOM      8  C6  OXE d   1       1.868   0.622  -1.966  0.00  0.00     0.003 A 
ENDROOT
TORSDOF 0
ENDMDL
