MODEL 1
REMARK minimizedAffinity -2.17348719
REMARK minimizedRMSD -1
REMARK  0 active torsions:
REMARK  status: ('A' for Active; 'I' for Inactive)
ROOT
ATOM      1  C2' OXE d   1       0.832  -2.475  -0.622  0.00  0.00     0.078 C 
ATOM      2  C1' OXE d   1       0.993   0.274  -1.166  0.00  0.00     0.078 C 
ATOM      3  C1  OXE d   1       0.096  -0.168  -0.037  0.00  0.00    -0.078 A 
ATOM      4  C2  OXE d   1      -0.013  -1.519   0.192  0.00  0.00    -0.078 A 
ATOM      5  C3  OXE d   1      -0.784  -1.978   1.256  0.00  0.00     0.003 A 
ATOM      6  C4  OXE d   1      -1.570  -1.087   1.997  0.00  0.00    -0.002 A 
ATOM      7  C5  OXE d   1      -1.505   0.289   1.755  0.00  0.00    -0.002 A 
ATOM      8  C6  OXE d   1      -0.646   0.767   0.771  0.00  0.00     0.003 A 
ENDROOT
TORSDOF 0
ENDMDL
