MODEL 1
REMARK minimizedAffinity -2.55326104
REMARK minimizedRMSD -1
REMARK  0 active torsions:
REMARK  status: ('A' for Active; 'I' for Inactive)
ROOT
ATOM      1  C2' OXE d   1      -3.391   0.011   0.896  0.00  0.00     0.078 C 
ATOM      2  C1' OXE d   1      -1.714   0.779   3.012  0.00  0.00     0.078 C 
ATOM      3  C1  OXE d   1      -1.121   0.732   1.625  0.00  0.00    -0.078 A 
ATOM      4  C2  OXE d   1      -1.937   0.310   0.603  0.00  0.00    -0.078 A 
ATOM      5  C3  OXE d   1      -1.456   0.301  -0.703  0.00  0.00     0.003 A 
ATOM      6  C4  OXE d   1      -0.107   0.570  -0.964  0.00  0.00    -0.002 A 
ATOM      7  C5  OXE d   1       0.751   0.963   0.068  0.00  0.00    -0.002 A 
ATOM      8  C6  OXE d   1       0.250   1.090   1.359  0.00  0.00     0.003 A 
ENDROOT
TORSDOF 0
ENDMDL
