MODEL 1
REMARK minimizedAffinity -5.70674801
REMARK minimizedRMSD -1
REMARK  0 active torsions:
REMARK  status: ('A' for Active; 'I' for Inactive)
ROOT
ATOM      1  C2' OXE d   1      -0.268  -0.416   0.428  0.00  0.00     0.078 C 
ATOM      2  C1' OXE d   1       0.593   2.022  -0.666  0.00  0.00     0.078 C 
ATOM      3  C1  OXE d   1       1.026   0.751  -1.353  0.00  0.00    -0.078 A 
ATOM      4  C2  OXE d   1       0.639  -0.439  -0.784  0.00  0.00    -0.078 A 
ATOM      5  C3  OXE d   1       0.965  -1.640  -1.407  0.00  0.00     0.003 A 
ATOM      6  C4  OXE d   1       1.812  -1.653  -2.522  0.00  0.00    -0.002 A 
ATOM      7  C5  OXE d   1       2.251  -0.454  -3.094  0.00  0.00    -0.002 A 
ATOM      8  C6  OXE d   1       1.833   0.755  -2.548  0.00  0.00     0.003 A 
ENDROOT
TORSDOF 0
ENDMDL
