MODEL 1
REMARK minimizedAffinity -1.0236907
REMARK minimizedRMSD -1
REMARK  0 active torsions:
REMARK  status: ('A' for Active; 'I' for Inactive)
ROOT
ATOM      1  C2' OXE d   1      -0.860  -0.101   1.110  0.00  0.00     0.078 C 
ATOM      2  C1' OXE d   1       0.340  -2.423   0.086  0.00  0.00     0.078 C 
ATOM      3  C1  OXE d   1       0.832  -1.092  -0.426  0.00  0.00    -0.078 A 
ATOM      4  C2  OXE d   1       0.207   0.037   0.045  0.00  0.00    -0.078 A 
ATOM      5  C3  OXE d   1       0.658   1.292  -0.353  0.00  0.00     0.003 A 
ATOM      6  C4  OXE d   1       1.639   1.410  -1.346  0.00  0.00    -0.002 A 
ATOM      7  C5  OXE d   1       2.261   0.272  -1.869  0.00  0.00    -0.002 A 
ATOM      8  C6  OXE d   1       1.899  -0.983  -1.390  0.00  0.00     0.003 A 
ENDROOT
TORSDOF 0
ENDMDL
