MODEL 1
REMARK minimizedAffinity -4.46829653
REMARK minimizedRMSD -1
REMARK  0 active torsions:
REMARK  status: ('A' for Active; 'I' for Inactive)
ROOT
ATOM      1  C2' OXE d   1       1.840  -0.773  -2.972  0.00  0.00     0.078 C 
ATOM      2  C1' OXE d   1       1.126  -3.140  -1.642  0.00  0.00     0.078 C 
ATOM      3  C1  OXE d   1       0.775  -1.829  -0.983  0.00  0.00    -0.078 A 
ATOM      4  C2  OXE d   1       1.169  -0.677  -1.618  0.00  0.00    -0.078 A 
ATOM      5  C3  OXE d   1       0.822   0.560  -1.081  0.00  0.00     0.003 A 
ATOM      6  C4  OXE d   1       0.211   0.640   0.176  0.00  0.00    -0.002 A 
ATOM      7  C5  OXE d   1      -0.164  -0.522   0.859  0.00  0.00    -0.002 A 
ATOM      8  C6  OXE d   1       0.072  -1.761   0.275  0.00  0.00     0.003 A 
ENDROOT
TORSDOF 0
ENDMDL
