MODEL 1
REMARK minimizedAffinity -2.5138948
REMARK minimizedRMSD -1
REMARK  0 active torsions:
REMARK  status: ('A' for Active; 'I' for Inactive)
ROOT
ATOM      1  C2' OXE d   1      -0.920  -0.443   1.028  0.00  0.00     0.078 C 
ATOM      2  C1' OXE d   1       0.403  -2.620  -0.152  0.00  0.00     0.078 C 
ATOM      3  C1  OXE d   1       0.858  -1.232  -0.529  0.00  0.00    -0.078 A 
ATOM      4  C2  OXE d   1       0.174  -0.173   0.017  0.00  0.00    -0.078 A 
ATOM      5  C3  OXE d   1       0.587   1.129  -0.254  0.00  0.00     0.003 A 
ATOM      6  C4  OXE d   1       1.593   1.371  -1.198  0.00  0.00    -0.002 A 
ATOM      7  C5  OXE d   1       2.276   0.306  -1.796  0.00  0.00    -0.002 A 
ATOM      8  C6  OXE d   1       1.950  -0.998  -1.441  0.00  0.00     0.003 A 
ENDROOT
TORSDOF 0
ENDMDL
