MODEL 1
REMARK minimizedAffinity -4.32419586
REMARK minimizedRMSD -1
REMARK  0 active torsions:
REMARK  status: ('A' for Active; 'I' for Inactive)
ROOT
ATOM      1  C2' OXE d   1      -0.349  -0.318   0.650  0.00  0.00     0.078 C 
ATOM      2  C1' OXE d   1      -1.125   1.124  -1.630  0.00  0.00     0.078 C 
ATOM      3  C1  OXE d   1       0.052   0.189  -1.756  0.00  0.00    -0.078 A 
ATOM      4  C2  OXE d   1       0.454  -0.477  -0.623  0.00  0.00    -0.078 A 
ATOM      5  C3  OXE d   1       1.500  -1.393  -0.696  0.00  0.00     0.003 A 
ATOM      6  C4  OXE d   1       2.243  -1.527  -1.875  0.00  0.00    -0.002 A 
ATOM      7  C5  OXE d   1       1.875  -0.828  -3.030  0.00  0.00    -0.002 A 
ATOM      8  C6  OXE d   1       0.758  -0.000  -2.998  0.00  0.00     0.003 A 
ENDROOT
TORSDOF 0
ENDMDL
