MODEL 1
REMARK minimizedAffinity -5.30542088
REMARK minimizedRMSD -1
REMARK  0 active torsions:
REMARK  status: ('A' for Active; 'I' for Inactive)
ROOT
ATOM      1  C2' OXE d   1       0.385  -2.551   0.370  0.00  0.00     0.078 C 
ATOM      2  C1' OXE d   1      -0.020   0.098   1.207  0.00  0.00     0.078 C 
ATOM      3  C1  OXE d   1       0.485  -0.127  -0.196  0.00  0.00    -0.078 A 
ATOM      4  C2  OXE d   1       0.725  -1.424  -0.582  0.00  0.00    -0.078 A 
ATOM      5  C3  OXE d   1       1.140  -1.691  -1.883  0.00  0.00     0.003 A 
ATOM      6  C4  OXE d   1       1.462  -0.643  -2.754  0.00  0.00    -0.002 A 
ATOM      7  C5  OXE d   1       1.262   0.687  -2.368  0.00  0.00    -0.002 A 
ATOM      8  C6  OXE d   1       0.736   0.960  -1.110  0.00  0.00     0.003 A 
ENDROOT
TORSDOF 0
ENDMDL
