MODEL 1
REMARK minimizedAffinity -5.27313566
REMARK minimizedRMSD -1
REMARK  0 active torsions:
REMARK  status: ('A' for Active; 'I' for Inactive)
ROOT
ATOM      1  C2' OXE d   1       0.970   2.289  -0.085  0.00  0.00     0.078 C 
ATOM      2  C1' OXE d   1      -0.411   0.248   1.260  0.00  0.00     0.078 C 
ATOM      3  C1  OXE d   1       0.489  -0.147   0.115  0.00  0.00    -0.078 A 
ATOM      4  C2  OXE d   1       1.125   0.862  -0.567  0.00  0.00    -0.078 A 
ATOM      5  C3  OXE d   1       2.009   0.549  -1.595  0.00  0.00     0.003 A 
ATOM      6  C4  OXE d   1       2.138  -0.772  -2.041  0.00  0.00    -0.002 A 
ATOM      7  C5  OXE d   1       1.469  -1.811  -1.386  0.00  0.00    -0.002 A 
ATOM      8  C6  OXE d   1       0.676  -1.521  -0.281  0.00  0.00     0.003 A 
ENDROOT
TORSDOF 0
ENDMDL
