MODEL 1
REMARK minimizedAffinity -0.611084044
REMARK minimizedRMSD -1
REMARK  0 active torsions:
REMARK  status: ('A' for Active; 'I' for Inactive)
ROOT
ATOM      1  C2' OXE d   1      -1.597   0.003   0.607  0.00  0.00     0.078 C 
ATOM      2  C1' OXE d   1       0.270  -2.059   0.227  0.00  0.00     0.078 C 
ATOM      3  C1  OXE d   1       0.622  -0.687  -0.290  0.00  0.00    -0.078 A 
ATOM      4  C2  OXE d   1      -0.317   0.306  -0.141  0.00  0.00    -0.078 A 
ATOM      5  C3  OXE d   1      -0.020   1.602  -0.552  0.00  0.00     0.003 A 
ATOM      6  C4  OXE d   1       1.162   1.871  -1.253  0.00  0.00    -0.002 A 
ATOM      7  C5  OXE d   1       2.115   0.866  -1.450  0.00  0.00    -0.002 A 
ATOM      8  C6  OXE d   1       1.879  -0.406  -0.939  0.00  0.00     0.003 A 
ENDROOT
TORSDOF 0
ENDMDL
