MODEL 1
REMARK minimizedAffinity -5.69428921
REMARK minimizedRMSD -1
REMARK  0 active torsions:
REMARK  status: ('A' for Active; 'I' for Inactive)
ROOT
ATOM      1  C2' OXE d   1      -0.183  -0.019   0.293  0.00  0.00     0.078 C 
ATOM      2  C1' OXE d   1       0.324  -2.609  -0.665  0.00  0.00     0.078 C 
ATOM      3  C1  OXE d   1       0.960  -1.452  -1.394  0.00  0.00    -0.078 A 
ATOM      4  C2  OXE d   1       0.668  -0.185  -0.947  0.00  0.00    -0.078 A 
ATOM      5  C3  OXE d   1       1.272   0.914  -1.550  0.00  0.00     0.003 A 
ATOM      6  C4  OXE d   1       2.050   0.753  -2.702  0.00  0.00    -0.002 A 
ATOM      7  C5  OXE d   1       2.327  -0.526  -3.198  0.00  0.00    -0.002 A 
ATOM      8  C6  OXE d   1       1.826  -1.638  -2.532  0.00  0.00     0.003 A 
ENDROOT
TORSDOF 0
ENDMDL
