MODEL 1
REMARK minimizedAffinity -4.16452408
REMARK minimizedRMSD -1
REMARK  0 active torsions:
REMARK  status: ('A' for Active; 'I' for Inactive)
ROOT
ATOM      1  C2' OXE d   1       1.941  -0.929  -2.994  0.00  0.00     0.078 C 
ATOM      2  C1' OXE d   1       3.134   0.933  -1.265  0.00  0.00     0.078 C 
ATOM      3  C1  OXE d   1       1.784   0.380  -0.880  0.00  0.00    -0.078 A 
ATOM      4  C2  OXE d   1       1.187  -0.495  -1.755  0.00  0.00    -0.078 A 
ATOM      5  C3  OXE d   1      -0.033  -1.076  -1.423  0.00  0.00     0.003 A 
ATOM      6  C4  OXE d   1      -0.728  -0.662  -0.281  0.00  0.00    -0.002 A 
ATOM      7  C5  OXE d   1      -0.156   0.258   0.604  0.00  0.00    -0.002 A 
ATOM      8  C6  OXE d   1       1.116   0.756   0.341  0.00  0.00     0.003 A 
ENDROOT
TORSDOF 0
ENDMDL
