MODEL 1
REMARK minimizedAffinity -6.571383
REMARK minimizedRMSD -1
REMARK  0 active torsions:
REMARK  status: ('A' for Active; 'I' for Inactive)
ROOT
ATOM      1  C2' OXE d   1       0.235  -2.498   0.680  0.00  0.00     0.078 C 
ATOM      2  C1' OXE d   1      -0.444   0.198   1.074  0.00  0.00     0.078 C 
ATOM      3  C1  OXE d   1       0.195  -0.182  -0.238  0.00  0.00    -0.078 A 
ATOM      4  C2  OXE d   1       0.567  -1.495  -0.404  0.00  0.00    -0.078 A 
ATOM      5  C3  OXE d   1       1.110  -1.910  -1.616  0.00  0.00     0.003 A 
ATOM      6  C4  OXE d   1       1.422  -0.974  -2.610  0.00  0.00    -0.002 A 
ATOM      7  C5  OXE d   1       1.089   0.374  -2.446  0.00  0.00    -0.002 A 
ATOM      8  C6  OXE d   1       0.437   0.779  -1.286  0.00  0.00     0.003 A 
ENDROOT
TORSDOF 0
ENDMDL
