MODEL 1
REMARK minimizedAffinity 0.780495942
REMARK minimizedRMSD -1
REMARK  0 active torsions:
REMARK  status: ('A' for Active; 'I' for Inactive)
ROOT
ATOM      1  C2' OXE d   1       0.469  -1.834   0.755  0.00  0.00     0.078 C 
ATOM      2  C1' OXE d   1      -1.287   0.346   0.974  0.00  0.00     0.078 C 
ATOM      3  C1  OXE d   1      -0.005   0.549   0.204  0.00  0.00    -0.078 A 
ATOM      4  C2  OXE d   1       0.869  -0.509   0.142  0.00  0.00    -0.078 A 
ATOM      5  C3  OXE d   1       2.040  -0.392  -0.602  0.00  0.00     0.003 A 
ATOM      6  C4  OXE d   1       2.408   0.840  -1.157  0.00  0.00    -0.002 A 
ATOM      7  C5  OXE d   1       1.549   1.941  -1.071  0.00  0.00    -0.002 A 
ATOM      8  C6  OXE d   1       0.322   1.801  -0.432  0.00  0.00     0.003 A 
ENDROOT
TORSDOF 0
ENDMDL
