MODEL 1
REMARK minimizedAffinity 1.73068213
REMARK minimizedRMSD -1
REMARK  2 active torsions:
REMARK  status: ('A' for Active; 'I' for Inactive)
REMARK    1  A    between atoms: C2'_3  and  C1'_4 
REMARK    2  A    between atoms: C1'_4  and  C1_5 
ROOT
ATOM      1  C1  I4B d   1       3.156   3.830  -5.892  0.00  0.00    -0.075 A 
ATOM      2  C2  I4B d   1       3.810   5.036  -5.934  0.00  0.00     0.003 A 
ATOM      3  C3  I4B d   1       5.224   5.078  -6.000  0.00  0.00     0.002 A 
ATOM      4  C4  I4B d   1       5.941   3.899  -5.971  0.00  0.00    -0.004 A 
ATOM      5  C5  I4B d   1       5.275   2.677  -5.951  0.00  0.00     0.002 A 
ATOM      6  C6  I4B d   1       3.873   2.641  -5.924  0.00  0.00     0.003 A 
ENDROOT
BRANCH   1   7
ATOM      7  C1' I4B d   1       1.663   3.823  -5.790  0.00  0.00     0.060 C 
BRANCH   7   8
ATOM      8  C2' I4B d   1       1.233   5.130  -5.156  0.00  0.00    -0.013 C 
ATOM      9  C4' I4B d   1       0.201   5.831  -6.000  0.00  0.00     0.013 C 
ATOM     10  C3' I4B d   1       0.698   4.827  -3.788  0.00  0.00     0.013 C 
ENDBRANCH   7   8
ENDBRANCH   1   7
TORSDOF 2
ENDMDL
