MODEL 1
REMARK minimizedAffinity -0.844251752
REMARK minimizedRMSD -1
REMARK  2 active torsions:
REMARK  status: ('A' for Active; 'I' for Inactive)
REMARK    1  A    between atoms: C2'_3  and  C1'_4 
REMARK    2  A    between atoms: C1'_4  and  C1_5 
ROOT
ATOM      1  C1  I4B d   1       3.579   4.168  -5.821  0.00  0.00    -0.075 A 
ATOM      2  C2  I4B d   1       4.761   4.860  -5.920  0.00  0.00     0.003 A 
ATOM      3  C3  I4B d   1       5.995   4.194  -5.726  0.00  0.00     0.002 A 
ATOM      4  C4  I4B d   1       6.000   2.856  -5.388  0.00  0.00    -0.004 A 
ATOM      5  C5  I4B d   1       4.802   2.151  -5.311  0.00  0.00     0.002 A 
ATOM      6  C6  I4B d   1       3.585   2.808  -5.541  0.00  0.00     0.003 A 
ENDROOT
BRANCH   1   7
ATOM      7  C1' I4B d   1       2.293   4.910  -6.000  0.00  0.00     0.060 C 
BRANCH   7   8
ATOM      8  C2' I4B d   1       1.178   4.054  -5.434  0.00  0.00    -0.013 C 
ATOM      9  C4' I4B d   1       1.167   4.097  -3.929  0.00  0.00     0.013 C 
ATOM     10  C3' I4B d   1      -0.119   4.550  -5.999  0.00  0.00     0.013 C 
ENDBRANCH   7   8
ENDBRANCH   1   7
TORSDOF 2
ENDMDL
