MODEL 1
REMARK minimizedAffinity 5.32076836
REMARK minimizedRMSD -1
REMARK  2 active torsions:
REMARK  status: ('A' for Active; 'I' for Inactive)
REMARK    1  A    between atoms: C2'_3  and  C1'_4 
REMARK    2  A    between atoms: C1'_4  and  C1_5 
ROOT
ATOM      1  C1  I4B d   1       1.518   2.426   1.711  0.00  0.00    -0.075 A 
ATOM      2  C2  I4B d   1       0.912   3.634   1.468  0.00  0.00     0.003 A 
ATOM      3  C3  I4B d   1      -0.200   4.042   2.243  0.00  0.00     0.002 A 
ATOM      4  C4  I4B d   1      -0.702   3.196   3.210  0.00  0.00    -0.004 A 
ATOM      5  C5  I4B d   1      -0.073   1.982   3.471  0.00  0.00     0.002 A 
ATOM      6  C6  I4B d   1       1.052   1.599   2.725  0.00  0.00     0.003 A 
ENDROOT
BRANCH   1   7
ATOM      7  C1' I4B d   1       2.670   2.012   0.852  0.00  0.00     0.060 C 
BRANCH   7   8
ATOM      8  C2' I4B d   1       2.943   0.545   1.113  0.00  0.00    -0.013 C 
ATOM      9  C4' I4B d   1       2.516  -0.305  -0.055  0.00  0.00     0.013 C 
ATOM     10  C3' I4B d   1       4.409   0.389   1.390  0.00  0.00     0.013 C 
ENDBRANCH   7   8
ENDBRANCH   1   7
TORSDOF 2
ENDMDL
