MODEL 1
REMARK minimizedAffinity -1.58874166
REMARK minimizedRMSD -1
REMARK  2 active torsions:
REMARK  status: ('A' for Active; 'I' for Inactive)
REMARK    1  A    between atoms: C2'_3  and  C1'_4 
REMARK    2  A    between atoms: C1'_4  and  C1_5 
ROOT
ATOM      1  C1  I4B d   1       2.151   3.631  -5.654  0.00  0.00    -0.075 A 
ATOM      2  C2  I4B d   1       2.727   4.813  -5.259  0.00  0.00     0.003 A 
ATOM      3  C3  I4B d   1       1.956   6.000  -5.210  0.00  0.00     0.002 A 
ATOM      4  C4  I4B d   1       0.636   5.970  -5.611  0.00  0.00    -0.004 A 
ATOM      5  C5  I4B d   1       0.048   4.766  -5.989  0.00  0.00     0.002 A 
ATOM      6  C6  I4B d   1       0.807   3.587  -6.000  0.00  0.00     0.003 A 
ENDROOT
BRANCH   1   7
ATOM      7  C1' I4B d   1       3.003   2.404  -5.726  0.00  0.00     0.060 C 
BRANCH   7   8
ATOM      8  C2' I4B d   1       4.166   2.586  -4.772  0.00  0.00    -0.013 C 
ATOM      9  C4' I4B d   1       4.501   1.298  -4.069  0.00  0.00     0.013 C 
ATOM     10  C3' I4B d   1       5.337   3.092  -5.561  0.00  0.00     0.013 C 
ENDBRANCH   7   8
ENDBRANCH   1   7
TORSDOF 2
ENDMDL
