MODEL 1
REMARK minimizedAffinity 4.5429678
REMARK minimizedRMSD -1
REMARK  2 active torsions:
REMARK  status: ('A' for Active; 'I' for Inactive)
REMARK    1  A    between atoms: C2'_3  and  C1'_4 
REMARK    2  A    between atoms: C1'_4  and  C1_5 
ROOT
ATOM      1  C1  I4B d   1       2.743   3.317  -5.722  0.00  0.00    -0.075 A 
ATOM      2  C2  I4B d   1       3.480   4.441  -5.999  0.00  0.00     0.003 A 
ATOM      3  C3  I4B d   1       4.878   4.451  -5.774  0.00  0.00     0.002 A 
ATOM      4  C4  I4B d   1       5.486   3.340  -5.225  0.00  0.00    -0.004 A 
ATOM      5  C5  I4B d   1       4.741   2.193  -4.966  0.00  0.00     0.002 A 
ATOM      6  C6  I4B d   1       3.363   2.177  -5.227  0.00  0.00     0.003 A 
ENDROOT
BRANCH   1   7
ATOM      7  C1' I4B d   1       1.264   3.352  -5.941  0.00  0.00     0.060 C 
BRANCH   7   8
ATOM      8  C2' I4B d   1       0.763   4.721  -5.527  0.00  0.00    -0.013 C 
ATOM      9  C4' I4B d   1      -0.648   4.951  -6.000  0.00  0.00     0.013 C 
ATOM     10  C3' I4B d   1       0.856   4.815  -4.034  0.00  0.00     0.013 C 
ENDBRANCH   7   8
ENDBRANCH   1   7
TORSDOF 2
ENDMDL
