MODEL 1
REMARK minimizedAffinity -0.026834162
REMARK minimizedRMSD -1
REMARK  2 active torsions:
REMARK  status: ('A' for Active; 'I' for Inactive)
REMARK    1  A    between atoms: C2'_3  and  C1'_4 
REMARK    2  A    between atoms: C1'_4  and  C1_5 
ROOT
ATOM      1  C1  I4B d   1       3.072   3.550  -5.995  0.00  0.00    -0.075 A 
ATOM      2  C2  I4B d   1       1.700   3.585  -6.000  0.00  0.00     0.003 A 
ATOM      3  C3  I4B d   1       1.019   4.827  -5.999  0.00  0.00     0.002 A 
ATOM      4  C4  I4B d   1       1.743   5.999  -5.943  0.00  0.00    -0.004 A 
ATOM      5  C5  I4B d   1       3.135   5.962  -5.961  0.00  0.00     0.002 A 
ATOM      6  C6  I4B d   1       3.804   4.730  -5.999  0.00  0.00     0.003 A 
ENDROOT
BRANCH   1   7
ATOM      7  C1' I4B d   1       3.758   2.221  -5.962  0.00  0.00     0.060 C 
BRANCH   7   8
ATOM      8  C2' I4B d   1       4.485   2.104  -4.638  0.00  0.00    -0.013 C 
ATOM      9  C4' I4B d   1       3.867   2.998  -3.596  0.00  0.00     0.013 C 
ATOM     10  C3' I4B d   1       4.442   0.667  -4.212  0.00  0.00     0.013 C 
ENDBRANCH   7   8
ENDBRANCH   1   7
TORSDOF 2
ENDMDL
