MODEL 1
REMARK minimizedAffinity 7.4753685
REMARK minimizedRMSD -1
REMARK  2 active torsions:
REMARK  status: ('A' for Active; 'I' for Inactive)
REMARK    1  A    between atoms: C2'_3  and  C1'_4 
REMARK    2  A    between atoms: C1'_4  and  C1_5 
ROOT
ATOM      1  C1  I4B d   1       3.076   3.419  -5.225  0.00  0.00    -0.075 A 
ATOM      2  C2  I4B d   1       2.076   3.990  -5.973  0.00  0.00     0.003 A 
ATOM      3  C3  I4B d   1       1.093   4.796  -5.351  0.00  0.00     0.002 A 
ATOM      4  C4  I4B d   1       1.117   4.963  -3.981  0.00  0.00    -0.004 A 
ATOM      5  C5  I4B d   1       2.144   4.402  -3.228  0.00  0.00     0.002 A 
ATOM      6  C6  I4B d   1       3.137   3.635  -3.854  0.00  0.00     0.003 A 
ENDROOT
BRANCH   1   7
ATOM      7  C1' I4B d   1       4.079   2.546  -5.909  0.00  0.00     0.060 C 
BRANCH   7   8
ATOM      8  C2' I4B d   1       3.498   1.149  -5.999  0.00  0.00    -0.013 C 
ATOM      9  C4' I4B d   1       3.976   0.285  -4.862  0.00  0.00     0.013 C 
ATOM     10  C3' I4B d   1       2.003   1.268  -5.998  0.00  0.00     0.013 C 
ENDBRANCH   7   8
ENDBRANCH   1   7
TORSDOF 2
ENDMDL
