MODEL 1
REMARK minimizedAffinity 1.81617856
REMARK minimizedRMSD -1
REMARK  2 active torsions:
REMARK  status: ('A' for Active; 'I' for Inactive)
REMARK    1  A    between atoms: C2'_3  and  C1'_4 
REMARK    2  A    between atoms: C1'_4  and  C1_5 
ROOT
ATOM      1  C1  I4B d   1       3.361   2.833  -5.747  0.00  0.00    -0.075 A 
ATOM      2  C2  I4B d   1       4.381   3.721  -5.981  0.00  0.00     0.003 A 
ATOM      3  C3  I4B d   1       5.724   3.344  -5.739  0.00  0.00     0.002 A 
ATOM      4  C4  I4B d   1       5.996   2.094  -5.220  0.00  0.00    -0.004 A 
ATOM      5  C5  I4B d   1       4.963   1.187  -5.005  0.00  0.00     0.002 A 
ATOM      6  C6  I4B d   1       3.638   1.554  -5.282  0.00  0.00     0.003 A 
ENDROOT
BRANCH   1   7
ATOM      7  C1' I4B d   1       1.952   3.276  -5.982  0.00  0.00     0.060 C 
BRANCH   7   8
ATOM      8  C2' I4B d   1       1.871   4.758  -5.676  0.00  0.00    -0.013 C 
ATOM      9  C4' I4B d   1       0.507   5.307  -5.999  0.00  0.00     0.013 C 
ATOM     10  C3' I4B d   1       2.203   4.950  -4.227  0.00  0.00     0.013 C 
ENDBRANCH   7   8
ENDBRANCH   1   7
TORSDOF 2
ENDMDL
