MODEL 1
REMARK minimizedAffinity 4.39439058
REMARK minimizedRMSD -1
REMARK  2 active torsions:
REMARK  status: ('A' for Active; 'I' for Inactive)
REMARK    1  A    between atoms: C2'_3  and  C1'_4 
REMARK    2  A    between atoms: C1'_4  and  C1_5 
ROOT
ATOM      1  C1  I4B d   1       4.076   3.465  -5.565  0.00  0.00    -0.075 A 
ATOM      2  C2  I4B d   1       5.431   3.601  -5.735  0.00  0.00     0.003 A 
ATOM      3  C3  I4B d   1       6.000   4.883  -5.931  0.00  0.00     0.002 A 
ATOM      4  C4  I4B d   1       5.176   5.989  -6.000  0.00  0.00    -0.004 A 
ATOM      5  C5  I4B d   1       3.805   5.851  -5.804  0.00  0.00     0.002 A 
ATOM      6  C6  I4B d   1       3.252   4.583  -5.573  0.00  0.00     0.003 A 
ENDROOT
BRANCH   1   7
ATOM      7  C1' I4B d   1       3.505   2.093  -5.393  0.00  0.00     0.060 C 
BRANCH   7   8
ATOM      8  C2' I4B d   1       4.058   1.515  -4.106  0.00  0.00    -0.013 C 
ATOM      9  C4' I4B d   1       3.305   2.033  -2.909  0.00  0.00     0.013 C 
ATOM     10  C3' I4B d   1       3.972   0.021  -4.195  0.00  0.00     0.013 C 
ENDBRANCH   7   8
ENDBRANCH   1   7
TORSDOF 2
ENDMDL
