MODEL 1
REMARK minimizedAffinity 2.75360775
REMARK minimizedRMSD -1
REMARK  2 active torsions:
REMARK  status: ('A' for Active; 'I' for Inactive)
REMARK    1  A    between atoms: C2'_3  and  C1'_4 
REMARK    2  A    between atoms: C1'_4  and  C1_5 
ROOT
ATOM      1  C1  I4B d   1       4.174   3.306  -5.590  0.00  0.00    -0.075 A 
ATOM      2  C2  I4B d   1       3.196   4.265  -5.685  0.00  0.00     0.003 A 
ATOM      3  C3  I4B d   1       3.544   5.618  -5.917  0.00  0.00     0.002 A 
ATOM      4  C4  I4B d   1       4.875   5.973  -5.998  0.00  0.00    -0.004 A 
ATOM      5  C5  I4B d   1       5.864   4.996  -5.925  0.00  0.00     0.002 A 
ATOM      6  C6  I4B d   1       5.511   3.652  -5.732  0.00  0.00     0.003 A 
ENDROOT
BRANCH   1   7
ATOM      7  C1' I4B d   1       3.773   1.892  -5.312  0.00  0.00     0.060 C 
BRANCH   7   8
ATOM      8  C2' I4B d   1       3.881   1.662  -3.818  0.00  0.00    -0.013 C 
ATOM      9  C4' I4B d   1       4.945   0.645  -3.499  0.00  0.00     0.013 C 
ATOM     10  C3' I4B d   1       4.179   2.980  -3.167  0.00  0.00     0.013 C 
ENDBRANCH   7   8
ENDBRANCH   1   7
TORSDOF 2
ENDMDL
