MODEL 1
REMARK minimizedAffinity 9.32145596
REMARK minimizedRMSD -1
REMARK  1 active torsions:
REMARK  status: ('A' for Active; 'I' for Inactive)
REMARK    1  A    between atoms: C1_2  and  C2_3 
ROOT
ATOM      1  C2  UNL d   1       5.050   3.599  -3.000  0.00  0.00    -0.076 A 
ATOM      2  C3  UNL d   1       5.999   3.072  -3.893  0.00  0.00     0.004 A 
ATOM      3  C4  UNL d   1       5.833   1.806  -4.452  0.00  0.00    -0.003 A 
ATOM      4  C5  UNL d   1       4.714   1.046  -4.127  0.00  0.00     0.000 A 
ATOM      5  C6  UNL d   1       3.754   1.561  -3.257  0.00  0.00     0.000 A 
ATOM      6  C7  UNL d   1       3.898   2.842  -2.698  0.00  0.00    -0.073 A 
ATOM      7  C8  UNL d   1       2.834   3.345  -1.761  0.00  0.00     0.078 C 
ENDROOT
BRANCH   1   8
ATOM      8  C1  UNL d   1       5.298   4.967  -2.405  0.00  0.00     0.053 C 
ATOM      9  C   UNL d   1       6.000   5.906  -3.373  0.00  0.00     0.018 C 
ENDBRANCH   1   8
TORSDOF 1
ENDMDL
