MODEL 1
REMARK minimizedAffinity 8.89206886
REMARK minimizedRMSD -1
REMARK  1 active torsions:
REMARK  status: ('A' for Active; 'I' for Inactive)
REMARK    1  A    between atoms: C1_2  and  C2_3 
ROOT
ATOM      1  C2  UNL d   1      -3.873   4.711   3.621  0.00  0.00    -0.076 A 
ATOM      2  C3  UNL d   1      -3.249   5.086   4.824  0.00  0.00     0.004 A 
ATOM      3  C4  UNL d   1      -3.987   5.255   5.994  0.00  0.00    -0.003 A 
ATOM      4  C5  UNL d   1      -5.363   5.050   5.981  0.00  0.00     0.000 A 
ATOM      5  C6  UNL d   1      -5.996   4.661   4.801  0.00  0.00     0.000 A 
ATOM      6  C7  UNL d   1      -5.264   4.470   3.617  0.00  0.00    -0.073 A 
ATOM      7  C8  UNL d   1      -6.000   4.055   2.372  0.00  0.00     0.078 C 
ENDROOT
BRANCH   1   8
ATOM      8  C1  UNL d   1      -3.025   4.570   2.378  0.00  0.00     0.053 C 
ATOM      9  C   UNL d   1      -3.568   3.522   1.418  0.00  0.00     0.018 C 
ENDBRANCH   1   8
TORSDOF 1
ENDMDL
