MODEL 1
REMARK minimizedAffinity 22.4444942
REMARK minimizedRMSD -1
REMARK  1 active torsions:
REMARK  status: ('A' for Active; 'I' for Inactive)
REMARK    1  A    between atoms: C1_2  and  C2_3 
ROOT
ATOM      1  C2  UNL d   1      -4.703   1.081  -5.962  0.00  0.00    -0.076 A 
ATOM      2  C3  UNL d   1      -5.511   2.232  -5.979  0.00  0.00     0.004 A 
ATOM      3  C4  UNL d   1      -4.944   3.505  -5.995  0.00  0.00    -0.003 A 
ATOM      4  C5  UNL d   1      -3.561   3.649  -5.996  0.00  0.00     0.000 A 
ATOM      5  C6  UNL d   1      -2.745   2.518  -5.997  0.00  0.00     0.000 A 
ATOM      6  C7  UNL d   1      -3.300   1.227  -5.997  0.00  0.00    -0.073 A 
ATOM      7  C8  UNL d   1      -2.373   0.043  -5.993  0.00  0.00     0.078 C 
ENDROOT
BRANCH   1   8
ATOM      8  C1  UNL d   1      -5.374  -0.273  -5.917  0.00  0.00     0.053 C 
ATOM      9  C   UNL d   1      -5.734  -0.699  -4.502  0.00  0.00     0.018 C 
ENDBRANCH   1   8
TORSDOF 1
ENDMDL
