MODEL 1
REMARK minimizedAffinity 16.4029408
REMARK minimizedRMSD -1
REMARK  1 active torsions:
REMARK  status: ('A' for Active; 'I' for Inactive)
REMARK    1  A    between atoms: C1_2  and  C2_3 
ROOT
ATOM      1  C2  UNL d   1       1.503  -1.419  -0.880  0.00  0.00    -0.076 A 
ATOM      2  C3  UNL d   1       1.972  -0.155  -0.482  0.00  0.00     0.004 A 
ATOM      3  C4  UNL d   1       2.126   0.160   0.867  0.00  0.00    -0.003 A 
ATOM      4  C5  UNL d   1       1.814  -0.783   1.840  0.00  0.00     0.000 A 
ATOM      5  C6  UNL d   1       1.364  -2.048   1.462  0.00  0.00     0.000 A 
ATOM      6  C7  UNL d   1       1.219  -2.388   0.106  0.00  0.00    -0.073 A 
ATOM      7  C8  UNL d   1       0.724  -3.764  -0.245  0.00  0.00     0.078 C 
ENDROOT
BRANCH   1   8
ATOM      8  C1  UNL d   1       1.330  -1.694  -2.357  0.00  0.00     0.053 C 
ATOM      9  C   UNL d   1       2.640  -2.059  -3.039  0.00  0.00     0.018 C 
ENDBRANCH   1   8
TORSDOF 1
ENDMDL
