MODEL 1
REMARK minimizedAffinity -5.12150431
REMARK minimizedRMSD -1
REMARK  2 active torsions:
REMARK  status: ('A' for Active; 'I' for Inactive)
REMARK    1  A    between atoms: C1_2  and  C2_3 
REMARK    2  A    between atoms: C2_3  and  C3_4 
ROOT
ATOM      1  C3  UNL d   1      -0.499   0.335   0.405  0.00  0.00    -0.075 A 
ATOM      2  C4  UNL d   1      -0.851   1.151  -0.679  0.00  0.00     0.002 A 
ATOM      3  C5  UNL d   1      -2.019   1.915  -0.641  0.00  0.00     0.002 A 
ATOM      4  C6  UNL d   1      -2.852   1.864   0.475  0.00  0.00    -0.004 A 
ATOM      5  C7  UNL d   1      -2.520   1.043   1.551  0.00  0.00     0.002 A 
ATOM      6  C8  UNL d   1      -1.350   0.282   1.517  0.00  0.00     0.002 A 
ENDROOT
BRANCH   1   7
ATOM      7  C2  UNL d   1       0.778  -0.471   0.383  0.00  0.00     0.056 C 
BRANCH   7   8
ATOM      8  C1  UNL d   1       0.952  -1.329  -0.875  0.00  0.00     0.007 C 
ATOM      9  C   UNL d   1       2.382  -1.808  -1.082  0.00  0.00     0.009 C 
ENDBRANCH   7   8
ENDBRANCH   1   7
TORSDOF 2
ENDMDL
