MODEL 1
REMARK minimizedAffinity -4.56847239
REMARK minimizedRMSD -1
REMARK  2 active torsions:
REMARK  status: ('A' for Active; 'I' for Inactive)
REMARK    1  A    between atoms: C1_2  and  C2_3 
REMARK    2  A    between atoms: C2_3  and  C3_4 
ROOT
ATOM      1  C3  UNL d   1       0.076  -0.589   0.036  0.00  0.00    -0.075 A 
ATOM      2  C4  UNL d   1       1.004  -0.062   0.945  0.00  0.00     0.002 A 
ATOM      3  C5  UNL d   1       2.235  -0.687   1.145  0.00  0.00     0.002 A 
ATOM      4  C6  UNL d   1       2.549  -1.851   0.447  0.00  0.00    -0.004 A 
ATOM      5  C7  UNL d   1       1.628  -2.394  -0.447  0.00  0.00     0.002 A 
ATOM      6  C8  UNL d   1       0.397  -1.767  -0.652  0.00  0.00     0.002 A 
ENDROOT
BRANCH   1   7
ATOM      7  C2  UNL d   1      -1.246   0.099  -0.206  0.00  0.00     0.056 C 
BRANCH   7   8
ATOM      8  C1  UNL d   1      -1.990   0.489   1.075  0.00  0.00     0.007 C 
ATOM      9  C   UNL d   1      -3.499   0.586   0.888  0.00  0.00     0.009 C 
ENDBRANCH   7   8
ENDBRANCH   1   7
TORSDOF 2
ENDMDL
