MODEL 1
REMARK minimizedAffinity -4.36934662
REMARK minimizedRMSD -1
REMARK  2 active torsions:
REMARK  status: ('A' for Active; 'I' for Inactive)
REMARK    1  A    between atoms: C1_2  and  C2_3 
REMARK    2  A    between atoms: C2_3  and  C3_4 
ROOT
ATOM      1  C3  UNL d   1      -0.433   0.011  -0.158  0.00  0.00    -0.075 A 
ATOM      2  C4  UNL d   1       0.686   0.243   0.655  0.00  0.00     0.002 A 
ATOM      3  C5  UNL d   1       1.701  -0.709   0.752  0.00  0.00     0.002 A 
ATOM      4  C6  UNL d   1       1.607  -1.907   0.048  0.00  0.00    -0.004 A 
ATOM      5  C7  UNL d   1       0.492  -2.156  -0.750  0.00  0.00     0.002 A 
ATOM      6  C8  UNL d   1      -0.523  -1.203  -0.852  0.00  0.00     0.002 A 
ENDROOT
BRANCH   1   7
ATOM      7  C2  UNL d   1      -1.521   1.049  -0.290  0.00  0.00     0.056 C 
BRANCH   7   8
ATOM      8  C1  UNL d   1      -2.889   0.588   0.222  0.00  0.00     0.007 C 
ATOM      9  C   UNL d   1      -3.372   1.373   1.434  0.00  0.00     0.009 C 
ENDBRANCH   7   8
ENDBRANCH   1   7
TORSDOF 2
ENDMDL
