MODEL 1
REMARK minimizedAffinity -4.45609856
REMARK minimizedRMSD -1
REMARK  2 active torsions:
REMARK  status: ('A' for Active; 'I' for Inactive)
REMARK    1  A    between atoms: C1_2  and  C2_3 
REMARK    2  A    between atoms: C2_3  and  C3_4 
ROOT
ATOM      1  C3  UNL d   1      -0.026  -0.108  -0.229  0.00  0.00    -0.075 A 
ATOM      2  C4  UNL d   1       0.739   0.077   0.931  0.00  0.00     0.002 A 
ATOM      3  C5  UNL d   1       1.851  -0.727   1.182  0.00  0.00     0.002 A 
ATOM      4  C6  UNL d   1       2.206  -1.730   0.283  0.00  0.00    -0.004 A 
ATOM      5  C7  UNL d   1       1.443  -1.933  -0.865  0.00  0.00     0.002 A 
ATOM      6  C8  UNL d   1       0.333  -1.127  -1.121  0.00  0.00     0.002 A 
ENDROOT
BRANCH   1   7
ATOM      7  C2  UNL d   1      -1.214   0.778  -0.521  0.00  0.00     0.056 C 
BRANCH   7   8
ATOM      8  C1  UNL d   1      -1.996   1.203   0.726  0.00  0.00     0.007 C 
ATOM      9  C   UNL d   1      -3.483   0.882   0.641  0.00  0.00     0.009 C 
ENDBRANCH   7   8
ENDBRANCH   1   7
TORSDOF 2
ENDMDL
