MODEL 1
REMARK minimizedAffinity -3.97078776
REMARK minimizedRMSD -1
REMARK  2 active torsions:
REMARK  status: ('A' for Active; 'I' for Inactive)
REMARK    1  A    between atoms: C1_2  and  C2_3 
REMARK    2  A    between atoms: C2_3  and  C3_4 
ROOT
ATOM      1  C3  UNL d   1      -0.245  -0.010  -0.028  0.00  0.00    -0.075 A 
ATOM      2  C4  UNL d   1      -0.463  -1.214  -0.712  0.00  0.00     0.002 A 
ATOM      3  C5  UNL d   1       0.557  -2.158  -0.827  0.00  0.00     0.002 A 
ATOM      4  C6  UNL d   1       1.809  -1.907  -0.269  0.00  0.00    -0.004 A 
ATOM      5  C7  UNL d   1       2.042  -0.707   0.399  0.00  0.00     0.002 A 
ATOM      6  C8  UNL d   1       1.021   0.238   0.519  0.00  0.00     0.002 A 
ENDROOT
BRANCH   1   7
ATOM      7  C2  UNL d   1      -1.354   1.004   0.125  0.00  0.00     0.056 C 
BRANCH   7   8
ATOM      8  C1  UNL d   1      -2.754   0.441  -0.142  0.00  0.00     0.007 C 
ATOM      9  C   UNL d   1      -3.737   0.714   0.989  0.00  0.00     0.009 C 
ENDBRANCH   7   8
ENDBRANCH   1   7
TORSDOF 2
ENDMDL
