MODEL 1
REMARK minimizedAffinity -0.72527951
REMARK minimizedRMSD -1
REMARK  2 active torsions:
REMARK  status: ('A' for Active; 'I' for Inactive)
REMARK    1  A    between atoms: C1_2  and  C2_3 
REMARK    2  A    between atoms: C2_3  and  C3_4 
ROOT
ATOM      1  C3  UNL d   1       0.276   0.148  -0.574  0.00  0.00    -0.075 A 
ATOM      2  C4  UNL d   1       1.363   0.990  -0.848  0.00  0.00     0.002 A 
ATOM      3  C5  UNL d   1       1.542   2.173  -0.129  0.00  0.00     0.002 A 
ATOM      4  C6  UNL d   1       0.633   2.533   0.863  0.00  0.00    -0.004 A 
ATOM      5  C7  UNL d   1      -0.460   1.712   1.132  0.00  0.00     0.002 A 
ATOM      6  C8  UNL d   1      -0.639   0.526   0.418  0.00  0.00     0.002 A 
ENDROOT
BRANCH   1   7
ATOM      7  C2  UNL d   1       0.093  -1.147  -1.328  0.00  0.00     0.056 C 
BRANCH   7   8
ATOM      8  C1  UNL d   1       0.828  -2.340  -0.707  0.00  0.00     0.007 C 
ATOM      9  C   UNL d   1       2.272  -2.465  -1.175  0.00  0.00     0.009 C 
ENDBRANCH   7   8
ENDBRANCH   1   7
TORSDOF 2
ENDMDL
