MODEL 1
REMARK minimizedAffinity -4.04939032
REMARK minimizedRMSD -1
REMARK  2 active torsions:
REMARK  status: ('A' for Active; 'I' for Inactive)
REMARK    1  A    between atoms: C1_2  and  C2_3 
REMARK    2  A    between atoms: C2_3  and  C3_4 
ROOT
ATOM      1  C3  UNL d   1       0.057   0.002  -1.168  0.00  0.00    -0.075 A 
ATOM      2  C4  UNL d   1      -0.750   0.157  -0.032  0.00  0.00     0.002 A 
ATOM      3  C5  UNL d   1      -0.212  -0.002   1.246  0.00  0.00     0.002 A 
ATOM      4  C6  UNL d   1       1.134  -0.326   1.403  0.00  0.00    -0.004 A 
ATOM      5  C7  UNL d   1       1.941  -0.498   0.281  0.00  0.00     0.002 A 
ATOM      6  C8  UNL d   1       1.406  -0.336  -0.999  0.00  0.00     0.002 A 
ENDROOT
BRANCH   1   7
ATOM      7  C2  UNL d   1      -0.512   0.202  -2.553  0.00  0.00     0.056 C 
BRANCH   7   8
ATOM      8  C1  UNL d   1      -1.127   1.587  -2.781  0.00  0.00     0.007 C 
ATOM      9  C   UNL d   1      -0.173   2.563  -3.456  0.00  0.00     0.009 C 
ENDBRANCH   7   8
ENDBRANCH   1   7
TORSDOF 2
ENDMDL
