MODEL 1
REMARK minimizedAffinity -4.04520702
REMARK minimizedRMSD -1
REMARK  2 active torsions:
REMARK  status: ('A' for Active; 'I' for Inactive)
REMARK    1  A    between atoms: C1_2  and  C2_3 
REMARK    2  A    between atoms: C2_3  and  C3_4 
ROOT
ATOM      1  C3  UNL d   1       0.066   0.067  -0.398  0.00  0.00    -0.075 A 
ATOM      2  C4  UNL d   1       1.129  -0.677   0.135  0.00  0.00     0.002 A 
ATOM      3  C5  UNL d   1       1.098  -1.104   1.463  0.00  0.00     0.002 A 
ATOM      4  C6  UNL d   1       0.012  -0.785   2.276  0.00  0.00    -0.004 A 
ATOM      5  C7  UNL d   1      -1.041  -0.032   1.761  0.00  0.00     0.002 A 
ATOM      6  C8  UNL d   1      -1.015   0.393   0.431  0.00  0.00     0.002 A 
ENDROOT
BRANCH   1   7
ATOM      7  C2  UNL d   1       0.080   0.507  -1.843  0.00  0.00     0.056 C 
BRANCH   7   8
ATOM      8  C1  UNL d   1      -0.743   1.770  -2.118  0.00  0.00     0.007 C 
ATOM      9  C   UNL d   1       0.012   2.813  -2.931  0.00  0.00     0.009 C 
ENDBRANCH   7   8
ENDBRANCH   1   7
TORSDOF 2
ENDMDL
