MODEL 1
REMARK minimizedAffinity -3.50906801
REMARK minimizedRMSD -1
REMARK  2 active torsions:
REMARK  status: ('A' for Active; 'I' for Inactive)
REMARK    1  A    between atoms: C1_2  and  C2_3 
REMARK    2  A    between atoms: C2_3  and  C3_4 
ROOT
ATOM      1  C3  UNL d   1      -0.398   1.775  -0.719  0.00  0.00    -0.075 A 
ATOM      2  C4  UNL d   1      -0.295   0.615  -1.501  0.00  0.00     0.002 A 
ATOM      3  C5  UNL d   1      -0.224  -0.641  -0.898  0.00  0.00     0.002 A 
ATOM      4  C6  UNL d   1      -0.245  -0.753   0.490  0.00  0.00    -0.004 A 
ATOM      5  C7  UNL d   1      -0.330   0.393   1.277  0.00  0.00     0.002 A 
ATOM      6  C8  UNL d   1      -0.406   1.651   0.677  0.00  0.00     0.002 A 
ENDROOT
BRANCH   1   7
ATOM      7  C2  UNL d   1      -0.505   3.135  -1.366  0.00  0.00     0.056 C 
BRANCH   7   8
ATOM      8  C1  UNL d   1      -0.682   3.091  -2.887  0.00  0.00     0.007 C 
ATOM      9  C   UNL d   1       0.305   3.979  -3.632  0.00  0.00     0.009 C 
ENDBRANCH   7   8
ENDBRANCH   1   7
TORSDOF 2
ENDMDL
