MODEL 1
REMARK minimizedAffinity -4.84989452
REMARK minimizedRMSD -1
REMARK  2 active torsions:
REMARK  status: ('A' for Active; 'I' for Inactive)
REMARK    1  A    between atoms: C1_2  and  C2_3 
REMARK    2  A    between atoms: C2_3  and  C3_4 
ROOT
ATOM      1  C3  UNL d   1      -3.520   2.609  -3.301  0.00  0.00    -0.075 A 
ATOM      2  C4  UNL d   1      -4.693   3.332  -3.562  0.00  0.00     0.002 A 
ATOM      3  C5  UNL d   1      -5.926   2.682  -3.626  0.00  0.00     0.002 A 
ATOM      4  C6  UNL d   1      -6.000   1.303  -3.442  0.00  0.00    -0.004 A 
ATOM      5  C7  UNL d   1      -4.838   0.573  -3.199  0.00  0.00     0.002 A 
ATOM      6  C8  UNL d   1      -3.604   1.221  -3.129  0.00  0.00     0.002 A 
ENDROOT
BRANCH   1   7
ATOM      7  C2  UNL d   1      -2.186   3.311  -3.201  0.00  0.00     0.056 C 
BRANCH   7   8
ATOM      8  C1  UNL d   1      -0.982   2.364  -3.189  0.00  0.00     0.007 C 
ATOM      9  C   UNL d   1       0.256   2.958  -3.848  0.00  0.00     0.009 C 
ENDBRANCH   7   8
ENDBRANCH   1   7
TORSDOF 2
ENDMDL
