MODEL 1
REMARK minimizedAffinity -1.83731818
REMARK minimizedRMSD -1
REMARK  2 active torsions:
REMARK  status: ('A' for Active; 'I' for Inactive)
REMARK    1  A    between atoms: C1_2  and  C2_3 
REMARK    2  A    between atoms: C2_3  and  C3_4 
ROOT
ATOM      1  C3  UNL d   1       0.079   0.575  -1.412  0.00  0.00    -0.075 A 
ATOM      2  C4  UNL d   1       0.820  -0.599  -1.609  0.00  0.00     0.002 A 
ATOM      3  C5  UNL d   1       1.354  -1.291  -0.521  0.00  0.00     0.002 A 
ATOM      4  C6  UNL d   1       1.163  -0.813   0.773  0.00  0.00    -0.004 A 
ATOM      5  C7  UNL d   1       0.442   0.361   0.980  0.00  0.00     0.002 A 
ATOM      6  C8  UNL d   1      -0.097   1.053  -0.106  0.00  0.00     0.002 A 
ENDROOT
BRANCH   1   7
ATOM      7  C2  UNL d   1      -0.527   1.313  -2.582  0.00  0.00     0.056 C 
BRANCH   7   8
ATOM      8  C1  UNL d   1      -0.739   2.810  -2.334  0.00  0.00     0.007 C 
ATOM      9  C   UNL d   1       0.330   3.682  -2.979  0.00  0.00     0.009 C 
ENDBRANCH   7   8
ENDBRANCH   1   7
TORSDOF 2
ENDMDL
