MODEL 1
REMARK minimizedAffinity 4.05428648
REMARK minimizedRMSD -1
REMARK  0 active torsions:
REMARK  status: ('A' for Active; 'I' for Inactive)
ROOT
ATOM      1  C   UNL d   1       4.145  -0.912   2.626  0.00  0.00     0.172 C 
ATOM      2  N   UNL d   1       4.624  -1.503   1.399  0.00  0.00    -0.070 N 
ATOM      3  C1  UNL d   1       3.846  -1.875   0.335  0.00  0.00    -0.004 A 
ATOM      4  C2  UNL d   1       4.677  -2.395  -0.634  0.00  0.00    -0.047 A 
ATOM      5  C3  UNL d   1       6.000  -2.335  -0.135  0.00  0.00    -0.047 A 
ATOM      6  C4  UNL d   1       5.938  -1.778   1.126  0.00  0.00    -0.004 A 
ENDROOT
TORSDOF 0
ENDMDL
