MODEL 1
REMARK minimizedAffinity 6.26144218
REMARK minimizedRMSD -1
REMARK  0 active torsions:
REMARK  status: ('A' for Active; 'I' for Inactive)
ROOT
ATOM      1  C   UNL d   1       5.583  -5.808  -0.001  0.00  0.00     0.172 C 
ATOM      2  N   UNL d   1       5.214  -4.923  -1.081  0.00  0.00    -0.070 N 
ATOM      3  C1  UNL d   1       4.241  -5.165  -2.014  0.00  0.00    -0.004 A 
ATOM      4  C2  UNL d   1       4.197  -4.084  -2.868  0.00  0.00    -0.047 A 
ATOM      5  C3  UNL d   1       5.179  -3.162  -2.434  0.00  0.00    -0.047 A 
ATOM      6  C4  UNL d   1       5.793  -3.706  -1.327  0.00  0.00    -0.004 A 
ENDROOT
TORSDOF 0
ENDMDL
