MODEL 1
REMARK minimizedAffinity 5.73424101
REMARK minimizedRMSD -1
REMARK  0 active torsions:
REMARK  status: ('A' for Active; 'I' for Inactive)
ROOT
ATOM      1  C   UNL d   1      -2.745   1.095  -4.744  0.00  0.00     0.172 C 
ATOM      2  N   UNL d   1      -2.171   0.329  -3.662  0.00  0.00    -0.070 N 
ATOM      3  C1  UNL d   1      -1.313  -0.729  -3.802  0.00  0.00    -0.004 A 
ATOM      4  C2  UNL d   1      -0.997  -1.185  -2.540  0.00  0.00    -0.047 A 
ATOM      5  C3  UNL d   1      -1.689  -0.373  -1.611  0.00  0.00    -0.047 A 
ATOM      6  C4  UNL d   1      -2.409   0.556  -2.333  0.00  0.00    -0.004 A 
ENDROOT
TORSDOF 0
ENDMDL
