MODEL 1
REMARK minimizedAffinity 1.55494487
REMARK minimizedRMSD -1
REMARK  0 active torsions:
REMARK  status: ('A' for Active; 'I' for Inactive)
ROOT
ATOM      1  C   UNL d   1       1.239  -0.468   3.823  0.00  0.00     0.172 C 
ATOM      2  N   UNL d   1       0.764   0.577   2.947  0.00  0.00    -0.070 N 
ATOM      3  C1  UNL d   1      -0.358   1.336   3.146  0.00  0.00    -0.004 A 
ATOM      4  C2  UNL d   1      -0.464   2.218   2.092  0.00  0.00    -0.047 A 
ATOM      5  C3  UNL d   1       0.633   1.979   1.229  0.00  0.00    -0.047 A 
ATOM      6  C4  UNL d   1       1.376   0.959   1.783  0.00  0.00    -0.004 A 
ENDROOT
TORSDOF 0
ENDMDL
