MODEL 1
REMARK minimizedAffinity 1.76858211
REMARK minimizedRMSD -1
REMARK  0 active torsions:
REMARK  status: ('A' for Active; 'I' for Inactive)
ROOT
ATOM      1  C   UNL d   1      -0.034   2.904   0.199  0.00  0.00     0.172 C 
ATOM      2  N   UNL d   1      -0.336   1.663  -0.475  0.00  0.00    -0.070 N 
ATOM      3  C1  UNL d   1       0.578   0.832  -1.066  0.00  0.00    -0.004 A 
ATOM      4  C2  UNL d   1      -0.106  -0.240  -1.596  0.00  0.00    -0.047 A 
ATOM      5  C3  UNL d   1      -1.480  -0.047  -1.315  0.00  0.00    -0.047 A 
ATOM      6  C4  UNL d   1      -1.594   1.139  -0.620  0.00  0.00    -0.004 A 
ENDROOT
TORSDOF 0
ENDMDL
