MODEL 1
REMARK minimizedAffinity 5.54748058
REMARK minimizedRMSD -1
REMARK  0 active torsions:
REMARK  status: ('A' for Active; 'I' for Inactive)
ROOT
ATOM      1  C   UNL d   1       2.779  -2.882   0.775  0.00  0.00     0.172 C 
ATOM      2  N   UNL d   1       3.871  -2.787  -0.165  0.00  0.00    -0.070 N 
ATOM      3  C1  UNL d   1       4.633  -3.833  -0.612  0.00  0.00    -0.004 A 
ATOM      4  C2  UNL d   1       5.565  -3.330  -1.494  0.00  0.00    -0.047 A 
ATOM      5  C3  UNL d   1       5.356  -1.933  -1.580  0.00  0.00    -0.047 A 
ATOM      6  C4  UNL d   1       4.302  -1.624  -0.747  0.00  0.00    -0.004 A 
ENDROOT
TORSDOF 0
ENDMDL
