MODEL 1
REMARK minimizedAffinity 6.86400223
REMARK minimizedRMSD -1
REMARK  0 active torsions:
REMARK  status: ('A' for Active; 'I' for Inactive)
ROOT
ATOM      1  C   UNL d   1       3.078  -1.496   0.372  0.00  0.00     0.172 C 
ATOM      2  N   UNL d   1       4.117  -2.346  -0.160  0.00  0.00    -0.070 N 
ATOM      3  C1  UNL d   1       5.278  -1.917  -0.746  0.00  0.00    -0.004 A 
ATOM      4  C2  UNL d   1       5.999  -3.031  -1.118  0.00  0.00    -0.047 A 
ATOM      5  C3  UNL d   1       5.246  -4.168  -0.744  0.00  0.00    -0.047 A 
ATOM      6  C4  UNL d   1       4.085  -3.715  -0.153  0.00  0.00    -0.004 A 
ENDROOT
TORSDOF 0
ENDMDL
