MODEL 1
REMARK minimizedAffinity -0.729534328
REMARK minimizedRMSD -1
REMARK  1 active torsions:
REMARK  status: ('A' for Active; 'I' for Inactive)
REMARK    1  A    between atoms: C3_4  and  O_7 
ROOT
ATOM      1  C   UNL d   1      -4.767  -4.789  -5.986  0.00  0.00    -0.033 A 
ATOM      2  C1  UNL d   1      -5.921  -4.003  -5.990  0.00  0.00     0.039 A 
ATOM      3  C2  UNL d   1      -5.818  -2.611  -5.996  0.00  0.00    -0.080 A 
ATOM      4  C3  UNL d   1      -4.559  -2.018  -5.999  0.00  0.00     0.150 A 
ATOM      5  C4  UNL d   1      -3.405  -2.795  -5.999  0.00  0.00    -0.007 A 
ATOM      6  C5  UNL d   1      -3.509  -4.186  -5.992  0.00  0.00     0.039 A 
ENDROOT
BRANCH   4   7
ATOM      7  O   UNL d   1      -4.409  -0.663  -5.999  0.00  0.00    -0.526 OA
ATOM      8  H5  UNL d   1      -5.290  -0.256  -5.970  0.00  0.00     0.418 HD
ENDBRANCH   4   7
TORSDOF 1
ENDMDL
