MODEL 1
REMARK minimizedAffinity -2.36918664
REMARK minimizedRMSD -1
REMARK  1 active torsions:
REMARK  status: ('A' for Active; 'I' for Inactive)
REMARK    1  A    between atoms: C3_4  and  O_7 
ROOT
ATOM      1  C   UNL d   1      -1.811   2.064  -5.997  0.00  0.00    -0.033 A 
ATOM      2  C1  UNL d   1      -3.026   1.376  -5.978  0.00  0.00     0.039 A 
ATOM      3  C2  UNL d   1      -4.230   2.083  -5.956  0.00  0.00    -0.080 A 
ATOM      4  C3  UNL d   1      -4.205   3.475  -5.956  0.00  0.00     0.150 A 
ATOM      5  C4  UNL d   1      -2.998   4.167  -5.979  0.00  0.00    -0.007 A 
ATOM      6  C5  UNL d   1      -1.797   3.459  -5.999  0.00  0.00     0.039 A 
ENDROOT
BRANCH   4   7
ATOM      7  O   UNL d   1      -5.354   4.208  -5.931  0.00  0.00    -0.526 OA
ATOM      8  H5  UNL d   1      -6.108   3.597  -5.887  0.00  0.00     0.418 HD
ENDBRANCH   4   7
TORSDOF 1
ENDMDL
