MODEL 1
REMARK minimizedAffinity -0.877914369
REMARK minimizedRMSD -1
REMARK  1 active torsions:
REMARK  status: ('A' for Active; 'I' for Inactive)
REMARK    1  A    between atoms: C3_4  and  O_7 
ROOT
ATOM      1  C   UNL d   1      -3.825   0.491  -5.996  0.00  0.00    -0.033 A 
ATOM      2  C1  UNL d   1      -2.481   0.867  -5.988  0.00  0.00     0.039 A 
ATOM      3  C2  UNL d   1      -2.133   2.219  -5.988  0.00  0.00    -0.080 A 
ATOM      4  C3  UNL d   1      -3.137   3.183  -5.994  0.00  0.00     0.150 A 
ATOM      5  C4  UNL d   1      -4.479   2.815  -5.998  0.00  0.00    -0.007 A 
ATOM      6  C5  UNL d   1      -4.824   1.465  -6.000  0.00  0.00     0.039 A 
ENDROOT
BRANCH   4   7
ATOM      7  O   UNL d   1      -2.847   4.515  -5.999  0.00  0.00    -0.526 OA
ATOM      8  H5  UNL d   1      -1.881   4.619  -6.024  0.00  0.00     0.418 HD
ENDBRANCH   4   7
TORSDOF 1
ENDMDL
