MODEL 1
REMARK minimizedAffinity -0.137007862
REMARK minimizedRMSD -1
REMARK  1 active torsions:
REMARK  status: ('A' for Active; 'I' for Inactive)
REMARK    1  A    between atoms: C3_4  and  O_7 
ROOT
ATOM      1  C   UNL d   1      -1.759   2.021  -5.965  0.00  0.00    -0.033 A 
ATOM      2  C1  UNL d   1      -1.882   3.411  -5.988  0.00  0.00     0.039 A 
ATOM      3  C2  UNL d   1      -3.147   4.003  -5.999  0.00  0.00    -0.080 A 
ATOM      4  C3  UNL d   1      -4.279   3.193  -5.985  0.00  0.00     0.150 A 
ATOM      5  C4  UNL d   1      -4.165   1.807  -5.958  0.00  0.00    -0.007 A 
ATOM      6  C5  UNL d   1      -2.901   1.219  -5.948  0.00  0.00     0.039 A 
ENDROOT
BRANCH   4   7
ATOM      7  O   UNL d   1      -5.535   3.724  -6.000  0.00  0.00    -0.526 OA
ATOM      8  H5  UNL d   1      -5.459   4.692  -6.048  0.00  0.00     0.418 HD
ENDBRANCH   4   7
TORSDOF 1
ENDMDL
