MODEL 1
REMARK minimizedAffinity 4.47986984
REMARK minimizedRMSD -1
REMARK  1 active torsions:
REMARK  status: ('A' for Active; 'I' for Inactive)
REMARK    1  A    between atoms: C3_4  and  O_7 
ROOT
ATOM      1  C   UNL d   1       1.466   0.440   0.061  0.00  0.00    -0.033 A 
ATOM      2  C1  UNL d   1       0.971  -0.768  -0.435  0.00  0.00     0.039 A 
ATOM      3  C2  UNL d   1       0.651  -0.890  -1.788  0.00  0.00    -0.080 A 
ATOM      4  C3  UNL d   1       0.831   0.200  -2.634  0.00  0.00     0.150 A 
ATOM      5  C4  UNL d   1       1.328   1.405  -2.148  0.00  0.00    -0.007 A 
ATOM      6  C5  UNL d   1       1.646   1.526  -0.796  0.00  0.00     0.039 A 
ENDROOT
BRANCH   4   7
ATOM      7  O   UNL d   1       0.528   0.130  -3.962  0.00  0.00    -0.526 OA
ATOM      8  H5  UNL d   1       0.169  -0.753  -4.149  0.00  0.00     0.418 HD
ENDBRANCH   4   7
TORSDOF 1
ENDMDL
