MODEL 1
REMARK minimizedAffinity -0.308086187
REMARK minimizedRMSD -1
REMARK  1 active torsions:
REMARK  status: ('A' for Active; 'I' for Inactive)
REMARK    1  A    between atoms: C3_4  and  O_7 
ROOT
ATOM      1  C   UNL d   1      -5.828   3.197  -5.994  0.00  0.00    -0.033 A 
ATOM      2  C1  UNL d   1      -4.770   4.108  -5.998  0.00  0.00     0.039 A 
ATOM      3  C2  UNL d   1      -3.452   3.649  -6.000  0.00  0.00    -0.080 A 
ATOM      4  C3  UNL d   1      -3.205   2.279  -5.999  0.00  0.00     0.150 A 
ATOM      5  C4  UNL d   1      -4.254   1.366  -6.000  0.00  0.00    -0.007 A 
ATOM      6  C5  UNL d   1      -5.570   1.826  -5.997  0.00  0.00     0.039 A 
ENDROOT
BRANCH   4   7
ATOM      7  O   UNL d   1      -1.935   1.784  -5.996  0.00  0.00    -0.526 OA
ATOM      8  H5  UNL d   1      -1.313   2.530  -5.967  0.00  0.00     0.418 HD
ENDBRANCH   4   7
TORSDOF 1
ENDMDL
