MODEL 1
REMARK minimizedAffinity -2.77058792
REMARK minimizedRMSD -1
REMARK  1 active torsions:
REMARK  status: ('A' for Active; 'I' for Inactive)
REMARK    1  A    between atoms: C3_4  and  O_7 
ROOT
ATOM      1  C   UNL d   1      -3.802   1.875  -5.996  0.00  0.00    -0.033 A 
ATOM      2  C1  UNL d   1      -2.651   2.666  -5.999  0.00  0.00     0.039 A 
ATOM      3  C2  UNL d   1      -2.759   4.058  -5.992  0.00  0.00    -0.080 A 
ATOM      4  C3  UNL d   1      -4.021   4.645  -5.980  0.00  0.00     0.150 A 
ATOM      5  C4  UNL d   1      -5.171   3.863  -5.972  0.00  0.00    -0.007 A 
ATOM      6  C5  UNL d   1      -5.062   2.473  -5.981  0.00  0.00     0.039 A 
ENDROOT
BRANCH   4   7
ATOM      7  O   UNL d   1      -4.177   6.000  -5.977  0.00  0.00    -0.526 OA
ATOM      8  H5  UNL d   1      -3.297   6.411  -6.013  0.00  0.00     0.418 HD
ENDBRANCH   4   7
TORSDOF 1
ENDMDL
