MODEL 1
REMARK minimizedAffinity 1.27931821
REMARK minimizedRMSD -1
REMARK  1 active torsions:
REMARK  status: ('A' for Active; 'I' for Inactive)
REMARK    1  A    between atoms: C3_4  and  O_7 
ROOT
ATOM      1  C   UNL d   1      -2.992   0.065  -5.990  0.00  0.00    -0.033 A 
ATOM      2  C1  UNL d   1      -4.382   0.196  -6.000  0.00  0.00     0.039 A 
ATOM      3  C2  UNL d   1      -4.966   1.464  -5.979  0.00  0.00    -0.080 A 
ATOM      4  C3  UNL d   1      -4.150   2.592  -5.949  0.00  0.00     0.150 A 
ATOM      5  C4  UNL d   1      -2.764   2.469  -5.943  0.00  0.00    -0.007 A 
ATOM      6  C5  UNL d   1      -2.183   1.202  -5.962  0.00  0.00     0.039 A 
ENDROOT
BRANCH   4   7
ATOM      7  O   UNL d   1      -4.674   3.850  -5.923  0.00  0.00    -0.526 OA
ATOM      8  H5  UNL d   1      -5.643   3.780  -5.902  0.00  0.00     0.418 HD
ENDBRANCH   4   7
TORSDOF 1
ENDMDL
