MODEL 1
REMARK minimizedAffinity -2.20360208
REMARK minimizedRMSD -1
REMARK  1 active torsions:
REMARK  status: ('A' for Active; 'I' for Inactive)
REMARK    1  A    between atoms: C3_4  and  O_7 
ROOT
ATOM      1  C   UNL d   1      -5.977  -2.960  -5.993  0.00  0.00    -0.033 A 
ATOM      2  C1  UNL d   1      -4.808  -2.198  -5.996  0.00  0.00     0.039 A 
ATOM      3  C2  UNL d   1      -3.562  -2.828  -5.999  0.00  0.00    -0.080 A 
ATOM      4  C3  UNL d   1      -3.499  -4.218  -5.999  0.00  0.00     0.150 A 
ATOM      5  C4  UNL d   1      -4.660  -4.984  -6.000  0.00  0.00    -0.007 A 
ATOM      6  C5  UNL d   1      -5.903  -4.353  -5.997  0.00  0.00     0.039 A 
ENDROOT
BRANCH   4   7
ATOM      7  O   UNL d   1      -2.306  -4.878  -5.997  0.00  0.00    -0.526 OA
ATOM      8  H5  UNL d   1      -1.591  -4.220  -5.967  0.00  0.00     0.418 HD
ENDBRANCH   4   7
TORSDOF 1
ENDMDL
