MODEL 1
REMARK minimizedAffinity -2.90358329
REMARK minimizedRMSD -1
REMARK  1 active torsions:
REMARK  status: ('A' for Active; 'I' for Inactive)
REMARK    1  A    between atoms: C3_4  and  O_7 
ROOT
ATOM      1  C   UNL d   1      -2.704   1.194  -5.962  0.00  0.00    -0.033 A 
ATOM      2  C1  UNL d   1      -2.509   2.576  -5.943  0.00  0.00     0.039 A 
ATOM      3  C2  UNL d   1      -3.607   3.439  -5.954  0.00  0.00    -0.080 A 
ATOM      4  C3  UNL d   1      -4.893   2.907  -5.983  0.00  0.00     0.150 A 
ATOM      5  C4  UNL d   1      -5.095   1.531  -5.999  0.00  0.00    -0.007 A 
ATOM      6  C5  UNL d   1      -3.997   0.671  -5.989  0.00  0.00     0.039 A 
ENDROOT
BRANCH   4   7
ATOM      7  O   UNL d   1      -5.996   3.708  -6.000  0.00  0.00    -0.526 OA
ATOM      8  H5  UNL d   1      -5.702   4.635  -6.015  0.00  0.00     0.418 HD
ENDBRANCH   4   7
TORSDOF 1
ENDMDL
