MODEL 1
REMARK minimizedAffinity 3.77893519
REMARK minimizedRMSD -1
REMARK  1 active torsions:
REMARK  status: ('A' for Active; 'I' for Inactive)
REMARK    1  A    between atoms: C3_4  and  O_7 
ROOT
ATOM      1  C   UNL d   1      -4.941  -2.416  -5.980  0.00  0.00    -0.033 A 
ATOM      2  C1  UNL d   1      -5.624  -3.633  -5.996  0.00  0.00     0.039 A 
ATOM      3  C2  UNL d   1      -4.913  -4.835  -5.997  0.00  0.00    -0.080 A 
ATOM      4  C3  UNL d   1      -3.522  -4.806  -5.981  0.00  0.00     0.150 A 
ATOM      5  C4  UNL d   1      -2.834  -3.597  -5.960  0.00  0.00    -0.007 A 
ATOM      6  C5  UNL d   1      -3.546  -2.398  -5.960  0.00  0.00     0.039 A 
ENDROOT
BRANCH   4   7
ATOM      7  O   UNL d   1      -2.785  -5.953  -5.986  0.00  0.00    -0.526 OA
ATOM      8  H5  UNL d   1      -3.393  -6.709  -6.030  0.00  0.00     0.418 HD
ENDBRANCH   4   7
TORSDOF 1
ENDMDL
