MODEL 1
REMARK minimizedAffinity 2.52756786
REMARK minimizedRMSD -1
REMARK  1 active torsions:
REMARK  status: ('A' for Active; 'I' for Inactive)
REMARK    1  A    between atoms: C3_4  and  O_7 
ROOT
ATOM      1  C   UNL d   1      -4.846   4.632  -6.000  0.00  0.00    -0.033 A 
ATOM      2  C1  UNL d   1      -3.453   4.723  -5.995  0.00  0.00     0.039 A 
ATOM      3  C2  UNL d   1      -2.675   3.563  -5.985  0.00  0.00    -0.080 A 
ATOM      4  C3  UNL d   1      -3.302   2.321  -5.982  0.00  0.00     0.150 A 
ATOM      5  C4  UNL d   1      -4.690   2.222  -5.991  0.00  0.00    -0.007 A 
ATOM      6  C5  UNL d   1      -5.464   3.381  -6.000  0.00  0.00     0.039 A 
ENDROOT
BRANCH   4   7
ATOM      7  O   UNL d   1      -2.586   1.161  -5.968  0.00  0.00    -0.526 OA
ATOM      8  H5  UNL d   1      -1.640   1.384  -5.933  0.00  0.00     0.418 HD
ENDBRANCH   4   7
TORSDOF 1
ENDMDL
