MODEL 1
REMARK minimizedAffinity -2.09626532
REMARK minimizedRMSD -1
REMARK  1 active torsions:
REMARK  status: ('A' for Active; 'I' for Inactive)
REMARK    1  A    between atoms: C3_4  and  O_7 
ROOT
ATOM      1  C   UNL d   1      -4.576   0.947  -5.999  0.00  0.00    -0.033 A 
ATOM      2  C1  UNL d   1      -3.182   0.873  -6.000  0.00  0.00     0.039 A 
ATOM      3  C2  UNL d   1      -2.419   2.043  -5.993  0.00  0.00    -0.080 A 
ATOM      4  C3  UNL d   1      -3.062   3.278  -5.985  0.00  0.00     0.150 A 
ATOM      5  C4  UNL d   1      -4.451   3.358  -5.980  0.00  0.00    -0.007 A 
ATOM      6  C5  UNL d   1      -5.210   2.189  -5.987  0.00  0.00     0.039 A 
ENDROOT
BRANCH   4   7
ATOM      7  O   UNL d   1      -2.360   4.446  -5.983  0.00  0.00    -0.526 OA
ATOM      8  H5  UNL d   1      -1.412   4.236  -6.016  0.00  0.00     0.418 HD
ENDBRANCH   4   7
TORSDOF 1
ENDMDL
