MODEL 1
REMARK minimizedAffinity -2.76520872
REMARK minimizedRMSD -1
REMARK  1 active torsions:
REMARK  status: ('A' for Active; 'I' for Inactive)
REMARK    1  A    between atoms: C3_4  and  O_7 
ROOT
ATOM      1  C   UNL d   1      -3.373   3.002  -5.471  0.00  0.00    -0.033 A 
ATOM      2  C1  UNL d   1      -4.708   2.643  -5.274  0.00  0.00     0.039 A 
ATOM      3  C2  UNL d   1      -5.108   1.316  -5.442  0.00  0.00    -0.080 A 
ATOM      4  C3  UNL d   1      -4.164   0.359  -5.805  0.00  0.00     0.150 A 
ATOM      5  C4  UNL d   1      -2.832   0.709  -6.000  0.00  0.00    -0.007 A 
ATOM      6  C5  UNL d   1      -2.435   2.035  -5.833  0.00  0.00     0.039 A 
ENDROOT
BRANCH   4   7
ATOM      7  O   UNL d   1      -4.508  -0.948  -5.986  0.00  0.00    -0.526 OA
ATOM      8  H5  UNL d   1      -5.466  -1.036  -5.845  0.00  0.00     0.418 HD
ENDBRANCH   4   7
TORSDOF 1
ENDMDL
