MODEL 1
REMARK minimizedAffinity -0.948376536
REMARK minimizedRMSD -1
REMARK  1 active torsions:
REMARK  status: ('A' for Active; 'I' for Inactive)
REMARK    1  A    between atoms: C3_4  and  O_7 
ROOT
ATOM      1  C   UNL d   1      -1.893   2.491  -5.996  0.00  0.00    -0.033 A 
ATOM      2  C1  UNL d   1      -2.855   1.480  -5.995  0.00  0.00     0.039 A 
ATOM      3  C2  UNL d   1      -4.213   1.806  -5.994  0.00  0.00    -0.080 A 
ATOM      4  C3  UNL d   1      -4.594   3.144  -5.995  0.00  0.00     0.150 A 
ATOM      5  C4  UNL d   1      -3.641   4.157  -6.000  0.00  0.00    -0.007 A 
ATOM      6  C5  UNL d   1      -2.285   3.830  -6.000  0.00  0.00     0.039 A 
ENDROOT
BRANCH   4   7
ATOM      7  O   UNL d   1      -5.907   3.511  -5.989  0.00  0.00    -0.526 OA
ATOM      8  H5  UNL d   1      -6.451   2.707  -5.957  0.00  0.00     0.418 HD
ENDBRANCH   4   7
TORSDOF 1
ENDMDL
