MODEL 1
REMARK minimizedAffinity -1.02436411
REMARK minimizedRMSD -1
REMARK  1 active torsions:
REMARK  status: ('A' for Active; 'I' for Inactive)
REMARK    1  A    between atoms: C3_4  and  O_7 
ROOT
ATOM      1  C   UNL d   1      -2.720   1.266  -5.998  0.00  0.00    -0.033 A 
ATOM      2  C1  UNL d   1      -2.079   0.025  -6.000  0.00  0.00     0.039 A 
ATOM      3  C2  UNL d   1      -2.831  -1.151  -5.999  0.00  0.00    -0.080 A 
ATOM      4  C3  UNL d   1      -4.221  -1.073  -5.997  0.00  0.00     0.150 A 
ATOM      5  C4  UNL d   1      -4.866   0.159  -6.000  0.00  0.00    -0.007 A 
ATOM      6  C5  UNL d   1      -4.114   1.332  -6.000  0.00  0.00     0.039 A 
ENDROOT
BRANCH   4   7
ATOM      7  O   UNL d   1      -4.998  -2.194  -5.991  0.00  0.00    -0.526 OA
ATOM      8  H5  UNL d   1      -4.415  -2.972  -5.961  0.00  0.00     0.418 HD
ENDBRANCH   4   7
TORSDOF 1
ENDMDL
