MODEL 1
REMARK minimizedAffinity 17.4405613
REMARK minimizedRMSD -1
REMARK  0 active torsions:
REMARK  status: ('A' for Active; 'I' for Inactive)
ROOT
ATOM      1  C1  DEN d   1       0.915  -1.900   1.144  0.00  0.00     0.130 A 
ATOM      2  C2  DEN d   1       1.657  -0.644   1.073  0.00  0.00    -0.031 A 
ATOM      3  C3  DEN d   1       1.244   0.195   2.216  0.00  0.00     0.027 A 
ATOM      4  C4  DEN d   1      -0.458  -0.327   4.081  0.00  0.00     0.027 A 
ATOM      5  C5  DEN d   1      -1.350  -1.263   4.558  0.00  0.00    -0.003 A 
ATOM      6  C6  DEN d   1      -1.572  -2.453   3.917  0.00  0.00     0.001 A 
ATOM      7  C7  DEN d   1      -0.861  -2.757   2.786  0.00  0.00     0.017 A 
ATOM      8  C8  DEN d   1       0.034  -1.816   2.295  0.00  0.00    -0.094 A 
ATOM      9  C9  DEN d   1       0.254  -0.624   2.965  0.00  0.00    -0.072 A 
ENDROOT
TORSDOF 0
ENDMDL
