MODEL 1
REMARK minimizedAffinity 18.538187
REMARK minimizedRMSD -1
REMARK  0 active torsions:
REMARK  status: ('A' for Active; 'I' for Inactive)
ROOT
ATOM      1  C1  DEN d   1       1.922   5.123  -0.015  0.00  0.00     0.130 A 
ATOM      2  C2  DEN d   1       0.998   5.999   0.700  0.00  0.00    -0.031 A 
ATOM      3  C3  DEN d   1      -0.366   5.460   0.531  0.00  0.00     0.027 A 
ATOM      4  C4  DEN d   1      -1.133   3.360  -0.757  0.00  0.00     0.027 A 
ATOM      5  C5  DEN d   1      -0.711   2.304  -1.534  0.00  0.00    -0.003 A 
ATOM      6  C6  DEN d   1       0.602   2.134  -1.885  0.00  0.00     0.001 A 
ATOM      7  C7  DEN d   1       1.547   3.009  -1.420  0.00  0.00     0.017 A 
ATOM      8  C8  DEN d   1       1.129   4.081  -0.642  0.00  0.00    -0.094 A 
ATOM      9  C9  DEN d   1      -0.201   4.229  -0.288  0.00  0.00    -0.072 A 
ENDROOT
TORSDOF 0
ENDMDL
