MODEL 1
REMARK minimizedAffinity 13.8957701
REMARK minimizedRMSD -1
REMARK  0 active torsions:
REMARK  status: ('A' for Active; 'I' for Inactive)
ROOT
ATOM      1  C1  DEN d   1       0.250  -1.441   2.030  0.00  0.00     0.130 A 
ATOM      2  C2  DEN d   1       1.488  -0.695   1.827  0.00  0.00    -0.031 A 
ATOM      3  C3  DEN d   1       1.827  -0.020   3.096  0.00  0.00     0.027 A 
ATOM      4  C4  DEN d   1       0.564  -0.062   5.345  0.00  0.00     0.027 A 
ATOM      5  C5  DEN d   1      -0.545  -0.549   6.000  0.00  0.00    -0.003 A 
ATOM      6  C6  DEN d   1      -1.478  -1.333   5.374  0.00  0.00     0.001 A 
ATOM      7  C7  DEN d   1      -1.294  -1.691   4.064  0.00  0.00     0.017 A 
ATOM      8  C8  DEN d   1      -0.182  -1.198   3.395  0.00  0.00    -0.094 A 
ATOM      9  C9  DEN d   1       0.756  -0.417   4.049  0.00  0.00    -0.072 A 
ENDROOT
TORSDOF 0
ENDMDL
