MODEL 1
REMARK minimizedAffinity 3.94142652
REMARK minimizedRMSD -1
REMARK  0 active torsions:
REMARK  status: ('A' for Active; 'I' for Inactive)
ROOT
ATOM      1  C1  DEN d   1       0.711  -2.012   1.607  0.00  0.00     0.130 A 
ATOM      2  C2  DEN d   1       1.686  -0.929   1.506  0.00  0.00    -0.031 A 
ATOM      3  C3  DEN d   1       1.704  -0.209   2.796  0.00  0.00     0.027 A 
ATOM      4  C4  DEN d   1       0.328  -0.668   4.928  0.00  0.00     0.027 A 
ATOM      5  C5  DEN d   1      -0.638  -1.474   5.489  0.00  0.00    -0.003 A 
ATOM      6  C6  DEN d   1      -1.242  -2.485   4.790  0.00  0.00     0.001 A 
ATOM      7  C7  DEN d   1      -0.853  -2.747   3.503  0.00  0.00     0.017 A 
ATOM      8  C8  DEN d   1       0.116  -1.934   2.928  0.00  0.00    -0.094 A 
ATOM      9  C9  DEN d   1       0.722  -0.924   3.656  0.00  0.00    -0.072 A 
ENDROOT
TORSDOF 0
ENDMDL
