MODEL 1
REMARK minimizedAffinity 13.6387901
REMARK minimizedRMSD -1
REMARK  0 active torsions:
REMARK  status: ('A' for Active; 'I' for Inactive)
ROOT
ATOM      1  C1  DEN d   1       4.246  -1.188   0.245  0.00  0.00     0.130 A 
ATOM      2  C2  DEN d   1       4.135   0.268   0.254  0.00  0.00    -0.031 A 
ATOM      3  C3  DEN d   1       2.822   0.622   0.830  0.00  0.00     0.027 A 
ATOM      4  C4  DEN d   1       0.963  -0.935   1.709  0.00  0.00     0.027 A 
ATOM      5  C5  DEN d   1       0.595  -2.249   1.899  0.00  0.00    -0.003 A 
ATOM      6  C6  DEN d   1       1.397  -3.293   1.522  0.00  0.00     0.001 A 
ATOM      7  C7  DEN d   1       2.629  -3.041   0.978  0.00  0.00     0.017 A 
ATOM      8  C8  DEN d   1       3.003  -1.719   0.777  0.00  0.00    -0.094 A 
ATOM      9  C9  DEN d   1       2.183  -0.677   1.175  0.00  0.00    -0.072 A 
ENDROOT
TORSDOF 0
ENDMDL
