MODEL 1
REMARK minimizedAffinity 15.7166615
REMARK minimizedRMSD -1
REMARK  0 active torsions:
REMARK  status: ('A' for Active; 'I' for Inactive)
ROOT
ATOM      1  C1  DEN d   1       1.573  -0.223   2.383  0.00  0.00     0.130 A 
ATOM      2  C2  DEN d   1       0.239  -0.625   2.820  0.00  0.00    -0.031 A 
ATOM      3  C3  DEN d   1      -0.055  -1.948   2.232  0.00  0.00     0.027 A 
ATOM      4  C4  DEN d   1       1.421  -3.405   0.699  0.00  0.00     0.027 A 
ATOM      5  C5  DEN d   1       2.631  -3.479   0.045  0.00  0.00    -0.003 A 
ATOM      6  C6  DEN d   1       3.552  -2.466   0.097  0.00  0.00     0.001 A 
ATOM      7  C7  DEN d   1       3.295  -1.354   0.854  0.00  0.00     0.017 A 
ATOM      8  C8  DEN d   1       2.074  -1.269   1.510  0.00  0.00    -0.094 A 
ATOM      9  C9  DEN d   1       1.162  -2.309   1.456  0.00  0.00    -0.072 A 
ENDROOT
TORSDOF 0
ENDMDL
