MODEL 1
REMARK minimizedAffinity 14.3648062
REMARK minimizedRMSD -1
REMARK  0 active torsions:
REMARK  status: ('A' for Active; 'I' for Inactive)
ROOT
ATOM      1  C1  DEN d   1      -0.176   2.723  -0.261  0.00  0.00     0.130 A 
ATOM      2  C2  DEN d   1       0.743   2.684  -1.396  0.00  0.00    -0.031 A 
ATOM      3  C3  DEN d   1      -0.062   2.623  -2.633  0.00  0.00     0.027 A 
ATOM      4  C4  DEN d   1      -2.627   2.592  -2.900  0.00  0.00     0.027 A 
ATOM      5  C5  DEN d   1      -3.826   2.599  -2.222  0.00  0.00    -0.003 A 
ATOM      6  C6  DEN d   1      -3.892   2.613  -0.854  0.00  0.00     0.001 A 
ATOM      7  C7  DEN d   1      -2.737   2.666  -0.120  0.00  0.00     0.017 A 
ATOM      8  C8  DEN d   1      -1.524   2.653  -0.795  0.00  0.00    -0.094 A 
ATOM      9  C9  DEN d   1      -1.478   2.651  -2.179  0.00  0.00    -0.072 A 
ENDROOT
TORSDOF 0
ENDMDL
