MODEL 1
REMARK minimizedAffinity 8.09778786
REMARK minimizedRMSD -1
REMARK  0 active torsions:
REMARK  status: ('A' for Active; 'I' for Inactive)
ROOT
ATOM      1  C1  DEN d   1       1.481  -2.419   1.397  0.00  0.00     0.130 A 
ATOM      2  C2  DEN d   1       0.622  -1.408   2.007  0.00  0.00    -0.031 A 
ATOM      3  C3  DEN d   1       1.216  -0.083   1.738  0.00  0.00     0.027 A 
ATOM      4  C4  DEN d   1       3.367   0.498   0.440  0.00  0.00     0.027 A 
ATOM      5  C5  DEN d   1       4.437  -0.026  -0.252  0.00  0.00    -0.003 A 
ATOM      6  C6  DEN d   1       4.613  -1.375  -0.412  0.00  0.00     0.001 A 
ATOM      7  C7  DEN d   1       3.681  -2.245   0.088  0.00  0.00     0.017 A 
ATOM      8  C8  DEN d   1       2.604  -1.725   0.793  0.00  0.00    -0.094 A 
ATOM      9  C9  DEN d   1       2.437  -0.357   0.934  0.00  0.00    -0.072 A 
ENDROOT
TORSDOF 0
ENDMDL
