MODEL 1
REMARK minimizedAffinity 14.2002306
REMARK minimizedRMSD -1
REMARK  0 active torsions:
REMARK  status: ('A' for Active; 'I' for Inactive)
ROOT
ATOM      1  C1  DEN d   1      -2.608  -5.997   0.694  0.00  0.00     0.130 A 
ATOM      2  C2  DEN d   1      -3.539  -5.996  -0.432  0.00  0.00    -0.031 A 
ATOM      3  C3  DEN d   1      -4.419  -4.819  -0.296  0.00  0.00     0.027 A 
ATOM      4  C4  DEN d   1      -4.429  -3.003   1.536  0.00  0.00     0.027 A 
ATOM      5  C5  DEN d   1      -3.833  -2.585   2.705  0.00  0.00    -0.003 A 
ATOM      6  C6  DEN d   1      -2.818  -3.287   3.299  0.00  0.00     0.001 A 
ATOM      7  C7  DEN d   1      -2.337  -4.422   2.701  0.00  0.00     0.017 A 
ATOM      8  C8  DEN d   1      -2.938  -4.854   1.526  0.00  0.00    -0.094 A 
ATOM      9  C9  DEN d   1      -3.955  -4.124   0.935  0.00  0.00    -0.072 A 
ENDROOT
TORSDOF 0
ENDMDL
