MODEL 1
REMARK minimizedAffinity 11.4108944
REMARK minimizedRMSD -1
REMARK  0 active torsions:
REMARK  status: ('A' for Active; 'I' for Inactive)
ROOT
ATOM      1  C1  DEN d   1       6.000  -3.941  -4.744  0.00  0.00     0.130 A 
ATOM      2  C2  DEN d   1       5.268  -3.802  -6.000  0.00  0.00    -0.031 A 
ATOM      3  C3  DEN d   1       4.405  -2.609  -5.896  0.00  0.00     0.027 A 
ATOM      4  C4  DEN d   1       4.134  -0.969  -3.924  0.00  0.00     0.027 A 
ATOM      5  C5  DEN d   1       4.538  -0.682  -2.639  0.00  0.00    -0.003 A 
ATOM      6  C6  DEN d   1       5.425  -1.473  -1.959  0.00  0.00     0.001 A 
ATOM      7  C7  DEN d   1       5.971  -2.567  -2.577  0.00  0.00     0.017 A 
ATOM      8  C8  DEN d   1       5.563  -2.867  -3.870  0.00  0.00    -0.094 A 
ATOM      9  C9  DEN d   1       4.675  -2.047  -4.545  0.00  0.00    -0.072 A 
ENDROOT
TORSDOF 0
ENDMDL
