MODEL 1
REMARK minimizedAffinity 19.0165253
REMARK minimizedRMSD -1
REMARK  0 active torsions:
REMARK  status: ('A' for Active; 'I' for Inactive)
ROOT
ATOM      1  C1  DEN d   1       0.590   4.612  -1.054  0.00  0.00     0.130 A 
ATOM      2  C2  DEN d   1       0.834   3.450  -0.205  0.00  0.00    -0.031 A 
ATOM      3  C3  DEN d   1       0.001   2.337  -0.703  0.00  0.00     0.027 A 
ATOM      4  C4  DEN d   1      -1.633   2.301  -2.698  0.00  0.00     0.027 A 
ATOM      5  C5  DEN d   1      -2.184   3.053  -3.712  0.00  0.00    -0.003 A 
ATOM      6  C6  DEN d   1      -1.878   4.377  -3.888  0.00  0.00     0.001 A 
ATOM      7  C7  DEN d   1      -0.961   4.977  -3.065  0.00  0.00     0.017 A 
ATOM      8  C8  DEN d   1      -0.407   4.226  -2.037  0.00  0.00    -0.094 A 
ATOM      9  C9  DEN d   1      -0.720   2.887  -1.883  0.00  0.00    -0.072 A 
ENDROOT
TORSDOF 0
ENDMDL
