MODEL 1
REMARK minimizedAffinity 1.87205982
REMARK minimizedRMSD -1
REMARK  0 active torsions:
REMARK  status: ('A' for Active; 'I' for Inactive)
ROOT
ATOM      1  C   UNL d   1       3.813   0.462   4.308  0.00  0.00     0.172 C 
ATOM      2  N   UNL d   1       3.376   0.537   2.933  0.00  0.00    -0.070 N 
ATOM      3  C1  UNL d   1       2.134   0.929   2.511  0.00  0.00    -0.004 A 
ATOM      4  C2  UNL d   1       2.117   0.865   1.135  0.00  0.00    -0.047 A 
ATOM      5  C3  UNL d   1       3.392   0.418   0.715  0.00  0.00    -0.047 A 
ATOM      6  C4  UNL d   1       4.152   0.222   1.849  0.00  0.00    -0.004 A 
ENDROOT
TORSDOF 0
ENDMDL
