MODEL 1
REMARK minimizedAffinity 0.594353557
REMARK minimizedRMSD -1
REMARK  0 active torsions:
REMARK  status: ('A' for Active; 'I' for Inactive)
ROOT
ATOM      1  C   UNL d   1      -6.000   0.005   5.959  0.00  0.00     0.172 C 
ATOM      2  N   UNL d   1      -5.223   0.719   4.974  0.00  0.00    -0.070 N 
ATOM      3  C1  UNL d   1      -4.713   0.186   3.820  0.00  0.00    -0.004 A 
ATOM      4  C2  UNL d   1      -4.038   1.187   3.155  0.00  0.00    -0.047 A 
ATOM      5  C3  UNL d   1      -4.146   2.362   3.937  0.00  0.00    -0.047 A 
ATOM      6  C4  UNL d   1      -4.884   2.044   5.057  0.00  0.00    -0.004 A 
ENDROOT
TORSDOF 0
ENDMDL
