MODEL 1
REMARK minimizedAffinity -1.05336535
REMARK minimizedRMSD -1
REMARK  0 active torsions:
REMARK  status: ('A' for Active; 'I' for Inactive)
ROOT
ATOM      1  C   UNL d   1      -1.689   6.000  -0.803  0.00  0.00     0.172 C 
ATOM      2  N   UNL d   1      -2.618   6.000  -1.909  0.00  0.00    -0.070 N 
ATOM      3  C1  UNL d   1      -3.983   5.999  -1.805  0.00  0.00    -0.004 A 
ATOM      4  C2  UNL d   1      -4.503   6.000  -3.081  0.00  0.00    -0.047 A 
ATOM      5  C3  UNL d   1      -3.413   5.999  -3.983  0.00  0.00    -0.047 A 
ATOM      6  C4  UNL d   1      -2.257   5.999  -3.231  0.00  0.00    -0.004 A 
ENDROOT
TORSDOF 0
ENDMDL
