MODEL 1
REMARK minimizedAffinity -0.129873529
REMARK minimizedRMSD -1
REMARK  0 active torsions:
REMARK  status: ('A' for Active; 'I' for Inactive)
ROOT
ATOM      1  C   UNL d   1      -1.926   0.775   3.029  0.00  0.00     0.172 C 
ATOM      2  N   UNL d   1      -0.911   0.529   2.032  0.00  0.00    -0.070 N 
ATOM      3  C1  UNL d   1       0.059   1.415   1.645  0.00  0.00    -0.004 A 
ATOM      4  C2  UNL d   1       0.826   0.804   0.676  0.00  0.00    -0.047 A 
ATOM      5  C3  UNL d   1       0.297  -0.493   0.473  0.00  0.00    -0.047 A 
ATOM      6  C4  UNL d   1      -0.777  -0.637   1.324  0.00  0.00    -0.004 A 
ENDROOT
TORSDOF 0
ENDMDL
