MODEL 1
REMARK minimizedAffinity 3.00267506
REMARK minimizedRMSD -1
REMARK  0 active torsions:
REMARK  status: ('A' for Active; 'I' for Inactive)
ROOT
ATOM      1  C   UNL d   1       1.717   2.993  -0.195  0.00  0.00     0.172 C 
ATOM      2  N   UNL d   1       1.198   1.648  -0.119  0.00  0.00    -0.070 N 
ATOM      3  C1  UNL d   1       1.127   0.760  -1.159  0.00  0.00    -0.004 A 
ATOM      4  C2  UNL d   1       0.574  -0.408  -0.680  0.00  0.00    -0.047 A 
ATOM      5  C3  UNL d   1       0.303  -0.215   0.695  0.00  0.00    -0.047 A 
ATOM      6  C4  UNL d   1       0.699   1.066   1.016  0.00  0.00    -0.004 A 
ENDROOT
TORSDOF 0
ENDMDL
