MODEL 1
REMARK minimizedAffinity -0.801435471
REMARK minimizedRMSD -1
REMARK  0 active torsions:
REMARK  status: ('A' for Active; 'I' for Inactive)
ROOT
ATOM      1  C   UNL d   1       4.170   1.308   1.181  0.00  0.00     0.172 C 
ATOM      2  N   UNL d   1       2.766   1.558   0.951  0.00  0.00    -0.070 N 
ATOM      3  C1  UNL d   1       1.891   0.697   0.344  0.00  0.00    -0.004 A 
ATOM      4  C2  UNL d   1       0.653   1.302   0.318  0.00  0.00    -0.047 A 
ATOM      5  C3  UNL d   1       0.789   2.571   0.930  0.00  0.00    -0.047 A 
ATOM      6  C4  UNL d   1       2.107   2.703   1.313  0.00  0.00    -0.004 A 
ENDROOT
TORSDOF 0
ENDMDL
