MODEL 1
REMARK minimizedAffinity 1.55200815
REMARK minimizedRMSD -1
REMARK  0 active torsions:
REMARK  status: ('A' for Active; 'I' for Inactive)
ROOT
ATOM      1  C   UNL d   1       0.013   1.093   2.892  0.00  0.00     0.172 C 
ATOM      2  N   UNL d   1       0.544   1.437   1.594  0.00  0.00    -0.070 N 
ATOM      3  C1  UNL d   1       0.723   0.571   0.549  0.00  0.00    -0.004 A 
ATOM      4  C2  UNL d   1       1.249   1.285  -0.506  0.00  0.00    -0.047 A 
ATOM      5  C3  UNL d   1       1.392   2.627  -0.079  0.00  0.00    -0.047 A 
ATOM      6  C4  UNL d   1       0.948   2.693   1.224  0.00  0.00    -0.004 A 
ENDROOT
TORSDOF 0
ENDMDL
