MODEL 1
REMARK minimizedAffinity -1.54013813
REMARK minimizedRMSD -1
REMARK  0 active torsions:
REMARK  status: ('A' for Active; 'I' for Inactive)
ROOT
ATOM      1  C   UNL d   1      -0.970   5.974  -4.846  0.00  0.00     0.172 C 
ATOM      2  N   UNL d   1      -2.034   5.982  -3.870  0.00  0.00    -0.070 N 
ATOM      3  C1  UNL d   1      -1.871   5.993  -2.510  0.00  0.00    -0.004 A 
ATOM      4  C2  UNL d   1      -3.123   5.999  -1.935  0.00  0.00    -0.047 A 
ATOM      5  C3  UNL d   1      -4.072   5.990  -2.985  0.00  0.00    -0.047 A 
ATOM      6  C4  UNL d   1      -3.371   5.980  -4.172  0.00  0.00    -0.004 A 
ENDROOT
TORSDOF 0
ENDMDL
