MODEL 1
REMARK minimizedAffinity 1.48006558
REMARK minimizedRMSD -1
REMARK  0 active torsions:
REMARK  status: ('A' for Active; 'I' for Inactive)
ROOT
ATOM      1  C   UNL d   1      -4.525   5.984  -0.061  0.00  0.00     0.172 C 
ATOM      2  N   UNL d   1      -3.761   5.988  -1.286  0.00  0.00    -0.070 N 
ATOM      3  C1  UNL d   1      -4.284   5.996  -2.552  0.00  0.00    -0.004 A 
ATOM      4  C2  UNL d   1      -3.232   5.999  -3.443  0.00  0.00    -0.047 A 
ATOM      5  C3  UNL d   1      -2.036   5.991  -2.686  0.00  0.00    -0.047 A 
ATOM      6  C4  UNL d   1      -2.393   5.985  -1.354  0.00  0.00    -0.004 A 
ENDROOT
TORSDOF 0
ENDMDL
