MODEL 1
REMARK minimizedAffinity -0.804852486
REMARK minimizedRMSD -1
REMARK  0 active torsions:
REMARK  status: ('A' for Active; 'I' for Inactive)
ROOT
ATOM      1  C   UNL d   1       1.080   3.437   1.531  0.00  0.00     0.172 C 
ATOM      2  N   UNL d   1       0.669   2.079   1.262  0.00  0.00    -0.070 N 
ATOM      3  C1  UNL d   1      -0.399   1.440   1.832  0.00  0.00    -0.004 A 
ATOM      4  C2  UNL d   1      -0.453   0.164   1.314  0.00  0.00    -0.047 A 
ATOM      5  C3  UNL d   1       0.620   0.031   0.402  0.00  0.00    -0.047 A 
ATOM      6  C4  UNL d   1       1.299   1.231   0.389  0.00  0.00    -0.004 A 
ENDROOT
TORSDOF 0
ENDMDL
