MODEL 1
REMARK minimizedAffinity 0.603660405
REMARK minimizedRMSD -1
REMARK  0 active torsions:
REMARK  status: ('A' for Active; 'I' for Inactive)
ROOT
ATOM      1  C   UNL d   1      -0.736   5.976  -1.578  0.00  0.00     0.172 C 
ATOM      2  N   UNL d   1      -2.071   5.985  -1.027  0.00  0.00    -0.070 N 
ATOM      3  C1  UNL d   1      -2.385   5.987   0.305  0.00  0.00    -0.004 A 
ATOM      4  C2  UNL d   1      -3.759   5.996   0.416  0.00  0.00    -0.047 A 
ATOM      5  C3  UNL d   1      -4.289   6.000  -0.896  0.00  0.00    -0.047 A 
ATOM      6  C4  UNL d   1      -3.222   5.993  -1.770  0.00  0.00    -0.004 A 
ENDROOT
TORSDOF 0
ENDMDL
