MODEL 1
REMARK minimizedAffinity -2.99029064
REMARK minimizedRMSD -1
REMARK  0 active torsions:
REMARK  status: ('A' for Active; 'I' for Inactive)
ROOT
ATOM      1  C   UNL d   1      -0.210  -1.210   0.484  0.00  0.00     0.172 C 
ATOM      2  N   UNL d   1       0.582  -0.014   0.318  0.00  0.00    -0.070 N 
ATOM      3  C1  UNL d   1       1.923   0.023   0.042  0.00  0.00    -0.004 A 
ATOM      4  C2  UNL d   1       2.300   1.346  -0.040  0.00  0.00    -0.047 A 
ATOM      5  C3  UNL d   1       1.147   2.131   0.196  0.00  0.00    -0.047 A 
ATOM      6  C4  UNL d   1       0.098   1.263   0.414  0.00  0.00    -0.004 A 
ENDROOT
TORSDOF 0
ENDMDL
