MODEL 1
REMARK minimizedAffinity -2.09572577
REMARK minimizedRMSD -1
REMARK  0 active torsions:
REMARK  status: ('A' for Active; 'I' for Inactive)
ROOT
ATOM      1  C   UNL d   1       4.933   4.997  -5.301  0.00  0.00     0.172 C 
ATOM      2  N   UNL d   1       3.523   5.264  -5.133  0.00  0.00    -0.070 N 
ATOM      3  C1  UNL d   1       2.530   4.878  -5.993  0.00  0.00    -0.004 A 
ATOM      4  C2  UNL d   1       1.331   5.322  -5.479  0.00  0.00    -0.047 A 
ATOM      5  C3  UNL d   1       1.614   5.999  -4.269  0.00  0.00    -0.047 A 
ATOM      6  C4  UNL d   1       2.978   5.948  -4.079  0.00  0.00    -0.004 A 
ENDROOT
TORSDOF 0
ENDMDL
