MODEL 1
REMARK minimizedAffinity 0.409392267
REMARK minimizedRMSD -1
REMARK  0 active torsions:
REMARK  status: ('A' for Active; 'I' for Inactive)
ROOT
ATOM      1  C   UNL d   1       2.388   5.649  -5.606  0.00  0.00     0.172 C 
ATOM      2  N   UNL d   1       3.783   5.359  -5.372  0.00  0.00    -0.070 N 
ATOM      3  C1  UNL d   1       4.840   6.000  -5.961  0.00  0.00    -0.004 A 
ATOM      4  C2  UNL d   1       6.000   5.433  -5.477  0.00  0.00    -0.047 A 
ATOM      5  C3  UNL d   1       5.626   4.416  -4.566  0.00  0.00    -0.047 A 
ATOM      6  C4  UNL d   1       4.248   4.392  -4.521  0.00  0.00    -0.004 A 
ENDROOT
TORSDOF 0
ENDMDL
