MODEL 1
REMARK minimizedAffinity -5.12792349
REMARK minimizedRMSD -1
REMARK  1 active torsions:
REMARK  status: ('A' for Active; 'I' for Inactive)
REMARK    1  A    between atoms: N_2  and  C1_3 
ROOT
ATOM      1  C1  UNL d   1      -0.160   0.249   1.090  0.00  0.00     0.143 A 
ATOM      2  C2  UNL d   1      -0.979   0.742   2.111  0.00  0.00    -0.057 A 
ATOM      3  C3  UNL d   1      -0.472   0.991   3.392  0.00  0.00     0.033 A 
ATOM      4  C4  UNL d   1       0.861   0.721   3.683  0.00  0.00    -0.042 A 
ATOM      5  C5  UNL d   1       1.688   0.207   2.691  0.00  0.00     0.033 A 
ATOM      6  C6  UNL d   1       1.177  -0.033   1.411  0.00  0.00    -0.057 A 
ENDROOT
BRANCH   1   7
ATOM      7  N   UNL d   1      -0.627  -0.112  -0.177  0.00  0.00    -0.732 N 
ATOM      8  C   UNL d   1       0.299  -0.440  -1.239  0.00  0.00     0.284 C 
ATOM      9  H3  UNL d   1      -1.441  -0.721  -0.132  0.00  0.00     0.395 HD
ENDBRANCH   1   7
TORSDOF 1
ENDMDL
