MODEL 1
REMARK minimizedAffinity -4.81045771
REMARK minimizedRMSD -1
REMARK  1 active torsions:
REMARK  status: ('A' for Active; 'I' for Inactive)
REMARK    1  A    between atoms: N_2  and  C1_3 
ROOT
ATOM      1  C1  UNL d   1      -0.389   0.085  -0.156  0.00  0.00     0.143 A 
ATOM      2  C2  UNL d   1      -1.672   0.070   0.402  0.00  0.00    -0.057 A 
ATOM      3  C3  UNL d   1      -1.908   0.563   1.691  0.00  0.00     0.033 A 
ATOM      4  C4  UNL d   1      -0.857   1.054   2.458  0.00  0.00    -0.042 A 
ATOM      5  C5  UNL d   1       0.430   1.055   1.933  0.00  0.00     0.033 A 
ATOM      6  C6  UNL d   1       0.659   0.568   0.643  0.00  0.00    -0.057 A 
ENDROOT
BRANCH   1   7
ATOM      7  N   UNL d   1      -0.074  -0.481  -1.394  0.00  0.00    -0.732 N 
ATOM      8  C   UNL d   1       0.454   0.337  -2.465  0.00  0.00     0.284 C 
ATOM      9  H3  UNL d   1       0.378  -1.388  -1.302  0.00  0.00     0.395 HD
ENDBRANCH   1   7
TORSDOF 1
ENDMDL
