MODEL 1
REMARK minimizedAffinity -3.49845886
REMARK minimizedRMSD -1
REMARK  1 active torsions:
REMARK  status: ('A' for Active; 'I' for Inactive)
REMARK    1  A    between atoms: N_2  and  C1_3 
ROOT
ATOM      1  C1  UNL d   1      -0.107   0.101  -4.368  0.00  0.00     0.143 A 
ATOM      2  C2  UNL d   1       1.125   0.748  -4.513  0.00  0.00    -0.057 A 
ATOM      3  C3  UNL d   1       2.134   0.609  -3.553  0.00  0.00     0.033 A 
ATOM      4  C4  UNL d   1       1.918  -0.159  -2.413  0.00  0.00    -0.042 A 
ATOM      5  C5  UNL d   1       0.693  -0.791  -2.237  0.00  0.00     0.033 A 
ATOM      6  C6  UNL d   1      -0.309  -0.654  -3.202  0.00  0.00    -0.057 A 
ENDROOT
BRANCH   1   7
ATOM      7  N   UNL d   1      -1.186   0.278  -5.238  0.00  0.00    -0.732 N 
ATOM      8  C   UNL d   1      -1.720  -0.838  -5.988  0.00  0.00     0.284 C 
ATOM      9  H3  UNL d   1      -1.895   0.900  -4.856  0.00  0.00     0.395 HD
ENDBRANCH   1   7
TORSDOF 1
ENDMDL
