MODEL 1
REMARK minimizedAffinity -4.51137543
REMARK minimizedRMSD -1
REMARK  1 active torsions:
REMARK  status: ('A' for Active; 'I' for Inactive)
REMARK    1  A    between atoms: N_2  and  C1_3 
ROOT
ATOM      1  C1  UNL d   1      -0.155   0.430   0.896  0.00  0.00     0.143 A 
ATOM      2  C2  UNL d   1      -1.323   0.597   1.648  0.00  0.00    -0.057 A 
ATOM      3  C3  UNL d   1      -1.288   0.627   3.047  0.00  0.00     0.033 A 
ATOM      4  C4  UNL d   1      -0.083   0.460   3.722  0.00  0.00    -0.042 A 
ATOM      5  C5  UNL d   1       1.087   0.268   2.996  0.00  0.00     0.033 A 
ATOM      6  C6  UNL d   1       1.046   0.246   1.599  0.00  0.00    -0.057 A 
ENDROOT
BRANCH   1   7
ATOM      7  N   UNL d   1      -0.138   0.294  -0.494  0.00  0.00    -0.732 N 
ATOM      8  C   UNL d   1       0.392  -0.904  -1.111  0.00  0.00     0.284 C 
ATOM      9  H3  UNL d   1      -0.988   0.644  -0.929  0.00  0.00     0.395 HD
ENDBRANCH   1   7
TORSDOF 1
ENDMDL
