MODEL 1
REMARK minimizedAffinity -2.20432329
REMARK minimizedRMSD -1
REMARK  1 active torsions:
REMARK  status: ('A' for Active; 'I' for Inactive)
REMARK    1  A    between atoms: N_2  and  C1_3 
ROOT
ATOM      1  C1  UNL d   1      -0.127  -0.206  -0.225  0.00  0.00     0.143 A 
ATOM      2  C2  UNL d   1      -1.519  -0.077  -0.265  0.00  0.00    -0.057 A 
ATOM      3  C3  UNL d   1      -2.221   0.549   0.772  0.00  0.00     0.033 A 
ATOM      4  C4  UNL d   1      -1.542   1.033   1.886  0.00  0.00    -0.042 A 
ATOM      5  C5  UNL d   1      -0.161   0.894   1.959  0.00  0.00     0.033 A 
ATOM      6  C6  UNL d   1       0.535   0.274   0.916  0.00  0.00    -0.057 A 
ENDROOT
BRANCH   1   7
ATOM      7  N   UNL d   1       0.618  -0.905  -1.178  0.00  0.00    -0.732 N 
ATOM      8  C   UNL d   1       0.697  -0.433  -2.543  0.00  0.00     0.284 C 
ATOM      9  H3  UNL d   1       1.500  -1.251  -0.805  0.00  0.00     0.395 HD
ENDBRANCH   1   7
TORSDOF 1
ENDMDL
