MODEL 1
REMARK minimizedAffinity -1.42832422
REMARK minimizedRMSD -1
REMARK  0 active torsions:
REMARK  status: ('A' for Active; 'I' for Inactive)
ROOT
ATOM      1  C   UNL d   1       0.358  -0.255  -3.303  0.00  0.00     0.172 C 
ATOM      2  N   UNL d   1       1.478  -0.298  -2.393  0.00  0.00    -0.070 N 
ATOM      3  C1  UNL d   1       1.634   0.488  -1.282  0.00  0.00    -0.004 A 
ATOM      4  C2  UNL d   1       2.827   0.142  -0.685  0.00  0.00    -0.047 A 
ATOM      5  C3  UNL d   1       3.408  -0.887  -1.464  0.00  0.00    -0.047 A 
ATOM      6  C4  UNL d   1       2.552  -1.140  -2.514  0.00  0.00    -0.004 A 
ENDROOT
TORSDOF 0
ENDMDL
