MODEL 1
REMARK minimizedAffinity -3.31520391
REMARK minimizedRMSD -1
REMARK  0 active torsions:
REMARK  status: ('A' for Active; 'I' for Inactive)
ROOT
ATOM      1  C   UNL d   1       1.115   0.556  -0.035  0.00  0.00     0.172 C 
ATOM      2  N   UNL d   1       2.107   0.088  -0.974  0.00  0.00    -0.070 N 
ATOM      3  C1  UNL d   1       3.443  -0.066  -0.715  0.00  0.00    -0.004 A 
ATOM      4  C2  UNL d   1       4.045  -0.531  -1.864  0.00  0.00    -0.047 A 
ATOM      5  C3  UNL d   1       3.036  -0.661  -2.848  0.00  0.00    -0.047 A 
ATOM      6  C4  UNL d   1       1.847  -0.271  -2.270  0.00  0.00    -0.004 A 
ENDROOT
TORSDOF 0
ENDMDL
