MODEL 1
REMARK minimizedAffinity 0.89914
REMARK minimizedRMSD -1
REMARK  0 active torsions:
REMARK  status: ('A' for Active; 'I' for Inactive)
ROOT
ATOM      1  C   UNL d   1       1.048   0.534   0.116  0.00  0.00     0.172 C 
ATOM      2  N   UNL d   1       1.869  -0.056  -0.914  0.00  0.00    -0.070 N 
ATOM      3  C1  UNL d   1       1.424  -0.507  -2.128  0.00  0.00    -0.004 A 
ATOM      4  C2  UNL d   1       2.511  -0.996  -2.821  0.00  0.00    -0.047 A 
ATOM      5  C3  UNL d   1       3.648  -0.834  -1.994  0.00  0.00    -0.047 A 
ATOM      6  C4  UNL d   1       3.222  -0.249  -0.820  0.00  0.00    -0.004 A 
ENDROOT
TORSDOF 0
ENDMDL
