MODEL 1
REMARK minimizedAffinity -3.06660914
REMARK minimizedRMSD -1
REMARK  0 active torsions:
REMARK  status: ('A' for Active; 'I' for Inactive)
ROOT
ATOM      1  C   UNL d   1      -3.791   3.447  -5.400  0.00  0.00     0.172 C 
ATOM      2  N   UNL d   1      -3.999   2.024  -5.523  0.00  0.00    -0.070 N 
ATOM      3  C1  UNL d   1      -5.189   1.372  -5.339  0.00  0.00    -0.004 A 
ATOM      4  C2  UNL d   1      -4.971   0.027  -5.546  0.00  0.00    -0.047 A 
ATOM      5  C3  UNL d   1      -3.601  -0.135  -5.865  0.00  0.00    -0.047 A 
ATOM      6  C4  UNL d   1      -3.023   1.117  -5.843  0.00  0.00    -0.004 A 
ENDROOT
TORSDOF 0
ENDMDL
