MODEL 1
REMARK minimizedAffinity -1.76710284
REMARK minimizedRMSD -1
REMARK  0 active torsions:
REMARK  status: ('A' for Active; 'I' for Inactive)
ROOT
ATOM      1  C   UNL d   1      -4.125   0.083  -5.990  0.00  0.00     0.172 C 
ATOM      2  N   UNL d   1      -3.991   1.521  -5.993  0.00  0.00    -0.070 N 
ATOM      3  C1  UNL d   1      -5.025   2.419  -5.999  0.00  0.00    -0.004 A 
ATOM      4  C2  UNL d   1      -4.483   3.686  -5.999  0.00  0.00    -0.047 A 
ATOM      5  C3  UNL d   1      -3.075   3.545  -5.993  0.00  0.00    -0.047 A 
ATOM      6  C4  UNL d   1      -2.798   2.194  -5.989  0.00  0.00    -0.004 A 
ENDROOT
TORSDOF 0
ENDMDL
