MODEL 1
REMARK minimizedAffinity 1.01042736
REMARK minimizedRMSD -1
REMARK  0 active torsions:
REMARK  status: ('A' for Active; 'I' for Inactive)
ROOT
ATOM      1  C   UNL d   1      -2.793   0.897  -5.974  0.00  0.00     0.172 C 
ATOM      2  N   UNL d   1      -3.171   2.291  -5.981  0.00  0.00    -0.070 N 
ATOM      3  C1  UNL d   1      -2.307   3.353  -5.990  0.00  0.00    -0.004 A 
ATOM      4  C2  UNL d   1      -3.057   4.508  -5.996  0.00  0.00    -0.047 A 
ATOM      5  C3  UNL d   1      -4.420   4.128  -5.990  0.00  0.00    -0.047 A 
ATOM      6  C4  UNL d   1      -4.462   2.750  -5.981  0.00  0.00    -0.004 A 
ENDROOT
TORSDOF 0
ENDMDL
