MODEL 1
REMARK minimizedAffinity -2.34384465
REMARK minimizedRMSD -1
REMARK  0 active torsions:
REMARK  status: ('A' for Active; 'I' for Inactive)
ROOT
ATOM      1  C   UNL d   1      -4.165  -1.993   3.048  0.00  0.00     0.172 C 
ATOM      2  N   UNL d   1      -3.676  -2.474   1.777  0.00  0.00    -0.070 N 
ATOM      3  C1  UNL d   1      -4.347  -2.407   0.586  0.00  0.00    -0.004 A 
ATOM      4  C2  UNL d   1      -3.545  -2.970  -0.383  0.00  0.00    -0.047 A 
ATOM      5  C3  UNL d   1      -2.351  -3.392   0.248  0.00  0.00    -0.047 A 
ATOM      6  C4  UNL d   1      -2.458  -3.072   1.585  0.00  0.00    -0.004 A 
ENDROOT
TORSDOF 0
ENDMDL
