MODEL 1
REMARK minimizedAffinity 0.183927387
REMARK minimizedRMSD -1
REMARK  0 active torsions:
REMARK  status: ('A' for Active; 'I' for Inactive)
ROOT
ATOM      1  C   UNL d   1      -0.914   0.401  -0.537  0.00  0.00     0.172 C 
ATOM      2  N   UNL d   1       0.488   0.153  -0.778  0.00  0.00    -0.070 N 
ATOM      3  C1  UNL d   1       1.493   0.294   0.141  0.00  0.00    -0.004 A 
ATOM      4  C2  UNL d   1       2.679  -0.037  -0.478  0.00  0.00    -0.047 A 
ATOM      5  C3  UNL d   1       2.376  -0.388  -1.815  0.00  0.00    -0.047 A 
ATOM      6  C4  UNL d   1       1.013  -0.261  -1.974  0.00  0.00    -0.004 A 
ENDROOT
TORSDOF 0
ENDMDL
