MODEL 1
REMARK minimizedAffinity -1.4022342
REMARK minimizedRMSD -1
REMARK  0 active torsions:
REMARK  status: ('A' for Active; 'I' for Inactive)
ROOT
ATOM      1  C   UNL d   1      -5.916   3.712  -5.998  0.00  0.00     0.172 C 
ATOM      2  N   UNL d   1      -4.861   2.726  -5.998  0.00  0.00    -0.070 N 
ATOM      3  C1  UNL d   1      -3.518   2.994  -5.996  0.00  0.00    -0.004 A 
ATOM      4  C2  UNL d   1      -2.848   1.789  -5.996  0.00  0.00    -0.047 A 
ATOM      5  C3  UNL d   1      -3.822   0.763  -5.998  0.00  0.00    -0.047 A 
ATOM      6  C4  UNL d   1      -5.060   1.371  -5.999  0.00  0.00    -0.004 A 
ENDROOT
TORSDOF 0
ENDMDL
