MODEL 1
REMARK minimizedAffinity -1.55437887
REMARK minimizedRMSD -1
REMARK  0 active torsions:
REMARK  status: ('A' for Active; 'I' for Inactive)
ROOT
ATOM      1  C   UNL d   1      -2.408   2.250  -5.985  0.00  0.00     0.172 C 
ATOM      2  N   UNL d   1      -3.761   2.754  -5.988  0.00  0.00    -0.070 N 
ATOM      3  C1  UNL d   1      -4.122   4.075  -5.981  0.00  0.00    -0.004 A 
ATOM      4  C2  UNL d   1      -5.498   4.136  -5.988  0.00  0.00    -0.047 A 
ATOM      5  C3  UNL d   1      -5.982   2.807  -5.999  0.00  0.00    -0.047 A 
ATOM      6  C4  UNL d   1      -4.885   1.971  -5.999  0.00  0.00    -0.004 A 
ENDROOT
TORSDOF 0
ENDMDL
