MODEL 1
REMARK minimizedAffinity -1.72359478
REMARK minimizedRMSD -1
REMARK  0 active torsions:
REMARK  status: ('A' for Active; 'I' for Inactive)
ROOT
ATOM      1  C   UNL d   1      -4.302   4.160  -5.974  0.00  0.00     0.172 C 
ATOM      2  N   UNL d   1      -4.119   2.728  -5.982  0.00  0.00    -0.070 N 
ATOM      3  C1  UNL d   1      -5.122   1.795  -5.996  0.00  0.00    -0.004 A 
ATOM      4  C2  UNL d   1      -4.537   0.547  -6.000  0.00  0.00    -0.047 A 
ATOM      5  C3  UNL d   1      -3.134   0.736  -5.987  0.00  0.00    -0.047 A 
ATOM      6  C4  UNL d   1      -2.904   2.096  -5.976  0.00  0.00    -0.004 A 
ENDROOT
TORSDOF 0
ENDMDL
