MODEL 1
REMARK minimizedAffinity -1.17105389
REMARK minimizedRMSD -1
REMARK  0 active torsions:
REMARK  status: ('A' for Active; 'I' for Inactive)
ROOT
ATOM      1  C   UNL d   1      -3.538   0.972  -5.921  0.00  0.00     0.172 C 
ATOM      2  N   UNL d   1      -3.465   2.414  -5.950  0.00  0.00    -0.070 N 
ATOM      3  C1  UNL d   1      -4.536   3.267  -5.979  0.00  0.00    -0.004 A 
ATOM      4  C2  UNL d   1      -4.049   4.555  -6.000  0.00  0.00    -0.047 A 
ATOM      5  C3  UNL d   1      -2.636   4.474  -5.984  0.00  0.00    -0.047 A 
ATOM      6  C4  UNL d   1      -2.302   3.137  -5.953  0.00  0.00    -0.004 A 
ENDROOT
TORSDOF 0
ENDMDL
