MODEL 1
REMARK minimizedAffinity -1.80791271
REMARK minimizedRMSD -1
REMARK  0 active torsions:
REMARK  status: ('A' for Active; 'I' for Inactive)
ROOT
ATOM      1  C   UNL d   1      -4.238   0.014  -5.983  0.00  0.00     0.172 C 
ATOM      2  N   UNL d   1      -4.127   1.454  -5.986  0.00  0.00    -0.070 N 
ATOM      3  C1  UNL d   1      -2.957   2.165  -5.979  0.00  0.00    -0.004 A 
ATOM      4  C2  UNL d   1      -3.277   3.505  -5.985  0.00  0.00    -0.047 A 
ATOM      5  C3  UNL d   1      -4.689   3.603  -5.995  0.00  0.00    -0.047 A 
ATOM      6  C4  UNL d   1      -5.190   2.319  -5.995  0.00  0.00    -0.004 A 
ENDROOT
TORSDOF 0
ENDMDL
