MODEL 1
REMARK minimizedAffinity -0.995218217
REMARK minimizedRMSD -1
REMARK  0 active torsions:
REMARK  status: ('A' for Active; 'I' for Inactive)
ROOT
ATOM      1  C   UNL d   1      -3.067  -0.252  -6.000  0.00  0.00     0.172 C 
ATOM      2  N   UNL d   1      -3.243   1.181  -5.999  0.00  0.00    -0.070 N 
ATOM      3  C1  UNL d   1      -2.236   2.110  -5.998  0.00  0.00    -0.004 A 
ATOM      4  C2  UNL d   1      -2.815   3.360  -5.998  0.00  0.00    -0.047 A 
ATOM      5  C3  UNL d   1      -4.218   3.177  -5.999  0.00  0.00    -0.047 A 
ATOM      6  C4  UNL d   1      -4.456   1.819  -6.000  0.00  0.00    -0.004 A 
ENDROOT
TORSDOF 0
ENDMDL
