MODEL 1
REMARK minimizedAffinity -1.05949438
REMARK minimizedRMSD -1
REMARK  0 active torsions:
REMARK  status: ('A' for Active; 'I' for Inactive)
ROOT
ATOM      1  C   UNL d   1      -3.469  -0.783  -5.908  0.00  0.00     0.172 C 
ATOM      2  N   UNL d   1      -3.692   0.643  -5.932  0.00  0.00    -0.070 N 
ATOM      3  C1  UNL d   1      -4.913   1.259  -5.998  0.00  0.00    -0.004 A 
ATOM      4  C2  UNL d   1      -4.700   2.620  -5.999  0.00  0.00    -0.047 A 
ATOM      5  C3  UNL d   1      -3.302   2.830  -5.932  0.00  0.00    -0.047 A 
ATOM      6  C4  UNL d   1      -2.702   1.589  -5.891  0.00  0.00    -0.004 A 
ENDROOT
TORSDOF 0
ENDMDL
