MODEL 1
REMARK minimizedAffinity -2.54465246
REMARK minimizedRMSD -1
REMARK  0 active torsions:
REMARK  status: ('A' for Active; 'I' for Inactive)
ROOT
ATOM      1  C   UNL d   1      -4.957  -3.017  -5.682  0.00  0.00     0.172 C 
ATOM      2  N   UNL d   1      -3.927  -4.025  -5.760  0.00  0.00    -0.070 N 
ATOM      3  C1  UNL d   1      -2.584  -3.808  -5.607  0.00  0.00    -0.004 A 
ATOM      4  C2  UNL d   1      -1.941  -5.018  -5.751  0.00  0.00    -0.047 A 
ATOM      5  C3  UNL d   1      -2.932  -5.997  -6.000  0.00  0.00    -0.047 A 
ATOM      6  C4  UNL d   1      -4.153  -5.355  -6.000  0.00  0.00    -0.004 A 
ENDROOT
TORSDOF 0
ENDMDL
