MODEL 1
REMARK minimizedAffinity -1.45773315
REMARK minimizedRMSD -1
REMARK  0 active torsions:
REMARK  status: ('A' for Active; 'I' for Inactive)
ROOT
ATOM      1  C   UNL d   1      -5.674   2.784  -5.955  0.00  0.00     0.172 C 
ATOM      2  N   UNL d   1      -5.206   1.418  -5.968  0.00  0.00    -0.070 N 
ATOM      3  C1  UNL d   1      -6.000   0.303  -5.995  0.00  0.00    -0.004 A 
ATOM      4  C2  UNL d   1      -5.176  -0.802  -5.999  0.00  0.00    -0.047 A 
ATOM      5  C3  UNL d   1      -3.840  -0.334  -5.973  0.00  0.00    -0.047 A 
ATOM      6  C4  UNL d   1      -3.889   1.044  -5.953  0.00  0.00    -0.004 A 
ENDROOT
TORSDOF 0
ENDMDL
