MODEL 1
REMARK minimizedAffinity -4.27747107
REMARK minimizedRMSD -1
REMARK  0 active torsions:
REMARK  status: ('A' for Active; 'I' for Inactive)
ROOT
ATOM      1  C   UNL d   1       3.248  -0.096  -1.559  0.00  0.00     0.077 C 
ATOM      2  C1  UNL d   1       1.972  -0.666  -1.015  0.00  0.00    -0.074 A 
ATOM      3  C2  UNL d   1       1.642  -2.011  -1.215  0.00  0.00    -0.005 A 
ATOM      4  C3  UNL d   1       0.456  -2.529  -0.695  0.00  0.00     0.006 A 
ATOM      5  C4  UNL d   1      -0.410  -1.710   0.030  0.00  0.00    -0.005 A 
ATOM      6  C5  UNL d   1      -0.097  -0.364   0.241  0.00  0.00    -0.074 A 
ATOM      7  C6  UNL d   1      -1.013   0.528   1.025  0.00  0.00     0.077 C 
ATOM      8  C7  UNL d   1       1.099   0.148  -0.279  0.00  0.00    -0.001 A 
ENDROOT
TORSDOF 0
ENDMDL
