MODEL 1
REMARK minimizedAffinity -5.5814414
REMARK minimizedRMSD -1
REMARK  0 active torsions:
REMARK  status: ('A' for Active; 'I' for Inactive)
ROOT
ATOM      1  C   UNL d   1       0.380  -2.808  -0.001  0.00  0.00     0.077 C 
ATOM      2  C1  UNL d   1       0.748  -1.382  -0.285  0.00  0.00    -0.074 A 
ATOM      3  C2  UNL d   1       2.086  -0.975  -0.302  0.00  0.00    -0.005 A 
ATOM      4  C3  UNL d   1       2.414   0.352  -0.578  0.00  0.00     0.006 A 
ATOM      5  C4  UNL d   1       1.409   1.284  -0.839  0.00  0.00    -0.005 A 
ATOM      6  C5  UNL d   1       0.065   0.895  -0.827  0.00  0.00    -0.074 A 
ATOM      7  C6  UNL d   1      -1.027   1.882  -1.114  0.00  0.00     0.077 C 
ATOM      8  C7  UNL d   1      -0.255  -0.442  -0.556  0.00  0.00    -0.001 A 
ENDROOT
TORSDOF 0
ENDMDL
