MODEL 1
REMARK minimizedAffinity -4.28658962
REMARK minimizedRMSD -1
REMARK  0 active torsions:
REMARK  status: ('A' for Active; 'I' for Inactive)
ROOT
ATOM      1  C   UNL d   1      -0.747   2.236  -1.007  0.00  0.00     0.077 C 
ATOM      2  C1  UNL d   1      -0.083   0.919  -0.736  0.00  0.00    -0.074 A 
ATOM      3  C2  UNL d   1      -0.825  -0.184  -0.300  0.00  0.00    -0.005 A 
ATOM      4  C3  UNL d   1      -0.195  -1.405  -0.061  0.00  0.00     0.006 A 
ATOM      5  C4  UNL d   1       1.181  -1.536  -0.254  0.00  0.00    -0.005 A 
ATOM      6  C5  UNL d   1       1.939  -0.445  -0.691  0.00  0.00    -0.074 A 
ATOM      7  C6  UNL d   1       3.417  -0.571  -0.913  0.00  0.00     0.077 C 
ATOM      8  C7  UNL d   1       1.297   0.777  -0.935  0.00  0.00    -0.001 A 
ENDROOT
TORSDOF 0
ENDMDL
