MODEL 1
REMARK minimizedAffinity -4.5542593
REMARK minimizedRMSD -1
REMARK  0 active torsions:
REMARK  status: ('A' for Active; 'I' for Inactive)
ROOT
ATOM      1  C   UNL d   1      -0.363   2.686  -1.426  0.00  0.00     0.077 C 
ATOM      2  C1  UNL d   1       0.478   1.478  -1.135  0.00  0.00    -0.074 A 
ATOM      3  C2  UNL d   1       1.869   1.523  -1.264  0.00  0.00    -0.005 A 
ATOM      4  C3  UNL d   1       2.639   0.394  -0.981  0.00  0.00     0.006 A 
ATOM      5  C4  UNL d   1       2.025  -0.788  -0.567  0.00  0.00    -0.005 A 
ATOM      6  C5  UNL d   1       0.634  -0.852  -0.431  0.00  0.00    -0.074 A 
ATOM      7  C6  UNL d   1      -0.041  -2.112   0.023  0.00  0.00     0.077 C 
ATOM      8  C7  UNL d   1      -0.131   0.289  -0.711  0.00  0.00    -0.001 A 
ENDROOT
TORSDOF 0
ENDMDL
