MODEL 1
REMARK minimizedAffinity -4.9581604
REMARK minimizedRMSD -1
REMARK  0 active torsions:
REMARK  status: ('A' for Active; 'I' for Inactive)
ROOT
ATOM      1  C   UNL d   1      -0.997   1.103   4.451  0.00  0.00     0.077 C 
ATOM      2  C1  UNL d   1      -1.874   0.438   3.432  0.00  0.00    -0.074 A 
ATOM      3  C2  UNL d   1      -3.144  -0.036   3.775  0.00  0.00    -0.005 A 
ATOM      4  C3  UNL d   1      -3.952  -0.643   2.814  0.00  0.00     0.006 A 
ATOM      5  C4  UNL d   1      -3.499  -0.781   1.502  0.00  0.00    -0.005 A 
ATOM      6  C5  UNL d   1      -2.233  -0.313   1.139  0.00  0.00    -0.074 A 
ATOM      7  C6  UNL d   1      -1.735  -0.445  -0.269  0.00  0.00     0.077 C 
ATOM      8  C7  UNL d   1      -1.429   0.302   2.109  0.00  0.00    -0.001 A 
ENDROOT
TORSDOF 0
ENDMDL
