MODEL 1
REMARK minimizedAffinity -4.40796089
REMARK minimizedRMSD -1
REMARK  0 active torsions:
REMARK  status: ('A' for Active; 'I' for Inactive)
ROOT
ATOM      1  C   UNL d   1      -1.987   0.090   1.476  0.00  0.00     0.077 C 
ATOM      2  C1  UNL d   1      -0.792   0.099   0.570  0.00  0.00    -0.074 A 
ATOM      3  C2  UNL d   1      -0.300   1.297   0.040  0.00  0.00    -0.005 A 
ATOM      4  C3  UNL d   1       0.818   1.290  -0.794  0.00  0.00     0.006 A 
ATOM      5  C4  UNL d   1       1.455   0.089  -1.106  0.00  0.00    -0.005 A 
ATOM      6  C5  UNL d   1       0.978  -1.118  -0.584  0.00  0.00    -0.074 A 
ATOM      7  C6  UNL d   1       1.657  -2.418  -0.902  0.00  0.00     0.077 C 
ATOM      8  C7  UNL d   1      -0.141  -1.103   0.258  0.00  0.00    -0.001 A 
ENDROOT
TORSDOF 0
ENDMDL
