MODEL 1
REMARK minimizedAffinity -1.26671493
REMARK minimizedRMSD -1
REMARK  0 active torsions:
REMARK  status: ('A' for Active; 'I' for Inactive)
ROOT
ATOM      1  C   UNL d   1      -0.019  -0.104   2.380  0.00  0.00     0.077 C 
ATOM      2  C1  UNL d   1       0.250   0.090   0.918  0.00  0.00    -0.074 A 
ATOM      3  C2  UNL d   1      -0.237   1.211   0.240  0.00  0.00    -0.005 A 
ATOM      4  C3  UNL d   1       0.030   1.383  -1.119  0.00  0.00     0.006 A 
ATOM      5  C4  UNL d   1       0.785   0.436  -1.811  0.00  0.00    -0.005 A 
ATOM      6  C5  UNL d   1       1.282  -0.691  -1.150  0.00  0.00    -0.074 A 
ATOM      7  C6  UNL d   1       2.104  -1.714  -1.877  0.00  0.00     0.077 C 
ATOM      8  C7  UNL d   1       1.015  -0.853   0.217  0.00  0.00    -0.001 A 
ENDROOT
TORSDOF 0
ENDMDL
