MODEL 1
REMARK minimizedAffinity -2.52025533
REMARK minimizedRMSD -1
REMARK  0 active torsions:
REMARK  status: ('A' for Active; 'I' for Inactive)
ROOT
ATOM      1  C   UNL d   1       2.456  -0.648  -1.108  0.00  0.00     0.077 C 
ATOM      2  C1  UNL d   1       1.232   0.170  -0.819  0.00  0.00    -0.074 A 
ATOM      3  C2  UNL d   1       0.872   1.242  -1.642  0.00  0.00    -0.005 A 
ATOM      4  C3  UNL d   1      -0.274   1.987  -1.367  0.00  0.00     0.006 A 
ATOM      5  C4  UNL d   1      -1.071   1.668  -0.267  0.00  0.00    -0.005 A 
ATOM      6  C5  UNL d   1      -0.728   0.599   0.567  0.00  0.00    -0.074 A 
ATOM      7  C6  UNL d   1      -1.580   0.237   1.748  0.00  0.00     0.077 C 
ATOM      8  C7  UNL d   1       0.421  -0.149   0.280  0.00  0.00    -0.001 A 
ENDROOT
TORSDOF 0
ENDMDL
