MODEL 1
REMARK minimizedAffinity -3.810045
REMARK minimizedRMSD -1
REMARK  0 active torsions:
REMARK  status: ('A' for Active; 'I' for Inactive)
ROOT
ATOM      1  C   UNL d   1      -0.486   2.533  -1.221  0.00  0.00     0.077 C 
ATOM      2  C1  UNL d   1      -0.054   1.138  -0.880  0.00  0.00    -0.074 A 
ATOM      3  C2  UNL d   1      -0.975   0.194  -0.413  0.00  0.00    -0.005 A 
ATOM      4  C3  UNL d   1      -0.560  -1.102  -0.109  0.00  0.00     0.006 A 
ATOM      5  C4  UNL d   1       0.777  -1.468  -0.269  0.00  0.00    -0.005 A 
ATOM      6  C5  UNL d   1       1.712  -0.538  -0.736  0.00  0.00    -0.074 A 
ATOM      7  C6  UNL d   1       3.151  -0.918  -0.923  0.00  0.00     0.077 C 
ATOM      8  C7  UNL d   1       1.286   0.761  -1.046  0.00  0.00    -0.001 A 
ENDROOT
TORSDOF 0
ENDMDL
