MODEL 1
REMARK minimizedAffinity -3.70792627
REMARK minimizedRMSD -1
REMARK  0 active torsions:
REMARK  status: ('A' for Active; 'I' for Inactive)
ROOT
ATOM      1  C   UNL d   1      -1.485   0.090   0.771  0.00  0.00     0.077 C 
ATOM      2  C1  UNL d   1      -0.174   0.172   0.046  0.00  0.00    -0.074 A 
ATOM      3  C2  UNL d   1       0.360   1.408  -0.334  0.00  0.00    -0.005 A 
ATOM      4  C3  UNL d   1       1.585   1.469  -0.999  0.00  0.00     0.006 A 
ATOM      5  C4  UNL d   1       2.286   0.299  -1.290  0.00  0.00    -0.005 A 
ATOM      6  C5  UNL d   1       1.768  -0.945  -0.917  0.00  0.00    -0.074 A 
ATOM      7  C6  UNL d   1       2.514  -2.213  -1.213  0.00  0.00     0.077 C 
ATOM      8  C7  UNL d   1       0.540  -0.999  -0.243  0.00  0.00    -0.001 A 
ENDROOT
TORSDOF 0
ENDMDL
