MODEL 1
REMARK minimizedAffinity -4.7621007
REMARK minimizedRMSD -1
REMARK  0 active torsions:
REMARK  status: ('A' for Active; 'I' for Inactive)
ROOT
ATOM      1  C   UNL d   1       1.330  -2.856  -1.190  0.00  0.00     0.077 C 
ATOM      2  C1  UNL d   1       1.314  -1.389  -0.881  0.00  0.00    -0.074 A 
ATOM      3  C2  UNL d   1       2.305  -0.538  -1.381  0.00  0.00    -0.005 A 
ATOM      4  C3  UNL d   1       2.273   0.826  -1.093  0.00  0.00     0.006 A 
ATOM      5  C4  UNL d   1       1.251   1.353  -0.302  0.00  0.00    -0.005 A 
ATOM      6  C5  UNL d   1       0.251   0.518   0.207  0.00  0.00    -0.074 A 
ATOM      7  C6  UNL d   1      -0.860   1.069   1.051  0.00  0.00     0.077 C 
ATOM      8  C7  UNL d   1       0.287  -0.851  -0.093  0.00  0.00    -0.001 A 
ENDROOT
TORSDOF 0
ENDMDL
