MODEL 1
REMARK minimizedAffinity -5.66693163
REMARK minimizedRMSD -1
REMARK  0 active torsions:
REMARK  status: ('A' for Active; 'I' for Inactive)
ROOT
ATOM      1  C   UNL d   1       2.587  -0.606  -1.108  0.00  0.00     0.077 C 
ATOM      2  C1  UNL d   1       1.102  -0.561  -0.905  0.00  0.00    -0.074 A 
ATOM      3  C2  UNL d   1       0.438   0.656  -0.720  0.00  0.00    -0.005 A 
ATOM      4  C3  UNL d   1      -0.945   0.683  -0.542  0.00  0.00     0.006 A 
ATOM      5  C4  UNL d   1      -1.677  -0.505  -0.547  0.00  0.00    -0.005 A 
ATOM      6  C5  UNL d   1      -1.031  -1.731  -0.731  0.00  0.00    -0.074 A 
ATOM      7  C6  UNL d   1      -1.804  -3.017  -0.748  0.00  0.00     0.077 C 
ATOM      8  C7  UNL d   1       0.358  -1.749  -0.916  0.00  0.00    -0.001 A 
ENDROOT
TORSDOF 0
ENDMDL
