MODEL 1
REMARK minimizedAffinity -4.8958354
REMARK minimizedRMSD -1
REMARK  0 active torsions:
REMARK  status: ('A' for Active; 'I' for Inactive)
ROOT
ATOM      1  C   UNL d   1      -1.491   1.245  -0.686  0.00  0.00     0.077 C 
ATOM      2  C1  UNL d   1      -0.517   0.105  -0.641  0.00  0.00    -0.074 A 
ATOM      3  C2  UNL d   1      -0.943  -1.192  -0.335  0.00  0.00    -0.005 A 
ATOM      4  C3  UNL d   1      -0.027  -2.244  -0.306  0.00  0.00     0.006 A 
ATOM      5  C4  UNL d   1       1.320  -2.011  -0.583  0.00  0.00    -0.005 A 
ATOM      6  C5  UNL d   1       1.764  -0.721  -0.891  0.00  0.00    -0.074 A 
ATOM      7  C6  UNL d   1       3.207  -0.454  -1.201  0.00  0.00     0.077 C 
ATOM      8  C7  UNL d   1       0.837   0.330  -0.925  0.00  0.00    -0.001 A 
ENDROOT
TORSDOF 0
ENDMDL
