MODEL 1
REMARK minimizedAffinity -5.49471283
REMARK minimizedRMSD -1
REMARK  0 active torsions:
REMARK  status: ('A' for Active; 'I' for Inactive)
ROOT
ATOM      1  C   UNL d   1      -1.573   0.569  -0.181  0.00  0.00     0.077 C 
ATOM      2  C1  UNL d   1      -0.234  -0.064  -0.420  0.00  0.00    -0.074 A 
ATOM      3  C2  UNL d   1       0.923   0.715  -0.515  0.00  0.00    -0.005 A 
ATOM      4  C3  UNL d   1       2.162   0.112  -0.729  0.00  0.00     0.006 A 
ATOM      5  C4  UNL d   1       2.256  -1.275  -0.850  0.00  0.00    -0.005 A 
ATOM      6  C5  UNL d   1       1.110  -2.071  -0.756  0.00  0.00    -0.074 A 
ATOM      7  C6  UNL d   1       1.195  -3.564  -0.874  0.00  0.00     0.077 C 
ATOM      8  C7  UNL d   1      -0.130  -1.458  -0.535  0.00  0.00    -0.001 A 
ENDROOT
TORSDOF 0
ENDMDL
