MODEL 1
REMARK minimizedAffinity -3.9660933
REMARK minimizedRMSD -1
REMARK  0 active torsions:
REMARK  status: ('A' for Active; 'I' for Inactive)
ROOT
ATOM      1  C   UNL d   1       0.374  -2.295   0.011  0.00  0.00     0.077 C 
ATOM      2  C1  UNL d   1       1.095  -1.326  -0.879  0.00  0.00    -0.074 A 
ATOM      3  C2  UNL d   1       2.297  -1.680  -1.502  0.00  0.00    -0.005 A 
ATOM      4  C3  UNL d   1       2.951  -0.772  -2.335  0.00  0.00     0.006 A 
ATOM      5  C4  UNL d   1       2.411   0.496  -2.553  0.00  0.00    -0.005 A 
ATOM      6  C5  UNL d   1       1.211   0.867  -1.940  0.00  0.00    -0.074 A 
ATOM      7  C6  UNL d   1       0.612   2.223  -2.171  0.00  0.00     0.077 C 
ATOM      8  C7  UNL d   1       0.556  -0.053  -1.110  0.00  0.00    -0.001 A 
ENDROOT
TORSDOF 0
ENDMDL
