MODEL 1
REMARK minimizedAffinity -2.97207022
REMARK minimizedRMSD -1
REMARK  1 active torsions:
REMARK  status: ('A' for Active; 'I' for Inactive)
REMARK    1  A    between atoms: C1_2  and  C2_3 
ROOT
ATOM      1  C2  UNL d   1      -0.256   0.233  -0.058  0.00  0.00    -0.076 A 
ATOM      2  C3  UNL d   1      -1.394   0.964  -0.440  0.00  0.00     0.004 A 
ATOM      3  C4  UNL d   1      -2.053   1.792   0.467  0.00  0.00    -0.003 A 
ATOM      4  C5  UNL d   1      -1.585   1.902   1.772  0.00  0.00     0.000 A 
ATOM      5  C6  UNL d   1      -0.446   1.198   2.163  0.00  0.00     0.000 A 
ATOM      6  C7  UNL d   1       0.240   0.372   1.256  0.00  0.00    -0.073 A 
ATOM      7  C8  UNL d   1       1.458  -0.369   1.734  0.00  0.00     0.078 C 
ENDROOT
BRANCH   1   8
ATOM      8  C1  UNL d   1       0.401  -0.669  -1.078  0.00  0.00     0.053 C 
ATOM      9  C   UNL d   1      -0.296  -2.015  -1.201  0.00  0.00     0.018 C 
ENDBRANCH   1   8
TORSDOF 1
ENDMDL
