MODEL 1
REMARK minimizedAffinity -3.04468703
REMARK minimizedRMSD -1
REMARK  1 active torsions:
REMARK  status: ('A' for Active; 'I' for Inactive)
REMARK    1  A    between atoms: C1_2  and  C2_3 
ROOT
ATOM      1  C2  UNL d   1      -0.232  -0.091   0.128  0.00  0.00    -0.076 A 
ATOM      2  C3  UNL d   1      -1.284   0.744  -0.286  0.00  0.00     0.004 A 
ATOM      3  C4  UNL d   1      -1.772   1.750   0.546  0.00  0.00    -0.003 A 
ATOM      4  C5  UNL d   1      -1.213   1.939   1.805  0.00  0.00     0.000 A 
ATOM      5  C6  UNL d   1      -0.157   1.132   2.225  0.00  0.00     0.000 A 
ATOM      6  C7  UNL d   1       0.357   0.123   1.392  0.00  0.00    -0.073 A 
ATOM      7  C8  UNL d   1       1.494  -0.721   1.899  0.00  0.00     0.078 C 
ENDROOT
BRANCH   1   8
ATOM      8  C1  UNL d   1       0.237  -1.183  -0.807  0.00  0.00     0.053 C 
ATOM      9  C   UNL d   1      -0.846  -2.214  -1.088  0.00  0.00     0.018 C 
ENDBRANCH   1   8
TORSDOF 1
ENDMDL
