MODEL 1
REMARK minimizedAffinity -4.13677216
REMARK minimizedRMSD -1
REMARK  1 active torsions:
REMARK  status: ('A' for Active; 'I' for Inactive)
REMARK    1  A    between atoms: C1_2  and  C2_3 
ROOT
ATOM      1  C2  UNL d   1       0.093   0.167   0.083  0.00  0.00    -0.076 A 
ATOM      2  C3  UNL d   1       0.435  -0.079   1.424  0.00  0.00     0.004 A 
ATOM      3  C4  UNL d   1       0.023   0.783   2.439  0.00  0.00    -0.003 A 
ATOM      4  C5  UNL d   1      -0.738   1.905   2.129  0.00  0.00     0.000 A 
ATOM      5  C6  UNL d   1      -1.101   2.155   0.806  0.00  0.00     0.000 A 
ATOM      6  C7  UNL d   1      -0.708   1.287  -0.227  0.00  0.00    -0.073 A 
ATOM      7  C8  UNL d   1      -1.122   1.609  -1.637  0.00  0.00     0.078 C 
ENDROOT
BRANCH   1   8
ATOM      8  C1  UNL d   1       0.591  -0.788  -0.979  0.00  0.00     0.053 C 
ATOM      9  C   UNL d   1      -0.184  -2.096  -0.994  0.00  0.00     0.018 C 
ENDBRANCH   1   8
TORSDOF 1
ENDMDL
