MODEL 1
REMARK minimizedAffinity -0.402301133
REMARK minimizedRMSD -1
REMARK  1 active torsions:
REMARK  status: ('A' for Active; 'I' for Inactive)
REMARK    1  A    between atoms: C1_2  and  C2_3 
ROOT
ATOM      1  C2  UNL d   1      -1.066   0.811   0.829  0.00  0.00    -0.076 A 
ATOM      2  C3  UNL d   1      -1.259   1.087  -0.535  0.00  0.00     0.004 A 
ATOM      3  C4  UNL d   1      -0.371   0.608  -1.497  0.00  0.00    -0.003 A 
ATOM      4  C5  UNL d   1       0.724  -0.157  -1.109  0.00  0.00     0.000 A 
ATOM      5  C6  UNL d   1       0.921  -0.456   0.239  0.00  0.00     0.000 A 
ATOM      6  C7  UNL d   1       0.026   0.006   1.219  0.00  0.00    -0.073 A 
ATOM      7  C8  UNL d   1       0.290  -0.341   2.659  0.00  0.00     0.078 C 
ENDROOT
BRANCH   1   8
ATOM      8  C1  UNL d   1      -2.047   1.380   1.829  0.00  0.00     0.053 C 
ATOM      9  C   UNL d   1      -1.669   2.782   2.283  0.00  0.00     0.018 C 
ENDBRANCH   1   8
TORSDOF 1
ENDMDL
