MODEL 1
REMARK minimizedAffinity -0.930990577
REMARK minimizedRMSD -1
REMARK  1 active torsions:
REMARK  status: ('A' for Active; 'I' for Inactive)
REMARK    1  A    between atoms: C1_2  and  C2_3 
ROOT
ATOM      1  C2  UNL d   1       0.035   0.849   0.572  0.00  0.00    -0.076 A 
ATOM      2  C3  UNL d   1      -0.925   0.647  -0.435  0.00  0.00     0.004 A 
ATOM      3  C4  UNL d   1      -1.968   1.552  -0.625  0.00  0.00    -0.003 A 
ATOM      4  C5  UNL d   1      -2.067   2.675   0.189  0.00  0.00     0.000 A 
ATOM      5  C6  UNL d   1      -1.114   2.901   1.182  0.00  0.00     0.000 A 
ATOM      6  C7  UNL d   1      -0.047   2.006   1.375  0.00  0.00    -0.073 A 
ATOM      7  C8  UNL d   1       0.949   2.296   2.464  0.00  0.00     0.078 C 
ENDROOT
BRANCH   1   8
ATOM      8  C1  UNL d   1       1.127  -0.181   0.748  0.00  0.00     0.053 C 
ATOM      9  C   UNL d   1       1.262  -1.099  -0.457  0.00  0.00     0.018 C 
ENDBRANCH   1   8
TORSDOF 1
ENDMDL
