MODEL 1
REMARK minimizedAffinity 13.1677427
REMARK minimizedRMSD -1
REMARK  0 active torsions:
REMARK  status: ('A' for Active; 'I' for Inactive)
ROOT
ATOM      1  C1  DEN d   1      -3.642  -2.006   5.956  0.00  0.00     0.130 A 
ATOM      2  C2  DEN d   1      -3.725  -3.179   5.090  0.00  0.00    -0.031 A 
ATOM      3  C3  DEN d   1      -3.768  -2.711   3.690  0.00  0.00     0.027 A 
ATOM      4  C4  DEN d   1      -3.708  -0.297   2.784  0.00  0.00     0.027 A 
ATOM      5  C5  DEN d   1      -3.651   1.033   3.136  0.00  0.00    -0.003 A 
ATOM      6  C6  DEN d   1      -3.622   1.442   4.444  0.00  0.00     0.001 A 
ATOM      7  C7  DEN d   1      -3.604   0.508   5.446  0.00  0.00     0.017 A 
ATOM      8  C8  DEN d   1      -3.668  -0.835   5.099  0.00  0.00    -0.094 A 
ATOM      9  C9  DEN d   1      -3.685  -1.228   3.771  0.00  0.00    -0.072 A 
ENDROOT
TORSDOF 0
ENDMDL
