MODEL 1
REMARK minimizedAffinity 12.0672235
REMARK minimizedRMSD -1
REMARK  0 active torsions:
REMARK  status: ('A' for Active; 'I' for Inactive)
ROOT
ATOM      1  C1  DEN d   1      -3.613  -1.426   5.841  0.00  0.00     0.130 A 
ATOM      2  C2  DEN d   1      -3.824  -2.513   4.888  0.00  0.00    -0.031 A 
ATOM      3  C3  DEN d   1      -3.848  -1.931   3.531  0.00  0.00     0.027 A 
ATOM      4  C4  DEN d   1      -3.575   0.532   2.816  0.00  0.00     0.027 A 
ATOM      5  C5  DEN d   1      -3.386   1.818   3.270  0.00  0.00    -0.003 A 
ATOM      6  C6  DEN d   1      -3.294   2.115   4.604  0.00  0.00     0.001 A 
ATOM      7  C7  DEN d   1      -3.346   1.106   5.529  0.00  0.00     0.017 A 
ATOM      8  C8  DEN d   1      -3.544  -0.192   5.079  0.00  0.00    -0.094 A 
ATOM      9  C9  DEN d   1      -3.623  -0.474   3.726  0.00  0.00    -0.072 A 
ENDROOT
TORSDOF 0
ENDMDL
