MODEL 1
REMARK minimizedAffinity 8.04070377
REMARK minimizedRMSD -1
REMARK  0 active torsions:
REMARK  status: ('A' for Active; 'I' for Inactive)
ROOT
ATOM      1  C1  DEN d   1       2.315  -1.530  -0.752  0.00  0.00     0.130 A 
ATOM      2  C2  DEN d   1       3.090  -2.548  -0.047  0.00  0.00    -0.031 A 
ATOM      3  C3  DEN d   1       4.188  -1.870   0.671  0.00  0.00     0.027 A 
ATOM      4  C4  DEN d   1       4.758   0.644   0.763  0.00  0.00     0.027 A 
ATOM      5  C5  DEN d   1       4.394   1.895   0.315  0.00  0.00    -0.003 A 
ATOM      6  C6  DEN d   1       3.342   2.086  -0.540  0.00  0.00     0.001 A 
ATOM      7  C7  DEN d   1       2.587   1.015  -0.938  0.00  0.00     0.017 A 
ATOM      8  C8  DEN d   1       2.952  -0.250  -0.497  0.00  0.00    -0.094 A 
ATOM      9  C9  DEN d   1       4.013  -0.422   0.376  0.00  0.00    -0.072 A 
ENDROOT
TORSDOF 0
ENDMDL
