MODEL 1
REMARK minimizedAffinity 15.0785646
REMARK minimizedRMSD -1
REMARK  0 active torsions:
REMARK  status: ('A' for Active; 'I' for Inactive)
ROOT
ATOM      1  C1  DEN d   1       3.430  -2.057  -0.276  0.00  0.00     0.130 A 
ATOM      2  C2  DEN d   1       2.210  -2.378  -1.011  0.00  0.00    -0.031 A 
ATOM      3  C3  DEN d   1       1.664  -1.122  -1.561  0.00  0.00     0.027 A 
ATOM      4  C4  DEN d   1       2.586   1.278  -1.351  0.00  0.00     0.027 A 
ATOM      5  C5  DEN d   1       3.591   2.051  -0.813  0.00  0.00    -0.003 A 
ATOM      6  C6  DEN d   1       4.586   1.518  -0.036  0.00  0.00     0.001 A 
ATOM      7  C7  DEN d   1       4.623   0.167   0.187  0.00  0.00     0.017 A 
ATOM      8  C8  DEN d   1       3.609  -0.618  -0.346  0.00  0.00    -0.094 A 
ATOM      9  C9  DEN d   1       2.619  -0.062  -1.139  0.00  0.00    -0.072 A 
ENDROOT
TORSDOF 0
ENDMDL
