MODEL 1
REMARK minimizedAffinity 27.6175671
REMARK minimizedRMSD -1
REMARK  0 active torsions:
REMARK  status: ('A' for Active; 'I' for Inactive)
ROOT
ATOM      1  C1  DEN d   1       4.454   0.454   0.847  0.00  0.00     0.130 A 
ATOM      2  C2  DEN d   1       4.263   1.829   0.395  0.00  0.00    -0.031 A 
ATOM      3  C3  DEN d   1       3.150   1.841  -0.576  0.00  0.00     0.027 A 
ATOM      4  C4  DEN d   1       1.707  -0.127  -1.413  0.00  0.00     0.027 A 
ATOM      5  C5  DEN d   1       1.501  -1.486  -1.323  0.00  0.00    -0.003 A 
ATOM      6  C6  DEN d   1       2.280  -2.292  -0.536  0.00  0.00     0.001 A 
ATOM      7  C7  DEN d   1       3.274  -1.739   0.228  0.00  0.00     0.017 A 
ATOM      8  C8  DEN d   1       3.493  -0.370   0.137  0.00  0.00    -0.094 A 
ATOM      9  C9  DEN d   1       2.686   0.429  -0.655  0.00  0.00    -0.072 A 
ENDROOT
TORSDOF 0
ENDMDL
