MODEL 1
REMARK minimizedAffinity 10.3797693
REMARK minimizedRMSD -1
REMARK  0 active torsions:
REMARK  status: ('A' for Active; 'I' for Inactive)
ROOT
ATOM      1  C1  DEN d   1      -1.139   2.410  -3.942  0.00  0.00     0.130 A 
ATOM      2  C2  DEN d   1      -1.513   1.496  -5.017  0.00  0.00    -0.031 A 
ATOM      3  C3  DEN d   1      -2.318   2.251  -5.999  0.00  0.00     0.027 A 
ATOM      4  C4  DEN d   1      -3.011   4.735  -5.961  0.00  0.00     0.027 A 
ATOM      5  C5  DEN d   1      -2.939   5.910  -5.245  0.00  0.00    -0.003 A 
ATOM      6  C6  DEN d   1      -2.296   5.991  -4.038  0.00  0.00     0.001 A 
ATOM      7  C7  DEN d   1      -1.661   4.889  -3.532  0.00  0.00     0.017 A 
ATOM      8  C8  DEN d   1      -1.735   3.699  -4.244  0.00  0.00    -0.094 A 
ATOM      9  C9  DEN d   1      -2.379   3.640  -5.468  0.00  0.00    -0.072 A 
ENDROOT
TORSDOF 0
ENDMDL
