MODEL 1
REMARK minimizedAffinity 7.7808075
REMARK minimizedRMSD -1
REMARK  0 active torsions:
REMARK  status: ('A' for Active; 'I' for Inactive)
ROOT
ATOM      1  C1  DEN d   1       4.424   0.672   0.924  0.00  0.00     0.130 A 
ATOM      2  C2  DEN d   1       4.177   1.877   0.137  0.00  0.00    -0.031 A 
ATOM      3  C3  DEN d   1       3.327   1.505  -1.012  0.00  0.00     0.027 A 
ATOM      4  C4  DEN d   1       2.371  -0.806  -1.643  0.00  0.00     0.027 A 
ATOM      5  C5  DEN d   1       2.318  -2.134  -1.284  0.00  0.00    -0.003 A 
ATOM      6  C6  DEN d   1       2.985  -2.623  -0.192  0.00  0.00     0.001 A 
ATOM      7  C7  DEN d   1       3.699  -1.768   0.606  0.00  0.00     0.017 A 
ATOM      8  C8  DEN d   1       3.763  -0.429   0.247  0.00  0.00    -0.094 A 
ATOM      9  C9  DEN d   1       3.071   0.048  -0.854  0.00  0.00    -0.072 A 
ENDROOT
TORSDOF 0
ENDMDL
