MODEL 1
REMARK minimizedAffinity 21.7836437
REMARK minimizedRMSD -1
REMARK  0 active torsions:
REMARK  status: ('A' for Active; 'I' for Inactive)
ROOT
ATOM      1  C1  DEN d   1       1.799  -1.459  -0.886  0.00  0.00     0.130 A 
ATOM      2  C2  DEN d   1       2.740  -0.354  -1.045  0.00  0.00    -0.031 A 
ATOM      3  C3  DEN d   1       4.085  -0.843  -0.677  0.00  0.00     0.027 A 
ATOM      4  C4  DEN d   1       4.797  -3.192   0.113  0.00  0.00     0.027 A 
ATOM      5  C5  DEN d   1       4.349  -4.460   0.413  0.00  0.00    -0.003 A 
ATOM      6  C6  DEN d   1       3.026  -4.804   0.334  0.00  0.00     0.001 A 
ATOM      7  C7  DEN d   1       2.109  -3.881  -0.097  0.00  0.00     0.017 A 
ATOM      8  C8  DEN d   1       2.552  -2.599  -0.394  0.00  0.00    -0.094 A 
ATOM      9  C9  DEN d   1       3.896  -2.275  -0.320  0.00  0.00    -0.072 A 
ENDROOT
TORSDOF 0
ENDMDL
