MODEL 1
REMARK minimizedAffinity 22.0262699
REMARK minimizedRMSD -1
REMARK  0 active torsions:
REMARK  status: ('A' for Active; 'I' for Inactive)
ROOT
ATOM      1  C1  DEN d   1      -3.131   1.079   3.336  0.00  0.00     0.130 A 
ATOM      2  C2  DEN d   1      -3.720   0.358   2.212  0.00  0.00    -0.031 A 
ATOM      3  C3  DEN d   1      -2.620  -0.199   1.399  0.00  0.00     0.027 A 
ATOM      4  C4  DEN d   1      -0.075  -0.020   1.775  0.00  0.00     0.027 A 
ATOM      5  C5  DEN d   1       0.906   0.503   2.589  0.00  0.00    -0.003 A 
ATOM      6  C6  DEN d   1       0.613   1.276   3.681  0.00  0.00     0.001 A 
ATOM      7  C7  DEN d   1      -0.695   1.511   4.015  0.00  0.00     0.017 A 
ATOM      8  C8  DEN d   1      -1.689   0.994   3.194  0.00  0.00    -0.094 A 
ATOM      9  C9  DEN d   1      -1.372   0.205   2.102  0.00  0.00    -0.072 A 
ENDROOT
TORSDOF 0
ENDMDL
