MODEL 1
REMARK minimizedAffinity 6.94962358
REMARK minimizedRMSD -1
REMARK  0 active torsions:
REMARK  status: ('A' for Active; 'I' for Inactive)
ROOT
ATOM      1  C1  DEN d   1       4.843  -2.842   0.672  0.00  0.00     0.130 A 
ATOM      2  C2  DEN d   1       4.042  -3.941   0.139  0.00  0.00    -0.031 A 
ATOM      3  C3  DEN d   1       2.925  -3.359  -0.632  0.00  0.00     0.027 A 
ATOM      4  C4  DEN d   1       2.364  -0.877  -1.054  0.00  0.00     0.027 A 
ATOM      5  C5  DEN d   1       2.748   0.420  -0.796  0.00  0.00    -0.003 A 
ATOM      6  C6  DEN d   1       3.829   0.719  -0.008  0.00  0.00     0.001 A 
ATOM      7  C7  DEN d   1       4.590  -0.294   0.512  0.00  0.00     0.017 A 
ATOM      8  C8  DEN d   1       4.205  -1.604   0.262  0.00  0.00    -0.094 A 
ATOM      9  C9  DEN d   1       3.117  -1.886  -0.547  0.00  0.00    -0.072 A 
ENDROOT
TORSDOF 0
ENDMDL
