MODEL 1
REMARK minimizedAffinity 19.7079315
REMARK minimizedRMSD -1
REMARK  0 active torsions:
REMARK  status: ('A' for Active; 'I' for Inactive)
ROOT
ATOM      1  C1  DEN d   1      -0.203   0.036   2.042  0.00  0.00     0.130 A 
ATOM      2  C2  DEN d   1       0.370   1.269   2.576  0.00  0.00    -0.031 A 
ATOM      3  C3  DEN d   1      -0.718   2.044   3.203  0.00  0.00     0.027 A 
ATOM      4  C4  DEN d   1      -3.222   1.457   3.405  0.00  0.00     0.027 A 
ATOM      5  C5  DEN d   1      -4.184   0.521   3.094  0.00  0.00    -0.003 A 
ATOM      6  C6  DEN d   1      -3.895  -0.616   2.387  0.00  0.00     0.001 A 
ATOM      7  C7  DEN d   1      -2.604  -0.869   2.006  0.00  0.00     0.017 A 
ATOM      8  C8  DEN d   1      -1.630   0.073   2.310  0.00  0.00    -0.094 A 
ATOM      9  C9  DEN d   1      -1.939   1.211   3.036  0.00  0.00    -0.072 A 
ENDROOT
TORSDOF 0
ENDMDL
