MODEL 1
REMARK minimizedAffinity 17.0894909
REMARK minimizedRMSD -1
REMARK  0 active torsions:
REMARK  status: ('A' for Active; 'I' for Inactive)
ROOT
ATOM      1  C1  DEN d   1      -3.754   0.749   2.247  0.00  0.00     0.130 A 
ATOM      2  C2  DEN d   1      -3.020   0.958   3.491  0.00  0.00    -0.031 A 
ATOM      3  C3  DEN d   1      -3.334  -0.162   4.401  0.00  0.00     0.027 A 
ATOM      4  C4  DEN d   1      -4.875  -2.192   4.002  0.00  0.00     0.027 A 
ATOM      5  C5  DEN d   1      -5.724  -2.797   3.102  0.00  0.00    -0.003 A 
ATOM      6  C6  DEN d   1      -6.000  -2.250   1.877  0.00  0.00     0.001 A 
ATOM      7  C7  DEN d   1      -5.386  -1.084   1.500  0.00  0.00     0.017 A 
ATOM      8  C8  DEN d   1      -4.535  -0.464   2.405  0.00  0.00    -0.094 A 
ATOM      9  C9  DEN d   1      -4.259  -1.040   3.634  0.00  0.00    -0.072 A 
ENDROOT
TORSDOF 0
ENDMDL
