MODEL 1
REMARK minimizedAffinity 14.9850912
REMARK minimizedRMSD -1
REMARK  0 active torsions:
REMARK  status: ('A' for Active; 'I' for Inactive)
ROOT
ATOM      1  C1  DEN d   1      -2.926   1.493   3.173  0.00  0.00     0.130 A 
ATOM      2  C2  DEN d   1      -2.551   0.982   1.857  0.00  0.00    -0.031 A 
ATOM      3  C3  DEN d   1      -1.164   0.482   1.941  0.00  0.00     0.027 A 
ATOM      4  C4  DEN d   1       0.429   0.447   3.969  0.00  0.00     0.027 A 
ATOM      5  C5  DEN d   1       0.561   0.782   5.299  0.00  0.00    -0.003 A 
ATOM      6  C6  DEN d   1      -0.439   1.404   5.998  0.00  0.00     0.001 A 
ATOM      7  C7  DEN d   1      -1.634   1.669   5.382  0.00  0.00     0.017 A 
ATOM      8  C8  DEN d   1      -1.772   1.340   4.040  0.00  0.00    -0.094 A 
ATOM      9  C9  DEN d   1      -0.754   0.701   3.354  0.00  0.00    -0.072 A 
ENDROOT
TORSDOF 0
ENDMDL
