MODEL 1
REMARK minimizedAffinity 5.04635382
REMARK minimizedRMSD -1
REMARK  0 active torsions:
REMARK  status: ('A' for Active; 'I' for Inactive)
ROOT
ATOM      1  C1  DEN d   1      -2.100  -3.373  -5.999  0.00  0.00     0.130 A 
ATOM      2  C2  DEN d   1      -3.560  -3.388  -5.968  0.00  0.00    -0.031 A 
ATOM      3  C3  DEN d   1      -3.983  -3.964  -4.676  0.00  0.00     0.027 A 
ATOM      4  C4  DEN d   1      -2.528  -4.825  -2.729  0.00  0.00     0.027 A 
ATOM      5  C5  DEN d   1      -1.236  -5.028  -2.297  0.00  0.00    -0.003 A 
ATOM      6  C6  DEN d   1      -0.150  -4.728  -3.076  0.00  0.00     0.001 A 
ATOM      7  C7  DEN d   1      -0.336  -4.165  -4.312  0.00  0.00     0.017 A 
ATOM      8  C8  DEN d   1      -1.636  -3.964  -4.756  0.00  0.00    -0.094 A 
ATOM      9  C9  DEN d   1      -2.721  -4.263  -3.949  0.00  0.00    -0.072 A 
ENDROOT
TORSDOF 0
ENDMDL
