MODEL 1
REMARK minimizedAffinity 15.0648794
REMARK minimizedRMSD -1
REMARK  0 active torsions:
REMARK  status: ('A' for Active; 'I' for Inactive)
ROOT
ATOM      1  C1  DEN d   1      -2.938   0.071   4.758  0.00  0.00     0.130 A 
ATOM      2  C2  DEN d   1      -3.289  -0.467   3.447  0.00  0.00    -0.031 A 
ATOM      3  C3  DEN d   1      -4.213   0.483   2.795  0.00  0.00     0.027 A 
ATOM      4  C4  DEN d   1      -5.125   2.726   3.684  0.00  0.00     0.027 A 
ATOM      5  C5  DEN d   1      -5.119   3.596   4.751  0.00  0.00    -0.003 A 
ATOM      6  C6  DEN d   1      -4.419   3.339   5.900  0.00  0.00     0.001 A 
ATOM      7  C7  DEN d   1      -3.658   2.203   5.990  0.00  0.00     0.017 A 
ATOM      8  C8  DEN d   1      -3.665   1.317   4.921  0.00  0.00    -0.094 A 
ATOM      9  C9  DEN d   1      -4.369   1.601   3.764  0.00  0.00    -0.072 A 
ENDROOT
TORSDOF 0
ENDMDL
