MODEL 1
REMARK minimizedAffinity 11.2069569
REMARK minimizedRMSD -1
REMARK  0 active torsions:
REMARK  status: ('A' for Active; 'I' for Inactive)
ROOT
ATOM      1  C1  DEN d   1      -0.447   2.005   3.865  0.00  0.00     0.130 A 
ATOM      2  C2  DEN d   1       0.493   1.120   3.182  0.00  0.00    -0.031 A 
ATOM      3  C3  DEN d   1      -0.288   0.126   2.419  0.00  0.00     0.027 A 
ATOM      4  C4  DEN d   1      -2.848  -0.125   2.227  0.00  0.00     0.027 A 
ATOM      5  C5  DEN d   1      -4.060   0.386   2.637  0.00  0.00    -0.003 A 
ATOM      6  C6  DEN d   1      -4.152   1.442   3.505  0.00  0.00     0.001 A 
ATOM      7  C7  DEN d   1      -3.010   2.051   3.956  0.00  0.00     0.017 A 
ATOM      8  C8  DEN d   1      -1.785   1.537   3.553  0.00  0.00    -0.094 A 
ATOM      9  C9  DEN d   1      -1.713   0.476   2.665  0.00  0.00    -0.072 A 
ENDROOT
TORSDOF 0
ENDMDL
