MODEL 1
REMARK minimizedAffinity -3.32088375
REMARK minimizedRMSD -1
REMARK  0 active torsions:
REMARK  status: ('A' for Active; 'I' for Inactive)
ROOT
ATOM      1  C   UNL d   1      -1.112   1.376   2.839  0.00  0.00     0.172 C 
ATOM      2  N   UNL d   1      -0.555   0.747   1.665  0.00  0.00    -0.070 N 
ATOM      3  C1  UNL d   1      -1.266   0.317   0.576  0.00  0.00    -0.004 A 
ATOM      4  C2  UNL d   1      -0.373  -0.224  -0.324  0.00  0.00    -0.047 A 
ATOM      5  C3  UNL d   1       0.918  -0.117   0.244  0.00  0.00    -0.047 A 
ATOM      6  C4  UNL d   1       0.777   0.487   1.476  0.00  0.00    -0.004 A 
ENDROOT
TORSDOF 0
ENDMDL
