MODEL 1
REMARK minimizedAffinity -0.741124868
REMARK minimizedRMSD -1
REMARK  0 active torsions:
REMARK  status: ('A' for Active; 'I' for Inactive)
ROOT
ATOM      1  C   UNL d   1      -0.242  -1.111  -0.390  0.00  0.00     0.172 C 
ATOM      2  N   UNL d   1      -1.119  -0.059   0.067  0.00  0.00    -0.070 N 
ATOM      3  C1  UNL d   1      -1.718   0.003   1.297  0.00  0.00    -0.004 A 
ATOM      4  C2  UNL d   1      -2.471   1.156   1.342  0.00  0.00    -0.047 A 
ATOM      5  C3  UNL d   1      -2.320   1.810   0.096  0.00  0.00    -0.047 A 
ATOM      6  C4  UNL d   1      -1.478   1.036  -0.674  0.00  0.00    -0.004 A 
ENDROOT
TORSDOF 0
ENDMDL
