MODEL 1
REMARK minimizedAffinity -3.45895505
REMARK minimizedRMSD -1
REMARK  0 active torsions:
REMARK  status: ('A' for Active; 'I' for Inactive)
ROOT
ATOM      1  C   UNL d   1      -1.718   0.673   2.201  0.00  0.00     0.172 C 
ATOM      2  N   UNL d   1      -0.806   0.099   1.239  0.00  0.00    -0.070 N 
ATOM      3  C1  UNL d   1       0.544  -0.051   1.410  0.00  0.00    -0.004 A 
ATOM      4  C2  UNL d   1       1.052  -0.636   0.270  0.00  0.00    -0.047 A 
ATOM      5  C3  UNL d   1      -0.031  -0.844  -0.617  0.00  0.00    -0.047 A 
ATOM      6  C4  UNL d   1      -1.169  -0.380   0.008  0.00  0.00    -0.004 A 
ENDROOT
TORSDOF 0
ENDMDL
