MODEL 1
REMARK minimizedAffinity -3.13601756
REMARK minimizedRMSD -1
REMARK  0 active torsions:
REMARK  status: ('A' for Active; 'I' for Inactive)
ROOT
ATOM      1  C   UNL d   1       0.696  -0.502  -0.580  0.00  0.00     0.172 C 
ATOM      2  N   UNL d   1      -0.109   0.138   0.435  0.00  0.00    -0.070 N 
ATOM      3  C1  UNL d   1      -1.477   0.139   0.486  0.00  0.00    -0.004 A 
ATOM      4  C2  UNL d   1      -1.857   0.854   1.601  0.00  0.00    -0.047 A 
ATOM      5  C3  UNL d   1      -0.676   1.299   2.242  0.00  0.00    -0.047 A 
ATOM      6  C4  UNL d   1       0.391   0.842   1.498  0.00  0.00    -0.004 A 
ENDROOT
TORSDOF 0
ENDMDL
