MODEL 1
REMARK minimizedAffinity -3.51446867
REMARK minimizedRMSD -1
REMARK  0 active torsions:
REMARK  status: ('A' for Active; 'I' for Inactive)
ROOT
ATOM      1  C   UNL d   1      -0.670   0.869   2.098  0.00  0.00     0.172 C 
ATOM      2  N   UNL d   1       0.224   0.221   1.168  0.00  0.00    -0.070 N 
ATOM      3  C1  UNL d   1       1.532  -0.104   1.412  0.00  0.00    -0.004 A 
ATOM      4  C2  UNL d   1       2.036  -0.706   0.279  0.00  0.00    -0.047 A 
ATOM      5  C3  UNL d   1       0.995  -0.742  -0.680  0.00  0.00    -0.047 A 
ATOM      6  C4  UNL d   1      -0.115  -0.162  -0.103  0.00  0.00    -0.004 A 
ENDROOT
TORSDOF 0
ENDMDL
