MODEL 1
REMARK minimizedAffinity -4.15085125
REMARK minimizedRMSD -1
REMARK  0 active torsions:
REMARK  status: ('A' for Active; 'I' for Inactive)
ROOT
ATOM      1  C   UNL d   1       0.029  -0.324  -0.387  0.00  0.00     0.172 C 
ATOM      2  N   UNL d   1       0.034   0.112   0.990  0.00  0.00    -0.070 N 
ATOM      3  C1  UNL d   1       1.020  -0.143   1.904  0.00  0.00    -0.004 A 
ATOM      4  C2  UNL d   1       0.652   0.442   3.096  0.00  0.00    -0.047 A 
ATOM      5  C3  UNL d   1      -0.600   1.069   2.892  0.00  0.00    -0.047 A 
ATOM      6  C4  UNL d   1      -0.959   0.849   1.579  0.00  0.00    -0.004 A 
ENDROOT
TORSDOF 0
ENDMDL
