MODEL 1
REMARK minimizedAffinity -0.507223964
REMARK minimizedRMSD -1
REMARK  0 active torsions:
REMARK  status: ('A' for Active; 'I' for Inactive)
ROOT
ATOM      1  C   UNL d   1      -0.514  -0.737  -0.797  0.00  0.00     0.172 C 
ATOM      2  N   UNL d   1      -1.007  -0.031   0.363  0.00  0.00    -0.070 N 
ATOM      3  C1  UNL d   1      -1.741   1.125   0.341  0.00  0.00    -0.004 A 
ATOM      4  C2  UNL d   1      -2.013   1.476   1.646  0.00  0.00    -0.047 A 
ATOM      5  C3  UNL d   1      -1.422   0.497   2.480  0.00  0.00    -0.047 A 
ATOM      6  C4  UNL d   1      -0.806  -0.424   1.660  0.00  0.00    -0.004 A 
ENDROOT
TORSDOF 0
ENDMDL
