MODEL 1
REMARK minimizedAffinity -3.84377289
REMARK minimizedRMSD -1
REMARK  0 active torsions:
REMARK  status: ('A' for Active; 'I' for Inactive)
ROOT
ATOM      1  C   UNL d   1       0.431  -0.732  -0.550  0.00  0.00     0.172 C 
ATOM      2  N   UNL d   1      -0.187   0.142   0.419  0.00  0.00    -0.070 N 
ATOM      3  C1  UNL d   1      -1.501   0.105   0.803  0.00  0.00    -0.004 A 
ATOM      4  C2  UNL d   1      -1.694   1.096   1.741  0.00  0.00    -0.047 A 
ATOM      5  C3  UNL d   1      -0.454   1.752   1.926  0.00  0.00    -0.047 A 
ATOM      6  C4  UNL d   1       0.461   1.142   1.095  0.00  0.00    -0.004 A 
ENDROOT
TORSDOF 0
ENDMDL
