MODEL 1
REMARK minimizedAffinity -2.86499214
REMARK minimizedRMSD -1
REMARK  0 active torsions:
REMARK  status: ('A' for Active; 'I' for Inactive)
ROOT
ATOM      1  C   UNL d   1      -0.699   1.076   2.698  0.00  0.00     0.172 C 
ATOM      2  N   UNL d   1      -0.660   0.688   1.308  0.00  0.00    -0.070 N 
ATOM      3  C1  UNL d   1       0.423   0.803   0.477  0.00  0.00    -0.004 A 
ATOM      4  C2  UNL d   1       0.056   0.324  -0.763  0.00  0.00    -0.047 A 
ATOM      5  C3  UNL d   1      -1.293  -0.093  -0.674  0.00  0.00    -0.047 A 
ATOM      6  C4  UNL d   1      -1.711   0.143   0.619  0.00  0.00    -0.004 A 
ENDROOT
TORSDOF 0
ENDMDL
