MODEL 1
REMARK minimizedAffinity -3.01322293
REMARK minimizedRMSD -1
REMARK  0 active torsions:
REMARK  status: ('A' for Active; 'I' for Inactive)
ROOT
ATOM      1  C   UNL d   1       0.009  -0.410  -1.840  0.00  0.00     0.172 C 
ATOM      2  N   UNL d   1      -0.567   0.040  -0.594  0.00  0.00    -0.070 N 
ATOM      3  C1  UNL d   1       0.029  -0.041   0.636  0.00  0.00    -0.004 A 
ATOM      4  C2  UNL d   1      -0.841   0.493   1.562  0.00  0.00    -0.047 A 
ATOM      5  C3  UNL d   1      -2.000   0.908   0.864  0.00  0.00    -0.047 A 
ATOM      6  C4  UNL d   1      -1.804   0.616  -0.469  0.00  0.00    -0.004 A 
ENDROOT
TORSDOF 0
ENDMDL
