MODEL 1
REMARK minimizedAffinity -1.6020714
REMARK minimizedRMSD -1
REMARK  0 active torsions:
REMARK  status: ('A' for Active; 'I' for Inactive)
ROOT
ATOM      1  C   UNL d   1      -1.534   0.245  -0.161  0.00  0.00     0.172 C 
ATOM      2  N   UNL d   1      -0.310  -0.150  -0.817  0.00  0.00    -0.070 N 
ATOM      3  C1  UNL d   1      -0.117  -0.224  -2.171  0.00  0.00    -0.004 A 
ATOM      4  C2  UNL d   1       1.179  -0.637  -2.391  0.00  0.00    -0.047 A 
ATOM      5  C3  UNL d   1       1.786  -0.819  -1.125  0.00  0.00    -0.047 A 
ATOM      6  C4  UNL d   1       0.842  -0.510  -0.169  0.00  0.00    -0.004 A 
ENDROOT
TORSDOF 0
ENDMDL
