MODEL 1
REMARK minimizedAffinity -3.47923541
REMARK minimizedRMSD -1
REMARK  0 active torsions:
REMARK  status: ('A' for Active; 'I' for Inactive)
ROOT
ATOM      1  C   UNL d   1      -0.655   1.226   2.555  0.00  0.00     0.172 C 
ATOM      2  N   UNL d   1      -0.225   0.611   1.322  0.00  0.00    -0.070 N 
ATOM      3  C1  UNL d   1      -1.022   0.352   0.238  0.00  0.00    -0.004 A 
ATOM      4  C2  UNL d   1      -0.238  -0.236  -0.731  0.00  0.00    -0.047 A 
ATOM      5  C3  UNL d   1       1.074  -0.336  -0.211  0.00  0.00    -0.047 A 
ATOM      6  C4  UNL d   1       1.054   0.196   1.061  0.00  0.00    -0.004 A 
ENDROOT
TORSDOF 0
ENDMDL
