MODEL 1
REMARK minimizedAffinity -5.36452436
REMARK minimizedRMSD -1
REMARK  1 active torsions:
REMARK  status: ('A' for Active; 'I' for Inactive)
REMARK    1  A    between atoms: C1_2  and  C2_3 
ROOT
ATOM      1  C2  UNL d   1      -0.348  -1.648   0.005  0.00  0.00    -0.081 A 
ATOM      2  C3  UNL d   1      -1.533  -0.984   0.347  0.00  0.00     0.006 A 
ATOM      3  C4  UNL d   1      -1.548   0.405   0.496  0.00  0.00     0.002 A 
ATOM      4  C5  UNL d   1      -0.383   1.153   0.298  0.00  0.00    -0.080 A 
ATOM      5  C6  UNL d   1      -0.393   2.647   0.425  0.00  0.00     0.076 C 
ATOM      6  C7  UNL d   1       0.804   0.488  -0.026  0.00  0.00     0.002 A 
ATOM      7  C8  UNL d   1       0.821  -0.901  -0.175  0.00  0.00     0.006 A 
ENDROOT
BRANCH   1   8
ATOM      8  C1  UNL d   1      -0.343  -3.139  -0.220  0.00  0.00     0.054 C 
ATOM      9  C   UNL d   1      -0.447  -3.475  -1.700  0.00  0.00     0.018 C 
ENDBRANCH   1   8
TORSDOF 1
ENDMDL
