MODEL 1
REMARK minimizedAffinity -1.69819689
REMARK minimizedRMSD -1
REMARK  1 active torsions:
REMARK  status: ('A' for Active; 'I' for Inactive)
REMARK    1  A    between atoms: C1_2  and  C2_3 
ROOT
ATOM      1  C2  UNL d   1      -0.607  -1.682  -1.243  0.00  0.00    -0.081 A 
ATOM      2  C3  UNL d   1       0.594  -1.366  -0.595  0.00  0.00     0.006 A 
ATOM      3  C4  UNL d   1       0.692  -0.220   0.196  0.00  0.00     0.002 A 
ATOM      4  C5  UNL d   1      -0.410   0.626   0.360  0.00  0.00    -0.080 A 
ATOM      5  C6  UNL d   1      -0.328   1.844   1.232  0.00  0.00     0.076 C 
ATOM      6  C7  UNL d   1      -1.605   0.320  -0.300  0.00  0.00     0.002 A 
ATOM      7  C8  UNL d   1      -1.703  -0.826  -1.092  0.00  0.00     0.006 A 
ENDROOT
BRANCH   1   8
ATOM      8  C1  UNL d   1      -0.734  -2.952  -2.044  0.00  0.00     0.054 C 
ATOM      9  C   UNL d   1      -2.058  -3.003  -2.793  0.00  0.00     0.018 C 
ENDBRANCH   1   8
TORSDOF 1
ENDMDL
