MODEL 1
REMARK minimizedAffinity -4.45050907
REMARK minimizedRMSD -1
REMARK  1 active torsions:
REMARK  status: ('A' for Active; 'I' for Inactive)
REMARK    1  A    between atoms: C1_2  and  C2_3 
ROOT
ATOM      1  C2  UNL d   1       0.354  -1.110   0.378  0.00  0.00    -0.081 A 
ATOM      2  C3  UNL d   1      -0.814  -0.376   0.623  0.00  0.00     0.006 A 
ATOM      3  C4  UNL d   1      -0.785   1.021   0.624  0.00  0.00     0.002 A 
ATOM      4  C5  UNL d   1       0.408   1.706   0.372  0.00  0.00    -0.080 A 
ATOM      5  C6  UNL d   1       0.446   3.206   0.340  0.00  0.00     0.076 C 
ATOM      6  C7  UNL d   1       1.578   0.974   0.145  0.00  0.00     0.002 A 
ATOM      7  C8  UNL d   1       1.550  -0.423   0.144  0.00  0.00     0.006 A 
ENDROOT
BRANCH   1   8
ATOM      8  C1  UNL d   1       0.313  -2.615   0.312  0.00  0.00     0.054 C 
ATOM      9  C   UNL d   1      -0.399  -3.095  -0.944  0.00  0.00     0.018 C 
ENDBRANCH   1   8
TORSDOF 1
ENDMDL
