MODEL 1
REMARK minimizedAffinity -2.39155436
REMARK minimizedRMSD -1
REMARK  1 active torsions:
REMARK  status: ('A' for Active; 'I' for Inactive)
REMARK    1  A    between atoms: C1_2  and  C2_3 
ROOT
ATOM      1  C2  UNL d   1      -0.466  -1.157  -0.067  0.00  0.00    -0.081 A 
ATOM      2  C3  UNL d   1      -1.253  -0.228   0.624  0.00  0.00     0.006 A 
ATOM      3  C4  UNL d   1      -0.925   1.130   0.607  0.00  0.00     0.002 A 
ATOM      4  C5  UNL d   1       0.189   1.582  -0.107  0.00  0.00    -0.080 A 
ATOM      5  C6  UNL d   1       0.534   3.041  -0.159  0.00  0.00     0.076 C 
ATOM      6  C7  UNL d   1       0.986   0.652  -0.784  0.00  0.00     0.002 A 
ATOM      7  C8  UNL d   1       0.659  -0.706  -0.766  0.00  0.00     0.006 A 
ENDROOT
BRANCH   1   8
ATOM      8  C1  UNL d   1      -0.853  -2.613  -0.104  0.00  0.00     0.054 C 
ATOM      9  C   UNL d   1      -1.112  -3.081  -1.529  0.00  0.00     0.018 C 
ENDBRANCH   1   8
TORSDOF 1
ENDMDL
