MODEL 1
REMARK minimizedAffinity 5.45482445
REMARK minimizedRMSD -1
REMARK  0 active torsions:
REMARK  status: ('A' for Active; 'I' for Inactive)
ROOT
ATOM      1  C   UNL d   1      -1.129   5.203  -4.809  0.00  0.00    -0.002 A 
ATOM      2  C1  UNL d   1      -2.105   6.000  -5.391  0.00  0.00     0.010 A 
ATOM      3  C2  UNL d   1      -3.369   5.480  -5.676  0.00  0.00     0.041 A 
ATOM      4  C3  UNL d   1      -3.639   4.134  -5.361  0.00  0.00    -0.075 A 
ATOM      5  S   UNL d   1      -5.116   3.282  -5.618  0.00  0.00     0.015 SA
ATOM      6  C4  UNL d   1      -4.487   1.841  -4.961  0.00  0.00     0.022 A 
ATOM      7  C5  UNL d   1      -3.183   1.988  -4.550  0.00  0.00     0.026 A 
ATOM      8  C6  UNL d   1      -2.673   3.312  -4.774  0.00  0.00    -0.082 A 
ATOM      9  C7  UNL d   1      -1.401   3.868  -4.498  0.00  0.00     0.045 A 
ENDROOT
TORSDOF 0
ENDMDL
