MODEL 1
REMARK minimizedAffinity 24.5159626
REMARK minimizedRMSD -1
REMARK  0 active torsions:
REMARK  status: ('A' for Active; 'I' for Inactive)
ROOT
ATOM      1  C   UNL d   1       0.223   0.127   3.378  0.00  0.00    -0.002 A 
ATOM      2  C1  UNL d   1      -0.894   0.859   3.755  0.00  0.00     0.010 A 
ATOM      3  C2  UNL d   1      -1.877   0.288   4.567  0.00  0.00     0.041 A 
ATOM      4  C3  UNL d   1      -1.715  -1.043   4.999  0.00  0.00    -0.075 A 
ATOM      5  S   UNL d   1      -2.788  -1.949   5.999  0.00  0.00     0.015 SA
ATOM      6  C4  UNL d   1      -1.788  -3.328   5.950  0.00  0.00     0.022 A 
ATOM      7  C5  UNL d   1      -0.659  -3.121   5.193  0.00  0.00     0.026 A 
ATOM      8  C6  UNL d   1      -0.598  -1.800   4.633  0.00  0.00    -0.082 A 
ATOM      9  C7  UNL d   1       0.380  -1.193   3.808  0.00  0.00     0.045 A 
ENDROOT
TORSDOF 0
ENDMDL
