MODEL 1
REMARK minimizedAffinity 7.51329088
REMARK minimizedRMSD -1
REMARK  0 active torsions:
REMARK  status: ('A' for Active; 'I' for Inactive)
ROOT
ATOM      1  C   UNL d   1      -4.227   1.133  -5.256  0.00  0.00    -0.002 A 
ATOM      2  C1  UNL d   1      -5.257   1.894  -5.790  0.00  0.00     0.010 A 
ATOM      3  C2  UNL d   1      -5.092   3.265  -6.000  0.00  0.00     0.041 A 
ATOM      4  C3  UNL d   1      -3.862   3.863  -5.663  0.00  0.00    -0.075 A 
ATOM      5  S   UNL d   1      -3.433   5.524  -5.833  0.00  0.00     0.015 SA
ATOM      6  C4  UNL d   1      -1.871   5.262  -5.202  0.00  0.00     0.022 A 
ATOM      7  C5  UNL d   1      -1.666   3.945  -4.865  0.00  0.00     0.026 A 
ATOM      8  C6  UNL d   1      -2.809   3.117  -5.125  0.00  0.00    -0.082 A 
ATOM      9  C7  UNL d   1      -3.008   1.730  -4.923  0.00  0.00     0.045 A 
ENDROOT
TORSDOF 0
ENDMDL
