MODEL 1
REMARK minimizedAffinity 10.0048065
REMARK minimizedRMSD -1
REMARK  0 active torsions:
REMARK  status: ('A' for Active; 'I' for Inactive)
ROOT
ATOM      1  C   UNL d   1      -1.678  -3.064   4.625  0.00  0.00    -0.002 A 
ATOM      2  C1  UNL d   1      -2.176  -2.133   5.525  0.00  0.00     0.010 A 
ATOM      3  C2  UNL d   1      -3.485  -2.234   6.000  0.00  0.00     0.041 A 
ATOM      4  C3  UNL d   1      -4.292  -3.299   5.553  0.00  0.00    -0.075 A 
ATOM      5  S   UNL d   1      -5.926  -3.624   5.999  0.00  0.00     0.015 SA
ATOM      6  C4  UNL d   1      -6.000  -5.008   5.007  0.00  0.00     0.022 A 
ATOM      7  C5  UNL d   1      -4.817  -5.231   4.344  0.00  0.00     0.026 A 
ATOM      8  C6  UNL d   1      -3.813  -4.250   4.647  0.00  0.00    -0.082 A 
ATOM      9  C7  UNL d   1      -2.482  -4.119   4.183  0.00  0.00     0.045 A 
ENDROOT
TORSDOF 0
ENDMDL
