MODEL 1
REMARK minimizedAffinity 1.1496489
REMARK minimizedRMSD -1
REMARK  0 active torsions:
REMARK  status: ('A' for Active; 'I' for Inactive)
ROOT
ATOM      1  C   UNL d   1      -2.482   6.000  -4.624  0.00  0.00    -0.002 A 
ATOM      2  C1  UNL d   1      -1.881   4.833  -4.174  0.00  0.00     0.010 A 
ATOM      3  C2  UNL d   1      -2.520   3.601  -4.326  0.00  0.00     0.041 A 
ATOM      4  C3  UNL d   1      -3.785   3.560  -4.946  0.00  0.00    -0.075 A 
ATOM      5  S   UNL d   1      -4.754   2.165  -5.240  0.00  0.00     0.015 SA
ATOM      6  C4  UNL d   1      -5.988   3.086  -5.972  0.00  0.00     0.022 A 
ATOM      7  C5  UNL d   1      -5.685   4.426  -5.999  0.00  0.00     0.026 A 
ATOM      8  C6  UNL d   1      -4.409   4.722  -5.408  0.00  0.00    -0.082 A 
ATOM      9  C7  UNL d   1      -3.736   5.956  -5.239  0.00  0.00     0.045 A 
ENDROOT
TORSDOF 0
ENDMDL
