MODEL 1
REMARK minimizedAffinity 8.50099277
REMARK minimizedRMSD -1
REMARK  0 active torsions:
REMARK  status: ('A' for Active; 'I' for Inactive)
ROOT
ATOM      1  C   UNL d   1      -1.461   5.132  -4.140  0.00  0.00    -0.002 A 
ATOM      2  C1  UNL d   1      -2.197   6.000  -4.934  0.00  0.00     0.010 A 
ATOM      3  C2  UNL d   1      -3.376   5.574  -5.548  0.00  0.00     0.041 A 
ATOM      4  C3  UNL d   1      -3.808   4.248  -5.348  0.00  0.00    -0.075 A 
ATOM      5  S   UNL d   1      -5.221   3.506  -6.000  0.00  0.00     0.015 SA
ATOM      6  C4  UNL d   1      -4.882   2.019  -5.239  0.00  0.00     0.022 A 
ATOM      7  C5  UNL d   1      -3.722   2.069  -4.503  0.00  0.00     0.026 A 
ATOM      8  C6  UNL d   1      -3.084   3.355  -4.553  0.00  0.00    -0.082 A 
ATOM      9  C7  UNL d   1      -1.893   3.817  -3.944  0.00  0.00     0.045 A 
ENDROOT
TORSDOF 0
ENDMDL
