MODEL 1
REMARK minimizedAffinity 17.6010838
REMARK minimizedRMSD -1
REMARK  0 active torsions:
REMARK  status: ('A' for Active; 'I' for Inactive)
ROOT
ATOM      1  C   UNL d   1      -1.081  -3.759   4.046  0.00  0.00    -0.002 A 
ATOM      2  C1  UNL d   1      -1.280  -2.595   4.775  0.00  0.00     0.010 A 
ATOM      3  C2  UNL d   1      -0.585  -1.427   4.453  0.00  0.00     0.041 A 
ATOM      4  C3  UNL d   1       0.321  -1.449   3.375  0.00  0.00    -0.075 A 
ATOM      5  S   UNL d   1       1.283  -0.140   2.798  0.00  0.00     0.015 SA
ATOM      6  C4  UNL d   1       1.980  -1.094   1.570  0.00  0.00     0.022 A 
ATOM      7  C5  UNL d   1       1.502  -2.383   1.585  0.00  0.00     0.026 A 
ATOM      8  C6  UNL d   1       0.538  -2.609   2.625  0.00  0.00    -0.082 A 
ATOM      9  C7  UNL d   1      -0.181  -3.777   2.977  0.00  0.00     0.045 A 
ENDROOT
TORSDOF 0
ENDMDL
