MODEL 1
REMARK minimizedAffinity 2.03241897
REMARK minimizedRMSD -1
REMARK  0 active torsions:
REMARK  status: ('A' for Active; 'I' for Inactive)
ROOT
ATOM      1  C   UNL d   1      -1.504   5.110  -5.226  0.00  0.00    -0.002 A 
ATOM      2  C1  UNL d   1      -2.496   5.994  -5.626  0.00  0.00     0.010 A 
ATOM      3  C2  UNL d   1      -3.789   5.538  -5.888  0.00  0.00     0.041 A 
ATOM      4  C3  UNL d   1      -4.072   4.167  -5.736  0.00  0.00    -0.075 A 
ATOM      5  S   UNL d   1      -5.585   3.382  -6.000  0.00  0.00     0.015 SA
ATOM      6  C4  UNL d   1      -4.950   1.855  -5.586  0.00  0.00     0.022 A 
ATOM      7  C5  UNL d   1      -3.618   1.924  -5.253  0.00  0.00     0.026 A 
ATOM      8  C6  UNL d   1      -3.090   3.257  -5.333  0.00  0.00    -0.082 A 
ATOM      9  C7  UNL d   1      -1.788   3.750  -5.077  0.00  0.00     0.045 A 
ENDROOT
TORSDOF 0
ENDMDL
