MODEL 1
REMARK minimizedAffinity 25.5448132
REMARK minimizedRMSD -1
REMARK  0 active torsions:
REMARK  status: ('A' for Active; 'I' for Inactive)
ROOT
ATOM      1  C   UNL d   1      -1.932   2.702  -0.279  0.00  0.00    -0.002 A 
ATOM      2  C1  UNL d   1      -2.594   1.846   0.589  0.00  0.00     0.010 A 
ATOM      3  C2  UNL d   1      -3.662   2.305   1.362  0.00  0.00     0.041 A 
ATOM      4  C3  UNL d   1      -4.058   3.652   1.245  0.00  0.00    -0.075 A 
ATOM      5  S   UNL d   1      -5.339   4.437   2.091  0.00  0.00     0.015 SA
ATOM      6  C4  UNL d   1      -5.038   5.926   1.319  0.00  0.00     0.022 A 
ATOM      7  C5  UNL d   1      -3.989   5.845   0.435  0.00  0.00     0.026 A 
ATOM      8  C6  UNL d   1      -3.407   4.533   0.377  0.00  0.00    -0.082 A 
ATOM      9  C7  UNL d   1      -2.327   4.037  -0.393  0.00  0.00     0.045 A 
ENDROOT
TORSDOF 0
ENDMDL
