MODEL 1
REMARK minimizedAffinity 17.6119595
REMARK minimizedRMSD -1
REMARK  0 active torsions:
REMARK  status: ('A' for Active; 'I' for Inactive)
ROOT
ATOM      1  C   UNL d   1      -1.812  -3.137   6.000  0.00  0.00    -0.002 A 
ATOM      2  C1  UNL d   1      -0.755  -3.625   5.244  0.00  0.00     0.010 A 
ATOM      3  C2  UNL d   1      -0.102  -2.804   4.322  0.00  0.00     0.041 A 
ATOM      4  C3  UNL d   1      -0.532  -1.471   4.172  0.00  0.00    -0.075 A 
ATOM      5  S   UNL d   1       0.118  -0.283   3.106  0.00  0.00     0.015 SA
ATOM      6  C4  UNL d   1      -0.992   0.901   3.628  0.00  0.00     0.022 A 
ATOM      7  C5  UNL d   1      -1.845   0.418   4.592  0.00  0.00     0.026 A 
ATOM      8  C6  UNL d   1      -1.594  -0.957   4.922  0.00  0.00    -0.082 A 
ATOM      9  C7  UNL d   1      -2.236  -1.814   5.848  0.00  0.00     0.045 A 
ENDROOT
TORSDOF 0
ENDMDL
