MODEL 1
REMARK minimizedAffinity -4.75426483
REMARK minimizedRMSD -1
REMARK  0 active torsions:
REMARK  status: ('A' for Active; 'I' for Inactive)
ROOT
ATOM      1  O1  BZF d   1      -0.369   0.715  -0.765  0.00  0.00    -0.204 OA
ATOM      2  C2  BZF d   1       1.004   0.802  -0.646  0.00  0.00     0.174 A 
ATOM      3  C3  BZF d   1       1.484  -0.206   0.111  0.00  0.00    -0.012 A 
ATOM      4  C3A BZF d   1       0.349  -1.024   0.412  0.00  0.00    -0.107 A 
ATOM      5  C4  BZF d   1       0.186  -2.182   1.117  0.00  0.00     0.055 A 
ATOM      6  C5  BZF d   1      -1.066  -2.683   1.284  0.00  0.00    -0.016 A 
ATOM      7  C6  BZF d   1      -2.176  -2.051   0.765  0.00  0.00     0.022 A 
ATOM      8  C7  BZF d   1      -2.065  -0.903   0.054  0.00  0.00     0.029 A 
ATOM      9  C7A BZF d   1      -0.798  -0.411  -0.145  0.00  0.00     0.058 A 
ENDROOT
TORSDOF 0
ENDMDL
