MODEL 1
REMARK minimizedAffinity -3.75879145
REMARK minimizedRMSD -1
REMARK  0 active torsions:
REMARK  status: ('A' for Active; 'I' for Inactive)
ROOT
ATOM      1  O1  BZF d   1      -0.161  -2.554   1.912  0.00  0.00    -0.204 OA
ATOM      2  C2  BZF d   1       1.175  -2.707   2.230  0.00  0.00     0.174 A 
ATOM      3  C3  BZF d   1       1.938  -1.858   1.512  0.00  0.00    -0.012 A 
ATOM      4  C3A BZF d   1       1.013  -1.065   0.761  0.00  0.00    -0.107 A 
ATOM      5  C4  BZF d   1       1.163  -0.037  -0.126  0.00  0.00     0.055 A 
ATOM      6  C5  BZF d   1       0.061   0.472  -0.738  0.00  0.00    -0.016 A 
ATOM      7  C6  BZF d   1      -1.202  -0.026  -0.492  0.00  0.00     0.022 A 
ATOM      8  C7  BZF d   1      -1.400  -1.041   0.384  0.00  0.00     0.029 A 
ATOM      9  C7A BZF d   1      -0.293  -1.535   1.029  0.00  0.00     0.058 A 
ENDROOT
TORSDOF 0
ENDMDL
