MODEL 1
REMARK minimizedAffinity -3.30229425
REMARK minimizedRMSD -1
REMARK  0 active torsions:
REMARK  status: ('A' for Active; 'I' for Inactive)
ROOT
ATOM      1  O1  BZF d   1      -0.454  -2.649   1.403  0.00  0.00    -0.204 OA
ATOM      2  C2  BZF d   1      -1.813  -2.711   1.645  0.00  0.00     0.174 A 
ATOM      3  C3  BZF d   1      -2.387  -1.505   1.460  0.00  0.00    -0.012 A 
ATOM      4  C3A BZF d   1      -1.336  -0.655   0.990  0.00  0.00    -0.107 A 
ATOM      5  C4  BZF d   1      -1.286   0.657   0.616  0.00  0.00     0.055 A 
ATOM      6  C5  BZF d   1      -0.089   1.202   0.276  0.00  0.00    -0.016 A 
ATOM      7  C6  BZF d   1       1.078   0.466   0.304  0.00  0.00     0.022 A 
ATOM      8  C7  BZF d   1       1.077  -0.841   0.663  0.00  0.00     0.029 A 
ATOM      9  C7A BZF d   1      -0.136  -1.403   0.976  0.00  0.00     0.058 A 
ENDROOT
TORSDOF 0
ENDMDL
