MODEL 1
REMARK minimizedAffinity -4.84205675
REMARK minimizedRMSD -1
REMARK  0 active torsions:
REMARK  status: ('A' for Active; 'I' for Inactive)
ROOT
ATOM      1  O1  BZF d   1       4.300   1.589  -4.196  0.00  0.00    -0.204 OA
ATOM      2  C2  BZF d   1       5.188   1.629  -3.138  0.00  0.00     0.174 A 
ATOM      3  C3  BZF d   1       4.532   1.779  -1.969  0.00  0.00    -0.012 A 
ATOM      4  C3A BZF d   1       3.143   1.744  -2.309  0.00  0.00    -0.107 A 
ATOM      5  C4  BZF d   1       1.994   1.827  -1.576  0.00  0.00     0.055 A 
ATOM      6  C5  BZF d   1       0.798   1.833  -2.221  0.00  0.00    -0.016 A 
ATOM      7  C6  BZF d   1       0.714   1.762  -3.596  0.00  0.00     0.022 A 
ATOM      8  C7  BZF d   1       1.825   1.673  -4.365  0.00  0.00     0.029 A 
ATOM      9  C7A BZF d   1       3.035   1.634  -3.715  0.00  0.00     0.058 A 
ENDROOT
TORSDOF 0
ENDMDL
