MODEL 1
REMARK minimizedAffinity -4.65292311
REMARK minimizedRMSD -1
REMARK  0 active torsions:
REMARK  status: ('A' for Active; 'I' for Inactive)
ROOT
ATOM      1  O1  BZF d   1      -0.178   0.384  -0.316  0.00  0.00    -0.204 OA
ATOM      2  C2  BZF d   1       1.144  -0.015  -0.334  0.00  0.00     0.174 A 
ATOM      3  C3  BZF d   1       1.339  -1.060   0.497  0.00  0.00    -0.012 A 
ATOM      4  C3A BZF d   1       0.041  -1.389   0.999  0.00  0.00    -0.107 A 
ATOM      5  C4  BZF d   1      -0.420  -2.348   1.855  0.00  0.00     0.055 A 
ATOM      6  C5  BZF d   1      -1.735  -2.353   2.196  0.00  0.00    -0.016 A 
ATOM      7  C6  BZF d   1      -2.616  -1.412   1.705  0.00  0.00     0.022 A 
ATOM      8  C7  BZF d   1      -2.207  -0.444   0.849  0.00  0.00     0.029 A 
ATOM      9  C7A BZF d   1      -0.885  -0.457   0.476  0.00  0.00     0.058 A 
ENDROOT
TORSDOF 0
ENDMDL
