MODEL 1
REMARK minimizedAffinity -4.07652617
REMARK minimizedRMSD -1
REMARK  0 active torsions:
REMARK  status: ('A' for Active; 'I' for Inactive)
ROOT
ATOM      1  O1  BZF d   1      -0.127   0.634  -0.028  0.00  0.00    -0.204 OA
ATOM      2  C2  BZF d   1       1.023   0.159  -0.626  0.00  0.00     0.174 A 
ATOM      3  C3  BZF d   1       1.205  -1.147  -0.343  0.00  0.00    -0.012 A 
ATOM      4  C3A BZF d   1       0.050  -1.534   0.408  0.00  0.00    -0.107 A 
ATOM      5  C4  BZF d   1      -0.358  -2.713   0.962  0.00  0.00     0.055 A 
ATOM      6  C5  BZF d   1      -1.502  -2.738   1.696  0.00  0.00    -0.016 A 
ATOM      7  C6  BZF d   1      -2.258  -1.602   1.899  0.00  0.00     0.022 A 
ATOM      8  C7  BZF d   1      -1.897  -0.410   1.365  0.00  0.00     0.029 A 
ATOM      9  C7A BZF d   1      -0.759  -0.389   0.596  0.00  0.00     0.058 A 
ENDROOT
TORSDOF 0
ENDMDL
