MODEL 1
REMARK minimizedAffinity -2.85615134
REMARK minimizedRMSD -1
REMARK  0 active torsions:
REMARK  status: ('A' for Active; 'I' for Inactive)
ROOT
ATOM      1  O1  BZF d   1       2.099   0.055  -2.688  0.00  0.00    -0.204 OA
ATOM      2  C2  BZF d   1       1.756   1.320  -3.124  0.00  0.00     0.174 A 
ATOM      3  C3  BZF d   1       0.853   1.884  -2.296  0.00  0.00    -0.012 A 
ATOM      4  C3A BZF d   1       0.687   0.947  -1.227  0.00  0.00    -0.107 A 
ATOM      5  C4  BZF d   1      -0.068   0.945  -0.089  0.00  0.00     0.055 A 
ATOM      6  C5  BZF d   1      -0.058  -0.156   0.707  0.00  0.00    -0.016 A 
ATOM      7  C6  BZF d   1       0.689  -1.273   0.394  0.00  0.00     0.022 A 
ATOM      8  C7  BZF d   1       1.457  -1.316  -0.721  0.00  0.00     0.029 A 
ATOM      9  C7A BZF d   1       1.475  -0.192  -1.511  0.00  0.00     0.058 A 
ENDROOT
TORSDOF 0
ENDMDL
