MODEL 1
REMARK minimizedAffinity -2.97974777
REMARK minimizedRMSD -1
REMARK  0 active torsions:
REMARK  status: ('A' for Active; 'I' for Inactive)
ROOT
ATOM      1  O1  BZF d   1      -0.342   1.587   0.399  0.00  0.00    -0.204 OA
ATOM      2  C2  BZF d   1       0.719   1.503  -0.482  0.00  0.00     0.174 A 
ATOM      3  C3  BZF d   1       1.170   0.235  -0.569  0.00  0.00    -0.012 A 
ATOM      4  C3A BZF d   1       0.280  -0.537   0.243  0.00  0.00    -0.107 A 
ATOM      5  C4  BZF d   1       0.199  -1.866   0.545  0.00  0.00     0.055 A 
ATOM      6  C5  BZF d   1      -0.744  -2.287   1.428  0.00  0.00    -0.016 A 
ATOM      7  C6  BZF d   1      -1.619  -1.406   2.031  0.00  0.00     0.022 A 
ATOM      8  C7  BZF d   1      -1.580  -0.079   1.759  0.00  0.00     0.029 A 
ATOM      9  C7A BZF d   1      -0.650   0.345   0.842  0.00  0.00     0.058 A 
ENDROOT
TORSDOF 0
ENDMDL
