MODEL 1
REMARK minimizedAffinity -4.20146465
REMARK minimizedRMSD -1
REMARK  0 active torsions:
REMARK  status: ('A' for Active; 'I' for Inactive)
ROOT
ATOM      1  O1  BZF d   1       1.586   0.367  -2.191  0.00  0.00    -0.204 OA
ATOM      2  C2  BZF d   1       1.222   1.679  -1.960  0.00  0.00     0.174 A 
ATOM      3  C3  BZF d   1       0.450   1.775  -0.859  0.00  0.00    -0.012 A 
ATOM      4  C3A BZF d   1       0.399   0.451  -0.318  0.00  0.00    -0.107 A 
ATOM      5  C4  BZF d   1      -0.202  -0.091   0.782  0.00  0.00     0.055 A 
ATOM      6  C5  BZF d   1      -0.118  -1.432   0.986  0.00  0.00    -0.016 A 
ATOM      7  C6  BZF d   1       0.553  -2.260   0.109  0.00  0.00     0.022 A 
ATOM      8  C7  BZF d   1       1.168  -1.767  -0.993  0.00  0.00     0.029 A 
ATOM      9  C7A BZF d   1       1.114  -0.408  -1.185  0.00  0.00     0.058 A 
ENDROOT
TORSDOF 0
ENDMDL
