MODEL 1
REMARK minimizedAffinity -3.31743884
REMARK minimizedRMSD -1
REMARK  0 active torsions:
REMARK  status: ('A' for Active; 'I' for Inactive)
ROOT
ATOM      1  O1  BZF d   1      -0.762  -2.583   0.906  0.00  0.00    -0.204 OA
ATOM      2  C2  BZF d   1      -2.029  -2.034   0.881  0.00  0.00     0.174 A 
ATOM      3  C3  BZF d   1      -1.968  -0.692   0.763  0.00  0.00    -0.012 A 
ATOM      4  C3A BZF d   1      -0.577  -0.391   0.618  0.00  0.00    -0.107 A 
ATOM      5  C4  BZF d   1       0.119   0.772   0.445  0.00  0.00     0.055 A 
ATOM      6  C5  BZF d   1       1.477   0.730   0.412  0.00  0.00    -0.016 A 
ATOM      7  C6  BZF d   1       2.171  -0.454   0.553  0.00  0.00     0.022 A 
ATOM      8  C7  BZF d   1       1.524  -1.633   0.721  0.00  0.00     0.029 A 
ATOM      9  C7A BZF d   1       0.151  -1.599   0.723  0.00  0.00     0.058 A 
ENDROOT
TORSDOF 0
ENDMDL
