MODEL 1
REMARK minimizedAffinity -3.69481826
REMARK minimizedRMSD -1
REMARK  0 active torsions:
REMARK  status: ('A' for Active; 'I' for Inactive)
ROOT
ATOM      1  O1  BZF d   1      -2.171   0.849   1.813  0.00  0.00    -0.204 OA
ATOM      2  C2  BZF d   1      -2.798   0.108   2.796  0.00  0.00     0.174 A 
ATOM      3  C3  BZF d   1      -2.264  -1.128   2.876  0.00  0.00    -0.012 A 
ATOM      4  C3A BZF d   1      -1.179  -1.131   1.944  0.00  0.00    -0.107 A 
ATOM      5  C4  BZF d   1      -0.256  -2.069   1.581  0.00  0.00     0.055 A 
ATOM      6  C5  BZF d   1       0.625  -1.780   0.587  0.00  0.00    -0.016 A 
ATOM      7  C6  BZF d   1       0.607  -0.565  -0.067  0.00  0.00     0.022 A 
ATOM      8  C7  BZF d   1      -0.286   0.399   0.262  0.00  0.00     0.029 A 
ATOM      9  C7A BZF d   1      -1.156   0.122   1.288  0.00  0.00     0.058 A 
ENDROOT
TORSDOF 0
ENDMDL
