MODEL 1
REMARK minimizedAffinity -5.40245724
REMARK minimizedRMSD -1
REMARK  0 active torsions:
REMARK  status: ('A' for Active; 'I' for Inactive)
ROOT
ATOM      1  O1  BZF d   1      -0.033   1.249   0.145  0.00  0.00    -0.204 OA
ATOM      2  C2  BZF d   1       1.099   0.665  -0.389  0.00  0.00     0.174 A 
ATOM      3  C3  BZF d   1       1.135  -0.653  -0.109  0.00  0.00    -0.012 A 
ATOM      4  C3A BZF d   1      -0.095  -0.928   0.568  0.00  0.00    -0.107 A 
ATOM      5  C4  BZF d   1      -0.649  -2.064   1.085  0.00  0.00     0.055 A 
ATOM      6  C5  BZF d   1      -1.833  -1.979   1.748  0.00  0.00    -0.016 A 
ATOM      7  C6  BZF d   1      -2.485  -0.776   1.917  0.00  0.00     0.022 A 
ATOM      8  C7  BZF d   1      -1.977   0.377   1.418  0.00  0.00     0.029 A 
ATOM      9  C7A BZF d   1      -0.798   0.290   0.719  0.00  0.00     0.058 A 
ENDROOT
TORSDOF 0
ENDMDL
