MODEL 1
REMARK minimizedAffinity -3.85679913
REMARK minimizedRMSD -1
REMARK  0 active torsions:
REMARK  status: ('A' for Active; 'I' for Inactive)
ROOT
ATOM      1  O1  BZF d   1      -1.896   0.533   1.108  0.00  0.00    -0.204 OA
ATOM      2  C2  BZF d   1      -1.289   1.723   0.758  0.00  0.00     0.174 A 
ATOM      3  C3  BZF d   1      -0.007   1.516   0.392  0.00  0.00    -0.012 A 
ATOM      4  C3A BZF d   1       0.172   0.097   0.433  0.00  0.00    -0.107 A 
ATOM      5  C4  BZF d   1       1.228  -0.724   0.159  0.00  0.00     0.055 A 
ATOM      6  C5  BZF d   1       1.098  -2.060   0.370  0.00  0.00    -0.016 A 
ATOM      7  C6  BZF d   1      -0.071  -2.607   0.858  0.00  0.00     0.022 A 
ATOM      8  C7  BZF d   1      -1.147  -1.834   1.139  0.00  0.00     0.029 A 
ATOM      9  C7A BZF d   1      -1.029  -0.487   0.896  0.00  0.00     0.058 A 
ENDROOT
TORSDOF 0
ENDMDL
