MODEL 1
REMARK minimizedAffinity -6.41715717
REMARK minimizedRMSD -1
REMARK  0 active torsions:
REMARK  status: ('A' for Active; 'I' for Inactive)
ROOT
ATOM      1  O1  BZF d   1      -0.627   0.759  -0.109  0.00  0.00    -0.204 OA
ATOM      2  C2  BZF d   1       0.559   0.202  -0.548  0.00  0.00     0.174 A 
ATOM      3  C3  BZF d   1       0.654  -1.086  -0.162  0.00  0.00    -0.012 A 
ATOM      4  C3A BZF d   1      -0.588  -1.378   0.484  0.00  0.00    -0.107 A 
ATOM      5  C4  BZF d   1      -1.102  -2.501   1.068  0.00  0.00     0.055 A 
ATOM      6  C5  BZF d   1      -2.317  -2.434   1.674  0.00  0.00    -0.016 A 
ATOM      7  C6  BZF d   1      -3.041  -1.261   1.719  0.00  0.00     0.022 A 
ATOM      8  C7  BZF d   1      -2.575  -0.123   1.150  0.00  0.00     0.029 A 
ATOM      9  C7A BZF d   1      -1.363  -0.196   0.508  0.00  0.00     0.058 A 
ENDROOT
TORSDOF 0
ENDMDL
