MODEL 1
REMARK minimizedAffinity -5.35941553
REMARK minimizedRMSD -1
REMARK  0 active torsions:
REMARK  status: ('A' for Active; 'I' for Inactive)
ROOT
ATOM      1  O1  BZF d   1      -0.083   0.965   0.020  0.00  0.00    -0.204 OA
ATOM      2  C2  BZF d   1       1.178   0.510  -0.314  0.00  0.00     0.174 A 
ATOM      3  C3  BZF d   1       1.320  -0.790   0.014  0.00  0.00    -0.012 A 
ATOM      4  C3A BZF d   1       0.039  -1.197   0.504  0.00  0.00    -0.107 A 
ATOM      5  C4  BZF d   1      -0.456  -2.382   0.969  0.00  0.00     0.055 A 
ATOM      6  C5  BZF d   1      -1.730  -2.426   1.440  0.00  0.00    -0.016 A 
ATOM      7  C6  BZF d   1      -2.534  -1.306   1.466  0.00  0.00     0.022 A 
ATOM      8  C7  BZF d   1      -2.090  -0.109   1.010  0.00  0.00     0.029 A 
ATOM      9  C7A BZF d   1      -0.814  -0.069   0.503  0.00  0.00     0.058 A 
ENDROOT
TORSDOF 0
ENDMDL
