MODEL 1
REMARK minimizedAffinity -2.63805866
REMARK minimizedRMSD -1
REMARK  0 active torsions:
REMARK  status: ('A' for Active; 'I' for Inactive)
ROOT
ATOM      1  O1  BZF d   1       1.460  -0.502   0.647  0.00  0.00    -0.204 OA
ATOM      2  C2  BZF d   1       1.257   0.580  -0.188  0.00  0.00     0.174 A 
ATOM      3  C3  BZF d   1       0.025   0.537  -0.736  0.00  0.00    -0.012 A 
ATOM      4  C3A BZF d   1      -0.612  -0.597  -0.140  0.00  0.00    -0.107 A 
ATOM      5  C4  BZF d   1      -1.853  -1.152  -0.269  0.00  0.00     0.055 A 
ATOM      6  C5  BZF d   1      -2.136  -2.301   0.399  0.00  0.00    -0.016 A 
ATOM      7  C6  BZF d   1      -1.200  -2.925   1.198  0.00  0.00     0.022 A 
ATOM      8  C7  BZF d   1       0.042  -2.410   1.361  0.00  0.00     0.029 A 
ATOM      9  C7A BZF d   1       0.320  -1.231   0.714  0.00  0.00     0.058 A 
ENDROOT
TORSDOF 0
ENDMDL
