MODEL 1
REMARK minimizedAffinity -5.04167843
REMARK minimizedRMSD -1
REMARK  0 active torsions:
REMARK  status: ('A' for Active; 'I' for Inactive)
ROOT
ATOM      1  O1  BZF d   1      -0.503  -2.786   0.728  0.00  0.00    -0.204 OA
ATOM      2  C2  BZF d   1      -1.884  -2.824   0.741  0.00  0.00     0.174 A 
ATOM      3  C3  BZF d   1      -2.398  -1.597   0.518  0.00  0.00    -0.012 A 
ATOM      4  C3A BZF d   1      -1.268  -0.756   0.264  0.00  0.00    -0.107 A 
ATOM      5  C4  BZF d   1      -1.133   0.568  -0.039  0.00  0.00     0.055 A 
ATOM      6  C5  BZF d   1       0.114   1.096  -0.154  0.00  0.00    -0.016 A 
ATOM      7  C6  BZF d   1       1.246   0.330   0.033  0.00  0.00     0.022 A 
ATOM      8  C7  BZF d   1       1.163  -0.990   0.330  0.00  0.00     0.029 A 
ATOM      9  C7A BZF d   1      -0.096  -1.533   0.414  0.00  0.00     0.058 A 
ENDROOT
TORSDOF 0
ENDMDL
