MODEL 1
REMARK minimizedAffinity 8.29999352
REMARK minimizedRMSD -1
REMARK  1 active torsions:
REMARK  status: ('A' for Active; 'I' for Inactive)
REMARK    1  A    between atoms: C1_2  and  C2_3 
ROOT
ATOM      1  C2  UNL d   1       4.228  -1.945   0.563  0.00  0.00    -0.081 A 
ATOM      2  C3  UNL d   1       3.285  -0.931   0.356  0.00  0.00     0.006 A 
ATOM      3  C4  UNL d   1       1.966  -1.092   0.785  0.00  0.00     0.002 A 
ATOM      4  C5  UNL d   1       1.569  -2.266   1.435  0.00  0.00    -0.080 A 
ATOM      5  C6  UNL d   1       0.163  -2.439   1.928  0.00  0.00     0.076 C 
ATOM      6  C7  UNL d   1       2.507  -3.286   1.627  0.00  0.00     0.002 A 
ATOM      7  C8  UNL d   1       3.826  -3.126   1.198  0.00  0.00     0.006 A 
ENDROOT
BRANCH   1   8
ATOM      8  C1  UNL d   1       5.667  -1.748   0.160  0.00  0.00     0.054 C 
ATOM      9  C   UNL d   1       5.907  -0.339  -0.363  0.00  0.00     0.018 C 
ENDBRANCH   1   8
TORSDOF 1
ENDMDL
