MODEL 1
REMARK minimizedAffinity 2.31366444
REMARK minimizedRMSD -1
REMARK  1 active torsions:
REMARK  status: ('A' for Active; 'I' for Inactive)
REMARK    1  A    between atoms: C1_2  and  C2_3 
ROOT
ATOM      1  C2  UNL d   1       0.085  -1.877   2.065  0.00  0.00    -0.081 A 
ATOM      2  C3  UNL d   1      -0.912  -1.687   1.101  0.00  0.00     0.006 A 
ATOM      3  C4  UNL d   1      -2.003  -0.855   1.364  0.00  0.00     0.002 A 
ATOM      4  C5  UNL d   1      -2.110  -0.192   2.591  0.00  0.00    -0.080 A 
ATOM      5  C6  UNL d   1      -3.260   0.728   2.875  0.00  0.00     0.076 C 
ATOM      6  C7  UNL d   1      -1.123  -0.396   3.561  0.00  0.00     0.002 A 
ATOM      7  C8  UNL d   1      -0.033  -1.228   3.299  0.00  0.00     0.006 A 
ENDROOT
BRANCH   1   8
ATOM      8  C1  UNL d   1       1.295  -2.723   1.761  0.00  0.00     0.054 C 
ATOM      9  C   UNL d   1       1.756  -2.531   0.323  0.00  0.00     0.018 C 
ENDBRANCH   1   8
TORSDOF 1
ENDMDL
