MODEL 1
REMARK minimizedAffinity 9.45433807
REMARK minimizedRMSD -1
REMARK  1 active torsions:
REMARK  status: ('A' for Active; 'I' for Inactive)
REMARK    1  A    between atoms: C1_2  and  C2_3 
ROOT
ATOM      1  C2  UNL d   1      -0.298   2.882  -3.643  0.00  0.00    -0.081 A 
ATOM      2  C3  UNL d   1       0.016   1.921  -2.675  0.00  0.00     0.006 A 
ATOM      3  C4  UNL d   1      -0.957   1.473  -1.780  0.00  0.00     0.002 A 
ATOM      4  C5  UNL d   1      -2.263   1.972  -1.842  0.00  0.00    -0.080 A 
ATOM      5  C6  UNL d   1      -3.325   1.477  -0.906  0.00  0.00     0.076 C 
ATOM      6  C7  UNL d   1      -2.573   2.946  -2.797  0.00  0.00     0.002 A 
ATOM      7  C8  UNL d   1      -1.599   3.395  -3.693  0.00  0.00     0.006 A 
ENDROOT
BRANCH   1   8
ATOM      8  C1  UNL d   1       0.733   3.320  -4.652  0.00  0.00     0.054 C 
ATOM      9  C   UNL d   1       1.274   4.705  -4.325  0.00  0.00     0.018 C 
ENDBRANCH   1   8
TORSDOF 1
ENDMDL
