MODEL 1
REMARK minimizedAffinity 2.59565616
REMARK minimizedRMSD -1
REMARK  1 active torsions:
REMARK  status: ('A' for Active; 'I' for Inactive)
REMARK    1  A    between atoms: C1_2  and  C2_3 
ROOT
ATOM      1  C2  UNL d   1       1.742  -3.364   1.977  0.00  0.00    -0.081 A 
ATOM      2  C3  UNL d   1       1.072  -2.382   2.717  0.00  0.00     0.006 A 
ATOM      3  C4  UNL d   1      -0.172  -2.653   3.292  0.00  0.00     0.002 A 
ATOM      4  C5  UNL d   1      -0.763  -3.913   3.143  0.00  0.00    -0.080 A 
ATOM      5  C6  UNL d   1      -2.084  -4.227   3.780  0.00  0.00     0.076 C 
ATOM      6  C7  UNL d   1      -0.102  -4.888   2.389  0.00  0.00     0.002 A 
ATOM      7  C8  UNL d   1       1.141  -4.617   1.813  0.00  0.00     0.006 A 
ENDROOT
BRANCH   1   8
ATOM      8  C1  UNL d   1       3.113  -3.095   1.410  0.00  0.00     0.054 C 
ATOM      9  C   UNL d   1       3.162  -1.753   0.695  0.00  0.00     0.018 C 
ENDBRANCH   1   8
TORSDOF 1
ENDMDL
