MODEL 1
REMARK minimizedAffinity -5.48182154
REMARK minimizedRMSD -1
REMARK  0 active torsions:
REMARK  status: ('A' for Active; 'I' for Inactive)
ROOT
ATOM      1  C   UNL d   1      -2.882  -1.596  -0.111  0.00  0.00    -0.002 A 
ATOM      2  C1  UNL d   1      -2.334  -2.169   1.028  0.00  0.00     0.010 A 
ATOM      3  C2  UNL d   1      -1.105  -1.727   1.524  0.00  0.00     0.041 A 
ATOM      4  C3  UNL d   1      -0.432  -0.689   0.851  0.00  0.00    -0.075 A 
ATOM      5  S   UNL d   1       1.083   0.014   1.276  0.00  0.00     0.015 SA
ATOM      6  C4  UNL d   1       1.038   1.093  -0.043  0.00  0.00     0.022 A 
ATOM      7  C5  UNL d   1      -0.099   0.933  -0.800  0.00  0.00     0.026 A 
ATOM      8  C6  UNL d   1      -0.965  -0.096  -0.297  0.00  0.00    -0.082 A 
ATOM      9  C7  UNL d   1      -2.212  -0.566  -0.775  0.00  0.00     0.045 A 
ENDROOT
TORSDOF 0
ENDMDL
