MODEL 1
REMARK minimizedAffinity 0.906249106
REMARK minimizedRMSD -1
REMARK  0 active torsions:
REMARK  status: ('A' for Active; 'I' for Inactive)
ROOT
ATOM      1  C   UNL d   1      -0.534  -0.239  -0.796  0.00  0.00    -0.002 A 
ATOM      2  C1  UNL d   1      -1.187   0.098   0.381  0.00  0.00     0.010 A 
ATOM      3  C2  UNL d   1      -0.616   1.005   1.276  0.00  0.00     0.041 A 
ATOM      4  C3  UNL d   1       0.634   1.574   0.964  0.00  0.00    -0.075 A 
ATOM      5  S   UNL d   1       1.524   2.708   1.909  0.00  0.00     0.015 SA
ATOM      6  C4  UNL d   1       2.793   2.773   0.773  0.00  0.00     0.022 A 
ATOM      7  C5  UNL d   1       2.559   1.955  -0.308  0.00  0.00     0.026 A 
ATOM      8  C6  UNL d   1       1.311   1.251  -0.215  0.00  0.00    -0.082 A 
ATOM      9  C7  UNL d   1       0.706   0.328  -1.102  0.00  0.00     0.045 A 
ENDROOT
TORSDOF 0
ENDMDL
