MODEL 1
REMARK minimizedAffinity -0.323506743
REMARK minimizedRMSD -1
REMARK  0 active torsions:
REMARK  status: ('A' for Active; 'I' for Inactive)
ROOT
ATOM      1  C   UNL d   1      -2.889  -1.374  -1.371  0.00  0.00    -0.002 A 
ATOM      2  C1  UNL d   1      -2.992  -1.677  -0.021  0.00  0.00     0.010 A 
ATOM      3  C2  UNL d   1      -1.969  -1.334   0.865  0.00  0.00     0.041 A 
ATOM      4  C3  UNL d   1      -0.829  -0.674   0.366  0.00  0.00    -0.075 A 
ATOM      5  S   UNL d   1       0.549  -0.156   1.264  0.00  0.00     0.015 SA
ATOM      6  C4  UNL d   1       1.307   0.480  -0.123  0.00  0.00     0.022 A 
ATOM      7  C5  UNL d   1       0.542   0.311  -1.253  0.00  0.00     0.026 A 
ATOM      8  C6  UNL d   1      -0.702  -0.357  -0.989  0.00  0.00    -0.082 A 
ATOM      9  C7  UNL d   1      -1.756  -0.718  -1.862  0.00  0.00     0.045 A 
ENDROOT
TORSDOF 0
ENDMDL
