MODEL 1
REMARK minimizedAffinity -2.64024901
REMARK minimizedRMSD -1
REMARK  0 active torsions:
REMARK  status: ('A' for Active; 'I' for Inactive)
ROOT
ATOM      1  C   UNL d   1      -1.558  -0.657   1.775  0.00  0.00    -0.002 A 
ATOM      2  C1  UNL d   1      -2.661  -1.374   1.334  0.00  0.00     0.010 A 
ATOM      3  C2  UNL d   1      -2.909  -1.526  -0.032  0.00  0.00     0.041 A 
ATOM      4  C3  UNL d   1      -2.020  -0.941  -0.955  0.00  0.00    -0.075 A 
ATOM      5  S   UNL d   1      -2.123  -0.997  -2.676  0.00  0.00     0.015 SA
ATOM      6  C4  UNL d   1      -0.704  -0.072  -2.865  0.00  0.00     0.022 A 
ATOM      7  C5  UNL d   1      -0.153   0.280  -1.656  0.00  0.00     0.026 A 
ATOM      8  C6  UNL d   1      -0.902  -0.216  -0.535  0.00  0.00    -0.082 A 
ATOM      9  C7  UNL d   1      -0.678  -0.079   0.856  0.00  0.00     0.045 A 
ENDROOT
TORSDOF 0
ENDMDL
