MODEL 1
REMARK minimizedAffinity -3.98726916
REMARK minimizedRMSD -1
REMARK  0 active torsions:
REMARK  status: ('A' for Active; 'I' for Inactive)
ROOT
ATOM      1  C   UNL d   1      -3.747  -1.038  -0.741  0.00  0.00    -0.002 A 
ATOM      2  C1  UNL d   1      -3.061  -1.413  -1.887  0.00  0.00     0.010 A 
ATOM      3  C2  UNL d   1      -1.698  -1.140  -2.020  0.00  0.00     0.041 A 
ATOM      4  C3  UNL d   1      -1.029  -0.479  -0.970  0.00  0.00    -0.075 A 
ATOM      5  S   UNL d   1       0.637  -0.042  -0.911  0.00  0.00     0.015 SA
ATOM      6  C4  UNL d   1       0.477   0.652   0.637  0.00  0.00     0.022 A 
ATOM      7  C5  UNL d   1      -0.809   0.561   1.112  0.00  0.00     0.026 A 
ATOM      8  C6  UNL d   1      -1.699  -0.093   0.194  0.00  0.00    -0.082 A 
ATOM      9  C7  UNL d   1      -3.081  -0.382   0.298  0.00  0.00     0.045 A 
ENDROOT
TORSDOF 0
ENDMDL
