MODEL 1
REMARK minimizedAffinity -2.94504023
REMARK minimizedRMSD -1
REMARK  0 active torsions:
REMARK  status: ('A' for Active; 'I' for Inactive)
ROOT
ATOM      1  C   UNL d   1      -2.270   0.129  -2.001  0.00  0.00    -0.002 A 
ATOM      2  C1  UNL d   1      -2.815  -0.763  -1.089  0.00  0.00     0.010 A 
ATOM      3  C2  UNL d   1      -2.068  -1.208   0.003  0.00  0.00     0.041 A 
ATOM      4  C3  UNL d   1      -0.751  -0.735   0.167  0.00  0.00    -0.075 A 
ATOM      5  S   UNL d   1       0.350  -1.141   1.429  0.00  0.00     0.015 SA
ATOM      6  C4  UNL d   1       1.571  -0.139   0.788  0.00  0.00     0.022 A 
ATOM      7  C5  UNL d   1       1.165   0.497  -0.361  0.00  0.00     0.026 A 
ATOM      8  C6  UNL d   1      -0.180   0.165  -0.738  0.00  0.00    -0.082 A 
ATOM      9  C7  UNL d   1      -0.963   0.596  -1.836  0.00  0.00     0.045 A 
ENDROOT
TORSDOF 0
ENDMDL
