MODEL 1
REMARK minimizedAffinity -3.79357672
REMARK minimizedRMSD -1
REMARK  0 active torsions:
REMARK  status: ('A' for Active; 'I' for Inactive)
ROOT
ATOM      1  C   UNL d   1      -3.116  -1.756   0.261  0.00  0.00    -0.002 A 
ATOM      2  C1  UNL d   1      -2.358  -2.184   1.342  0.00  0.00     0.010 A 
ATOM      3  C2  UNL d   1      -1.096  -1.638   1.585  0.00  0.00     0.041 A 
ATOM      4  C3  UNL d   1      -0.605  -0.643   0.717  0.00  0.00    -0.075 A 
ATOM      5  S   UNL d   1       0.912   0.170   0.820  0.00  0.00     0.015 SA
ATOM      6  C4  UNL d   1       0.589   1.106  -0.568  0.00  0.00     0.022 A 
ATOM      7  C5  UNL d   1      -0.642   0.818  -1.109  0.00  0.00     0.026 A 
ATOM      8  C6  UNL d   1      -1.351  -0.194  -0.377  0.00  0.00    -0.082 A 
ATOM      9  C7  UNL d   1      -2.626  -0.769  -0.598  0.00  0.00     0.045 A 
ENDROOT
TORSDOF 0
ENDMDL
