MODEL 1
REMARK minimizedAffinity -4.65774488
REMARK minimizedRMSD -1
REMARK  0 active torsions:
REMARK  status: ('A' for Active; 'I' for Inactive)
ROOT
ATOM      1  C   UNL d   1      -2.265  -2.987   1.380  0.00  0.00    -0.002 A 
ATOM      2  C1  UNL d   1      -0.975  -2.685   1.793  0.00  0.00     0.010 A 
ATOM      3  C2  UNL d   1      -0.292  -1.595   1.249  0.00  0.00     0.041 A 
ATOM      4  C3  UNL d   1      -0.934  -0.805   0.276  0.00  0.00    -0.075 A 
ATOM      5  S   UNL d   1      -0.293   0.579  -0.528  0.00  0.00     0.015 SA
ATOM      6  C4  UNL d   1      -1.717   0.803  -1.437  0.00  0.00     0.022 A 
ATOM      7  C5  UNL d   1      -2.669  -0.146  -1.147  0.00  0.00     0.026 A 
ATOM      8  C6  UNL d   1      -2.234  -1.088  -0.155  0.00  0.00    -0.082 A 
ATOM      9  C7  UNL d   1      -2.899  -2.200   0.415  0.00  0.00     0.045 A 
ENDROOT
TORSDOF 0
ENDMDL
