MODEL 1
REMARK minimizedAffinity -1.40363562
REMARK minimizedRMSD -1
REMARK  0 active torsions:
REMARK  status: ('A' for Active; 'I' for Inactive)
ROOT
ATOM      1  C   UNL d   1      -3.038  -0.632  -0.235  0.00  0.00    -0.002 A 
ATOM      2  C1  UNL d   1      -2.664  -0.910   1.071  0.00  0.00     0.010 A 
ATOM      3  C2  UNL d   1      -1.327  -0.808   1.464  0.00  0.00     0.041 A 
ATOM      4  C3  UNL d   1      -0.365  -0.417   0.512  0.00  0.00    -0.075 A 
ATOM      5  S   UNL d   1       1.329  -0.224   0.766  0.00  0.00     0.015 SA
ATOM      6  C4  UNL d   1       1.595   0.232  -0.855  0.00  0.00     0.022 A 
ATOM      7  C5  UNL d   1       0.431   0.243  -1.585  0.00  0.00     0.026 A 
ATOM      8  C6  UNL d   1      -0.718  -0.131  -0.810  0.00  0.00    -0.082 A 
ATOM      9  C7  UNL d   1      -2.081  -0.244  -1.177  0.00  0.00     0.045 A 
ENDROOT
TORSDOF 0
ENDMDL
