MODEL 1
REMARK minimizedAffinity -2.75830102
REMARK minimizedRMSD -1
REMARK  0 active torsions:
REMARK  status: ('A' for Active; 'I' for Inactive)
ROOT
ATOM      1  C   UNL d   1      -2.769   0.129  -1.036  0.00  0.00    -0.002 A 
ATOM      2  C1  UNL d   1      -2.933  -0.557   0.159  0.00  0.00     0.010 A 
ATOM      3  C2  UNL d   1      -1.829  -0.880   0.950  0.00  0.00     0.041 A 
ATOM      4  C3  UNL d   1      -0.545  -0.498   0.516  0.00  0.00    -0.075 A 
ATOM      5  S   UNL d   1       0.953  -0.785   1.321  0.00  0.00     0.015 SA
ATOM      6  C4  UNL d   1       1.846  -0.003   0.098  0.00  0.00     0.022 A 
ATOM      7  C5  UNL d   1       1.037   0.471  -0.908  0.00  0.00     0.026 A 
ATOM      8  C6  UNL d   1      -0.354   0.195  -0.683  0.00  0.00    -0.082 A 
ATOM      9  C7  UNL d   1      -1.493   0.507  -1.463  0.00  0.00     0.045 A 
ENDROOT
TORSDOF 0
ENDMDL
