MODEL 1
REMARK minimizedAffinity -2.79286623
REMARK minimizedRMSD -1
REMARK  0 active torsions:
REMARK  status: ('A' for Active; 'I' for Inactive)
ROOT
ATOM      1  C   UNL d   1      -2.723  -0.659   0.204  0.00  0.00    -0.002 A 
ATOM      2  C1  UNL d   1      -2.348  -1.053   1.481  0.00  0.00     0.010 A 
ATOM      3  C2  UNL d   1      -1.006  -1.035   1.864  0.00  0.00     0.041 A 
ATOM      4  C3  UNL d   1      -0.037  -0.608   0.934  0.00  0.00    -0.075 A 
ATOM      5  S   UNL d   1       1.666  -0.503   1.182  0.00  0.00     0.015 SA
ATOM      6  C4  UNL d   1       1.935   0.069  -0.401  0.00  0.00     0.022 A 
ATOM      7  C5  UNL d   1       0.766   0.181  -1.115  0.00  0.00     0.026 A 
ATOM      8  C6  UNL d   1      -0.391  -0.206  -0.357  0.00  0.00    -0.082 A 
ATOM      9  C7  UNL d   1      -1.760  -0.237  -0.715  0.00  0.00     0.045 A 
ENDROOT
TORSDOF 0
ENDMDL
