MODEL 1
REMARK minimizedAffinity -3.25503516
REMARK minimizedRMSD -1
REMARK  0 active torsions:
REMARK  status: ('A' for Active; 'I' for Inactive)
ROOT
ATOM      1  C1  DEN d   1      -0.939   1.663  -0.983  0.00  0.00     0.130 A 
ATOM      2  C2  DEN d   1       0.380   1.221  -0.539  0.00  0.00    -0.031 A 
ATOM      3  C3  DEN d   1       0.220   0.549   0.767  0.00  0.00     0.027 A 
ATOM      4  C4  DEN d   1      -1.930   0.149   2.133  0.00  0.00     0.027 A 
ATOM      5  C5  DEN d   1      -3.292   0.355   2.169  0.00  0.00    -0.003 A 
ATOM      6  C6  DEN d   1      -3.954   1.034   1.181  0.00  0.00     0.001 A 
ATOM      7  C7  DEN d   1      -3.262   1.494   0.093  0.00  0.00     0.017 A 
ATOM      8  C8  DEN d   1      -1.888   1.298   0.053  0.00  0.00    -0.094 A 
ATOM      9  C9  DEN d   1      -1.238   0.598   1.055  0.00  0.00    -0.072 A 
ENDROOT
TORSDOF 0
ENDMDL
