MODEL 1
REMARK minimizedAffinity -1.71697342
REMARK minimizedRMSD -1
REMARK  0 active torsions:
REMARK  status: ('A' for Active; 'I' for Inactive)
ROOT
ATOM      1  C1  DEN d   1       2.305  -1.442  -1.751  0.00  0.00     0.130 A 
ATOM      2  C2  DEN d   1       1.739  -2.614  -1.089  0.00  0.00    -0.031 A 
ATOM      3  C3  DEN d   1       0.706  -2.149  -0.142  0.00  0.00     0.027 A 
ATOM      4  C4  DEN d   1      -0.072   0.258   0.357  0.00  0.00     0.027 A 
ATOM      5  C5  DEN d   1       0.122   1.587   0.050  0.00  0.00    -0.003 A 
ATOM      6  C6  DEN d   1       1.073   1.998  -0.845  0.00  0.00     0.001 A 
ATOM      7  C7  DEN d   1       1.836   1.068  -1.501  0.00  0.00     0.017 A 
ATOM      8  C8  DEN d   1       1.651  -0.273  -1.192  0.00  0.00    -0.094 A 
ATOM      9  C9  DEN d   1       0.676  -0.670  -0.292  0.00  0.00    -0.072 A 
ENDROOT
TORSDOF 0
ENDMDL
