MODEL 1
REMARK minimizedAffinity -2.93464684
REMARK minimizedRMSD -1
REMARK  0 active torsions:
REMARK  status: ('A' for Active; 'I' for Inactive)
ROOT
ATOM      1  C1  DEN d   1      -0.475  -0.269   0.364  0.00  0.00     0.130 A 
ATOM      2  C2  DEN d   1      -0.258   1.172   0.274  0.00  0.00    -0.031 A 
ATOM      3  C3  DEN d   1       0.940   1.402  -0.558  0.00  0.00     0.027 A 
ATOM      4  C4  DEN d   1       2.470  -0.325  -1.712  0.00  0.00     0.027 A 
ATOM      5  C5  DEN d   1       2.693  -1.669  -1.913  0.00  0.00    -0.003 A 
ATOM      6  C6  DEN d   1       1.903  -2.634  -1.346  0.00  0.00     0.001 A 
ATOM      7  C7  DEN d   1       0.824  -2.267  -0.587  0.00  0.00     0.017 A 
ATOM      8  C8  DEN d   1       0.596  -0.914  -0.373  0.00  0.00    -0.094 A 
ATOM      9  C9  DEN d   1       1.399   0.047  -0.965  0.00  0.00    -0.072 A 
ENDROOT
TORSDOF 0
ENDMDL
