MODEL 1
REMARK minimizedAffinity -3.78431773
REMARK minimizedRMSD -1
REMARK  0 active torsions:
REMARK  status: ('A' for Active; 'I' for Inactive)
ROOT
ATOM      1  C1  DEN d   1       2.563  -1.365  -1.716  0.00  0.00     0.130 A 
ATOM      2  C2  DEN d   1       2.052  -2.598  -1.124  0.00  0.00    -0.031 A 
ATOM      3  C3  DEN d   1       0.943  -2.243  -0.216  0.00  0.00     0.027 A 
ATOM      4  C4  DEN d   1      -0.030   0.084   0.324  0.00  0.00     0.027 A 
ATOM      5  C5  DEN d   1       0.084   1.434   0.073  0.00  0.00    -0.003 A 
ATOM      6  C6  DEN d   1       1.045   1.944  -0.758  0.00  0.00     0.001 A 
ATOM      7  C7  DEN d   1       1.903   1.094  -1.405  0.00  0.00     0.017 A 
ATOM      8  C8  DEN d   1       1.800  -0.267  -1.151  0.00  0.00    -0.094 A 
ATOM      9  C9  DEN d   1       0.813  -0.764  -0.317  0.00  0.00    -0.072 A 
ENDROOT
TORSDOF 0
ENDMDL
