MODEL 1
REMARK minimizedAffinity -6.35791492
REMARK minimizedRMSD -1
REMARK  0 active torsions:
REMARK  status: ('A' for Active; 'I' for Inactive)
ROOT
ATOM      1  C1  DEN d   1       0.221   1.135   0.235  0.00  0.00     0.130 A 
ATOM      2  C2  DEN d   1      -0.574   0.343   1.169  0.00  0.00    -0.031 A 
ATOM      3  C3  DEN d   1      -0.498  -1.071   0.749  0.00  0.00     0.027 A 
ATOM      4  C4  DEN d   1       0.771  -2.105  -1.243  0.00  0.00     0.027 A 
ATOM      5  C5  DEN d   1       1.577  -1.830  -2.326  0.00  0.00    -0.003 A 
ATOM      6  C6  DEN d   1       1.957  -0.554  -2.648  0.00  0.00     0.001 A 
ATOM      7  C7  DEN d   1       1.567   0.491  -1.853  0.00  0.00     0.017 A 
ATOM      8  C8  DEN d   1       0.748   0.222  -0.764  0.00  0.00    -0.094 A 
ATOM      9  C9  DEN d   1       0.385  -1.076  -0.448  0.00  0.00    -0.072 A 
ENDROOT
TORSDOF 0
ENDMDL
