MODEL 1
REMARK minimizedAffinity -3.36986017
REMARK minimizedRMSD -1
REMARK  0 active torsions:
REMARK  status: ('A' for Active; 'I' for Inactive)
ROOT
ATOM      1  C1  DEN d   1       1.010  -2.693  -0.423  0.00  0.00     0.130 A 
ATOM      2  C2  DEN d   1       2.065  -2.851  -1.420  0.00  0.00    -0.031 A 
ATOM      3  C3  DEN d   1       2.501  -1.504  -1.841  0.00  0.00     0.027 A 
ATOM      4  C4  DEN d   1       1.653   0.798  -1.045  0.00  0.00     0.027 A 
ATOM      5  C5  DEN d   1       0.759   1.440  -0.217  0.00  0.00    -0.003 A 
ATOM      6  C6  DEN d   1      -0.130   0.755   0.569  0.00  0.00     0.001 A 
ATOM      7  C7  DEN d   1      -0.114  -0.614   0.577  0.00  0.00     0.017 A 
ATOM      8  C8  DEN d   1       0.780  -1.269  -0.261  0.00  0.00    -0.094 A 
ATOM      9  C9  DEN d   1       1.679  -0.559  -1.039  0.00  0.00    -0.072 A 
ENDROOT
TORSDOF 0
ENDMDL
