MODEL 1
REMARK minimizedAffinity -3.42276263
REMARK minimizedRMSD -1
REMARK  0 active torsions:
REMARK  status: ('A' for Active; 'I' for Inactive)
ROOT
ATOM      1  C1  DEN d   1      -0.374   1.473  -0.799  0.00  0.00     0.130 A 
ATOM      2  C2  DEN d   1       0.766   0.699  -1.283  0.00  0.00    -0.031 A 
ATOM      3  C3  DEN d   1       0.932  -0.471  -0.398  0.00  0.00     0.027 A 
ATOM      4  C4  DEN d   1      -0.462  -1.159   1.661  0.00  0.00     0.027 A 
ATOM      5  C5  DEN d   1      -1.523  -0.809   2.465  0.00  0.00    -0.003 A 
ATOM      6  C6  DEN d   1      -2.249   0.335   2.260  0.00  0.00     0.001 A 
ATOM      7  C7  DEN d   1      -1.951   1.147   1.198  0.00  0.00     0.017 A 
ATOM      8  C8  DEN d   1      -0.877   0.804   0.387  0.00  0.00    -0.094 A 
ATOM      9  C9  DEN d   1      -0.163  -0.362   0.603  0.00  0.00    -0.072 A 
ENDROOT
TORSDOF 0
ENDMDL
