MODEL 1
REMARK minimizedAffinity -2.02467871
REMARK minimizedRMSD -1
REMARK  0 active torsions:
REMARK  status: ('A' for Active; 'I' for Inactive)
ROOT
ATOM      1  C1  DEN d   1      -0.155   0.913   1.285  0.00  0.00     0.130 A 
ATOM      2  C2  DEN d   1       0.053  -0.039   0.198  0.00  0.00    -0.031 A 
ATOM      3  C3  DEN d   1      -1.245  -0.675  -0.107  0.00  0.00     0.027 A 
ATOM      4  C4  DEN d   1      -3.544  -0.276   0.991  0.00  0.00     0.027 A 
ATOM      5  C5  DEN d   1      -4.216   0.430   1.965  0.00  0.00    -0.003 A 
ATOM      6  C6  DEN d   1      -3.580   1.313   2.796  0.00  0.00     0.001 A 
ATOM      7  C7  DEN d   1      -2.240   1.548   2.639  0.00  0.00     0.017 A 
ATOM      8  C8  DEN d   1      -1.554   0.835   1.665  0.00  0.00    -0.094 A 
ATOM      9  C9  DEN d   1      -2.217  -0.044   0.826  0.00  0.00    -0.072 A 
ENDROOT
TORSDOF 0
ENDMDL
