MODEL 1
REMARK minimizedAffinity -4.59925556
REMARK minimizedRMSD -1
REMARK  0 active torsions:
REMARK  status: ('A' for Active; 'I' for Inactive)
ROOT
ATOM      1  C1  DEN d   1      -0.255  -0.862   0.830  0.00  0.00     0.130 A 
ATOM      2  C2  DEN d   1      -0.455   0.584   0.874  0.00  0.00    -0.031 A 
ATOM      3  C3  DEN d   1       0.432   1.199  -0.134  0.00  0.00     0.027 A 
ATOM      4  C4  DEN d   1       2.082   0.057  -1.754  0.00  0.00     0.027 A 
ATOM      5  C5  DEN d   1       2.608  -1.152  -2.154  0.00  0.00    -0.003 A 
ATOM      6  C6  DEN d   1       2.244  -2.336  -1.569  0.00  0.00     0.001 A 
ATOM      7  C7  DEN d   1       1.294  -2.341  -0.582  0.00  0.00     0.017 A 
ATOM      8  C8  DEN d   1       0.766  -1.126  -0.168  0.00  0.00    -0.094 A 
ATOM      9  C9  DEN d   1       1.138   0.059  -0.780  0.00  0.00    -0.072 A 
ENDROOT
TORSDOF 0
ENDMDL
