MODEL 1
REMARK minimizedAffinity -3.72061038
REMARK minimizedRMSD -1
REMARK  0 active torsions:
REMARK  status: ('A' for Active; 'I' for Inactive)
ROOT
ATOM      1  C1  DEN d   1      -0.207  -1.390   0.918  0.00  0.00     0.130 A 
ATOM      2  C2  DEN d   1      -0.608  -0.008   1.162  0.00  0.00    -0.031 A 
ATOM      3  C3  DEN d   1       0.113   0.853   0.202  0.00  0.00     0.027 A 
ATOM      4  C4  DEN d   1       1.797   0.181  -1.632  0.00  0.00     0.027 A 
ATOM      5  C5  DEN d   1       2.462  -0.876  -2.213  0.00  0.00    -0.003 A 
ATOM      6  C6  DEN d   1       2.311  -2.164  -1.773  0.00  0.00     0.001 A 
ATOM      7  C7  DEN d   1       1.440  -2.434  -0.750  0.00  0.00     0.017 A 
ATOM      8  C8  DEN d   1       0.772  -1.372  -0.154  0.00  0.00    -0.094 A 
ATOM      9  C9  DEN d   1       0.929  -0.079  -0.622  0.00  0.00    -0.072 A 
ENDROOT
TORSDOF 0
ENDMDL
