MODEL 1
REMARK minimizedAffinity -0.877659619
REMARK minimizedRMSD -1
REMARK  0 active torsions:
REMARK  status: ('A' for Active; 'I' for Inactive)
ROOT
ATOM      1  C1  DEN d   1      -0.385  -1.572   0.747  0.00  0.00     0.130 A 
ATOM      2  C2  DEN d   1      -0.609  -0.222   1.255  0.00  0.00    -0.031 A 
ATOM      3  C3  DEN d   1       0.240   0.705   0.480  0.00  0.00     0.027 A 
ATOM      4  C4  DEN d   1       1.868   0.182  -1.452  0.00  0.00     0.027 A 
ATOM      5  C5  DEN d   1       2.404  -0.822  -2.227  0.00  0.00    -0.003 A 
ATOM      6  C6  DEN d   1       2.076  -2.140  -2.045  0.00  0.00     0.001 A 
ATOM      7  C7  DEN d   1       1.153  -2.484  -1.093  0.00  0.00     0.017 A 
ATOM      8  C8  DEN d   1       0.614  -1.478  -0.302  0.00  0.00    -0.094 A 
ATOM      9  C9  DEN d   1       0.949  -0.151  -0.510  0.00  0.00    -0.072 A 
ENDROOT
TORSDOF 0
ENDMDL
