MODEL 1
REMARK minimizedAffinity -4.05871534
REMARK minimizedRMSD -1
REMARK  0 active torsions:
REMARK  status: ('A' for Active; 'I' for Inactive)
ROOT
ATOM      1  C1  DEN d   1       0.948  -2.680  -0.767  0.00  0.00     0.130 A 
ATOM      2  C2  DEN d   1       2.071  -3.205  -1.538  0.00  0.00    -0.031 A 
ATOM      3  C3  DEN d   1       2.786  -2.062  -2.140  0.00  0.00     0.027 A 
ATOM      4  C4  DEN d   1       2.268   0.458  -1.951  0.00  0.00     0.027 A 
ATOM      5  C5  DEN d   1       1.407   1.389  -1.414  0.00  0.00    -0.003 A 
ATOM      6  C6  DEN d   1       0.323   1.031  -0.658  0.00  0.00     0.001 A 
ATOM      7  C7  DEN d   1       0.096  -0.291  -0.380  0.00  0.00     0.017 A 
ATOM      8  C8  DEN d   1       0.955  -1.236  -0.924  0.00  0.00    -0.094 A 
ATOM      9  C9  DEN d   1       2.053  -0.854  -1.676  0.00  0.00    -0.072 A 
ENDROOT
TORSDOF 0
ENDMDL
