MODEL 1
REMARK minimizedAffinity 8.19377327
REMARK minimizedRMSD -1
REMARK  0 active torsions:
REMARK  status: ('A' for Active; 'I' for Inactive)
ROOT
ATOM      1  C1  DEN d   1      -3.045   0.461   5.998  0.00  0.00     0.130 A 
ATOM      2  C2  DEN d   1      -2.024   1.505   5.985  0.00  0.00    -0.031 A 
ATOM      3  C3  DEN d   1      -2.008   2.111   4.639  0.00  0.00     0.027 A 
ATOM      4  C4  DEN d   1      -3.461   1.541   2.585  0.00  0.00     0.027 A 
ATOM      5  C5  DEN d   1      -4.458   0.719   2.110  0.00  0.00    -0.003 A 
ATOM      6  C6  DEN d   1      -5.027  -0.261   2.880  0.00  0.00     0.001 A 
ATOM      7  C7  DEN d   1      -4.633  -0.414   4.183  0.00  0.00     0.017 A 
ATOM      8  C8  DEN d   1      -3.622   0.406   4.667  0.00  0.00    -0.094 A 
ATOM      9  C9  DEN d   1      -3.069   1.399   3.877  0.00  0.00    -0.072 A 
ENDROOT
TORSDOF 0
ENDMDL
