MODEL 1
REMARK minimizedAffinity 0.628517866
REMARK minimizedRMSD -1
REMARK  0 active torsions:
REMARK  status: ('A' for Active; 'I' for Inactive)
ROOT
ATOM      1  C1  DEN d   1       0.899  -1.057   0.915  0.00  0.00     0.130 A 
ATOM      2  C2  DEN d   1       0.675  -2.444   0.517  0.00  0.00    -0.031 A 
ATOM      3  C3  DEN d   1       1.028  -2.572  -0.911  0.00  0.00     0.027 A 
ATOM      4  C4  DEN d   1       1.901  -0.768  -2.535  0.00  0.00     0.027 A 
ATOM      5  C5  DEN d   1       2.240   0.561  -2.659  0.00  0.00    -0.003 A 
ATOM      6  C6  DEN d   1       2.125   1.444  -1.618  0.00  0.00     0.001 A 
ATOM      7  C7  DEN d   1       1.701   0.999  -0.394  0.00  0.00     0.017 A 
ATOM      8  C8  DEN d   1       1.350  -0.339  -0.263  0.00  0.00    -0.094 A 
ATOM      9  C9  DEN d   1       1.486  -1.218  -1.324  0.00  0.00    -0.072 A 
ENDROOT
TORSDOF 0
ENDMDL
