MODEL 1
REMARK minimizedAffinity -1.81321645
REMARK minimizedRMSD -1
REMARK  0 active torsions:
REMARK  status: ('A' for Active; 'I' for Inactive)
ROOT
ATOM      1  C1  DEN d   1       1.428   1.083  -1.294  0.00  0.00     0.130 A 
ATOM      2  C2  DEN d   1       2.221   0.252  -2.196  0.00  0.00    -0.031 A 
ATOM      3  C3  DEN d   1       1.992  -1.161  -1.833  0.00  0.00     0.027 A 
ATOM      4  C4  DEN d   1       0.492  -2.139   0.023  0.00  0.00     0.027 A 
ATOM      5  C5  DEN d   1      -0.366  -1.826   1.054  0.00  0.00    -0.003 A 
ATOM      6  C6  DEN d   1      -0.658  -0.531   1.393  0.00  0.00     0.001 A 
ATOM      7  C7  DEN d   1      -0.122   0.499   0.666  0.00  0.00     0.017 A 
ATOM      8  C8  DEN d   1       0.751   0.191  -0.369  0.00  0.00    -0.094 A 
ATOM      9  C9  DEN d   1       1.024  -1.124  -0.705  0.00  0.00    -0.072 A 
ENDROOT
TORSDOF 0
ENDMDL
