MODEL 1
REMARK minimizedAffinity -1.86173403
REMARK minimizedRMSD -1
REMARK  0 active torsions:
REMARK  status: ('A' for Active; 'I' for Inactive)
ROOT
ATOM      1  N1  IND d   1       2.419  -0.885   0.201  0.00  0.00    -0.196 N 
ATOM      2  C2  IND d   1       2.958  -0.378   1.351  0.00  0.00     0.054 A 
ATOM      3  C3  IND d   1       2.032   0.335   2.030  0.00  0.00    -0.031 A 
ATOM      4  C4  IND d   1      -0.457   0.716   1.491  0.00  0.00     0.051 A 
ATOM      5  C5  IND d   1      -1.399   0.482   0.530  0.00  0.00    -0.031 A 
ATOM      6  C6  IND d   1      -1.112  -0.238  -0.613  0.00  0.00     0.015 A 
ATOM      7  C7  IND d   1       0.131  -0.761  -0.831  0.00  0.00    -0.016 A 
ATOM      8  C8  IND d   1       1.093  -0.519   0.140  0.00  0.00    -0.047 A 
ATOM      9  C9  IND d   1       0.818   0.247   1.281  0.00  0.00    -0.096 A 
ATOM     10  HN1 IND d   1       2.838  -1.354  -0.385  0.00  0.00     0.298 HD
ENDROOT
TORSDOF 0
ENDMDL
