MODEL 1
REMARK minimizedAffinity 4.5474205
REMARK minimizedRMSD -1
REMARK  0 active torsions:
REMARK  status: ('A' for Active; 'I' for Inactive)
ROOT
ATOM      1  N1  IND d   1       0.579  -0.672  -0.006  0.00  0.00    -0.196 N 
ATOM      2  C2  IND d   1       0.341  -1.010  -1.310  0.00  0.00     0.054 A 
ATOM      3  C3  IND d   1      -0.973  -0.877  -1.597  0.00  0.00    -0.031 A 
ATOM      4  C4  IND d   1      -2.895  -0.025  -0.111  0.00  0.00     0.051 A 
ATOM      5  C5  IND d   1      -3.175   0.367   1.168  0.00  0.00    -0.031 A 
ATOM      6  C6  IND d   1      -2.198   0.437   2.140  0.00  0.00     0.015 A 
ATOM      7  C7  IND d   1      -0.896   0.126   1.864  0.00  0.00    -0.016 A 
ATOM      8  C8  IND d   1      -0.609  -0.279   0.569  0.00  0.00    -0.047 A 
ATOM      9  C9  IND d   1      -1.604  -0.392  -0.411  0.00  0.00    -0.096 A 
ATOM     10  HN1 IND d   1       1.343  -0.701   0.388  0.00  0.00     0.298 HD
ENDROOT
TORSDOF 0
ENDMDL
