MODEL 1
REMARK minimizedAffinity -4.0995822
REMARK minimizedRMSD -1
REMARK  0 active torsions:
REMARK  status: ('A' for Active; 'I' for Inactive)
ROOT
ATOM      1  N1  IND d   1       1.099  -0.325   3.201  0.00  0.00    -0.196 N 
ATOM      2  C2  IND d   1       2.075  -0.632   2.295  0.00  0.00     0.054 A 
ATOM      3  C3  IND d   1       1.532  -0.857   1.077  0.00  0.00    -0.031 A 
ATOM      4  C4  IND d   1      -0.922  -0.675   0.322  0.00  0.00     0.051 A 
ATOM      5  C5  IND d   1      -2.184  -0.460   0.802  0.00  0.00    -0.031 A 
ATOM      6  C6  IND d   1      -2.420  -0.180   2.132  0.00  0.00     0.015 A 
ATOM      7  C7  IND d   1      -1.398  -0.094   3.034  0.00  0.00    -0.016 A 
ATOM      8  C8  IND d   1      -0.116  -0.319   2.552  0.00  0.00    -0.047 A 
ATOM      9  C9  IND d   1       0.126  -0.645   1.211  0.00  0.00    -0.096 A 
ATOM     10  HN1 IND d   1       1.223  -0.163   4.036  0.00  0.00     0.298 HD
ENDROOT
TORSDOF 0
ENDMDL
