MODEL 1
REMARK minimizedAffinity -3.79797006
REMARK minimizedRMSD -1
REMARK  0 active torsions:
REMARK  status: ('A' for Active; 'I' for Inactive)
ROOT
ATOM      1  N1  IND d   1       0.185   0.378  -0.211  0.00  0.00    -0.196 N 
ATOM      2  C2  IND d   1      -0.714   1.129  -0.917  0.00  0.00     0.054 A 
ATOM      3  C3  IND d   1      -1.834   1.331  -0.187  0.00  0.00    -0.031 A 
ATOM      4  C4  IND d   1      -2.366   0.607   2.226  0.00  0.00     0.051 A 
ATOM      5  C5  IND d   1      -1.868  -0.130   3.264  0.00  0.00    -0.031 A 
ATOM      6  C6  IND d   1      -0.635  -0.746   3.196  0.00  0.00     0.015 A 
ATOM      7  C7  IND d   1       0.155  -0.637   2.087  0.00  0.00    -0.016 A 
ATOM      8  C8  IND d   1      -0.350   0.105   1.029  0.00  0.00    -0.047 A 
ATOM      9  C9  IND d   1      -1.619   0.696   1.075  0.00  0.00    -0.096 A 
ATOM     10  HN1 IND d   1       0.955   0.120  -0.494  0.00  0.00     0.298 HD
ENDROOT
TORSDOF 0
ENDMDL
