MODEL 1
REMARK minimizedAffinity 0.0332892537
REMARK minimizedRMSD -1
REMARK  0 active torsions:
REMARK  status: ('A' for Active; 'I' for Inactive)
ROOT
ATOM      1  N1  IND d   1       0.088  -1.770  -0.148  0.00  0.00    -0.196 N 
ATOM      2  C2  IND d   1       1.133  -1.156   0.484  0.00  0.00     0.054 A 
ATOM      3  C3  IND d   1       0.738   0.027   1.005  0.00  0.00    -0.031 A 
ATOM      4  C4  IND d   1      -1.600   1.105   1.029  0.00  0.00     0.051 A 
ATOM      5  C5  IND d   1      -2.868   0.938   0.547  0.00  0.00    -0.031 A 
ATOM      6  C6  IND d   1      -3.224  -0.164  -0.204  0.00  0.00     0.015 A 
ATOM      7  C7  IND d   1      -2.323  -1.150  -0.493  0.00  0.00    -0.016 A 
ATOM      8  C8  IND d   1      -1.033  -0.980  -0.012  0.00  0.00    -0.047 A 
ATOM      9  C9  IND d   1      -0.655   0.157   0.715  0.00  0.00    -0.096 A 
ATOM     10  HN1 IND d   1       0.124  -2.523  -0.562  0.00  0.00     0.298 HD
ENDROOT
TORSDOF 0
ENDMDL
