MODEL 1
REMARK minimizedAffinity 0.146689624
REMARK minimizedRMSD -1
REMARK  0 active torsions:
REMARK  status: ('A' for Active; 'I' for Inactive)
ROOT
ATOM      1  N1  IND d   1      -0.392  -0.054  -0.793  0.00  0.00    -0.196 N 
ATOM      2  C2  IND d   1       0.761  -0.644  -0.355  0.00  0.00     0.054 A 
ATOM      3  C3  IND d   1       0.728  -0.803   0.987  0.00  0.00    -0.031 A 
ATOM      4  C4  IND d   1      -1.160  -0.262   2.652  0.00  0.00     0.051 A 
ATOM      5  C5  IND d   1      -2.393   0.322   2.730  0.00  0.00    -0.031 A 
ATOM      6  C6  IND d   1      -3.036   0.818   1.614  0.00  0.00     0.015 A 
ATOM      7  C7  IND d   1      -2.473   0.738   0.372  0.00  0.00    -0.016 A 
ATOM      8  C8  IND d   1      -1.218   0.152   0.291  0.00  0.00    -0.047 A 
ATOM      9  C9  IND d   1      -0.541  -0.315   1.425  0.00  0.00    -0.096 A 
ATOM     10  HN1 IND d   1      -0.571   0.153  -1.608  0.00  0.00     0.298 HD
ENDROOT
TORSDOF 0
ENDMDL
