MODEL 1
REMARK minimizedAffinity 2.89604449
REMARK minimizedRMSD -1
REMARK  0 active torsions:
REMARK  status: ('A' for Active; 'I' for Inactive)
ROOT
ATOM      1  N1  IND d   1       3.998   0.137  -3.827  0.00  0.00    -0.196 N 
ATOM      2  C2  IND d   1       2.906   0.914  -4.096  0.00  0.00     0.054 A 
ATOM      3  C3  IND d   1       2.394   1.417  -2.950  0.00  0.00    -0.031 A 
ATOM      4  C4  IND d   1       3.248   1.178  -0.533  0.00  0.00     0.051 A 
ATOM      5  C5  IND d   1       4.192   0.534   0.217  0.00  0.00    -0.031 A 
ATOM      6  C6  IND d   1       5.140  -0.289  -0.355  0.00  0.00     0.015 A 
ATOM      7  C7  IND d   1       5.187  -0.491  -1.705  0.00  0.00    -0.016 A 
ATOM      8  C8  IND d   1       4.226   0.155  -2.469  0.00  0.00    -0.047 A 
ATOM      9  C9  IND d   1       3.235   0.958  -1.890  0.00  0.00    -0.096 A 
ATOM     10  HN1 IND d   1       4.464  -0.292  -4.409  0.00  0.00     0.298 HD
ENDROOT
TORSDOF 0
ENDMDL
