MODEL 1
REMARK minimizedAffinity -0.855244756
REMARK minimizedRMSD -1
REMARK  0 active torsions:
REMARK  status: ('A' for Active; 'I' for Inactive)
ROOT
ATOM      1  N1  IND d   1       1.710  -0.581   1.895  0.00  0.00    -0.196 N 
ATOM      2  C2  IND d   1       2.439  -0.702   0.745  0.00  0.00     0.054 A 
ATOM      3  C3  IND d   1       1.620  -0.728  -0.330  0.00  0.00    -0.031 A 
ATOM      4  C4  IND d   1      -0.940  -0.484  -0.442  0.00  0.00     0.051 A 
ATOM      5  C5  IND d   1      -2.049  -0.387   0.351  0.00  0.00    -0.031 A 
ATOM      6  C6  IND d   1      -1.959  -0.347   1.727  0.00  0.00     0.015 A 
ATOM      7  C7  IND d   1      -0.751  -0.390   2.364  0.00  0.00    -0.016 A 
ATOM      8  C8  IND d   1       0.376  -0.495   1.562  0.00  0.00    -0.047 A 
ATOM      9  C9  IND d   1       0.289  -0.579   0.166  0.00  0.00    -0.096 A 
ATOM     10  HN1 IND d   1       2.031  -0.562   2.693  0.00  0.00     0.298 HD
ENDROOT
TORSDOF 0
ENDMDL
