MODEL 1
REMARK minimizedAffinity -0.698504508
REMARK minimizedRMSD -1
REMARK  0 active torsions:
REMARK  status: ('A' for Active; 'I' for Inactive)
ROOT
ATOM      1  N1  IND d   1       0.647  -0.725   3.235  0.00  0.00    -0.196 N 
ATOM      2  C2  IND d   1      -0.032  -0.371   4.367  0.00  0.00     0.054 A 
ATOM      3  C3  IND d   1      -1.275   0.060   4.055  0.00  0.00    -0.031 A 
ATOM      4  C4  IND d   1      -2.439   0.171   1.762  0.00  0.00     0.051 A 
ATOM      5  C5  IND d   1      -2.209  -0.011   0.427  0.00  0.00    -0.031 A 
ATOM      6  C6  IND d   1      -0.992  -0.453  -0.049  0.00  0.00     0.015 A 
ATOM      7  C7  IND d   1       0.042  -0.740   0.796  0.00  0.00    -0.016 A 
ATOM      8  C8  IND d   1      -0.185  -0.549   2.152  0.00  0.00    -0.047 A 
ATOM      9  C9  IND d   1      -1.405  -0.061   2.638  0.00  0.00    -0.096 A 
ATOM     10  HN1 IND d   1       1.458  -1.009   3.205  0.00  0.00     0.298 HD
ENDROOT
TORSDOF 0
ENDMDL
