MODEL 1
REMARK minimizedAffinity -2.207968
REMARK minimizedRMSD -1
REMARK  0 active torsions:
REMARK  status: ('A' for Active; 'I' for Inactive)
ROOT
ATOM      1  C4' PXY d   1       2.349   0.647   0.261  0.00  0.00     0.077 C 
ATOM      2  C1' PXY d   1      -3.106  -1.019  -0.681  0.00  0.00     0.077 C 
ATOM      3  C1  PXY d   1      -1.677  -0.583  -0.421  0.00  0.00    -0.082 A 
ATOM      4  C2  PXY d   1      -1.044   0.153  -1.320  0.00  0.00     0.003 A 
ATOM      5  C3  PXY d   1       0.259   0.528  -1.115  0.00  0.00     0.003 A 
ATOM      6  C4  PXY d   1       0.903   0.192   0.045  0.00  0.00    -0.082 A 
ATOM      7  C5  PXY d   1       0.260  -0.549   0.972  0.00  0.00     0.003 A 
ATOM      8  C6  PXY d   1      -1.049  -0.955   0.727  0.00  0.00     0.003 A 
ENDROOT
TORSDOF 0
ENDMDL
