MODEL 1
REMARK minimizedAffinity -2.12491941
REMARK minimizedRMSD -1
REMARK  0 active torsions:
REMARK  status: ('A' for Active; 'I' for Inactive)
ROOT
ATOM      1  C4' PXY d   1       1.869   0.665  -0.477  0.00  0.00     0.077 C 
ATOM      2  C1' PXY d   1      -3.659  -0.968  -0.056  0.00  0.00     0.077 C 
ATOM      3  C1  PXY d   1      -2.211  -0.537  -0.179  0.00  0.00    -0.082 A 
ATOM      4  C2  PXY d   1      -1.313  -1.013   0.667  0.00  0.00     0.003 A 
ATOM      5  C3  PXY d   1      -0.005  -0.609   0.590  0.00  0.00     0.003 A 
ATOM      6  C4  PXY d   1       0.398   0.250  -0.396  0.00  0.00    -0.082 A 
ATOM      7  C5  PXY d   1      -0.511   0.733  -1.270  0.00  0.00     0.003 A 
ATOM      8  C6  PXY d   1      -1.841   0.342  -1.150  0.00  0.00     0.003 A 
ENDROOT
TORSDOF 0
ENDMDL
