MODEL 1
REMARK minimizedAffinity -3.6321187
REMARK minimizedRMSD -1
REMARK  0 active torsions:
REMARK  status: ('A' for Active; 'I' for Inactive)
ROOT
ATOM      1  C4' PXY d   1      -3.599  -0.998  -1.145  0.00  0.00     0.077 C 
ATOM      2  C1' PXY d   1       1.445   0.934   0.916  0.00  0.00     0.077 C 
ATOM      3  C1  PXY d   1       0.125   0.433   0.364  0.00  0.00    -0.082 A 
ATOM      4  C2  PXY d   1      -0.870   0.163   1.193  0.00  0.00     0.003 A 
ATOM      5  C3  PXY d   1      -2.060  -0.321   0.713  0.00  0.00     0.003 A 
ATOM      6  C4  PXY d   1      -2.251  -0.481  -0.633  0.00  0.00    -0.082 A 
ATOM      7  C5  PXY d   1      -1.244  -0.197  -1.486  0.00  0.00     0.003 A 
ATOM      8  C6  PXY d   1      -0.030   0.254  -0.976  0.00  0.00     0.003 A 
ENDROOT
TORSDOF 0
ENDMDL
