MODEL 1
REMARK minimizedAffinity -4.90274096
REMARK minimizedRMSD -1
REMARK  0 active torsions:
REMARK  status: ('A' for Active; 'I' for Inactive)
ROOT
ATOM      1  C4' PXY d   1      -2.598  -2.327   1.975  0.00  0.00     0.077 C 
ATOM      2  C1' PXY d   1      -0.063   0.403  -2.445  0.00  0.00     0.077 C 
ATOM      3  C1  PXY d   1      -0.740  -0.311  -1.292  0.00  0.00    -0.082 A 
ATOM      4  C2  PXY d   1      -0.148  -0.349  -0.109  0.00  0.00     0.003 A 
ATOM      5  C3  PXY d   1      -0.731  -1.018   0.937  0.00  0.00     0.003 A 
ATOM      6  C4  PXY d   1      -1.957  -1.609   0.784  0.00  0.00    -0.082 A 
ATOM      7  C5  PXY d   1      -2.571  -1.565  -0.416  0.00  0.00     0.003 A 
ATOM      8  C6  PXY d   1      -1.944  -0.917  -1.476  0.00  0.00     0.003 A 
ENDROOT
TORSDOF 0
ENDMDL
