MODEL 1
REMARK minimizedAffinity -4.67502975
REMARK minimizedRMSD -1
REMARK  0 active torsions:
REMARK  status: ('A' for Active; 'I' for Inactive)
ROOT
ATOM      1  C4' PXY d   1      -3.475  -1.520  -0.387  0.00  0.00     0.077 C 
ATOM      2  C1' PXY d   1       2.031   0.189   0.041  0.00  0.00     0.077 C 
ATOM      3  C1  PXY d   1       0.584  -0.248  -0.078  0.00  0.00    -0.082 A 
ATOM      4  C2  PXY d   1       0.094  -1.126   0.782  0.00  0.00     0.003 A 
ATOM      5  C3  PXY d   1      -1.204  -1.557   0.670  0.00  0.00     0.003 A 
ATOM      6  C4  PXY d   1      -2.022  -1.043  -0.300  0.00  0.00    -0.082 A 
ATOM      7  C5  PXY d   1      -1.532  -0.139  -1.174  0.00  0.00     0.003 A 
ATOM      8  C6  PXY d   1      -0.201   0.254  -1.069  0.00  0.00     0.003 A 
ENDROOT
TORSDOF 0
ENDMDL
