MODEL 1
REMARK minimizedAffinity -5.02920103
REMARK minimizedRMSD -1
REMARK  0 active torsions:
REMARK  status: ('A' for Active; 'I' for Inactive)
ROOT
ATOM      1  C4' PXY d   1       1.228   0.288   0.198  0.00  0.00     0.077 C 
ATOM      2  C1' PXY d   1      -3.883  -2.397  -0.101  0.00  0.00     0.077 C 
ATOM      3  C1  PXY d   1      -2.542  -1.696  -0.010  0.00  0.00    -0.082 A 
ATOM      4  C2  PXY d   1      -2.229  -0.764  -0.896  0.00  0.00     0.003 A 
ATOM      5  C3  PXY d   1      -1.008  -0.142  -0.847  0.00  0.00     0.003 A 
ATOM      6  C4  PXY d   1      -0.118  -0.440   0.150  0.00  0.00    -0.082 A 
ATOM      7  C5  PXY d   1      -0.434  -1.382   1.064  0.00  0.00     0.003 A 
ATOM      8  C6  PXY d   1      -1.662  -2.030   0.973  0.00  0.00     0.003 A 
ENDROOT
TORSDOF 0
ENDMDL
