MODEL 1
REMARK minimizedAffinity -5.0150032
REMARK minimizedRMSD -1
REMARK  0 active torsions:
REMARK  status: ('A' for Active; 'I' for Inactive)
ROOT
ATOM      1  C4' PXY d   1       1.452   0.745   0.351  0.00  0.00     0.077 C 
ATOM      2  C1' PXY d   1      -3.750  -1.717  -0.192  0.00  0.00     0.077 C 
ATOM      3  C1  PXY d   1      -2.386  -1.072  -0.036  0.00  0.00    -0.082 A 
ATOM      4  C2  PXY d   1      -1.921  -0.287  -0.994  0.00  0.00     0.003 A 
ATOM      5  C3  PXY d   1      -0.677   0.279  -0.884  0.00  0.00     0.003 A 
ATOM      6  C4  PXY d   1       0.077   0.081   0.241  0.00  0.00    -0.082 A 
ATOM      7  C5  PXY d   1      -0.395  -0.711   1.227  0.00  0.00     0.003 A 
ATOM      8  C6  PXY d   1      -1.643  -1.309   1.078  0.00  0.00     0.003 A 
ENDROOT
TORSDOF 0
ENDMDL
