MODEL 1
REMARK minimizedAffinity -5.28064156
REMARK minimizedRMSD -1
REMARK  0 active torsions:
REMARK  status: ('A' for Active; 'I' for Inactive)
ROOT
ATOM      1  C4' PXY d   1       1.134   0.323  -3.818  0.00  0.00     0.077 C 
ATOM      2  C1' PXY d   1      -1.656  -0.289   1.208  0.00  0.00     0.077 C 
ATOM      3  C1  PXY d   1      -0.917  -0.120  -0.105  0.00  0.00    -0.082 A 
ATOM      4  C2  PXY d   1      -1.529  -0.406  -1.242  0.00  0.00     0.003 A 
ATOM      5  C3  PXY d   1      -0.864  -0.289  -2.436  0.00  0.00     0.003 A 
ATOM      6  C4  PXY d   1       0.423   0.176  -2.470  0.00  0.00    -0.082 A 
ATOM      7  C5  PXY d   1       1.051   0.481  -1.314  0.00  0.00     0.003 A 
ATOM      8  C6  PXY d   1       0.372   0.316  -0.110  0.00  0.00     0.003 A 
ENDROOT
TORSDOF 0
ENDMDL
