MODEL 1
REMARK minimizedAffinity -4.7158742
REMARK minimizedRMSD -1
REMARK  0 active torsions:
REMARK  status: ('A' for Active; 'I' for Inactive)
ROOT
ATOM      1  C4' PXY d   1       1.995   0.481   0.057  0.00  0.00     0.077 C 
ATOM      2  C1' PXY d   1      -3.522  -1.234  -0.101  0.00  0.00     0.077 C 
ATOM      3  C1  PXY d   1      -2.076  -0.781  -0.072  0.00  0.00    -0.082 A 
ATOM      4  C2  PXY d   1      -1.264  -1.245   0.864  0.00  0.00     0.003 A 
ATOM      5  C3  PXY d   1       0.039  -0.821   0.924  0.00  0.00     0.003 A 
ATOM      6  C4  PXY d   1       0.530   0.045  -0.016  0.00  0.00    -0.082 A 
ATOM      7  C5  PXY d   1      -0.289   0.514  -0.981  0.00  0.00     0.003 A 
ATOM      8  C6  PXY d   1      -1.619   0.103  -1.000  0.00  0.00     0.003 A 
ENDROOT
TORSDOF 0
ENDMDL
