MODEL 1
REMARK minimizedAffinity 0.351249576
REMARK minimizedRMSD -1
REMARK  0 active torsions:
REMARK  status: ('A' for Active; 'I' for Inactive)
ROOT
ATOM      1  C4' PXY d   1      -2.702  -1.060  -1.398  0.00  0.00     0.077 C 
ATOM      2  C1' PXY d   1       2.302   0.604   0.969  0.00  0.00     0.077 C 
ATOM      3  C1  PXY d   1       0.989   0.179   0.342  0.00  0.00    -0.082 A 
ATOM      4  C2  PXY d   1       0.228  -0.712   0.957  0.00  0.00     0.003 A 
ATOM      5  C3  PXY d   1      -0.946  -1.132   0.388  0.00  0.00     0.003 A 
ATOM      6  C4  PXY d   1      -1.373  -0.595  -0.797  0.00  0.00    -0.082 A 
ATOM      7  C5  PXY d   1      -0.608   0.323  -1.426  0.00  0.00     0.003 A 
ATOM      8  C6  PXY d   1       0.601   0.705  -0.852  0.00  0.00     0.003 A 
ENDROOT
TORSDOF 0
ENDMDL
