MODEL 1
REMARK minimizedAffinity -4.79803801
REMARK minimizedRMSD -1
REMARK  0 active torsions:
REMARK  status: ('A' for Active; 'I' for Inactive)
ROOT
ATOM      1  C4' PXY d   1      -1.408  -1.636   1.932  0.00  0.00     0.077 C 
ATOM      2  C1' PXY d   1      -0.896   1.176  -3.092  0.00  0.00     0.077 C 
ATOM      3  C1  PXY d   1      -1.043   0.441  -1.774  0.00  0.00    -0.082 A 
ATOM      4  C2  PXY d   1       0.014   0.276  -0.996  0.00  0.00     0.003 A 
ATOM      5  C3  PXY d   1      -0.094  -0.413   0.184  0.00  0.00     0.003 A 
ATOM      6  C4  PXY d   1      -1.308  -0.893   0.597  0.00  0.00    -0.082 A 
ATOM      7  C5  PXY d   1      -2.394  -0.719  -0.186  0.00  0.00     0.003 A 
ATOM      8  C6  PXY d   1      -2.255  -0.052  -1.399  0.00  0.00     0.003 A 
ENDROOT
TORSDOF 0
ENDMDL
