MODEL 1
REMARK minimizedAffinity -0.230151877
REMARK minimizedRMSD -1
REMARK  0 active torsions:
REMARK  status: ('A' for Active; 'I' for Inactive)
ROOT
ATOM      1  C4' PXY d   1      -2.095  -0.122   1.930  0.00  0.00     0.077 C 
ATOM      2  C1' PXY d   1       3.033  -0.871  -0.631  0.00  0.00     0.077 C 
ATOM      3  C1  PXY d   1       1.687  -0.687   0.041  0.00  0.00    -0.082 A 
ATOM      4  C2  PXY d   1       1.006   0.431  -0.152  0.00  0.00     0.003 A 
ATOM      5  C3  PXY d   1      -0.198   0.626   0.474  0.00  0.00     0.003 A 
ATOM      6  C4  PXY d   1      -0.736  -0.355   1.263  0.00  0.00    -0.082 A 
ATOM      7  C5  PXY d   1      -0.053  -1.502   1.457  0.00  0.00     0.003 A 
ATOM      8  C6  PXY d   1       1.187  -1.665   0.845  0.00  0.00     0.003 A 
ENDROOT
TORSDOF 0
ENDMDL
