MODEL 1
REMARK minimizedAffinity -5.84754658
REMARK minimizedRMSD -1
REMARK  0 active torsions:
REMARK  status: ('A' for Active; 'I' for Inactive)
ROOT
ATOM      1  C4' PXY d   1       1.416   0.383   0.163  0.00  0.00     0.077 C 
ATOM      2  C1' PXY d   1      -3.792  -2.106  -0.157  0.00  0.00     0.077 C 
ATOM      3  C1  PXY d   1      -2.427  -1.449  -0.086  0.00  0.00    -0.082 A 
ATOM      4  C2  PXY d   1      -1.550  -1.861   0.815  0.00  0.00     0.003 A 
ATOM      5  C3  PXY d   1      -0.323  -1.257   0.914  0.00  0.00     0.003 A 
ATOM      6  C4  PXY d   1       0.029  -0.257   0.048  0.00  0.00    -0.082 A 
ATOM      7  C5  PXY d   1      -0.856   0.161  -0.880  0.00  0.00     0.003 A 
ATOM      8  C6  PXY d   1      -2.112  -0.437  -0.938  0.00  0.00     0.003 A 
ENDROOT
TORSDOF 0
ENDMDL
