MODEL 1
REMARK minimizedAffinity -2.91607976
REMARK minimizedRMSD -1
REMARK  0 active torsions:
REMARK  status: ('A' for Active; 'I' for Inactive)
ROOT
ATOM      1  C4' PXY d   1      -3.501  -0.970  -0.224  0.00  0.00     0.077 C 
ATOM      2  C1' PXY d   1       2.002   0.684   0.410  0.00  0.00     0.077 C 
ATOM      3  C1  PXY d   1       0.557   0.260   0.235  0.00  0.00    -0.082 A 
ATOM      4  C2  PXY d   1      -0.073  -0.342   1.230  0.00  0.00     0.003 A 
ATOM      5  C3  PXY d   1      -1.370  -0.762   1.077  0.00  0.00     0.003 A 
ATOM      6  C4  PXY d   1      -2.045  -0.515  -0.088  0.00  0.00    -0.082 A 
ATOM      7  C5  PXY d   1      -1.412   0.108  -1.105  0.00  0.00     0.003 A 
ATOM      8  C6  PXY d   1      -0.083   0.489  -0.944  0.00  0.00     0.003 A 
ENDROOT
TORSDOF 0
ENDMDL
