MODEL 1
REMARK minimizedAffinity -2.47695184
REMARK minimizedRMSD -1
REMARK  0 active torsions:
REMARK  status: ('A' for Active; 'I' for Inactive)
ROOT
ATOM      1  C4' PXY d   1       2.090   0.551  -0.334  0.00  0.00     0.077 C 
ATOM      2  C1' PXY d   1      -3.496  -0.929  -0.201  0.00  0.00     0.077 C 
ATOM      3  C1  PXY d   1      -2.031  -0.542  -0.249  0.00  0.00    -0.082 A 
ATOM      4  C2  PXY d   1      -1.274  -0.714   0.822  0.00  0.00     0.003 A 
ATOM      5  C3  PXY d   1       0.045  -0.340   0.806  0.00  0.00     0.003 A 
ATOM      6  C4  PXY d   1       0.608   0.166  -0.335  0.00  0.00    -0.082 A 
ATOM      7  C5  PXY d   1      -0.155   0.335  -1.435  0.00  0.00     0.003 A 
ATOM      8  C6  PXY d   1      -1.502  -0.013  -1.386  0.00  0.00     0.003 A 
ENDROOT
TORSDOF 0
ENDMDL
