MODEL 1
REMARK minimizedAffinity -3.92467403
REMARK minimizedRMSD -1
REMARK  0 active torsions:
REMARK  status: ('A' for Active; 'I' for Inactive)
ROOT
ATOM      1  C4' PXY d   1       2.561   1.619   0.307  0.00  0.00     0.077 C 
ATOM      2  C1' PXY d   1      -2.366  -1.145  -0.919  0.00  0.00     0.077 C 
ATOM      3  C1  PXY d   1      -1.077  -0.420  -0.585  0.00  0.00    -0.082 A 
ATOM      4  C2  PXY d   1      -0.475   0.306  -1.513  0.00  0.00     0.003 A 
ATOM      5  C3  PXY d   1       0.708   0.942  -1.237  0.00  0.00     0.003 A 
ATOM      6  C4  PXY d   1       1.253   0.877   0.017  0.00  0.00    -0.082 A 
ATOM      7  C5  PXY d   1       0.640   0.147   0.973  0.00  0.00     0.003 A 
ATOM      8  C6  PXY d   1      -0.538  -0.525   0.661  0.00  0.00     0.003 A 
ENDROOT
TORSDOF 0
ENDMDL
