MODEL 1
REMARK minimizedAffinity -4.60194683
REMARK minimizedRMSD -1
REMARK  0 active torsions:
REMARK  status: ('A' for Active; 'I' for Inactive)
ROOT
ATOM      1  C4' PXY d   1       0.987   0.715   0.312  0.00  0.00     0.077 C 
ATOM      2  C1' PXY d   1      -3.900  -2.277  -0.455  0.00  0.00     0.077 C 
ATOM      3  C1  PXY d   1      -2.618  -1.490  -0.266  0.00  0.00    -0.082 A 
ATOM      4  C2  PXY d   1      -1.845  -1.738   0.778  0.00  0.00     0.003 A 
ATOM      5  C3  PXY d   1      -0.698  -1.014   0.981  0.00  0.00     0.003 A 
ATOM      6  C4  PXY d   1      -0.312  -0.062   0.077  0.00  0.00    -0.082 A 
ATOM      7  C5  PXY d   1      -1.089   0.191  -0.998  0.00  0.00     0.003 A 
ATOM      8  C6  PXY d   1      -2.270  -0.527  -1.163  0.00  0.00     0.003 A 
ENDROOT
TORSDOF 0
ENDMDL
