MODEL 1
REMARK minimizedAffinity -4.99355936
REMARK minimizedRMSD -1
REMARK  0 active torsions:
REMARK  status: ('A' for Active; 'I' for Inactive)
ROOT
ATOM      1  C4' PXY d   1       2.024   0.488   0.827  0.00  0.00     0.077 C 
ATOM      2  C1' PXY d   1      -3.376  -1.252  -0.284  0.00  0.00     0.077 C 
ATOM      3  C1  PXY d   1      -1.957  -0.795  -0.005  0.00  0.00    -0.082 A 
ATOM      4  C2  PXY d   1      -1.385  -1.103   1.147  0.00  0.00     0.003 A 
ATOM      5  C3  PXY d   1      -0.115  -0.671   1.428  0.00  0.00     0.003 A 
ATOM      6  C4  PXY d   1       0.597   0.040   0.499  0.00  0.00    -0.082 A 
ATOM      7  C5  PXY d   1       0.024   0.349  -0.683  0.00  0.00     0.003 A 
ATOM      8  C6  PXY d   1      -1.281  -0.064  -0.933  0.00  0.00     0.003 A 
ENDROOT
TORSDOF 0
ENDMDL
