MODEL 1
REMARK minimizedAffinity -3.77075267
REMARK minimizedRMSD -1
REMARK  0 active torsions:
REMARK  status: ('A' for Active; 'I' for Inactive)
ROOT
ATOM      1  C4' PXY d   1       1.529   0.547   0.004  0.00  0.00     0.077 C 
ATOM      2  C1' PXY d   1      -3.844  -1.582   0.078  0.00  0.00     0.077 C 
ATOM      3  C1  PXY d   1      -2.436  -1.022   0.046  0.00  0.00    -0.082 A 
ATOM      4  C2  PXY d   1      -1.591  -1.319   1.020  0.00  0.00     0.003 A 
ATOM      5  C3  PXY d   1      -0.324  -0.796   1.023  0.00  0.00     0.003 A 
ATOM      6  C4  PXY d   1       0.101  -0.003  -0.009  0.00  0.00    -0.082 A 
ATOM      7  C5  PXY d   1      -0.752   0.296  -1.012  0.00  0.00     0.003 A 
ATOM      8  C6  PXY d   1      -2.047  -0.211  -0.976  0.00  0.00     0.003 A 
ENDROOT
TORSDOF 0
ENDMDL
