MODEL 1
REMARK minimizedAffinity 1.04271567
REMARK minimizedRMSD -1
REMARK  0 active torsions:
REMARK  status: ('A' for Active; 'I' for Inactive)
ROOT
ATOM      1  N1  IND d   1       3.772   5.989   3.623  0.00  0.00    -0.196 N 
ATOM      2  C2  IND d   1       4.663   5.438   4.501  0.00  0.00     0.054 A 
ATOM      3  C3  IND d   1       5.613   4.745   3.833  0.00  0.00    -0.031 A 
ATOM      4  C4  IND d   1       5.956   4.466   1.297  0.00  0.00     0.051 A 
ATOM      5  C5  IND d   1       5.376   4.756   0.093  0.00  0.00    -0.031 A 
ATOM      6  C6  IND d   1       4.210   5.488   0.003  0.00  0.00     0.015 A 
ATOM      7  C7  IND d   1       3.583   5.970   1.117  0.00  0.00    -0.016 A 
ATOM      8  C8  IND d   1       4.165   5.672   2.341  0.00  0.00    -0.047 A 
ATOM      9  C9  IND d   1       5.325   4.894   2.442  0.00  0.00    -0.096 A 
ATOM     10  HN1 IND d   1       3.081   6.455   3.836  0.00  0.00     0.298 HD
ENDROOT
TORSDOF 0
ENDMDL
