MODEL 1
REMARK minimizedAffinity -0.115887992
REMARK minimizedRMSD -1
REMARK  0 active torsions:
REMARK  status: ('A' for Active; 'I' for Inactive)
ROOT
ATOM      1  N1  IND d   1       5.970   3.947   4.945  0.00  0.00    -0.196 N 
ATOM      2  C2  IND d   1       5.200   4.455   5.954  0.00  0.00     0.054 A 
ATOM      3  C3  IND d   1       4.288   5.323   5.459  0.00  0.00    -0.031 A 
ATOM      4  C4  IND d   1       3.815   5.981   3.015  0.00  0.00     0.051 A 
ATOM      5  C5  IND d   1       4.282   5.806   1.743  0.00  0.00    -0.031 A 
ATOM      6  C6  IND d   1       5.356   4.984   1.467  0.00  0.00     0.015 A 
ATOM      7  C7  IND d   1       5.998   4.294   2.456  0.00  0.00    -0.016 A 
ATOM      8  C8  IND d   1       5.531   4.475   3.750  0.00  0.00    -0.047 A 
ATOM      9  C9  IND d   1       4.469   5.341   4.042  0.00  0.00    -0.096 A 
ATOM     10  HN1 IND d   1       6.619   3.392   5.040  0.00  0.00     0.298 HD
ENDROOT
TORSDOF 0
ENDMDL
