MODEL 1
REMARK minimizedAffinity 9.10929775
REMARK minimizedRMSD -1
REMARK  0 active torsions:
REMARK  status: ('A' for Active; 'I' for Inactive)
ROOT
ATOM      1  N1  IND d   1       1.146  -2.280  -1.641  0.00  0.00    -0.196 N 
ATOM      2  C2  IND d   1       2.163  -2.674  -0.817  0.00  0.00     0.054 A 
ATOM      3  C3  IND d   1       3.062  -1.676  -0.668  0.00  0.00    -0.031 A 
ATOM      4  C4  IND d   1       3.011   0.723  -1.601  0.00  0.00     0.051 A 
ATOM      5  C5  IND d   1       2.302   1.539  -2.437  0.00  0.00    -0.031 A 
ATOM      6  C6  IND d   1       1.146   1.116  -3.061  0.00  0.00     0.015 A 
ATOM      7  C7  IND d   1       0.648  -0.141  -2.862  0.00  0.00    -0.016 A 
ATOM      8  C8  IND d   1       1.370  -0.974  -2.020  0.00  0.00    -0.047 A 
ATOM      9  C9  IND d   1       2.567  -0.565  -1.417  0.00  0.00    -0.096 A 
ATOM     10  HN1 IND d   1       0.479  -2.766  -1.883  0.00  0.00     0.298 HD
ENDROOT
TORSDOF 0
ENDMDL
