MODEL 1
REMARK minimizedAffinity 4.14989758
REMARK minimizedRMSD -1
REMARK  0 active torsions:
REMARK  status: ('A' for Active; 'I' for Inactive)
ROOT
ATOM      1  N1  IND d   1       5.938   3.766   2.153  0.00  0.00    -0.196 N 
ATOM      2  C2  IND d   1       5.632   4.881   1.425  0.00  0.00     0.054 A 
ATOM      3  C3  IND d   1       5.290   5.900   2.245  0.00  0.00    -0.031 A 
ATOM      4  C4  IND d   1       5.261   5.988   4.818  0.00  0.00     0.051 A 
ATOM      5  C5  IND d   1       5.428   5.204   5.925  0.00  0.00    -0.031 A 
ATOM      6  C6  IND d   1       5.783   3.874   5.829  0.00  0.00     0.015 A 
ATOM      7  C7  IND d   1       5.997   3.279   4.618  0.00  0.00    -0.016 A 
ATOM      8  C8  IND d   1       5.821   4.071   3.492  0.00  0.00    -0.047 A 
ATOM      9  C9  IND d   1       5.420   5.410   3.581  0.00  0.00    -0.096 A 
ATOM     10  HN1 IND d   1       6.165   3.002   1.830  0.00  0.00     0.298 HD
ENDROOT
TORSDOF 0
ENDMDL
