MODEL 1
REMARK minimizedAffinity 15.327096
REMARK minimizedRMSD -1
REMARK  0 active torsions:
REMARK  status: ('A' for Active; 'I' for Inactive)
ROOT
ATOM      1  N1  IND d   1       0.161  -1.745  -5.748  0.00  0.00    -0.196 N 
ATOM      2  C2  IND d   1       0.165  -0.396  -5.966  0.00  0.00     0.054 A 
ATOM      3  C3  IND d   1       0.695   0.251  -4.904  0.00  0.00    -0.031 A 
ATOM      4  C4  IND d   1       1.711  -0.712  -2.744  0.00  0.00     0.051 A 
ATOM      5  C5  IND d   1       1.900  -1.888  -2.073  0.00  0.00    -0.031 A 
ATOM      6  C6  IND d   1       1.514  -3.101  -2.605  0.00  0.00     0.015 A 
ATOM      7  C7  IND d   1       0.931  -3.185  -3.838  0.00  0.00    -0.016 A 
ATOM      8  C8  IND d   1       0.731  -1.992  -4.519  0.00  0.00    -0.047 A 
ATOM      9  C9  IND d   1       1.083  -0.754  -3.966  0.00  0.00    -0.096 A 
ATOM     10  HN1 IND d   1      -0.147  -2.340  -6.288  0.00  0.00     0.298 HD
ENDROOT
TORSDOF 0
ENDMDL
