MODEL 1
REMARK minimizedAffinity 8.52341557
REMARK minimizedRMSD -1
REMARK  0 active torsions:
REMARK  status: ('A' for Active; 'I' for Inactive)
ROOT
ATOM      1  N1  IND d   1      -1.407   2.001   3.186  0.00  0.00    -0.196 N 
ATOM      2  C2  IND d   1      -1.846   0.761   2.815  0.00  0.00     0.054 A 
ATOM      3  C3  IND d   1      -3.015   0.857   2.142  0.00  0.00    -0.031 A 
ATOM      4  C4  IND d   1      -4.334   2.956   1.449  0.00  0.00     0.051 A 
ATOM      5  C5  IND d   1      -4.349   4.315   1.592  0.00  0.00    -0.031 A 
ATOM      6  C6  IND d   1      -3.362   4.986   2.285  0.00  0.00     0.015 A 
ATOM      7  C7  IND d   1      -2.313   4.321   2.854  0.00  0.00    -0.016 A 
ATOM      8  C8  IND d   1      -2.299   2.940   2.717  0.00  0.00    -0.047 A 
ATOM      9  C9  IND d   1      -3.320   2.250   2.051  0.00  0.00    -0.096 A 
ATOM     10  HN1 IND d   1      -0.694   2.166   3.636  0.00  0.00     0.298 HD
ENDROOT
TORSDOF 0
ENDMDL
