MODEL 1
REMARK minimizedAffinity 9.80503654
REMARK minimizedRMSD -1
REMARK  0 active torsions:
REMARK  status: ('A' for Active; 'I' for Inactive)
ROOT
ATOM      1  N1  IND d   1      -0.392   1.538   2.433  0.00  0.00    -0.196 N 
ATOM      2  C2  IND d   1      -1.731   1.463   2.699  0.00  0.00     0.054 A 
ATOM      3  C3  IND d   1      -2.421   1.188   1.569  0.00  0.00    -0.031 A 
ATOM      4  C4  IND d   1      -1.546   0.719  -0.807  0.00  0.00     0.051 A 
ATOM      5  C5  IND d   1      -0.399   0.709  -1.550  0.00  0.00    -0.031 A 
ATOM      6  C6  IND d   1       0.834   0.977  -0.992  0.00  0.00     0.015 A 
ATOM      7  C7  IND d   1       0.968   1.256   0.339  0.00  0.00    -0.016 A 
ATOM      8  C8  IND d   1      -0.196   1.274   1.096  0.00  0.00    -0.047 A 
ATOM      9  C9  IND d   1      -1.455   1.044   0.526  0.00  0.00    -0.096 A 
ATOM     10  HN1 IND d   1       0.223   1.719   3.006  0.00  0.00     0.298 HD
ENDROOT
TORSDOF 0
ENDMDL
