MODEL 1
REMARK minimizedAffinity 9.07158947
REMARK minimizedRMSD -1
REMARK  0 active torsions:
REMARK  status: ('A' for Active; 'I' for Inactive)
ROOT
ATOM      1  N1  IND d   1       3.935   5.743   0.992  0.00  0.00    -0.196 N 
ATOM      2  C2  IND d   1       4.976   5.228   0.272  0.00  0.00     0.054 A 
ATOM      3  C3  IND d   1       5.948   4.786   1.101  0.00  0.00    -0.031 A 
ATOM      4  C4  IND d   1       5.997   4.718   3.674  0.00  0.00     0.051 A 
ATOM      5  C5  IND d   1       5.289   5.109   4.775  0.00  0.00    -0.031 A 
ATOM      6  C6  IND d   1       4.068   5.742   4.670  0.00  0.00     0.015 A 
ATOM      7  C7  IND d   1       3.501   5.999   3.454  0.00  0.00    -0.016 A 
ATOM      8  C8  IND d   1       4.220   5.609   2.333  0.00  0.00    -0.047 A 
ATOM      9  C9  IND d   1       5.480   5.004   2.433  0.00  0.00    -0.096 A 
ATOM     10  HN1 IND d   1       3.221   6.093   0.663  0.00  0.00     0.298 HD
ENDROOT
TORSDOF 0
ENDMDL
