MODEL 1
REMARK minimizedAffinity 12.4493227
REMARK minimizedRMSD -1
REMARK  0 active torsions:
REMARK  status: ('A' for Active; 'I' for Inactive)
ROOT
ATOM      1  N1  IND d   1      -1.852   2.674  -1.121  0.00  0.00    -0.196 N 
ATOM      2  C2  IND d   1      -1.201   1.644  -1.742  0.00  0.00     0.054 A 
ATOM      3  C3  IND d   1      -0.974   0.637  -0.869  0.00  0.00    -0.031 A 
ATOM      4  C4  IND d   1      -1.673   0.423   1.600  0.00  0.00     0.051 A 
ATOM      5  C5  IND d   1      -2.255   1.123   2.619  0.00  0.00    -0.031 A 
ATOM      6  C6  IND d   1      -2.744   2.401   2.440  0.00  0.00     0.015 A 
ATOM      7  C7  IND d   1      -2.680   3.024   1.226  0.00  0.00    -0.016 A 
ATOM      8  C8  IND d   1      -2.084   2.319   0.190  0.00  0.00    -0.047 A 
ATOM      9  C9  IND d   1      -1.547   1.039   0.377  0.00  0.00    -0.096 A 
ATOM     10  HN1 IND d   1      -2.078   3.418  -1.487  0.00  0.00     0.298 HD
ENDROOT
TORSDOF 0
ENDMDL
