MODEL 1
REMARK minimizedAffinity 12.9536562
REMARK minimizedRMSD -1
REMARK  0 active torsions:
REMARK  status: ('A' for Active; 'I' for Inactive)
ROOT
ATOM      1  N1  IND d   1      -3.015   0.637   5.768  0.00  0.00    -0.196 N 
ATOM      2  C2  IND d   1      -3.748  -0.517   5.774  0.00  0.00     0.054 A 
ATOM      3  C3  IND d   1      -3.629  -1.156   4.589  0.00  0.00    -0.031 A 
ATOM      4  C4  IND d   1      -2.202  -0.542   2.536  0.00  0.00     0.051 A 
ATOM      5  C5  IND d   1      -1.390   0.440   2.043  0.00  0.00    -0.031 A 
ATOM      6  C6  IND d   1      -1.069   1.560   2.783  0.00  0.00     0.015 A 
ATOM      7  C7  IND d   1      -1.541   1.734   4.053  0.00  0.00    -0.016 A 
ATOM      8  C8  IND d   1      -2.372   0.742   4.554  0.00  0.00    -0.047 A 
ATOM      9  C9  IND d   1      -2.736  -0.376   3.792  0.00  0.00    -0.096 A 
ATOM     10  HN1 IND d   1      -2.963   1.202   6.414  0.00  0.00     0.298 HD
ENDROOT
TORSDOF 0
ENDMDL
