MODEL 1
REMARK minimizedAffinity 6.729568
REMARK minimizedRMSD -1
REMARK  0 active torsions:
REMARK  status: ('A' for Active; 'I' for Inactive)
ROOT
ATOM      1  N1  IND d   1       5.999   4.718   3.784  0.00  0.00    -0.196 N 
ATOM      2  C2  IND d   1       5.189   5.306   4.714  0.00  0.00     0.054 A 
ATOM      3  C3  IND d   1       4.147   5.920   4.109  0.00  0.00    -0.031 A 
ATOM      4  C4  IND d   1       3.521   6.000   1.613  0.00  0.00     0.051 A 
ATOM      5  C5  IND d   1       3.976   5.639   0.376  0.00  0.00    -0.031 A 
ATOM      6  C6  IND d   1       5.152   4.935   0.209  0.00  0.00     0.015 A 
ATOM      7  C7  IND d   1       5.913   4.556   1.278  0.00  0.00    -0.016 A 
ATOM      8  C8  IND d   1       5.457   4.927   2.535  0.00  0.00    -0.047 A 
ATOM      9  C9  IND d   1       4.287   5.677   2.708  0.00  0.00    -0.096 A 
ATOM     10  HN1 IND d   1       6.726   4.289   3.951  0.00  0.00     0.298 HD
ENDROOT
TORSDOF 0
ENDMDL
