MODEL 1
REMARK minimizedAffinity 0.477700055
REMARK minimizedRMSD -1
REMARK  0 active torsions:
REMARK  status: ('A' for Active; 'I' for Inactive)
ROOT
ATOM      1  N1  IND d   1       3.718   5.941   1.562  0.00  0.00    -0.196 N 
ATOM      2  C2  IND d   1       4.886   5.949   0.851  0.00  0.00     0.054 A 
ATOM      3  C3  IND d   1       5.946   5.992   1.689  0.00  0.00    -0.031 A 
ATOM      4  C4  IND d   1       6.000   5.952   4.262  0.00  0.00     0.051 A 
ATOM      5  C5  IND d   1       5.183   5.983   5.358  0.00  0.00    -0.031 A 
ATOM      6  C6  IND d   1       3.808   6.000   5.241  0.00  0.00     0.015 A 
ATOM      7  C7  IND d   1       3.196   5.974   4.020  0.00  0.00    -0.016 A 
ATOM      8  C8  IND d   1       4.023   5.949   2.905  0.00  0.00    -0.047 A 
ATOM      9  C9  IND d   1       5.419   5.976   3.017  0.00  0.00    -0.096 A 
ATOM     10  HN1 IND d   1       2.927   5.933   1.226  0.00  0.00     0.298 HD
ENDROOT
TORSDOF 0
ENDMDL
