MODEL 1
REMARK minimizedAffinity 8.82451153
REMARK minimizedRMSD -1
REMARK  0 active torsions:
REMARK  status: ('A' for Active; 'I' for Inactive)
ROOT
ATOM      1  N1  IND d   1       2.670  -0.541  -1.246  0.00  0.00    -0.196 N 
ATOM      2  C2  IND d   1       1.835  -1.591  -1.507  0.00  0.00     0.054 A 
ATOM      3  C3  IND d   1       0.890  -1.229  -2.404  0.00  0.00    -0.031 A 
ATOM      4  C4  IND d   1       0.588   1.003  -3.650  0.00  0.00     0.051 A 
ATOM      5  C5  IND d   1       1.083   2.275  -3.717  0.00  0.00    -0.031 A 
ATOM      6  C6  IND d   1       2.157   2.681  -2.951  0.00  0.00     0.015 A 
ATOM      7  C7  IND d   1       2.784   1.822  -2.093  0.00  0.00    -0.016 A 
ATOM      8  C8  IND d   1       2.279   0.532  -2.017  0.00  0.00    -0.047 A 
ATOM      9  C9  IND d   1       1.164   0.127  -2.761  0.00  0.00    -0.096 A 
ATOM     10  HN1 IND d   1       3.329  -0.549  -0.693  0.00  0.00     0.298 HD
ENDROOT
TORSDOF 0
ENDMDL
