MODEL 1
REMARK minimizedAffinity 5.97047997
REMARK minimizedRMSD -1
REMARK  0 active torsions:
REMARK  status: ('A' for Active; 'I' for Inactive)
ROOT
ATOM      1  N1  IND d   1       5.932   3.946   5.025  0.00  0.00    -0.196 N 
ATOM      2  C2  IND d   1       5.443   4.963   5.797  0.00  0.00     0.054 A 
ATOM      3  C3  IND d   1       4.905   5.928   5.018  0.00  0.00    -0.031 A 
ATOM      4  C4  IND d   1       4.626   5.999   2.460  0.00  0.00     0.051 A 
ATOM      5  C5  IND d   1       4.949   5.315   1.321  0.00  0.00    -0.031 A 
ATOM      6  C6  IND d   1       5.627   4.114   1.360  0.00  0.00     0.015 A 
ATOM      7  C7  IND d   1       6.000   3.544   2.545  0.00  0.00    -0.016 A 
ATOM      8  C8  IND d   1       5.680   4.239   3.702  0.00  0.00    -0.047 A 
ATOM      9  C9  IND d   1       5.029   5.479   3.667  0.00  0.00    -0.096 A 
ATOM     10  HN1 IND d   1       6.330   3.242   5.316  0.00  0.00     0.298 HD
ENDROOT
TORSDOF 0
ENDMDL
