MODEL 1
REMARK minimizedAffinity 2.87885356
REMARK minimizedRMSD -1
REMARK  0 active torsions:
REMARK  status: ('A' for Active; 'I' for Inactive)
ROOT
ATOM      1  N1  IND d   1      -4.726  -0.383   4.841  0.00  0.00    -0.196 N 
ATOM      2  C2  IND d   1      -5.997  -0.316   4.340  0.00  0.00     0.054 A 
ATOM      3  C3  IND d   1      -5.999   0.325   3.150  0.00  0.00    -0.031 A 
ATOM      4  C4  IND d   1      -4.022   1.255   1.789  0.00  0.00     0.051 A 
ATOM      5  C5  IND d   1      -2.672   1.461   1.853  0.00  0.00    -0.031 A 
ATOM      6  C6  IND d   1      -1.923   1.052   2.937  0.00  0.00     0.015 A 
ATOM      7  C7  IND d   1      -2.496   0.409   3.997  0.00  0.00    -0.016 A 
ATOM      8  C8  IND d   1      -3.867   0.204   3.939  0.00  0.00    -0.047 A 
ATOM      9  C9  IND d   1      -4.640   0.655   2.860  0.00  0.00    -0.096 A 
ATOM     10  HN1 IND d   1      -4.502  -0.733   5.594  0.00  0.00     0.298 HD
ENDROOT
TORSDOF 0
ENDMDL
