MODEL 1
REMARK minimizedAffinity 12.2351303
REMARK minimizedRMSD -1
REMARK  0 active torsions:
REMARK  status: ('A' for Active; 'I' for Inactive)
ROOT
ATOM      1  N1  IND d   1      -2.397   0.303   3.931  0.00  0.00    -0.196 N 
ATOM      2  C2  IND d   1      -1.748   1.497   4.083  0.00  0.00     0.054 A 
ATOM      3  C3  IND d   1      -1.322   1.957   2.885  0.00  0.00    -0.031 A 
ATOM      4  C4  IND d   1      -1.666   0.963   0.536  0.00  0.00     0.051 A 
ATOM      5  C5  IND d   1      -2.165  -0.135  -0.107  0.00  0.00    -0.031 A 
ATOM      6  C6  IND d   1      -2.782  -1.162   0.577  0.00  0.00     0.015 A 
ATOM      7  C7  IND d   1      -2.933  -1.125   1.934  0.00  0.00    -0.016 A 
ATOM      8  C8  IND d   1      -2.421  -0.015   2.591  0.00  0.00    -0.047 A 
ATOM      9  C9  IND d   1      -1.756   1.011   1.907  0.00  0.00    -0.096 A 
ATOM     10  HN1 IND d   1      -2.732  -0.169   4.566  0.00  0.00     0.298 HD
ENDROOT
TORSDOF 0
ENDMDL
