MODEL 1
REMARK minimizedAffinity 9.742342
REMARK minimizedRMSD -1
REMARK  0 active torsions:
REMARK  status: ('A' for Active; 'I' for Inactive)
ROOT
ATOM      1  N1  IND d   1      -0.804   1.461   2.166  0.00  0.00    -0.196 N 
ATOM      2  C2  IND d   1      -1.501   1.288   3.330  0.00  0.00     0.054 A 
ATOM      3  C3  IND d   1      -2.477   0.367   3.161  0.00  0.00    -0.031 A 
ATOM      4  C4  IND d   1      -3.043  -1.054   1.091  0.00  0.00     0.051 A 
ATOM      5  C5  IND d   1      -2.708  -1.226  -0.223  0.00  0.00    -0.031 A 
ATOM      6  C6  IND d   1      -1.699  -0.497  -0.819  0.00  0.00     0.015 A 
ATOM      7  C7  IND d   1      -0.977   0.426  -0.117  0.00  0.00    -0.016 A 
ATOM      8  C8  IND d   1      -1.319   0.607   1.216  0.00  0.00    -0.047 A 
ATOM      9  C9  IND d   1      -2.370  -0.099   1.815  0.00  0.00    -0.096 A 
ATOM     10  HN1 IND d   1      -0.154   2.011   2.048  0.00  0.00     0.298 HD
ENDROOT
TORSDOF 0
ENDMDL
