MODEL 1
REMARK minimizedAffinity 4.76408625
REMARK minimizedRMSD -1
REMARK  0 active torsions:
REMARK  status: ('A' for Active; 'I' for Inactive)
ROOT
ATOM      1  N1  IND d   1       3.767   5.869   1.161  0.00  0.00    -0.196 N 
ATOM      2  C2  IND d   1       4.945   5.799   0.471  0.00  0.00     0.054 A 
ATOM      3  C3  IND d   1       5.992   5.797   1.327  0.00  0.00    -0.031 A 
ATOM      4  C4  IND d   1       5.999   5.798   3.902  0.00  0.00     0.051 A 
ATOM      5  C5  IND d   1       5.166   5.893   4.981  0.00  0.00    -0.031 A 
ATOM      6  C6  IND d   1       3.796   5.985   4.839  0.00  0.00     0.015 A 
ATOM      7  C7  IND d   1       3.205   5.972   3.608  0.00  0.00    -0.016 A 
ATOM      8  C8  IND d   1       4.048   5.883   2.509  0.00  0.00    -0.047 A 
ATOM      9  C9  IND d   1       5.441   5.833   2.645  0.00  0.00    -0.096 A 
ATOM     10  HN1 IND d   1       2.982   5.900   0.811  0.00  0.00     0.298 HD
ENDROOT
TORSDOF 0
ENDMDL
