MODEL 1
REMARK minimizedAffinity 2.49837542
REMARK minimizedRMSD -1
REMARK  0 active torsions:
REMARK  status: ('A' for Active; 'I' for Inactive)
ROOT
ATOM      1  C1  DEN d   1      -3.679  -0.018  -5.112  0.00  0.00     0.130 A 
ATOM      2  C2  DEN d   1      -5.006  -0.598  -5.302  0.00  0.00    -0.031 A 
ATOM      3  C3  DEN d   1      -5.999   0.490  -5.195  0.00  0.00     0.027 A 
ATOM      4  C4  DEN d   1      -5.612   3.003  -4.760  0.00  0.00     0.027 A 
ATOM      5  C5  DEN d   1      -4.657   3.967  -4.523  0.00  0.00    -0.003 A 
ATOM      6  C6  DEN d   1      -3.324   3.667  -4.432  0.00  0.00     0.001 A 
ATOM      7  C7  DEN d   1      -2.903   2.378  -4.625  0.00  0.00     0.017 A 
ATOM      8  C8  DEN d   1      -3.861   1.399  -4.857  0.00  0.00    -0.094 A 
ATOM      9  C9  DEN d   1      -5.203   1.724  -4.958  0.00  0.00    -0.072 A 
ENDROOT
TORSDOF 0
ENDMDL
