MODEL 1
REMARK minimizedAffinity 1.70618999
REMARK minimizedRMSD -1
REMARK  0 active torsions:
REMARK  status: ('A' for Active; 'I' for Inactive)
ROOT
ATOM      1  C1  DEN d   1       2.136   3.140  -0.568  0.00  0.00     0.130 A 
ATOM      2  C2  DEN d   1       2.936   2.009  -0.108  0.00  0.00    -0.031 A 
ATOM      3  C3  DEN d   1       2.988   1.013  -1.197  0.00  0.00     0.027 A 
ATOM      4  C4  DEN d   1       1.918   1.116  -3.542  0.00  0.00     0.027 A 
ATOM      5  C5  DEN d   1       1.136   1.872  -4.387  0.00  0.00    -0.003 A 
ATOM      6  C6  DEN d   1       0.609   3.079  -4.009  0.00  0.00     0.001 A 
ATOM      7  C7  DEN d   1       0.895   3.586  -2.769  0.00  0.00     0.017 A 
ATOM      8  C8  DEN d   1       1.676   2.826  -1.909  0.00  0.00    -0.094 A 
ATOM      9  C9  DEN d   1       2.209   1.614  -2.313  0.00  0.00    -0.072 A 
ENDROOT
TORSDOF 0
ENDMDL
