MODEL 1
REMARK minimizedAffinity 1.56993043
REMARK minimizedRMSD -1
REMARK  0 active torsions:
REMARK  status: ('A' for Active; 'I' for Inactive)
ROOT
ATOM      1  C1  DEN d   1       1.319  -1.663  -0.580  0.00  0.00     0.130 A 
ATOM      2  C2  DEN d   1       2.765  -1.481  -0.662  0.00  0.00    -0.031 A 
ATOM      3  C3  DEN d   1       3.272  -1.231   0.703  0.00  0.00     0.027 A 
ATOM      4  C4  DEN d   1       1.965  -1.114   2.923  0.00  0.00     0.027 A 
ATOM      5  C5  DEN d   1       0.714  -1.194   3.495  0.00  0.00    -0.003 A 
ATOM      6  C6  DEN d   1      -0.417  -1.400   2.751  0.00  0.00     0.001 A 
ATOM      7  C7  DEN d   1      -0.316  -1.578   1.396  0.00  0.00     0.017 A 
ATOM      8  C8  DEN d   1       0.941  -1.492   0.812  0.00  0.00    -0.094 A 
ATOM      9  C9  DEN d   1       2.074  -1.296   1.582  0.00  0.00    -0.072 A 
ENDROOT
TORSDOF 0
ENDMDL
