MODEL 1
REMARK minimizedAffinity 9.3677063
REMARK minimizedRMSD -1
REMARK  0 active torsions:
REMARK  status: ('A' for Active; 'I' for Inactive)
ROOT
ATOM      1  C1  DEN d   1       1.100  -1.536  -0.588  0.00  0.00     0.130 A 
ATOM      2  C2  DEN d   1       2.333  -0.964  -1.123  0.00  0.00    -0.031 A 
ATOM      3  C3  DEN d   1       3.144  -0.484   0.013  0.00  0.00     0.027 A 
ATOM      4  C4  DEN d   1       2.616  -0.574   2.536  0.00  0.00     0.027 A 
ATOM      5  C5  DEN d   1       1.684  -0.957   3.475  0.00  0.00    -0.003 A 
ATOM      6  C6  DEN d   1       0.487  -1.524   3.126  0.00  0.00     0.001 A 
ATOM      7  C7  DEN d   1       0.209  -1.766   1.807  0.00  0.00     0.017 A 
ATOM      8  C8  DEN d   1       1.141  -1.376   0.854  0.00  0.00    -0.094 A 
ATOM      9  C9  DEN d   1       2.351  -0.815   1.227  0.00  0.00    -0.072 A 
ENDROOT
TORSDOF 0
ENDMDL
