MODEL 1
REMARK minimizedAffinity -0.616492689
REMARK minimizedRMSD -1
REMARK  0 active torsions:
REMARK  status: ('A' for Active; 'I' for Inactive)
ROOT
ATOM      1  C1  DEN d   1       0.514   0.099  -1.234  0.00  0.00     0.130 A 
ATOM      2  C2  DEN d   1       1.409   0.406  -2.346  0.00  0.00    -0.031 A 
ATOM      3  C3  DEN d   1       2.592  -0.471  -2.235  0.00  0.00     0.027 A 
ATOM      4  C4  DEN d   1       3.120  -2.268  -0.462  0.00  0.00     0.027 A 
ATOM      5  C5  DEN d   1       2.665  -2.881   0.685  0.00  0.00    -0.003 A 
ATOM      6  C6  DEN d   1       1.488  -2.523   1.287  0.00  0.00     0.001 A 
ATOM      7  C7  DEN d   1       0.702  -1.555   0.719  0.00  0.00     0.017 A 
ATOM      8  C8  DEN d   1       1.157  -0.928  -0.433  0.00  0.00    -0.094 A 
ATOM      9  C9  DEN d   1       2.344  -1.312  -1.034  0.00  0.00    -0.072 A 
ENDROOT
TORSDOF 0
ENDMDL
