MODEL 1
REMARK minimizedAffinity 4.27442789
REMARK minimizedRMSD -1
REMARK  0 active torsions:
REMARK  status: ('A' for Active; 'I' for Inactive)
ROOT
ATOM      1  C1  DEN d   1       1.519  -1.723   2.270  0.00  0.00     0.130 A 
ATOM      2  C2  DEN d   1       0.154  -1.344   2.624  0.00  0.00    -0.031 A 
ATOM      3  C3  DEN d   1      -0.530  -0.900   1.393  0.00  0.00     0.027 A 
ATOM      4  C4  DEN d   1       0.385  -0.769  -1.015  0.00  0.00     0.027 A 
ATOM      5  C5  DEN d   1       1.493  -0.975  -1.808  0.00  0.00    -0.003 A 
ATOM      6  C6  DEN d   1       2.687  -1.408  -1.296  0.00  0.00     0.001 A 
ATOM      7  C7  DEN d   1       2.789  -1.693   0.040  0.00  0.00     0.017 A 
ATOM      8  C8  DEN d   1       1.679  -1.481   0.847  0.00  0.00    -0.094 A 
ATOM      9  C9  DEN d   1       0.477  -1.055   0.308  0.00  0.00    -0.072 A 
ENDROOT
TORSDOF 0
ENDMDL
