MODEL 1
REMARK minimizedAffinity 7.81491089
REMARK minimizedRMSD -1
REMARK  0 active torsions:
REMARK  status: ('A' for Active; 'I' for Inactive)
ROOT
ATOM      1  C   UNL d   1       2.474  -1.835   0.597  0.00  0.00     0.077 C 
ATOM      2  C1  UNL d   1       3.309  -0.992  -0.320  0.00  0.00    -0.074 A 
ATOM      3  C2  UNL d   1       4.031   0.102   0.168  0.00  0.00    -0.005 A 
ATOM      4  C3  UNL d   1       4.811   0.871  -0.695  0.00  0.00     0.006 A 
ATOM      5  C4  UNL d   1       4.877   0.555  -2.052  0.00  0.00    -0.005 A 
ATOM      6  C5  UNL d   1       4.163  -0.536  -2.558  0.00  0.00    -0.074 A 
ATOM      7  C6  UNL d   1       4.231  -0.896  -4.013  0.00  0.00     0.077 C 
ATOM      8  C7  UNL d   1       3.387  -1.308  -1.683  0.00  0.00    -0.001 A 
ENDROOT
TORSDOF 0
ENDMDL
