MODEL 1
REMARK minimizedAffinity 2.82553887
REMARK minimizedRMSD -1
REMARK  0 active torsions:
REMARK  status: ('A' for Active; 'I' for Inactive)
ROOT
ATOM      1  C   UNL d   1      -5.450   4.123  -1.543  0.00  0.00     0.077 C 
ATOM      2  C1  UNL d   1      -4.693   2.942  -1.011  0.00  0.00    -0.074 A 
ATOM      3  C2  UNL d   1      -5.276   1.671  -0.977  0.00  0.00    -0.005 A 
ATOM      4  C3  UNL d   1      -4.557   0.581  -0.488  0.00  0.00     0.006 A 
ATOM      5  C4  UNL d   1      -3.250   0.750  -0.029  0.00  0.00    -0.005 A 
ATOM      6  C5  UNL d   1      -2.650   2.013  -0.056  0.00  0.00    -0.074 A 
ATOM      7  C6  UNL d   1      -1.243   2.211   0.424  0.00  0.00     0.077 C 
ATOM      8  C7  UNL d   1      -3.377   3.103  -0.555  0.00  0.00    -0.001 A 
ENDROOT
TORSDOF 0
ENDMDL
