MODEL 1
REMARK minimizedAffinity 7.22378445
REMARK minimizedRMSD -1
REMARK  0 active torsions:
REMARK  status: ('A' for Active; 'I' for Inactive)
ROOT
ATOM      1  C   UNL d   1      -1.391  -5.617   5.992  0.00  0.00     0.077 C 
ATOM      2  C1  UNL d   1      -0.453  -4.648   5.336  0.00  0.00    -0.074 A 
ATOM      3  C2  UNL d   1      -0.800  -4.007   4.143  0.00  0.00    -0.005 A 
ATOM      4  C3  UNL d   1       0.080  -3.101   3.549  0.00  0.00     0.006 A 
ATOM      5  C4  UNL d   1       1.313  -2.828   4.142  0.00  0.00    -0.005 A 
ATOM      6  C5  UNL d   1       1.677  -3.459   5.336  0.00  0.00    -0.074 A 
ATOM      7  C6  UNL d   1       2.994  -3.169   5.991  0.00  0.00     0.077 C 
ATOM      8  C7  UNL d   1       0.785  -4.362   5.930  0.00  0.00    -0.001 A 
ENDROOT
TORSDOF 0
ENDMDL
