MODEL 1
REMARK minimizedAffinity 6.40657282
REMARK minimizedRMSD -1
REMARK  0 active torsions:
REMARK  status: ('A' for Active; 'I' for Inactive)
ROOT
ATOM      1  C   UNL d   1       1.477  -3.276  -2.509  0.00  0.00     0.077 C 
ATOM      2  C1  UNL d   1       1.986  -2.581  -1.281  0.00  0.00    -0.074 A 
ATOM      3  C2  UNL d   1       1.759  -3.114  -0.008  0.00  0.00    -0.005 A 
ATOM      4  C3  UNL d   1       2.247  -2.461   1.124  0.00  0.00     0.006 A 
ATOM      5  C4  UNL d   1       2.965  -1.271   0.995  0.00  0.00    -0.005 A 
ATOM      6  C5  UNL d   1       3.201  -0.724  -0.270  0.00  0.00    -0.074 A 
ATOM      7  C6  UNL d   1       3.979   0.549  -0.427  0.00  0.00     0.077 C 
ATOM      8  C7  UNL d   1       2.714  -1.390  -1.403  0.00  0.00    -0.001 A 
ENDROOT
TORSDOF 0
ENDMDL
