MODEL 1
REMARK minimizedAffinity 14.0483055
REMARK minimizedRMSD -1
REMARK  0 active torsions:
REMARK  status: ('A' for Active; 'I' for Inactive)
ROOT
ATOM      1  C   UNL d   1       2.201  -0.373  -0.732  0.00  0.00     0.077 C 
ATOM      2  C1  UNL d   1       3.483   0.401  -0.815  0.00  0.00    -0.074 A 
ATOM      3  C2  UNL d   1       4.177   0.514  -2.023  0.00  0.00    -0.005 A 
ATOM      4  C3  UNL d   1       5.363   1.246  -2.087  0.00  0.00     0.006 A 
ATOM      5  C4  UNL d   1       5.866   1.870  -0.945  0.00  0.00    -0.005 A 
ATOM      6  C5  UNL d   1       5.184   1.769   0.272  0.00  0.00    -0.074 A 
ATOM      7  C6  UNL d   1       5.706   2.443   1.506  0.00  0.00     0.077 C 
ATOM      8  C7  UNL d   1       3.990   1.038   0.326  0.00  0.00    -0.001 A 
ENDROOT
TORSDOF 0
ENDMDL
