MODEL 1
REMARK minimizedAffinity -5.54277039
REMARK minimizedRMSD -1
REMARK  0 active torsions:
REMARK  status: ('A' for Active; 'I' for Inactive)
ROOT
ATOM      1  O1  BZF d   1      -1.336   0.504   1.085  0.00  0.00    -0.204 OA
ATOM      2  C2  BZF d   1      -1.133   1.265  -0.050  0.00  0.00     0.174 A 
ATOM      3  C3  BZF d   1      -0.099   0.783  -0.770  0.00  0.00    -0.012 A 
ATOM      4  C3A BZF d   1       0.314  -0.405  -0.087  0.00  0.00    -0.107 A 
ATOM      5  C4  BZF d   1       1.285  -1.335  -0.325  0.00  0.00     0.055 A 
ATOM      6  C5  BZF d   1       1.476  -2.335   0.574  0.00  0.00    -0.016 A 
ATOM      7  C6  BZF d   1       0.719  -2.433   1.723  0.00  0.00     0.022 A 
ATOM      8  C7  BZF d   1      -0.260  -1.537   2.000  0.00  0.00     0.029 A 
ATOM      9  C7A BZF d   1      -0.477  -0.544   1.077  0.00  0.00     0.058 A 
ENDROOT
TORSDOF 0
ENDMDL
