MODEL 1
REMARK minimizedAffinity -5.167871
REMARK minimizedRMSD -1
REMARK  0 active torsions:
REMARK  status: ('A' for Active; 'I' for Inactive)
ROOT
ATOM      1  O1  BZF d   1      -0.782   0.126   0.839  0.00  0.00    -0.204 OA
ATOM      2  C2  BZF d   1      -0.234   0.464  -0.383  0.00  0.00     0.174 A 
ATOM      3  C3  BZF d   1       0.720  -0.420  -0.740  0.00  0.00    -0.012 A 
ATOM      4  C3A BZF d   1       0.707  -1.421   0.281  0.00  0.00    -0.107 A 
ATOM      5  C4  BZF d   1       1.418  -2.570   0.479  0.00  0.00     0.055 A 
ATOM      6  C5  BZF d   1       1.215  -3.286   1.616  0.00  0.00    -0.016 A 
ATOM      7  C6  BZF d   1       0.313  -2.880   2.577  0.00  0.00     0.022 A 
ATOM      8  C7  BZF d   1      -0.419  -1.750   2.424  0.00  0.00     0.029 A 
ATOM      9  C7A BZF d   1      -0.239  -1.042   1.261  0.00  0.00     0.058 A 
ENDROOT
TORSDOF 0
ENDMDL
