MODEL 1
REMARK minimizedAffinity -5.48100424
REMARK minimizedRMSD -1
REMARK  0 active torsions:
REMARK  status: ('A' for Active; 'I' for Inactive)
ROOT
ATOM      1  O1  BZF d   1      -1.100   0.535   0.915  0.00  0.00    -0.204 OA
ATOM      2  C2  BZF d   1      -0.461   0.964  -0.232  0.00  0.00     0.174 A 
ATOM      3  C3  BZF d   1       0.631   0.213  -0.481  0.00  0.00    -0.012 A 
ATOM      4  C3A BZF d   1       0.626  -0.804   0.525  0.00  0.00    -0.107 A 
ATOM      5  C4  BZF d   1       1.448  -1.860   0.797  0.00  0.00     0.055 A 
ATOM      6  C5  BZF d   1       1.206  -2.619   1.898  0.00  0.00    -0.016 A 
ATOM      7  C6  BZF d   1       0.155  -2.349   2.750  0.00  0.00     0.022 A 
ATOM      8  C7  BZF d   1      -0.690  -1.315   2.519  0.00  0.00     0.029 A 
ATOM      9  C7A BZF d   1      -0.468  -0.565   1.389  0.00  0.00     0.058 A 
ENDROOT
TORSDOF 0
ENDMDL
