MODEL 1
REMARK minimizedAffinity -3.51159692
REMARK minimizedRMSD -1
REMARK  0 active torsions:
REMARK  status: ('A' for Active; 'I' for Inactive)
ROOT
ATOM      1  O1  BZF d   1       2.307  -1.972   0.670  0.00  0.00    -0.204 OA
ATOM      2  C2  BZF d   1       1.788  -3.052   1.359  0.00  0.00     0.174 A 
ATOM      3  C3  BZF d   1       0.494  -2.840   1.675  0.00  0.00    -0.012 A 
ATOM      4  C3A BZF d   1       0.159  -1.587   1.071  0.00  0.00    -0.107 A 
ATOM      5  C4  BZF d   1      -0.988  -0.848   1.017  0.00  0.00     0.055 A 
ATOM      6  C5  BZF d   1      -0.963   0.367   0.408  0.00  0.00    -0.016 A 
ATOM      7  C6  BZF d   1       0.191   0.874  -0.152  0.00  0.00     0.022 A 
ATOM      8  C7  BZF d   1       1.352   0.175  -0.128  0.00  0.00     0.029 A 
ATOM      9  C7A BZF d   1       1.322  -1.067   0.457  0.00  0.00     0.058 A 
ENDROOT
TORSDOF 0
ENDMDL
