MODEL 1
REMARK minimizedAffinity -4.06663704
REMARK minimizedRMSD -1
REMARK  0 active torsions:
REMARK  status: ('A' for Active; 'I' for Inactive)
ROOT
ATOM      1  O1  BZF d   1      -1.010   0.207   0.572  0.00  0.00    -0.204 OA
ATOM      2  C2  BZF d   1      -0.625   0.184  -0.755  0.00  0.00     0.174 A 
ATOM      3  C3  BZF d   1       0.275  -0.797  -0.974  0.00  0.00    -0.012 A 
ATOM      4  C3A BZF d   1       0.394  -1.485   0.275  0.00  0.00    -0.107 A 
ATOM      5  C4  BZF d   1       1.124  -2.562   0.688  0.00  0.00     0.055 A 
ATOM      6  C5  BZF d   1       1.068  -2.937   1.993  0.00  0.00    -0.016 A 
ATOM      7  C6  BZF d   1       0.299  -2.255   2.912  0.00  0.00     0.022 A 
ATOM      8  C7  BZF d   1      -0.447  -1.183   2.549  0.00  0.00     0.029 A 
ATOM      9  C7A BZF d   1      -0.418  -0.822   1.224  0.00  0.00     0.058 A 
ENDROOT
TORSDOF 0
ENDMDL
