MODEL 1
REMARK minimizedAffinity -4.14085627
REMARK minimizedRMSD -1
REMARK  0 active torsions:
REMARK  status: ('A' for Active; 'I' for Inactive)
ROOT
ATOM      1  O1  BZF d   1      -0.784   0.452   0.241  0.00  0.00    -0.204 OA
ATOM      2  C2  BZF d   1       0.135   1.024  -0.617  0.00  0.00     0.174 A 
ATOM      3  C3  BZF d   1       1.303   0.349  -0.587  0.00  0.00    -0.012 A 
ATOM      4  C3A BZF d   1       1.070  -0.765   0.280  0.00  0.00    -0.107 A 
ATOM      5  C4  BZF d   1       1.847  -1.808   0.697  0.00  0.00     0.055 A 
ATOM      6  C5  BZF d   1       1.343  -2.687   1.603  0.00  0.00    -0.016 A 
ATOM      7  C6  BZF d   1       0.070  -2.550   2.116  0.00  0.00     0.022 A 
ATOM      8  C7  BZF d   1      -0.740  -1.534   1.729  0.00  0.00     0.029 A 
ATOM      9  C7A BZF d   1      -0.245  -0.664   0.789  0.00  0.00     0.058 A 
ENDROOT
TORSDOF 0
ENDMDL
