MODEL 1
REMARK minimizedAffinity -4.8007741
REMARK minimizedRMSD -1
REMARK  0 active torsions:
REMARK  status: ('A' for Active; 'I' for Inactive)
ROOT
ATOM      1  O1  BZF d   1      -0.757  -1.416   2.031  0.00  0.00    -0.204 OA
ATOM      2  C2  BZF d   1      -0.225  -2.440   2.791  0.00  0.00     0.174 A 
ATOM      3  C3  BZF d   1       0.986  -2.804   2.323  0.00  0.00    -0.012 A 
ATOM      4  C3A BZF d   1       1.267  -1.892   1.257  0.00  0.00    -0.107 A 
ATOM      5  C4  BZF d   1       2.328  -1.734   0.412  0.00  0.00     0.055 A 
ATOM      6  C5  BZF d   1       2.258  -0.795  -0.568  0.00  0.00    -0.016 A 
ATOM      7  C6  BZF d   1       1.142  -0.000  -0.733  0.00  0.00     0.022 A 
ATOM      8  C7  BZF d   1       0.067  -0.116   0.084  0.00  0.00     0.029 A 
ATOM      9  C7A BZF d   1       0.148  -1.043   1.095  0.00  0.00     0.058 A 
ENDROOT
TORSDOF 0
ENDMDL
