MODEL 1
REMARK minimizedAffinity -4.98897362
REMARK minimizedRMSD -1
REMARK  0 active torsions:
REMARK  status: ('A' for Active; 'I' for Inactive)
ROOT
ATOM      1  O1  BZF d   1       1.037   0.434  -0.080  0.00  0.00    -0.204 OA
ATOM      2  C2  BZF d   1      -0.169   1.107  -0.129  0.00  0.00     0.174 A 
ATOM      3  C3  BZF d   1      -1.144   0.385   0.460  0.00  0.00    -0.012 A 
ATOM      4  C3A BZF d   1      -0.489  -0.774   0.985  0.00  0.00    -0.107 A 
ATOM      5  C4  BZF d   1      -0.924  -1.858   1.692  0.00  0.00     0.055 A 
ATOM      6  C5  BZF d   1      -0.043  -2.850   1.989  0.00  0.00    -0.016 A 
ATOM      7  C6  BZF d   1       1.277  -2.791   1.591  0.00  0.00     0.022 A 
ATOM      8  C7  BZF d   1       1.756  -1.733   0.892  0.00  0.00     0.029 A 
ATOM      9  C7A BZF d   1       0.876  -0.715   0.619  0.00  0.00     0.058 A 
ENDROOT
TORSDOF 0
ENDMDL
