MODEL 1
REMARK minimizedAffinity -6.05187178
REMARK minimizedRMSD -1
REMARK  0 active torsions:
REMARK  status: ('A' for Active; 'I' for Inactive)
ROOT
ATOM      1  O1  BZF d   1      -1.039   0.099   0.716  0.00  0.00    -0.204 OA
ATOM      2  C2  BZF d   1      -0.354   0.625  -0.362  0.00  0.00     0.174 A 
ATOM      3  C3  BZF d   1       0.815  -0.021  -0.548  0.00  0.00    -0.012 A 
ATOM      4  C3A BZF d   1       0.821  -1.074   0.420  0.00  0.00    -0.107 A 
ATOM      5  C4  BZF d   1       1.708  -2.068   0.721  0.00  0.00     0.055 A 
ATOM      6  C5  BZF d   1       1.449  -2.888   1.773  0.00  0.00    -0.016 A 
ATOM      7  C6  BZF d   1       0.318  -2.740   2.548  0.00  0.00     0.022 A 
ATOM      8  C7  BZF d   1      -0.594  -1.773   2.285  0.00  0.00     0.029 A 
ATOM      9  C7A BZF d   1      -0.352  -0.963   1.202  0.00  0.00     0.058 A 
ENDROOT
TORSDOF 0
ENDMDL
