MODEL 1
REMARK minimizedAffinity -5.86742878
REMARK minimizedRMSD -1
REMARK  0 active torsions:
REMARK  status: ('A' for Active; 'I' for Inactive)
ROOT
ATOM      1  O1  BZF d   1      -0.986   0.078   0.135  0.00  0.00    -0.204 OA
ATOM      2  C2  BZF d   1      -0.171   0.727  -0.771  0.00  0.00     0.174 A 
ATOM      3  C3  BZF d   1       1.088   0.249  -0.710  0.00  0.00    -0.012 A 
ATOM      4  C3A BZF d   1       1.038  -0.826   0.232  0.00  0.00    -0.107 A 
ATOM      5  C4  BZF d   1       1.971  -1.702   0.709  0.00  0.00     0.055 A 
ATOM      6  C5  BZF d   1       1.614  -2.585   1.678  0.00  0.00    -0.016 A 
ATOM      7  C6  BZF d   1       0.336  -2.616   2.197  0.00  0.00     0.022 A 
ATOM      8  C7  BZF d   1      -0.625  -1.770   1.753  0.00  0.00     0.029 A 
ATOM      9  C7A BZF d   1      -0.276  -0.899   0.750  0.00  0.00     0.058 A 
ENDROOT
TORSDOF 0
ENDMDL
