MODEL 1
REMARK minimizedAffinity -5.90900517
REMARK minimizedRMSD -1
REMARK  0 active torsions:
REMARK  status: ('A' for Active; 'I' for Inactive)
ROOT
ATOM      1  O1  BZF d   1       2.311  -1.863   0.993  0.00  0.00    -0.204 OA
ATOM      2  C2  BZF d   1       1.756  -2.580   2.035  0.00  0.00     0.174 A 
ATOM      3  C3  BZF d   1       0.563  -2.061   2.391  0.00  0.00    -0.012 A 
ATOM      4  C3A BZF d   1       0.317  -1.007   1.456  0.00  0.00    -0.107 A 
ATOM      5  C4  BZF d   1      -0.714  -0.129   1.281  0.00  0.00     0.055 A 
ATOM      6  C5  BZF d   1      -0.613   0.825   0.319  0.00  0.00    -0.016 A 
ATOM      7  C6  BZF d   1       0.505   0.933  -0.482  0.00  0.00     0.022 A 
ATOM      8  C7  BZF d   1       1.551   0.082  -0.350  0.00  0.00     0.029 A 
ATOM      9  C7A BZF d   1       1.438  -0.904   0.600  0.00  0.00     0.058 A 
ENDROOT
TORSDOF 0
ENDMDL
