MODEL 1
REMARK minimizedAffinity -2.49244165
REMARK minimizedRMSD -1
REMARK  0 active torsions:
REMARK  status: ('A' for Active; 'I' for Inactive)
ROOT
ATOM      1  O1  BZF d   1      -0.145   1.403  -1.054  0.00  0.00    -0.204 OA
ATOM      2  C2  BZF d   1      -1.307   1.826  -0.440  0.00  0.00     0.174 A 
ATOM      3  C3  BZF d   1      -1.538   1.120   0.686  0.00  0.00    -0.012 A 
ATOM      4  C3A BZF d   1      -0.403   0.261   0.830  0.00  0.00    -0.107 A 
ATOM      5  C4  BZF d   1      -0.041  -0.669   1.763  0.00  0.00     0.055 A 
ATOM      6  C5  BZF d   1       1.096  -1.388   1.573  0.00  0.00    -0.016 A 
ATOM      7  C6  BZF d   1       1.891  -1.208   0.460  0.00  0.00     0.022 A 
ATOM      8  C7  BZF d   1       1.576  -0.295  -0.490  0.00  0.00     0.029 A 
ATOM      9  C7A BZF d   1       0.445   0.457  -0.284  0.00  0.00     0.058 A 
ENDROOT
TORSDOF 0
ENDMDL
