MODEL 1
REMARK minimizedAffinity -5.73370457
REMARK minimizedRMSD -1
REMARK  0 active torsions:
REMARK  status: ('A' for Active; 'I' for Inactive)
ROOT
ATOM      1  O1  BZF d   1      -0.821   0.432   0.611  0.00  0.00    -0.204 OA
ATOM      2  C2  BZF d   1       0.005   1.055  -0.304  0.00  0.00     0.174 A 
ATOM      3  C3  BZF d   1       1.191   0.418  -0.390  0.00  0.00    -0.012 A 
ATOM      4  C3A BZF d   1       1.065  -0.725   0.461  0.00  0.00    -0.107 A 
ATOM      5  C4  BZF d   1       1.905  -1.753   0.782  0.00  0.00     0.055 A 
ATOM      6  C5  BZF d   1       1.505  -2.670   1.702  0.00  0.00    -0.016 A 
ATOM      7  C6  BZF d   1       0.276  -2.587   2.323  0.00  0.00     0.022 A 
ATOM      8  C7  BZF d   1      -0.593  -1.589   2.033  0.00  0.00     0.029 A 
ATOM      9  C7A BZF d   1      -0.205  -0.679   1.080  0.00  0.00     0.058 A 
ENDROOT
TORSDOF 0
ENDMDL
