MODEL 1
REMARK minimizedAffinity -6.26180267
REMARK minimizedRMSD -1
REMARK  0 active torsions:
REMARK  status: ('A' for Active; 'I' for Inactive)
ROOT
ATOM      1  O1  BZF d   1       1.860  -2.051   0.804  0.00  0.00    -0.204 OA
ATOM      2  C2  BZF d   1       1.332  -2.869   1.785  0.00  0.00     0.174 A 
ATOM      3  C3  BZF d   1       0.232  -2.311   2.331  0.00  0.00    -0.012 A 
ATOM      4  C3A BZF d   1       0.009  -1.110   1.586  0.00  0.00    -0.107 A 
ATOM      5  C4  BZF d   1      -0.941  -0.131   1.645  0.00  0.00     0.055 A 
ATOM      6  C5  BZF d   1      -0.832   0.946   0.824  0.00  0.00    -0.016 A 
ATOM      7  C6  BZF d   1       0.216   1.079  -0.063  0.00  0.00     0.022 A 
ATOM      8  C7  BZF d   1       1.180   0.132  -0.161  0.00  0.00     0.029 A 
ATOM      9  C7A BZF d   1       1.055  -0.974   0.644  0.00  0.00     0.058 A 
ENDROOT
TORSDOF 0
ENDMDL
