MODEL 1
REMARK minimizedAffinity -5.45212507
REMARK minimizedRMSD -1
REMARK  0 active torsions:
REMARK  status: ('A' for Active; 'I' for Inactive)
ROOT
ATOM      1  O1  BZF d   1      -1.149   0.601   0.606  0.00  0.00    -0.204 OA
ATOM      2  C2  BZF d   1      -0.216   1.076  -0.295  0.00  0.00     0.174 A 
ATOM      3  C3  BZF d   1       0.844   0.245  -0.369  0.00  0.00    -0.012 A 
ATOM      4  C3A BZF d   1       0.513  -0.862   0.474  0.00  0.00    -0.107 A 
ATOM      5  C4  BZF d   1       1.161  -2.020   0.801  0.00  0.00     0.055 A 
ATOM      6  C5  BZF d   1       0.597  -2.858   1.710  0.00  0.00    -0.016 A 
ATOM      7  C6  BZF d   1      -0.608  -2.567   2.316  0.00  0.00     0.022 A 
ATOM      8  C7  BZF d   1      -1.290  -1.434   2.021  0.00  0.00     0.029 A 
ATOM      9  C7A BZF d   1      -0.739  -0.601   1.077  0.00  0.00     0.058 A 
ENDROOT
TORSDOF 0
ENDMDL
