MODEL 1
REMARK minimizedAffinity -5.34508228
REMARK minimizedRMSD -1
REMARK  0 active torsions:
REMARK  status: ('A' for Active; 'I' for Inactive)
ROOT
ATOM      1  O1  BZF d   1       1.378  -3.019   0.725  0.00  0.00    -0.204 OA
ATOM      2  C2  BZF d   1       0.560  -3.360   1.784  0.00  0.00     0.174 A 
ATOM      3  C3  BZF d   1      -0.189  -2.307   2.169  0.00  0.00    -0.012 A 
ATOM      4  C3A BZF d   1       0.116  -1.267   1.235  0.00  0.00    -0.107 A 
ATOM      5  C4  BZF d   1      -0.323   0.018   1.083  0.00  0.00     0.055 A 
ATOM      6  C5  BZF d   1       0.229   0.794   0.114  0.00  0.00    -0.016 A 
ATOM      7  C6  BZF d   1       1.225   0.322  -0.716  0.00  0.00     0.022 A 
ATOM      8  C7  BZF d   1       1.689  -0.947  -0.606  0.00  0.00     0.029 A 
ATOM      9  C7A BZF d   1       1.110  -1.744   0.350  0.00  0.00     0.058 A 
ENDROOT
TORSDOF 0
ENDMDL
