MODEL 1
REMARK minimizedAffinity 3.89030361
REMARK minimizedRMSD -1
REMARK  2 active torsions:
REMARK  status: ('A' for Active; 'I' for Inactive)
REMARK    1  A    between atoms: C1_2  and  C2_3 
REMARK    2  A    between atoms: C2_3  and  C3_4 
ROOT
ATOM      1  C3  UNL d   1      -0.897   4.148  -4.856  0.00  0.00    -0.075 A 
ATOM      2  C4  UNL d   1      -1.600   5.357  -4.958  0.00  0.00     0.002 A 
ATOM      3  C5  UNL d   1      -2.990   5.380  -4.845  0.00  0.00     0.002 A 
ATOM      4  C6  UNL d   1      -3.695   4.197  -4.639  0.00  0.00    -0.004 A 
ATOM      5  C7  UNL d   1      -3.009   2.987  -4.553  0.00  0.00     0.002 A 
ATOM      6  C8  UNL d   1      -1.617   2.962  -4.661  0.00  0.00     0.002 A 
ENDROOT
BRANCH   1   7
ATOM      7  C2  UNL d   1       0.610   4.120  -4.947  0.00  0.00     0.056 C 
BRANCH   7   8
ATOM      8  C1  UNL d   1       1.217   5.354  -5.624  0.00  0.00     0.007 C 
ATOM      9  C   UNL d   1       2.638   5.653  -5.164  0.00  0.00     0.009 C 
ENDBRANCH   7   8
ENDBRANCH   1   7
TORSDOF 2
ENDMDL
