MODEL 1
REMARK minimizedAffinity 4.16419601
REMARK minimizedRMSD -1
REMARK  2 active torsions:
REMARK  status: ('A' for Active; 'I' for Inactive)
REMARK    1  A    between atoms: C1_2  and  C2_3 
REMARK    2  A    between atoms: C2_3  and  C3_4 
ROOT
ATOM      1  C3  UNL d   1      -4.815   1.561   3.197  0.00  0.00    -0.075 A 
ATOM      2  C4  UNL d   1      -5.999   1.532   3.947  0.00  0.00     0.002 A 
ATOM      3  C5  UNL d   1      -5.954   1.434   5.338  0.00  0.00     0.002 A 
ATOM      4  C6  UNL d   1      -4.728   1.354   5.994  0.00  0.00    -0.004 A 
ATOM      5  C7  UNL d   1      -3.545   1.365   5.258  0.00  0.00     0.002 A 
ATOM      6  C8  UNL d   1      -3.588   1.467   3.866  0.00  0.00     0.002 A 
ENDROOT
BRANCH   1   7
ATOM      7  C2  UNL d   1      -4.856   1.697   1.693  0.00  0.00     0.056 C 
BRANCH   7   8
ATOM      8  C1  UNL d   1      -4.089   0.600   0.947  0.00  0.00     0.007 C 
ATOM      9  C   UNL d   1      -3.738   0.981  -0.485  0.00  0.00     0.009 C 
ENDBRANCH   7   8
ENDBRANCH   1   7
TORSDOF 2
ENDMDL
