MODEL 1
REMARK minimizedAffinity 5.76605463
REMARK minimizedRMSD -1
REMARK  2 active torsions:
REMARK  status: ('A' for Active; 'I' for Inactive)
REMARK    1  A    between atoms: C1_2  and  C2_3 
REMARK    2  A    between atoms: C2_3  and  C3_4 
ROOT
ATOM      1  C3  UNL d   1      -1.982  -1.153   0.451  0.00  0.00    -0.075 A 
ATOM      2  C4  UNL d   1      -3.208  -1.833   0.420  0.00  0.00     0.002 A 
ATOM      3  C5  UNL d   1      -4.137  -1.574  -0.588  0.00  0.00     0.002 A 
ATOM      4  C6  UNL d   1      -3.857  -0.626  -1.570  0.00  0.00    -0.004 A 
ATOM      5  C7  UNL d   1      -2.650   0.068  -1.540  0.00  0.00     0.002 A 
ATOM      6  C8  UNL d   1      -1.717  -0.193  -0.534  0.00  0.00     0.002 A 
ENDROOT
BRANCH   1   7
ATOM      7  C2  UNL d   1      -0.961  -1.450   1.523  0.00  0.00     0.056 C 
BRANCH   7   8
ATOM      8  C1  UNL d   1       0.418  -0.835   1.257  0.00  0.00     0.007 C 
ATOM      9  C   UNL d   1       1.471  -1.866   0.872  0.00  0.00     0.009 C 
ENDBRANCH   7   8
ENDBRANCH   1   7
TORSDOF 2
ENDMDL
