MODEL 1
REMARK minimizedAffinity 9.20290184
REMARK minimizedRMSD -1
REMARK  2 active torsions:
REMARK  status: ('A' for Active; 'I' for Inactive)
REMARK    1  A    between atoms: C1_2  and  C2_3 
REMARK    2  A    between atoms: C2_3  and  C3_4 
ROOT
ATOM      1  C3  UNL d   1       0.770  -2.090   1.194  0.00  0.00    -0.075 A 
ATOM      2  C4  UNL d   1       2.018  -1.454   1.108  0.00  0.00     0.002 A 
ATOM      3  C5  UNL d   1       3.159  -2.178   0.760  0.00  0.00     0.002 A 
ATOM      4  C6  UNL d   1       3.070  -3.545   0.506  0.00  0.00    -0.004 A 
ATOM      5  C7  UNL d   1       1.838  -4.190   0.605  0.00  0.00     0.002 A 
ATOM      6  C8  UNL d   1       0.694  -3.467   0.947  0.00  0.00     0.002 A 
ENDROOT
BRANCH   1   7
ATOM      7  C2  UNL d   1      -0.473  -1.306   1.540  0.00  0.00     0.056 C 
BRANCH   7   8
ATOM      8  C1  UNL d   1      -1.647  -2.174   2.009  0.00  0.00     0.007 C 
ATOM      9  C   UNL d   1      -2.985  -1.740   1.425  0.00  0.00     0.009 C 
ENDBRANCH   7   8
ENDBRANCH   1   7
TORSDOF 2
ENDMDL
