MODEL 1
REMARK minimizedAffinity 10.2970295
REMARK minimizedRMSD -1
REMARK  2 active torsions:
REMARK  status: ('A' for Active; 'I' for Inactive)
REMARK    1  A    between atoms: C1_2  and  C2_3 
REMARK    2  A    between atoms: C2_3  and  C3_4 
ROOT
ATOM      1  C3  UNL d   1       3.899  -3.940   0.223  0.00  0.00    -0.075 A 
ATOM      2  C4  UNL d   1       3.050  -5.024  -0.044  0.00  0.00     0.002 A 
ATOM      3  C5  UNL d   1       1.665  -4.859  -0.031  0.00  0.00     0.002 A 
ATOM      4  C6  UNL d   1       1.111  -3.614   0.259  0.00  0.00    -0.004 A 
ATOM      5  C7  UNL d   1       1.944  -2.534   0.543  0.00  0.00     0.002 A 
ATOM      6  C8  UNL d   1       3.331  -2.695   0.526  0.00  0.00     0.002 A 
ENDROOT
BRANCH   1   7
ATOM      7  C2  UNL d   1       5.399  -4.104   0.182  0.00  0.00     0.056 C 
BRANCH   7   8
ATOM      8  C1  UNL d   1       5.863  -5.557   0.034  0.00  0.00     0.007 C 
ATOM      9  C   UNL d   1       6.000  -6.000  -1.416  0.00  0.00     0.009 C 
ENDBRANCH   7   8
ENDBRANCH   1   7
TORSDOF 2
ENDMDL
