MODEL 1
REMARK minimizedAffinity 11.7923508
REMARK minimizedRMSD -1
REMARK  2 active torsions:
REMARK  status: ('A' for Active; 'I' for Inactive)
REMARK    1  A    between atoms: C1_2  and  C2_3 
REMARK    2  A    between atoms: C2_3  and  C3_4 
ROOT
ATOM      1  C3  UNL d   1      -5.406  -1.140  -3.555  0.00  0.00    -0.075 A 
ATOM      2  C4  UNL d   1      -5.492  -1.880  -4.744  0.00  0.00     0.002 A 
ATOM      3  C5  UNL d   1      -5.778  -1.247  -5.953  0.00  0.00     0.002 A 
ATOM      4  C6  UNL d   1      -5.991   0.129  -5.989  0.00  0.00    -0.004 A 
ATOM      5  C7  UNL d   1      -5.925   0.872  -4.812  0.00  0.00     0.002 A 
ATOM      6  C8  UNL d   1      -5.635   0.241  -3.601  0.00  0.00     0.002 A 
ENDROOT
BRANCH   1   7
ATOM      7  C2  UNL d   1      -5.068  -1.816  -2.247  0.00  0.00     0.056 C 
BRANCH   7   8
ATOM      8  C1  UNL d   1      -3.942  -1.132  -1.465  0.00  0.00     0.007 C 
ATOM      9  C   UNL d   1      -4.073  -1.296   0.043  0.00  0.00     0.009 C 
ENDBRANCH   7   8
ENDBRANCH   1   7
TORSDOF 2
ENDMDL
