MODEL 1
REMARK minimizedAffinity -1.21836746
REMARK minimizedRMSD -1
REMARK  0 active torsions:
REMARK  status: ('A' for Active; 'I' for Inactive)
ROOT
ATOM      1  C   UNL d   1       1.870  -5.938   2.274  0.00  0.00     0.172 C 
ATOM      2  N   UNL d   1       3.258  -5.611   2.504  0.00  0.00    -0.070 N 
ATOM      3  C1  UNL d   1       4.052  -4.871   1.669  0.00  0.00    -0.004 A 
ATOM      4  C2  UNL d   1       5.302  -4.785   2.243  0.00  0.00    -0.047 A 
ATOM      5  C3  UNL d   1       5.257  -5.499   3.464  0.00  0.00    -0.047 A 
ATOM      6  C4  UNL d   1       3.980  -6.000   3.601  0.00  0.00    -0.004 A 
ENDROOT
TORSDOF 0
ENDMDL
