MODEL 1
REMARK minimizedAffinity 3.29343534
REMARK minimizedRMSD -1
REMARK  0 active torsions:
REMARK  status: ('A' for Active; 'I' for Inactive)
ROOT
ATOM      1  C   UNL d   1      -3.866  -0.679   0.259  0.00  0.00     0.172 C 
ATOM      2  N   UNL d   1      -3.035   0.244   0.996  0.00  0.00    -0.070 N 
ATOM      3  C1  UNL d   1      -3.452   1.420   1.559  0.00  0.00    -0.004 A 
ATOM      4  C2  UNL d   1      -2.365   2.006   2.170  0.00  0.00    -0.047 A 
ATOM      5  C3  UNL d   1      -1.254   1.152   1.967  0.00  0.00    -0.047 A 
ATOM      6  C4  UNL d   1      -1.697   0.069   1.237  0.00  0.00    -0.004 A 
ENDROOT
TORSDOF 0
ENDMDL
