MODEL 1
REMARK minimizedAffinity 6.03676414
REMARK minimizedRMSD -1
REMARK  0 active torsions:
REMARK  status: ('A' for Active; 'I' for Inactive)
ROOT
ATOM      1  C   UNL d   1      -3.753  -1.114   6.000  0.00  0.00     0.172 C 
ATOM      2  N   UNL d   1      -3.867  -0.304   4.810  0.00  0.00    -0.070 N 
ATOM      3  C1  UNL d   1      -3.004  -0.320   3.747  0.00  0.00    -0.004 A 
ATOM      4  C2  UNL d   1      -3.459   0.592   2.820  0.00  0.00    -0.047 A 
ATOM      5  C3  UNL d   1      -4.636   1.178   3.344  0.00  0.00    -0.047 A 
ATOM      6  C4  UNL d   1      -4.866   0.605   4.577  0.00  0.00    -0.004 A 
ENDROOT
TORSDOF 0
ENDMDL
