MODEL 1
REMARK minimizedAffinity 0.75979954
REMARK minimizedRMSD -1
REMARK  0 active torsions:
REMARK  status: ('A' for Active; 'I' for Inactive)
ROOT
ATOM      1  C   UNL d   1      -1.570  -2.382  -5.996  0.00  0.00     0.172 C 
ATOM      2  N   UNL d   1      -2.994  -2.623  -5.997  0.00  0.00    -0.070 N 
ATOM      3  C1  UNL d   1      -3.967  -1.660  -5.996  0.00  0.00    -0.004 A 
ATOM      4  C2  UNL d   1      -5.190  -2.295  -5.998  0.00  0.00    -0.047 A 
ATOM      5  C3  UNL d   1      -4.943  -3.689  -5.999  0.00  0.00    -0.047 A 
ATOM      6  C4  UNL d   1      -3.576  -3.864  -5.999  0.00  0.00    -0.004 A 
ENDROOT
TORSDOF 0
ENDMDL
