MODEL 1
REMARK minimizedAffinity 2.99152136
REMARK minimizedRMSD -1
REMARK  0 active torsions:
REMARK  status: ('A' for Active; 'I' for Inactive)
ROOT
ATOM      1  C   UNL d   1      -4.218  -3.012  -6.000  0.00  0.00     0.172 C 
ATOM      2  N   UNL d   1      -3.050  -2.163  -5.979  0.00  0.00    -0.070 N 
ATOM      3  C1  UNL d   1      -3.058  -0.795  -5.937  0.00  0.00    -0.004 A 
ATOM      4  C2  UNL d   1      -1.748  -0.365  -5.930  0.00  0.00    -0.047 A 
ATOM      5  C3  UNL d   1      -0.925  -1.515  -5.970  0.00  0.00    -0.047 A 
ATOM      6  C4  UNL d   1      -1.756  -2.614  -6.000  0.00  0.00    -0.004 A 
ENDROOT
TORSDOF 0
ENDMDL
