MODEL 1
REMARK minimizedAffinity -1.31280434
REMARK minimizedRMSD -1
REMARK  0 active torsions:
REMARK  status: ('A' for Active; 'I' for Inactive)
ROOT
ATOM      1  C   UNL d   1      -4.383  -2.940  -6.000  0.00  0.00     0.172 C 
ATOM      2  N   UNL d   1      -3.066  -2.348  -5.998  0.00  0.00    -0.070 N 
ATOM      3  C1  UNL d   1      -2.793  -1.006  -5.995  0.00  0.00    -0.004 A 
ATOM      4  C2  UNL d   1      -1.424  -0.853  -5.994  0.00  0.00    -0.047 A 
ATOM      5  C3  UNL d   1      -0.853  -2.148  -5.997  0.00  0.00    -0.047 A 
ATOM      6  C4  UNL d   1      -1.892  -3.055  -5.999  0.00  0.00    -0.004 A 
ENDROOT
TORSDOF 0
ENDMDL
