MODEL 1
REMARK minimizedAffinity 3.33374333
REMARK minimizedRMSD -1
REMARK  0 active torsions:
REMARK  status: ('A' for Active; 'I' for Inactive)
ROOT
ATOM      1  C   UNL d   1      -3.637   0.607   2.559  0.00  0.00     0.172 C 
ATOM      2  N   UNL d   1      -3.960   0.364   3.945  0.00  0.00    -0.070 N 
ATOM      3  C1  UNL d   1      -3.637  -0.761   4.655  0.00  0.00    -0.004 A 
ATOM      4  C2  UNL d   1      -4.119  -0.606   5.936  0.00  0.00    -0.047 A 
ATOM      5  C3  UNL d   1      -4.755   0.656   5.999  0.00  0.00    -0.047 A 
ATOM      6  C4  UNL d   1      -4.642   1.236   4.753  0.00  0.00    -0.004 A 
ENDROOT
TORSDOF 0
ENDMDL
