MODEL 1
REMARK minimizedAffinity 4.54937601
REMARK minimizedRMSD -1
REMARK  0 active torsions:
REMARK  status: ('A' for Active; 'I' for Inactive)
ROOT
ATOM      1  C   UNL d   1      -4.166   0.209   3.831  0.00  0.00     0.172 C 
ATOM      2  N   UNL d   1      -3.079   0.351   2.892  0.00  0.00    -0.070 N 
ATOM      3  C1  UNL d   1      -1.844  -0.231   3.006  0.00  0.00    -0.004 A 
ATOM      4  C2  UNL d   1      -1.096   0.147   1.912  0.00  0.00    -0.047 A 
ATOM      5  C3  UNL d   1      -1.909   0.986   1.113  0.00  0.00    -0.047 A 
ATOM      6  C4  UNL d   1      -3.131   1.095   1.743  0.00  0.00    -0.004 A 
ENDROOT
TORSDOF 0
ENDMDL
