MODEL 1
REMARK minimizedAffinity -0.297403932
REMARK minimizedRMSD -1
REMARK  0 active torsions:
REMARK  status: ('A' for Active; 'I' for Inactive)
ROOT
ATOM      1  C   UNL d   1      -5.004  -4.450  -5.992  0.00  0.00     0.172 C 
ATOM      2  N   UNL d   1      -4.432  -3.124  -5.992  0.00  0.00    -0.070 N 
ATOM      3  C1  UNL d   1      -3.095  -2.832  -5.998  0.00  0.00    -0.004 A 
ATOM      4  C2  UNL d   1      -2.963  -1.460  -5.995  0.00  0.00    -0.047 A 
ATOM      5  C3  UNL d   1      -4.266  -0.909  -5.986  0.00  0.00    -0.047 A 
ATOM      6  C4  UNL d   1      -5.157  -1.962  -5.983  0.00  0.00    -0.004 A 
ENDROOT
TORSDOF 0
ENDMDL
