MODEL 1
REMARK minimizedAffinity 2.18573761
REMARK minimizedRMSD -1
REMARK  0 active torsions:
REMARK  status: ('A' for Active; 'I' for Inactive)
ROOT
ATOM      1  C   UNL d   1      -5.198  -1.711   0.323  0.00  0.00     0.172 C 
ATOM      2  N   UNL d   1      -4.823  -0.469   0.956  0.00  0.00    -0.070 N 
ATOM      3  C1  UNL d   1      -5.672   0.377   1.619  0.00  0.00    -0.004 A 
ATOM      4  C2  UNL d   1      -4.931   1.445   2.077  0.00  0.00    -0.047 A 
ATOM      5  C3  UNL d   1      -3.591   1.235   1.674  0.00  0.00    -0.047 A 
ATOM      6  C4  UNL d   1      -3.553   0.042   0.982  0.00  0.00    -0.004 A 
ENDROOT
TORSDOF 0
ENDMDL
