MODEL 1
REMARK minimizedAffinity 0.894771516
REMARK minimizedRMSD -1
REMARK  0 active torsions:
REMARK  status: ('A' for Active; 'I' for Inactive)
ROOT
ATOM      1  C   UNL d   1      -2.321  -3.891  -5.998  0.00  0.00     0.172 C 
ATOM      2  N   UNL d   1      -3.012  -2.623  -5.997  0.00  0.00    -0.070 N 
ATOM      3  C1  UNL d   1      -2.417  -1.390  -5.997  0.00  0.00    -0.004 A 
ATOM      4  C2  UNL d   1      -3.415  -0.440  -5.995  0.00  0.00    -0.047 A 
ATOM      5  C3  UNL d   1      -4.653  -1.126  -5.993  0.00  0.00    -0.047 A 
ATOM      6  C4  UNL d   1      -4.374  -2.476  -5.993  0.00  0.00    -0.004 A 
ENDROOT
TORSDOF 0
ENDMDL
