MODEL 1
REMARK minimizedAffinity -2.67195773
REMARK minimizedRMSD -1
REMARK  0 active torsions:
REMARK  status: ('A' for Active; 'I' for Inactive)
ROOT
ATOM      1  C   UNL d   1      -5.235  -1.491  -5.985  0.00  0.00     0.172 C 
ATOM      2  N   UNL d   1      -3.819  -1.777  -5.991  0.00  0.00    -0.070 N 
ATOM      3  C1  UNL d   1      -3.257  -3.026  -5.994  0.00  0.00    -0.004 A 
ATOM      4  C2  UNL d   1      -1.887  -2.872  -6.000  0.00  0.00    -0.047 A 
ATOM      5  C3  UNL d   1      -1.617  -1.483  -6.000  0.00  0.00    -0.047 A 
ATOM      6  C4  UNL d   1      -2.831  -0.828  -5.994  0.00  0.00    -0.004 A 
ENDROOT
TORSDOF 0
ENDMDL
