MODEL 1
REMARK minimizedAffinity 7.46963692
REMARK minimizedRMSD -1
REMARK  0 active torsions:
REMARK  status: ('A' for Active; 'I' for Inactive)
ROOT
ATOM      1  C   UNL d   1      -1.259   0.404   1.293  0.00  0.00     0.172 C 
ATOM      2  N   UNL d   1      -2.698   0.344   1.188  0.00  0.00    -0.070 N 
ATOM      3  C1  UNL d   1      -3.425  -0.739   0.770  0.00  0.00    -0.004 A 
ATOM      4  C2  UNL d   1      -4.758  -0.394   0.811  0.00  0.00    -0.047 A 
ATOM      5  C3  UNL d   1      -4.836   0.943   1.269  0.00  0.00    -0.047 A 
ATOM      6  C4  UNL d   1      -3.547   1.376   1.494  0.00  0.00    -0.004 A 
ENDROOT
TORSDOF 0
ENDMDL
