MODEL 1
REMARK minimizedAffinity -1.08392656
REMARK minimizedRMSD -1
REMARK  0 active torsions:
REMARK  status: ('A' for Active; 'I' for Inactive)
ROOT
ATOM      1  C   UNL d   1      -5.922  -1.620  -5.999  0.00  0.00     0.172 C 
ATOM      2  N   UNL d   1      -4.768  -2.487  -5.998  0.00  0.00    -0.070 N 
ATOM      3  C1  UNL d   1      -4.797  -3.856  -5.995  0.00  0.00    -0.004 A 
ATOM      4  C2  UNL d   1      -3.494  -4.306  -5.996  0.00  0.00    -0.047 A 
ATOM      5  C3  UNL d   1      -2.653  -3.168  -5.999  0.00  0.00    -0.047 A 
ATOM      6  C4  UNL d   1      -3.467  -2.055  -6.000  0.00  0.00    -0.004 A 
ENDROOT
TORSDOF 0
ENDMDL
