MODEL 1
REMARK minimizedAffinity 3.3416996
REMARK minimizedRMSD -1
REMARK  0 active torsions:
REMARK  status: ('A' for Active; 'I' for Inactive)
ROOT
ATOM      1  C   UNL d   1       0.052  -4.491   1.120  0.00  0.00     0.172 C 
ATOM      2  N   UNL d   1       1.131  -5.071   1.885  0.00  0.00    -0.070 N 
ATOM      3  C1  UNL d   1       1.042  -5.523   3.175  0.00  0.00    -0.004 A 
ATOM      4  C2  UNL d   1       2.282  -6.000   3.541  0.00  0.00    -0.047 A 
ATOM      5  C3  UNL d   1       3.146  -5.828   2.433  0.00  0.00    -0.047 A 
ATOM      6  C4  UNL d   1       2.407  -5.251   1.422  0.00  0.00    -0.004 A 
ENDROOT
TORSDOF 0
ENDMDL
