MODEL 1
REMARK minimizedAffinity -2.23809695
REMARK minimizedRMSD -1
REMARK  0 active torsions:
REMARK  status: ('A' for Active; 'I' for Inactive)
ROOT
ATOM      1  C   UNL d   1      -4.941  -3.883  -5.968  0.00  0.00     0.172 C 
ATOM      2  N   UNL d   1      -3.945  -2.838  -5.981  0.00  0.00    -0.070 N 
ATOM      3  C1  UNL d   1      -2.589  -3.028  -5.987  0.00  0.00    -0.004 A 
ATOM      4  C2  UNL d   1      -1.989  -1.788  -5.999  0.00  0.00    -0.047 A 
ATOM      5  C3  UNL d   1      -3.020  -0.818  -5.999  0.00  0.00    -0.047 A 
ATOM      6  C4  UNL d   1      -4.220  -1.496  -5.988  0.00  0.00    -0.004 A 
ENDROOT
TORSDOF 0
ENDMDL
