MODEL 1
REMARK minimizedAffinity -0.832065344
REMARK minimizedRMSD -1
REMARK  0 active torsions:
REMARK  status: ('A' for Active; 'I' for Inactive)
ROOT
ATOM      1  C   UNL d   1      -5.676  -3.094  -5.998  0.00  0.00     0.172 C 
ATOM      2  N   UNL d   1      -4.249  -2.871  -5.998  0.00  0.00    -0.070 N 
ATOM      3  C1  UNL d   1      -3.632  -1.648  -5.996  0.00  0.00    -0.004 A 
ATOM      4  C2  UNL d   1      -2.271  -1.862  -5.996  0.00  0.00    -0.047 A 
ATOM      5  C3  UNL d   1      -2.062  -3.262  -5.999  0.00  0.00    -0.047 A 
ATOM      6  C4  UNL d   1      -3.304  -3.862  -6.000  0.00  0.00    -0.004 A 
ENDROOT
TORSDOF 0
ENDMDL
