MODEL 1
REMARK minimizedAffinity -0.37529093
REMARK minimizedRMSD -1
REMARK  0 active torsions:
REMARK  status: ('A' for Active; 'I' for Inactive)
ROOT
ATOM      1  N1  IND d   1       6.000   4.144   4.270  0.00  0.00    -0.196 N 
ATOM      2  C2  IND d   1       5.438   4.859   3.249  0.00  0.00     0.054 A 
ATOM      3  C3  IND d   1       4.762   4.036   2.416  0.00  0.00    -0.031 A 
ATOM      4  C4  IND d   1       4.362   1.499   2.592  0.00  0.00     0.051 A 
ATOM      5  C5  IND d   1       4.706   0.403   3.332  0.00  0.00    -0.031 A 
ATOM      6  C6  IND d   1       5.514   0.500   4.447  0.00  0.00     0.015 A 
ATOM      7  C7  IND d   1       6.000   1.705   4.871  0.00  0.00    -0.016 A 
ATOM      8  C8  IND d   1       5.658   2.819   4.118  0.00  0.00    -0.047 A 
ATOM      9  C9  IND d   1       4.873   2.720   2.962  0.00  0.00    -0.096 A 
ATOM     10  HN1 IND d   1       6.486   4.469   4.901  0.00  0.00     0.298 HD
ENDROOT
TORSDOF 0
ENDMDL
