MODEL 1
REMARK minimizedAffinity 1.05177498
REMARK minimizedRMSD -1
REMARK  0 active torsions:
REMARK  status: ('A' for Active; 'I' for Inactive)
ROOT
ATOM      1  N1  IND d   1       5.993   2.096   2.973  0.00  0.00    -0.196 N 
ATOM      2  C2  IND d   1       5.989   1.485   4.196  0.00  0.00     0.054 A 
ATOM      3  C3  IND d   1       6.000   2.408   5.183  0.00  0.00    -0.031 A 
ATOM      4  C4  IND d   1       5.923   4.976   5.022  0.00  0.00     0.051 A 
ATOM      5  C5  IND d   1       5.953   6.000   4.118  0.00  0.00    -0.031 A 
ATOM      6  C6  IND d   1       5.997   5.770   2.758  0.00  0.00     0.015 A 
ATOM      7  C7  IND d   1       6.000   4.502   2.249  0.00  0.00    -0.016 A 
ATOM      8  C8  IND d   1       5.976   3.460   3.165  0.00  0.00    -0.047 A 
ATOM      9  C9  IND d   1       5.975   3.687   4.547  0.00  0.00    -0.096 A 
ATOM     10  HN1 IND d   1       6.004   1.696   2.212  0.00  0.00     0.298 HD
ENDROOT
TORSDOF 0
ENDMDL
