MODEL 1
REMARK minimizedAffinity -3.77467203
REMARK minimizedRMSD -1
REMARK  0 active torsions:
REMARK  status: ('A' for Active; 'I' for Inactive)
ROOT
ATOM      1  N1  IND d   1       5.991   4.735   4.404  0.00  0.00    -0.196 N 
ATOM      2  C2  IND d   1       5.998   5.181   3.111  0.00  0.00     0.054 A 
ATOM      3  C3  IND d   1       5.995   4.136   2.253  0.00  0.00    -0.031 A 
ATOM      4  C4  IND d   1       5.878   1.613   2.750  0.00  0.00     0.051 A 
ATOM      5  C5  IND d   1       5.892   0.716   3.781  0.00  0.00    -0.031 A 
ATOM      6  C6  IND d   1       5.938   1.121   5.099  0.00  0.00     0.015 A 
ATOM      7  C7  IND d   1       5.960   2.445   5.437  0.00  0.00    -0.016 A 
ATOM      8  C8  IND d   1       5.953   3.358   4.392  0.00  0.00    -0.047 A 
ATOM      9  C9  IND d   1       5.950   2.952   3.052  0.00  0.00    -0.096 A 
ATOM     10  HN1 IND d   1       6.008   5.231   5.106  0.00  0.00     0.298 HD
ENDROOT
TORSDOF 0
ENDMDL
