MODEL 1
REMARK minimizedAffinity 0.0119576259
REMARK minimizedRMSD -1
REMARK  0 active torsions:
REMARK  status: ('A' for Active; 'I' for Inactive)
ROOT
ATOM      1  N1  IND d   1       5.924   4.779   5.500  0.00  0.00    -0.196 N 
ATOM      2  C2  IND d   1       5.941   5.567   4.383  0.00  0.00     0.054 A 
ATOM      3  C3  IND d   1       6.000   4.804   3.269  0.00  0.00    -0.031 A 
ATOM      4  C4  IND d   1       5.973   2.240   3.040  0.00  0.00     0.051 A 
ATOM      5  C5  IND d   1       6.000   1.092   3.781  0.00  0.00    -0.031 A 
ATOM      6  C6  IND d   1       6.000   1.115   5.161  0.00  0.00     0.015 A 
ATOM      7  C7  IND d   1       5.962   2.291   5.854  0.00  0.00    -0.016 A 
ATOM      8  C8  IND d   1       5.941   3.459   5.105  0.00  0.00    -0.047 A 
ATOM      9  C9  IND d   1       5.984   3.443   3.704  0.00  0.00    -0.096 A 
ATOM     10  HN1 IND d   1       5.905   5.060   6.312  0.00  0.00     0.298 HD
ENDROOT
TORSDOF 0
ENDMDL
