MODEL 1
REMARK minimizedAffinity 14.6656647
REMARK minimizedRMSD -1
REMARK  0 active torsions:
REMARK  status: ('A' for Active; 'I' for Inactive)
ROOT
ATOM      1  N1  IND d   1       0.458   4.453   4.064  0.00  0.00    -0.196 N 
ATOM      2  C2  IND d   1      -0.575   5.086   4.697  0.00  0.00     0.054 A 
ATOM      3  C3  IND d   1      -1.721   4.936   3.995  0.00  0.00    -0.031 A 
ATOM      4  C4  IND d   1      -2.150   3.606   1.833  0.00  0.00     0.051 A 
ATOM      5  C5  IND d   1      -1.507   2.889   0.863  0.00  0.00    -0.031 A 
ATOM      6  C6  IND d   1      -0.149   2.650   0.913  0.00  0.00     0.015 A 
ATOM      7  C7  IND d   1       0.618   3.112   1.945  0.00  0.00    -0.016 A 
ATOM      8  C8  IND d   1      -0.031   3.846   2.928  0.00  0.00    -0.047 A 
ATOM      9  C9  IND d   1      -1.401   4.127   2.861  0.00  0.00    -0.096 A 
ATOM     10  HN1 IND d   1       1.275   4.438   4.330  0.00  0.00     0.298 HD
ENDROOT
TORSDOF 0
ENDMDL
