MODEL 1
REMARK minimizedAffinity -2.36421895
REMARK minimizedRMSD -1
REMARK  0 active torsions:
REMARK  status: ('A' for Active; 'I' for Inactive)
ROOT
ATOM      1  N1  IND d   1       5.998  -0.142   3.664  0.00  0.00    -0.196 N 
ATOM      2  C2  IND d   1       5.499  -0.432   4.903  0.00  0.00     0.054 A 
ATOM      3  C3  IND d   1       4.902   0.657   5.437  0.00  0.00    -0.031 A 
ATOM      4  C4  IND d   1       4.537   2.990   4.411  0.00  0.00     0.051 A 
ATOM      5  C5  IND d   1       4.847   3.745   3.315  0.00  0.00    -0.031 A 
ATOM      6  C6  IND d   1       5.569   3.232   2.256  0.00  0.00     0.015 A 
ATOM      7  C7  IND d   1       6.000   1.935   2.250  0.00  0.00    -0.016 A 
ATOM      8  C8  IND d   1       5.693   1.168   3.364  0.00  0.00    -0.047 A 
ATOM      9  C9  IND d   1       4.998   1.695   4.460  0.00  0.00    -0.096 A 
ATOM     10  HN1 IND d   1       6.430  -0.686   3.157  0.00  0.00     0.298 HD
ENDROOT
TORSDOF 0
ENDMDL
