MODEL 1
REMARK minimizedAffinity 5.83871603
REMARK minimizedRMSD -1
REMARK  0 active torsions:
REMARK  status: ('A' for Active; 'I' for Inactive)
ROOT
ATOM      1  N1  IND d   1       5.578   5.726   3.421  0.00  0.00    -0.196 N 
ATOM      2  C2  IND d   1       5.566   5.952   4.769  0.00  0.00     0.054 A 
ATOM      3  C3  IND d   1       5.665   4.785   5.443  0.00  0.00    -0.031 A 
ATOM      4  C4  IND d   1       5.960   2.393   4.537  0.00  0.00     0.051 A 
ATOM      5  C5  IND d   1       5.991   1.679   3.372  0.00  0.00    -0.031 A 
ATOM      6  C6  IND d   1       5.886   2.290   2.139  0.00  0.00     0.015 A 
ATOM      7  C7  IND d   1       5.758   3.645   2.024  0.00  0.00    -0.016 A 
ATOM      8  C8  IND d   1       5.719   4.373   3.205  0.00  0.00    -0.047 A 
ATOM      9  C9  IND d   1       5.782   3.754   4.460  0.00  0.00    -0.096 A 
ATOM     10  HN1 IND d   1       5.510   6.328   2.811  0.00  0.00     0.298 HD
ENDROOT
TORSDOF 0
ENDMDL
