MODEL 1
REMARK minimizedAffinity 5.42856598
REMARK minimizedRMSD -1
REMARK  0 active torsions:
REMARK  status: ('A' for Active; 'I' for Inactive)
ROOT
ATOM      1  N1  IND d   1       5.987   1.697   2.425  0.00  0.00    -0.196 N 
ATOM      2  C2  IND d   1       5.985   0.812   3.467  0.00  0.00     0.054 A 
ATOM      3  C3  IND d   1       5.990   1.473   4.646  0.00  0.00    -0.031 A 
ATOM      4  C4  IND d   1       5.899   4.005   5.101  0.00  0.00     0.051 A 
ATOM      5  C5  IND d   1       5.925   5.215   4.467  0.00  0.00    -0.031 A 
ATOM      6  C6  IND d   1       5.971   5.317   3.091  0.00  0.00     0.015 A 
ATOM      7  C7  IND d   1       5.981   4.206   2.295  0.00  0.00    -0.016 A 
ATOM      8  C8  IND d   1       5.962   2.976   2.936  0.00  0.00    -0.047 A 
ATOM      9  C9  IND d   1       5.959   2.866   4.333  0.00  0.00    -0.096 A 
ATOM     10  HN1 IND d   1       6.001   1.490   1.591  0.00  0.00     0.298 HD
ENDROOT
TORSDOF 0
ENDMDL
