MODEL 1
REMARK minimizedAffinity 4.77515936
REMARK minimizedRMSD -1
REMARK  0 active torsions:
REMARK  status: ('A' for Active; 'I' for Inactive)
ROOT
ATOM      1  N1  IND d   1       5.979   1.397   3.108  0.00  0.00    -0.196 N 
ATOM      2  C2  IND d   1       5.947   1.975   4.346  0.00  0.00     0.054 A 
ATOM      3  C3  IND d   1       5.910   1.026   5.308  0.00  0.00    -0.031 A 
ATOM      4  C4  IND d   1       6.000  -1.537   5.080  0.00  0.00     0.051 A 
ATOM      5  C5  IND d   1       5.998  -2.536   4.147  0.00  0.00    -0.031 A 
ATOM      6  C6  IND d   1       5.992  -2.270   2.793  0.00  0.00     0.015 A 
ATOM      7  C7  IND d   1       6.000  -0.989   2.319  0.00  0.00    -0.016 A 
ATOM      8  C8  IND d   1       5.995   0.028   3.263  0.00  0.00    -0.047 A 
ATOM      9  C9  IND d   1       5.957  -0.236   4.638  0.00  0.00    -0.096 A 
ATOM     10  HN1 IND d   1       5.989   1.818   2.358  0.00  0.00     0.298 HD
ENDROOT
TORSDOF 0
ENDMDL
