MODEL 1
REMARK minimizedAffinity -1.95009542
REMARK minimizedRMSD -1
REMARK  0 active torsions:
REMARK  status: ('A' for Active; 'I' for Inactive)
ROOT
ATOM      1  N1  IND d   1       6.000   1.418   2.414  0.00  0.00    -0.196 N 
ATOM      2  C2  IND d   1       5.684   0.873   3.627  0.00  0.00     0.054 A 
ATOM      3  C3  IND d   1       5.308   1.840   4.494  0.00  0.00    -0.031 A 
ATOM      4  C4  IND d   1       5.041   4.371   4.105  0.00  0.00     0.051 A 
ATOM      5  C5  IND d   1       5.246   5.345   3.168  0.00  0.00    -0.031 A 
ATOM      6  C6  IND d   1       5.721   5.053   1.906  0.00  0.00     0.015 A 
ATOM      7  C7  IND d   1       5.998   3.770   1.528  0.00  0.00    -0.016 A 
ATOM      8  C8  IND d   1       5.797   2.779   2.479  0.00  0.00    -0.047 A 
ATOM      9  C9  IND d   1       5.356   3.074   3.775  0.00  0.00    -0.096 A 
ATOM     10  HN1 IND d   1       6.278   0.984   1.726  0.00  0.00     0.298 HD
ENDROOT
TORSDOF 0
ENDMDL
