MODEL 1
REMARK minimizedAffinity -1.3219322
REMARK minimizedRMSD -1
REMARK  0 active torsions:
REMARK  status: ('A' for Active; 'I' for Inactive)
ROOT
ATOM      1  N1  IND d   1       5.990   0.732   6.000  0.00  0.00    -0.196 N 
ATOM      2  C2  IND d   1       5.983  -0.606   5.717  0.00  0.00     0.054 A 
ATOM      3  C3  IND d   1       5.948  -0.803   4.380  0.00  0.00    -0.031 A 
ATOM      4  C4  IND d   1       6.000   0.921   2.470  0.00  0.00     0.051 A 
ATOM      5  C5  IND d   1       5.971   2.267   2.232  0.00  0.00    -0.031 A 
ATOM      6  C6  IND d   1       5.950   3.188   3.259  0.00  0.00     0.015 A 
ATOM      7  C7  IND d   1       5.968   2.797   4.568  0.00  0.00    -0.016 A 
ATOM      8  C8  IND d   1       5.990   1.431   4.813  0.00  0.00    -0.047 A 
ATOM      9  C9  IND d   1       5.968   0.490   3.775  0.00  0.00    -0.096 A 
ATOM     10  HN1 IND d   1       5.995   1.078   6.787  0.00  0.00     0.298 HD
ENDROOT
TORSDOF 0
ENDMDL
