MODEL 1
REMARK minimizedAffinity -1.31098449
REMARK minimizedRMSD -1
REMARK  0 active torsions:
REMARK  status: ('A' for Active; 'I' for Inactive)
ROOT
ATOM      1  N1  IND d   1       5.910   3.584   4.463  0.00  0.00    -0.196 N 
ATOM      2  C2  IND d   1       5.926   3.990   3.157  0.00  0.00     0.054 A 
ATOM      3  C3  IND d   1       5.988   2.921   2.333  0.00  0.00    -0.031 A 
ATOM      4  C4  IND d   1       5.970   0.411   2.905  0.00  0.00     0.051 A 
ATOM      5  C5  IND d   1       6.000  -0.453   3.963  0.00  0.00    -0.031 A 
ATOM      6  C6  IND d   1       5.999  -0.006   5.269  0.00  0.00     0.015 A 
ATOM      7  C7  IND d   1       5.956   1.327   5.566  0.00  0.00    -0.016 A 
ATOM      8  C8  IND d   1       5.933   2.207   4.493  0.00  0.00    -0.047 A 
ATOM      9  C9  IND d   1       5.976   1.761   3.166  0.00  0.00    -0.096 A 
ATOM     10  HN1 IND d   1       5.890   4.102   5.149  0.00  0.00     0.298 HD
ENDROOT
TORSDOF 0
ENDMDL
