MODEL 1
REMARK minimizedAffinity 2.20693254
REMARK minimizedRMSD -1
REMARK  0 active torsions:
REMARK  status: ('A' for Active; 'I' for Inactive)
ROOT
ATOM      1  N1  IND d   1       5.999   4.467   4.036  0.00  0.00    -0.196 N 
ATOM      2  C2  IND d   1       5.994   4.571   2.673  0.00  0.00     0.054 A 
ATOM      3  C3  IND d   1       5.999   3.343   2.108  0.00  0.00    -0.031 A 
ATOM      4  C4  IND d   1       5.913   1.026   3.228  0.00  0.00     0.051 A 
ATOM      5  C5  IND d   1       5.943   0.421   4.453  0.00  0.00    -0.031 A 
ATOM      6  C6  IND d   1       5.991   1.147   5.625  0.00  0.00     0.015 A 
ATOM      7  C7  IND d   1       5.999   2.514   5.616  0.00  0.00    -0.016 A 
ATOM      8  C8  IND d   1       5.977   3.132   4.374  0.00  0.00    -0.047 A 
ATOM      9  C9  IND d   1       5.971   2.399   3.180  0.00  0.00    -0.096 A 
ATOM     10  HN1 IND d   1       6.013   5.125   4.589  0.00  0.00     0.298 HD
ENDROOT
TORSDOF 0
ENDMDL
