MODEL 1
REMARK minimizedAffinity -1.7727046
REMARK minimizedRMSD -1
REMARK  0 active torsions:
REMARK  status: ('A' for Active; 'I' for Inactive)
ROOT
ATOM      1  N1  IND d   1       5.967  -1.351   3.890  0.00  0.00    -0.196 N 
ATOM      2  C2  IND d   1       5.951  -1.718   5.207  0.00  0.00     0.054 A 
ATOM      3  C3  IND d   1       5.962  -0.623   6.000  0.00  0.00    -0.031 A 
ATOM      4  C4  IND d   1       5.905   1.868   5.351  0.00  0.00     0.051 A 
ATOM      5  C5  IND d   1       5.949   2.700   4.267  0.00  0.00    -0.031 A 
ATOM      6  C6  IND d   1       6.000   2.214   2.977  0.00  0.00     0.015 A 
ATOM      7  C7  IND d   1       5.997   0.873   2.720  0.00  0.00    -0.016 A 
ATOM      8  C8  IND d   1       5.959   0.025   3.818  0.00  0.00    -0.047 A 
ATOM      9  C9  IND d   1       5.951   0.511   5.131  0.00  0.00    -0.096 A 
ATOM     10  HN1 IND d   1       5.980  -1.889   3.219  0.00  0.00     0.298 HD
ENDROOT
TORSDOF 0
ENDMDL
