MODEL 1
REMARK minimizedAffinity 2.52013564
REMARK minimizedRMSD -1
REMARK  0 active torsions:
REMARK  status: ('A' for Active; 'I' for Inactive)
ROOT
ATOM      1  N1  IND d   1       6.000   3.946   3.789  0.00  0.00    -0.196 N 
ATOM      2  C2  IND d   1       5.998   4.506   5.036  0.00  0.00     0.054 A 
ATOM      3  C3  IND d   1       5.960   3.543   5.984  0.00  0.00    -0.031 A 
ATOM      4  C4  IND d   1       5.999   0.983   5.717  0.00  0.00     0.051 A 
ATOM      5  C5  IND d   1       5.964  -0.002   4.770  0.00  0.00    -0.031 A 
ATOM      6  C6  IND d   1       5.941   0.285   3.420  0.00  0.00     0.015 A 
ATOM      7  C7  IND d   1       5.964   1.573   2.965  0.00  0.00    -0.016 A 
ATOM      8  C8  IND d   1       5.993   2.575   3.924  0.00  0.00    -0.047 A 
ATOM      9  C9  IND d   1       5.973   2.291   5.296  0.00  0.00    -0.096 A 
ATOM     10  HN1 IND d   1       6.004   4.378   3.046  0.00  0.00     0.298 HD
ENDROOT
TORSDOF 0
ENDMDL
