MODEL 1
REMARK minimizedAffinity -1.33908093
REMARK minimizedRMSD -1
REMARK  0 active torsions:
REMARK  status: ('A' for Active; 'I' for Inactive)
ROOT
ATOM      1  C2' OXE d   1      -0.140  -1.652  -0.899  0.00  0.00     0.078 C 
ATOM      2  C1' OXE d   1      -1.238   0.839  -0.216  0.00  0.00     0.078 C 
ATOM      3  C1  OXE d   1       0.018   0.405   0.496  0.00  0.00    -0.078 A 
ATOM      4  C2  OXE d   1       0.522  -0.835   0.190  0.00  0.00    -0.078 A 
ATOM      5  C3  OXE d   1       1.710  -1.262   0.778  0.00  0.00     0.003 A 
ATOM      6  C4  OXE d   1       2.311  -0.505   1.791  0.00  0.00    -0.002 A 
ATOM      7  C5  OXE d   1       1.791   0.744   2.147  0.00  0.00    -0.002 A 
ATOM      8  C6  OXE d   1       0.672   1.232   1.481  0.00  0.00     0.003 A 
ENDROOT
TORSDOF 0
ENDMDL
