MODEL 1
REMARK minimizedAffinity -4.34849215
REMARK minimizedRMSD -1
REMARK  0 active torsions:
REMARK  status: ('A' for Active; 'I' for Inactive)
ROOT
ATOM      1  C2' OXE d   1       2.262   0.883   1.806  0.00  0.00     0.078 C 
ATOM      2  C1' OXE d   1       0.754  -0.607  -0.034  0.00  0.00     0.078 C 
ATOM      3  C1  OXE d   1       0.009   0.278   0.933  0.00  0.00    -0.078 A 
ATOM      4  C2  OXE d   1       0.751   0.968   1.861  0.00  0.00    -0.078 A 
ATOM      5  C3  OXE d   1       0.118   1.840   2.740  0.00  0.00     0.003 A 
ATOM      6  C4  OXE d   1      -1.280   1.905   2.791  0.00  0.00    -0.002 A 
ATOM      7  C5  OXE d   1      -2.058   1.180   1.881  0.00  0.00    -0.002 A 
ATOM      8  C6  OXE d   1      -1.429   0.396   0.920  0.00  0.00     0.003 A 
ENDROOT
TORSDOF 0
ENDMDL
