MODEL 1
REMARK minimizedAffinity 0.535502434
REMARK minimizedRMSD -1
REMARK  0 active torsions:
REMARK  status: ('A' for Active; 'I' for Inactive)
ROOT
ATOM      1  C2' OXE d   1      -2.632  -0.762   2.412  0.00  0.00     0.078 C 
ATOM      2  C1' OXE d   1      -3.035  -2.021  -0.064  0.00  0.00     0.078 C 
ATOM      3  C1  OXE d   1      -1.843  -1.107   0.075  0.00  0.00    -0.078 A 
ATOM      4  C2  OXE d   1      -1.680  -0.459   1.275  0.00  0.00    -0.078 A 
ATOM      5  C3  OXE d   1      -0.566   0.352   1.475  0.00  0.00     0.003 A 
ATOM      6  C4  OXE d   1       0.304   0.635   0.416  0.00  0.00    -0.002 A 
ATOM      7  C5  OXE d   1       0.134   0.016  -0.827  0.00  0.00    -0.002 A 
ATOM      8  C6  OXE d   1      -0.908  -0.889  -1.001  0.00  0.00     0.003 A 
ENDROOT
TORSDOF 0
ENDMDL
