MODEL 1
REMARK minimizedAffinity -4.33217716
REMARK minimizedRMSD -1
REMARK  0 active torsions:
REMARK  status: ('A' for Active; 'I' for Inactive)
ROOT
ATOM      1  C2' OXE d   1      -2.006  -0.385  -0.090  0.00  0.00     0.078 C 
ATOM      2  C1' OXE d   1       0.685  -0.904  -0.700  0.00  0.00     0.078 C 
ATOM      3  C1  OXE d   1       0.391   0.015   0.459  0.00  0.00    -0.078 A 
ATOM      4  C2  OXE d   1      -0.927   0.301   0.721  0.00  0.00    -0.078 A 
ATOM      5  C3  OXE d   1      -1.256   1.100   1.812  0.00  0.00     0.003 A 
ATOM      6  C4  OXE d   1      -0.253   1.738   2.551  0.00  0.00    -0.002 A 
ATOM      7  C5  OXE d   1       1.097   1.493   2.276  0.00  0.00    -0.002 A 
ATOM      8  C6  OXE d   1       1.435   0.602   1.262  0.00  0.00     0.003 A 
ENDROOT
TORSDOF 0
ENDMDL
