MODEL 1
REMARK minimizedAffinity 2.85207987
REMARK minimizedRMSD -1
REMARK  0 active torsions:
REMARK  status: ('A' for Active; 'I' for Inactive)
ROOT
ATOM      1  C2' OXE d   1       0.206   1.994   2.569  0.00  0.00     0.078 C 
ATOM      2  C1' OXE d   1       2.440   0.295   2.622  0.00  0.00     0.078 C 
ATOM      3  C1  OXE d   1       1.517   0.206   1.432  0.00  0.00    -0.078 A 
ATOM      4  C2  OXE d   1       0.401   1.009   1.437  0.00  0.00    -0.078 A 
ATOM      5  C3  OXE d   1      -0.454   1.006   0.339  0.00  0.00     0.003 A 
ATOM      6  C4  OXE d   1      -0.272   0.085  -0.699  0.00  0.00    -0.002 A 
ATOM      7  C5  OXE d   1       0.836  -0.769  -0.705  0.00  0.00    -0.002 A 
ATOM      8  C6  OXE d   1       1.761  -0.691   0.330  0.00  0.00     0.003 A 
ENDROOT
TORSDOF 0
ENDMDL
