MODEL 1
REMARK minimizedAffinity 4.41708326
REMARK minimizedRMSD -1
REMARK  0 active torsions:
REMARK  status: ('A' for Active; 'I' for Inactive)
ROOT
ATOM      1  C2' OXE d   1      -0.980   1.665  -1.463  0.00  0.00     0.078 C 
ATOM      2  C1' OXE d   1       0.819  -0.181  -2.574  0.00  0.00     0.078 C 
ATOM      3  C1  OXE d   1       0.844   0.013  -1.079  0.00  0.00    -0.078 A 
ATOM      4  C2  OXE d   1      -0.007   0.952  -0.549  0.00  0.00    -0.078 A 
ATOM      5  C3  OXE d   1      -0.063   1.132   0.830  0.00  0.00     0.003 A 
ATOM      6  C4  OXE d   1       0.847   0.476   1.668  0.00  0.00    -0.002 A 
ATOM      7  C5  OXE d   1       1.750  -0.455   1.144  0.00  0.00    -0.002 A 
ATOM      8  C6  OXE d   1       1.732  -0.729  -0.219  0.00  0.00     0.003 A 
ENDROOT
TORSDOF 0
ENDMDL
