MODEL 1
REMARK minimizedAffinity -0.847677112
REMARK minimizedRMSD -1
REMARK  0 active torsions:
REMARK  status: ('A' for Active; 'I' for Inactive)
ROOT
ATOM      1  C2' OXE d   1       2.470   0.819   2.194  0.00  0.00     0.078 C 
ATOM      2  C1' OXE d   1      -0.058   2.019   2.417  0.00  0.00     0.078 C 
ATOM      3  C1  OXE d   1       0.096   0.879   1.441  0.00  0.00    -0.078 A 
ATOM      4  C2  OXE d   1       1.348   0.328   1.305  0.00  0.00    -0.078 A 
ATOM      5  C3  OXE d   1       1.533  -0.762   0.459  0.00  0.00     0.003 A 
ATOM      6  C4  OXE d   1       0.492  -1.203  -0.367  0.00  0.00    -0.002 A 
ATOM      7  C5  OXE d   1      -0.780  -0.630  -0.273  0.00  0.00    -0.002 A 
ATOM      8  C6  OXE d   1      -1.005   0.381   0.655  0.00  0.00     0.003 A 
ENDROOT
TORSDOF 0
ENDMDL
