MODEL 1
REMARK minimizedAffinity 0.932619274
REMARK minimizedRMSD -1
REMARK  0 active torsions:
REMARK  status: ('A' for Active; 'I' for Inactive)
ROOT
ATOM      1  C2' OXE d   1      -0.444  -1.479  -1.385  0.00  0.00     0.078 C 
ATOM      2  C1' OXE d   1      -1.096   1.247  -1.221  0.00  0.00     0.078 C 
ATOM      3  C1  OXE d   1      -0.123   0.695  -0.210  0.00  0.00    -0.078 A 
ATOM      4  C2  OXE d   1       0.155  -0.650  -0.268  0.00  0.00    -0.078 A 
ATOM      5  C3  OXE d   1       1.087  -1.200   0.606  0.00  0.00     0.003 A 
ATOM      6  C4  OXE d   1       1.629  -0.428   1.642  0.00  0.00    -0.002 A 
ATOM      7  C5  OXE d   1       1.328   0.934   1.744  0.00  0.00    -0.002 A 
ATOM      8  C6  OXE d   1       0.489   1.519   0.802  0.00  0.00     0.003 A 
ENDROOT
TORSDOF 0
ENDMDL
