MODEL 1
REMARK minimizedAffinity -3.3620677
REMARK minimizedRMSD -1
REMARK  0 active torsions:
REMARK  status: ('A' for Active; 'I' for Inactive)
ROOT
ATOM      1  C   UNL d   1      -0.140  -0.268  -4.673  0.00  0.00     0.020 A 
ATOM      2  C1  UNL d   1       0.905   0.471  -4.121  0.00  0.00     0.020 A 
ATOM      3  C2  UNL d   1       1.529   0.031  -2.951  0.00  0.00     0.034 A 
ATOM      4  C3  UNL d   1       1.107  -1.150  -2.330  0.00  0.00     0.017 A 
ATOM      5  C4  UNL d   1       0.057  -1.891  -2.886  0.00  0.00     0.017 A 
ATOM      6  C5  UNL d   1      -0.563  -1.446  -4.057  0.00  0.00     0.034 A 
ATOM      7 Cl   UNL d   1      -0.518  -3.358  -2.177  0.00  0.00    -0.070 Cl
ATOM      8 Cl1  UNL d   1       1.923  -1.635  -0.886  0.00  0.00    -0.070 Cl
ENDROOT
TORSDOF 0
ENDMDL
