MODEL 1
REMARK minimizedAffinity -2.44953465
REMARK minimizedRMSD -1
REMARK  0 active torsions:
REMARK  status: ('A' for Active; 'I' for Inactive)
ROOT
ATOM      1  C   UNL d   1      -1.733  -2.977  -2.193  0.00  0.00     0.020 A 
ATOM      2  C1  UNL d   1      -2.342  -2.645  -0.984  0.00  0.00     0.020 A 
ATOM      3  C2  UNL d   1      -1.866  -1.567  -0.235  0.00  0.00     0.034 A 
ATOM      4  C3  UNL d   1      -0.777  -0.816  -0.695  0.00  0.00     0.017 A 
ATOM      5  C4  UNL d   1      -0.167  -1.150  -1.909  0.00  0.00     0.017 A 
ATOM      6  C5  UNL d   1      -0.647  -2.231  -2.655  0.00  0.00     0.034 A 
ATOM      7 Cl   UNL d   1       1.181  -0.271  -2.541  0.00  0.00    -0.070 Cl
ATOM      8 Cl1  UNL d   1      -0.241   0.504   0.283  0.00  0.00    -0.070 Cl
ENDROOT
TORSDOF 0
ENDMDL
