MODEL 1
REMARK minimizedAffinity 1.52031314
REMARK minimizedRMSD -1
REMARK  0 active torsions:
REMARK  status: ('A' for Active; 'I' for Inactive)
ROOT
ATOM      1  C   UNL d   1      -1.824  -2.418  -1.621  0.00  0.00     0.020 A 
ATOM      2  C1  UNL d   1      -1.651  -2.313  -3.000  0.00  0.00     0.020 A 
ATOM      3  C2  UNL d   1      -0.708  -1.423  -3.519  0.00  0.00     0.034 A 
ATOM      4  C3  UNL d   1       0.064  -0.634  -2.659  0.00  0.00     0.017 A 
ATOM      5  C4  UNL d   1      -0.111  -0.741  -1.274  0.00  0.00     0.017 A 
ATOM      6  C5  UNL d   1      -1.056  -1.634  -0.760  0.00  0.00     0.034 A 
ATOM      7 Cl   UNL d   1       0.804   0.199  -0.149  0.00  0.00    -0.070 Cl
ATOM      8 Cl1  UNL d   1       1.211   0.445  -3.370  0.00  0.00    -0.070 Cl
ENDROOT
TORSDOF 0
ENDMDL
