MODEL 1
REMARK minimizedAffinity -2.94787145
REMARK minimizedRMSD -1
REMARK  0 active torsions:
REMARK  status: ('A' for Active; 'I' for Inactive)
ROOT
ATOM      1  C   UNL d   1      -1.189   1.236   2.391  0.00  0.00     0.020 A 
ATOM      2  C1  UNL d   1      -2.236   0.342   2.614  0.00  0.00     0.020 A 
ATOM      3  C2  UNL d   1      -2.503  -0.665   1.684  0.00  0.00     0.034 A 
ATOM      4  C3  UNL d   1      -1.723  -0.782   0.529  0.00  0.00     0.017 A 
ATOM      5  C4  UNL d   1      -0.672   0.115   0.306  0.00  0.00     0.017 A 
ATOM      6  C5  UNL d   1      -0.408   1.122   1.240  0.00  0.00     0.034 A 
ATOM      7 Cl   UNL d   1       0.335   0.034  -1.096  0.00  0.00    -0.070 Cl
ATOM      8 Cl1  UNL d   1      -2.110  -2.052  -0.577  0.00  0.00    -0.070 Cl
ENDROOT
TORSDOF 0
ENDMDL
