MODEL 1
REMARK minimizedAffinity -0.0988820866
REMARK minimizedRMSD -1
REMARK  0 active torsions:
REMARK  status: ('A' for Active; 'I' for Inactive)
ROOT
ATOM      1  C   UNL d   1       1.114   0.464   0.054  0.00  0.00     0.020 A 
ATOM      2  C1  UNL d   1       0.935   0.831   1.387  0.00  0.00     0.020 A 
ATOM      3  C2  UNL d   1      -0.219   0.442   2.069  0.00  0.00     0.034 A 
ATOM      4  C3  UNL d   1      -1.199  -0.317   1.420  0.00  0.00     0.017 A 
ATOM      5  C4  UNL d   1      -1.018  -0.686   0.082  0.00  0.00     0.017 A 
ATOM      6  C5  UNL d   1       0.139  -0.293  -0.597  0.00  0.00     0.034 A 
ATOM      7 Cl   UNL d   1      -2.183  -1.622  -0.787  0.00  0.00    -0.070 Cl
ATOM      8 Cl1  UNL d   1      -2.601  -0.764   2.325  0.00  0.00    -0.070 Cl
ENDROOT
TORSDOF 0
ENDMDL
