MODEL 1
REMARK minimizedAffinity -1.83734775
REMARK minimizedRMSD -1
REMARK  0 active torsions:
REMARK  status: ('A' for Active; 'I' for Inactive)
ROOT
ATOM      1  C   UNL d   1       0.836  -0.886  -0.433  0.00  0.00     0.020 A 
ATOM      2  C1  UNL d   1       1.311  -0.251   0.714  0.00  0.00     0.020 A 
ATOM      3  C2  UNL d   1       0.415   0.190   1.689  0.00  0.00     0.034 A 
ATOM      4  C3  UNL d   1      -0.961  -0.003   1.520  0.00  0.00     0.017 A 
ATOM      5  C4  UNL d   1      -1.437  -0.640   0.369  0.00  0.00     0.017 A 
ATOM      6  C5  UNL d   1      -0.535  -1.080  -0.605  0.00  0.00     0.034 A 
ATOM      7 Cl   UNL d   1      -3.120  -0.914   0.090  0.00  0.00    -0.070 Cl
ATOM      8 Cl1  UNL d   1      -2.011   0.568   2.768  0.00  0.00    -0.070 Cl
ENDROOT
TORSDOF 0
ENDMDL
