MODEL 1
REMARK minimizedAffinity -0.822721004
REMARK minimizedRMSD -1
REMARK  0 active torsions:
REMARK  status: ('A' for Active; 'I' for Inactive)
ROOT
ATOM      1  C   UNL d   1      -0.479  -1.954   1.596  0.00  0.00     0.020 A 
ATOM      2  C1  UNL d   1      -1.321  -0.880   1.313  0.00  0.00     0.020 A 
ATOM      3  C2  UNL d   1      -1.122  -0.123   0.156  0.00  0.00     0.034 A 
ATOM      4  C3  UNL d   1      -0.080  -0.440  -0.722  0.00  0.00     0.017 A 
ATOM      5  C4  UNL d   1       0.765  -1.520  -0.437  0.00  0.00     0.017 A 
ATOM      6  C5  UNL d   1       0.562  -2.274   0.723  0.00  0.00     0.034 A 
ATOM      7 Cl   UNL d   1       2.072  -1.972  -1.473  0.00  0.00    -0.070 Cl
ATOM      8 Cl1  UNL d   1       0.107   0.537  -2.134  0.00  0.00    -0.070 Cl
ENDROOT
TORSDOF 0
ENDMDL
