MODEL 1
REMARK minimizedAffinity -0.392674297
REMARK minimizedRMSD -1
REMARK  0 active torsions:
REMARK  status: ('A' for Active; 'I' for Inactive)
ROOT
ATOM      1  C   UNL d   1      -1.089  -1.723   1.131  0.00  0.00     0.020 A 
ATOM      2  C1  UNL d   1      -1.087  -2.553   0.010  0.00  0.00     0.020 A 
ATOM      3  C2  UNL d   1      -0.661  -2.058  -1.224  0.00  0.00     0.034 A 
ATOM      4  C3  UNL d   1      -0.235  -0.729  -1.341  0.00  0.00     0.017 A 
ATOM      5  C4  UNL d   1      -0.237   0.102  -0.215  0.00  0.00     0.017 A 
ATOM      6  C5  UNL d   1      -0.665  -0.399   1.018  0.00  0.00     0.034 A 
ATOM      7 Cl   UNL d   1       0.274   1.752  -0.281  0.00  0.00    -0.070 Cl
ATOM      8 Cl1  UNL d   1       0.279  -0.184  -2.898  0.00  0.00    -0.070 Cl
ENDROOT
TORSDOF 0
ENDMDL
