MODEL 1
REMARK minimizedAffinity -0.30090338
REMARK minimizedRMSD -1
REMARK  0 active torsions:
REMARK  status: ('A' for Active; 'I' for Inactive)
ROOT
ATOM      1  C   UNL d   1       1.394   3.191   0.755  0.00  0.00     0.020 A 
ATOM      2  C1  UNL d   1       1.526   2.197   1.724  0.00  0.00     0.020 A 
ATOM      3  C2  UNL d   1       1.039   0.912   1.476  0.00  0.00     0.034 A 
ATOM      4  C3  UNL d   1       0.417   0.618   0.258  0.00  0.00     0.017 A 
ATOM      5  C4  UNL d   1       0.285   1.616  -0.714  0.00  0.00     0.017 A 
ATOM      6  C5  UNL d   1       0.775   2.901  -0.461  0.00  0.00     0.034 A 
ATOM      7 Cl   UNL d   1      -0.471   1.329  -2.242  0.00  0.00    -0.070 Cl
ATOM      8 Cl1  UNL d   1      -0.162  -0.993   0.019  0.00  0.00    -0.070 Cl
ENDROOT
TORSDOF 0
ENDMDL
