MODEL 1
REMARK minimizedAffinity -3.96572137
REMARK minimizedRMSD -1
REMARK  0 active torsions:
REMARK  status: ('A' for Active; 'I' for Inactive)
ROOT
ATOM      1  C   UNL d   1      -1.323  -0.873   2.107  0.00  0.00     0.020 A 
ATOM      2  C1  UNL d   1      -1.131  -2.105   1.482  0.00  0.00     0.020 A 
ATOM      3  C2  UNL d   1      -0.506  -2.164   0.234  0.00  0.00     0.034 A 
ATOM      4  C3  UNL d   1      -0.071  -0.990  -0.392  0.00  0.00     0.017 A 
ATOM      5  C4  UNL d   1      -0.265   0.245   0.236  0.00  0.00     0.017 A 
ATOM      6  C5  UNL d   1      -0.891   0.299   1.485  0.00  0.00     0.034 A 
ATOM      7 Cl   UNL d   1       0.245   1.736  -0.474  0.00  0.00    -0.070 Cl
ATOM      8 Cl1  UNL d   1       0.695  -1.139  -1.934  0.00  0.00    -0.070 Cl
ENDROOT
TORSDOF 0
ENDMDL
