MODEL 1
REMARK minimizedAffinity -1.72535765
REMARK minimizedRMSD -1
REMARK  0 active torsions:
REMARK  status: ('A' for Active; 'I' for Inactive)
ROOT
ATOM      1  C   UNL d   1       0.660   1.710   0.169  0.00  0.00     0.020 A 
ATOM      2  C1  UNL d   1       0.963   0.597  -0.615  0.00  0.00     0.020 A 
ATOM      3  C2  UNL d   1       0.358  -0.632  -0.346  0.00  0.00     0.034 A 
ATOM      4  C3  UNL d   1      -0.553  -0.752   0.710  0.00  0.00     0.017 A 
ATOM      5  C4  UNL d   1      -0.857   0.365   1.496  0.00  0.00     0.017 A 
ATOM      6  C5  UNL d   1      -0.248   1.594   1.222  0.00  0.00     0.034 A 
ATOM      7 Cl   UNL d   1      -1.972   0.296   2.815  0.00  0.00    -0.070 Cl
ATOM      8 Cl1  UNL d   1      -1.264  -2.303   0.985  0.00  0.00    -0.070 Cl
ENDROOT
TORSDOF 0
ENDMDL
