MODEL 1
REMARK minimizedAffinity -2.27994585
REMARK minimizedRMSD -1
REMARK  0 active torsions:
REMARK  status: ('A' for Active; 'I' for Inactive)
ROOT
ATOM      1  C   UNL d   1      -1.169  -2.184   0.842  0.00  0.00     0.020 A 
ATOM      2  C1  UNL d   1      -0.779  -1.423   1.943  0.00  0.00     0.020 A 
ATOM      3  C2  UNL d   1      -0.125  -0.204   1.752  0.00  0.00     0.034 A 
ATOM      4  C3  UNL d   1       0.141   0.257   0.457  0.00  0.00     0.017 A 
ATOM      5  C4  UNL d   1      -0.252  -0.508  -0.647  0.00  0.00     0.017 A 
ATOM      6  C5  UNL d   1      -0.906  -1.728  -0.450  0.00  0.00     0.034 A 
ATOM      7 Cl   UNL d   1       0.041  -0.005  -2.274  0.00  0.00    -0.070 Cl
ATOM      8 Cl1  UNL d   1       0.953   1.774   0.295  0.00  0.00    -0.070 Cl
ENDROOT
TORSDOF 0
ENDMDL
