MODEL 1
REMARK minimizedAffinity -0.581714034
REMARK minimizedRMSD -1
REMARK  0 active torsions:
REMARK  status: ('A' for Active; 'I' for Inactive)
ROOT
ATOM      1  C   UNL d   1      -1.607  -0.110   2.247  0.00  0.00     0.020 A 
ATOM      2  C1  UNL d   1      -1.058   0.948   1.524  0.00  0.00     0.020 A 
ATOM      3  C2  UNL d   1      -0.437   0.707   0.297  0.00  0.00     0.034 A 
ATOM      4  C3  UNL d   1      -0.364  -0.595  -0.211  0.00  0.00     0.017 A 
ATOM      5  C4  UNL d   1      -0.915  -1.657   0.515  0.00  0.00     0.017 A 
ATOM      6  C5  UNL d   1      -1.536  -1.410   1.744  0.00  0.00     0.034 A 
ATOM      7 Cl   UNL d   1      -0.864  -3.290  -0.047  0.00  0.00    -0.070 Cl
ATOM      8 Cl1  UNL d   1       0.418  -0.820  -1.736  0.00  0.00    -0.070 Cl
ENDROOT
TORSDOF 0
ENDMDL
