MODEL 1
REMARK minimizedAffinity 1.57821238
REMARK minimizedRMSD -1
REMARK  0 active torsions:
REMARK  status: ('A' for Active; 'I' for Inactive)
ROOT
ATOM      1  C   UNL d   1       0.375   0.701  -1.730  0.00  0.00     0.020 A 
ATOM      2  C1  UNL d   1       0.564  -0.567  -2.279  0.00  0.00     0.020 A 
ATOM      3  C2  UNL d   1       0.042  -1.691  -1.635  0.00  0.00     0.034 A 
ATOM      4  C3  UNL d   1      -0.671  -1.549  -0.439  0.00  0.00     0.017 A 
ATOM      5  C4  UNL d   1      -0.860  -0.276   0.111  0.00  0.00     0.017 A 
ATOM      6  C5  UNL d   1      -0.335   0.846  -0.538  0.00  0.00     0.034 A 
ATOM      7 Cl   UNL d   1      -1.729  -0.022   1.583  0.00  0.00    -0.070 Cl
ATOM      8 Cl1  UNL d   1      -1.289  -2.983   0.302  0.00  0.00    -0.070 Cl
ENDROOT
TORSDOF 0
ENDMDL
