MODEL 1
REMARK minimizedAffinity -1.09291553
REMARK minimizedRMSD -1
REMARK  0 active torsions:
REMARK  status: ('A' for Active; 'I' for Inactive)
ROOT
ATOM      1  C   UNL d   1       0.477  -0.492  -2.558  0.00  0.00     0.020 A 
ATOM      2  C1  UNL d   1       0.362   0.788  -2.019  0.00  0.00     0.020 A 
ATOM      3  C2  UNL d   1      -0.101   0.957  -0.712  0.00  0.00     0.034 A 
ATOM      4  C3  UNL d   1      -0.451  -0.157   0.060  0.00  0.00     0.017 A 
ATOM      5  C4  UNL d   1      -0.335  -1.442  -0.482  0.00  0.00     0.017 A 
ATOM      6  C5  UNL d   1       0.129  -1.605  -1.791  0.00  0.00     0.034 A 
ATOM      7 Cl   UNL d   1      -0.747  -2.864   0.409  0.00  0.00    -0.070 Cl
ATOM      8 Cl1  UNL d   1      -1.016   0.126   1.668  0.00  0.00    -0.070 Cl
ENDROOT
TORSDOF 0
ENDMDL
