MODEL 1
REMARK minimizedAffinity -1.13817716
REMARK minimizedRMSD -1
REMARK  0 active torsions:
REMARK  status: ('A' for Active; 'I' for Inactive)
ROOT
ATOM      1  C   UNL d   1       0.150   0.072  -1.726  0.00  0.00     0.020 A 
ATOM      2  C1  UNL d   1      -0.231   1.206  -1.010  0.00  0.00     0.020 A 
ATOM      3  C2  UNL d   1      -0.794   1.073   0.260  0.00  0.00     0.034 A 
ATOM      4  C3  UNL d   1      -0.977  -0.197   0.820  0.00  0.00     0.017 A 
ATOM      5  C4  UNL d   1      -0.594  -1.334   0.101  0.00  0.00     0.017 A 
ATOM      6  C5  UNL d   1      -0.031  -1.195  -1.171  0.00  0.00     0.034 A 
ATOM      7 Cl   UNL d   1      -0.788  -2.934   0.725  0.00  0.00    -0.070 Cl
ATOM      8 Cl1  UNL d   1      -1.679  -0.287   2.396  0.00  0.00    -0.070 Cl
ENDROOT
TORSDOF 0
ENDMDL
