MODEL 1
REMARK minimizedAffinity -2.1852293
REMARK minimizedRMSD -1
REMARK  0 active torsions:
REMARK  status: ('A' for Active; 'I' for Inactive)
ROOT
ATOM      1  C   UNL d   1      -0.539   0.682   1.525  0.00  0.00     0.020 A 
ATOM      2  C1  UNL d   1      -0.089   1.424   0.434  0.00  0.00     0.020 A 
ATOM      3  C2  UNL d   1       0.272   0.776  -0.750  0.00  0.00     0.034 A 
ATOM      4  C3  UNL d   1       0.183  -0.618  -0.844  0.00  0.00     0.017 A 
ATOM      5  C4  UNL d   1      -0.269  -1.361   0.252  0.00  0.00     0.017 A 
ATOM      6  C5  UNL d   1      -0.628  -0.707   1.434  0.00  0.00     0.034 A 
ATOM      7 Cl   UNL d   1      -0.405  -3.084   0.211  0.00  0.00    -0.070 Cl
ATOM      8 Cl1  UNL d   1       0.645  -1.353  -2.338  0.00  0.00    -0.070 Cl
ENDROOT
TORSDOF 0
ENDMDL
