MODEL 1
REMARK minimizedAffinity -2.46481013
REMARK minimizedRMSD -1
REMARK  0 active torsions:
REMARK  status: ('A' for Active; 'I' for Inactive)
ROOT
ATOM      1  C   UNL d   1       0.458  -0.269  -2.304  0.00  0.00     0.020 A 
ATOM      2  C1  UNL d   1       0.252   0.912  -1.593  0.00  0.00     0.020 A 
ATOM      3  C2  UNL d   1      -0.322   0.871  -0.321  0.00  0.00     0.034 A 
ATOM      4  C3  UNL d   1      -0.692  -0.355   0.244  0.00  0.00     0.017 A 
ATOM      5  C4  UNL d   1      -0.484  -1.541  -0.470  0.00  0.00     0.017 A 
ATOM      6  C5  UNL d   1       0.091  -1.493  -1.744  0.00  0.00     0.034 A 
ATOM      7 Cl   UNL d   1      -0.915  -3.091   0.162  0.00  0.00    -0.070 Cl
ATOM      8 Cl1  UNL d   1      -1.396  -0.332   1.822  0.00  0.00    -0.070 Cl
ENDROOT
TORSDOF 0
ENDMDL
