MODEL 1
REMARK minimizedAffinity -3.46329355
REMARK minimizedRMSD -1
REMARK  0 active torsions:
REMARK  status: ('A' for Active; 'I' for Inactive)
ROOT
ATOM      1  C   UNL d   1       1.083   2.098   0.532  0.00  0.00     0.020 A 
ATOM      2  C1  UNL d   1       1.790   2.355  -0.642  0.00  0.00     0.020 A 
ATOM      3  C2  UNL d   1       1.576   1.565  -1.774  0.00  0.00     0.034 A 
ATOM      4  C3  UNL d   1       0.653   0.514  -1.734  0.00  0.00     0.017 A 
ATOM      5  C4  UNL d   1      -0.056   0.256  -0.555  0.00  0.00     0.017 A 
ATOM      6  C5  UNL d   1       0.162   1.050   0.575  0.00  0.00     0.034 A 
ATOM      7 Cl   UNL d   1      -1.211  -1.024  -0.429  0.00  0.00    -0.070 Cl
ATOM      8 Cl1  UNL d   1       0.439  -0.423  -3.170  0.00  0.00    -0.070 Cl
ENDROOT
TORSDOF 0
ENDMDL
