MODEL 1
REMARK minimizedAffinity 0.532837629
REMARK minimizedRMSD -1
REMARK  0 active torsions:
REMARK  status: ('A' for Active; 'I' for Inactive)
ROOT
ATOM      1  C   UNL d   1      -0.152   1.183   1.805  0.00  0.00     0.020 A 
ATOM      2  C1  UNL d   1       0.370   1.943   0.758  0.00  0.00     0.020 A 
ATOM      3  C2  UNL d   1       0.612   1.350  -0.482  0.00  0.00     0.034 A 
ATOM      4  C3  UNL d   1       0.333  -0.007  -0.680  0.00  0.00     0.017 A 
ATOM      5  C4  UNL d   1      -0.191  -0.769   0.371  0.00  0.00     0.017 A 
ATOM      6  C5  UNL d   1      -0.432  -0.170   1.611  0.00  0.00     0.034 A 
ATOM      7 Cl   UNL d   1      -0.561  -2.449   0.203  0.00  0.00    -0.070 Cl
ATOM      8 Cl1  UNL d   1       0.657  -0.675  -2.240  0.00  0.00    -0.070 Cl
ENDROOT
TORSDOF 0
ENDMDL
