MODEL 1
REMARK minimizedAffinity 2.1605134
REMARK minimizedRMSD -1
REMARK  0 active torsions:
REMARK  status: ('A' for Active; 'I' for Inactive)
ROOT
ATOM      1  C   UNL d   1       0.798  -0.144  -2.233  0.00  0.00     0.020 A 
ATOM      2  C1  UNL d   1       0.151  -1.165  -1.538  0.00  0.00     0.020 A 
ATOM      3  C2  UNL d   1      -0.545  -0.877  -0.363  0.00  0.00     0.034 A 
ATOM      4  C3  UNL d   1      -0.597   0.435   0.121  0.00  0.00     0.017 A 
ATOM      5  C4  UNL d   1       0.052   1.460  -0.578  0.00  0.00     0.017 A 
ATOM      6  C5  UNL d   1       0.748   1.165  -1.754  0.00  0.00     0.034 A 
ATOM      7 Cl   UNL d   1       0.033   3.103  -0.043  0.00  0.00    -0.070 Cl
ATOM      8 Cl1  UNL d   1      -1.478   0.720   1.580  0.00  0.00    -0.070 Cl
ENDROOT
TORSDOF 0
ENDMDL
