MODEL 1
REMARK minimizedAffinity -2.82446647
REMARK minimizedRMSD -1
REMARK  0 active torsions:
REMARK  status: ('A' for Active; 'I' for Inactive)
ROOT
ATOM      1  C   UNL d   1      -0.222  -1.477   0.998  0.00  0.00     0.020 A 
ATOM      2  C1  UNL d   1      -0.317  -2.160  -0.214  0.00  0.00     0.020 A 
ATOM      3  C2  UNL d   1      -0.286  -1.453  -1.418  0.00  0.00     0.034 A 
ATOM      4  C3  UNL d   1      -0.160  -0.059  -1.412  0.00  0.00     0.017 A 
ATOM      5  C4  UNL d   1      -0.064   0.626  -0.195  0.00  0.00     0.017 A 
ATOM      6  C5  UNL d   1      -0.095  -0.087   1.007  0.00  0.00     0.034 A 
ATOM      7 Cl   UNL d   1       0.094   2.344  -0.108  0.00  0.00    -0.070 Cl
ATOM      8 Cl1  UNL d   1      -0.128   0.751  -2.938  0.00  0.00    -0.070 Cl
ENDROOT
TORSDOF 0
ENDMDL
