MODEL 1
REMARK minimizedAffinity -4.26521778
REMARK minimizedRMSD -1
REMARK  1 active torsions:
REMARK  status: ('A' for Active; 'I' for Inactive)
REMARK    1  A    between atoms: C1_2  and  C2_3 
ROOT
ATOM      1  C2  UNL d   1       0.452   0.217  -0.800  0.00  0.00    -0.073 A 
ATOM      2  C3  UNL d   1       0.893  -1.099  -0.981  0.00  0.00    -0.002 A 
ATOM      3  C4  UNL d   1       1.412  -1.506  -2.210  0.00  0.00     0.004 A 
ATOM      4  C5  UNL d   1       1.503  -0.602  -3.268  0.00  0.00    -0.004 A 
ATOM      5  C6  UNL d   1       1.078   0.721  -3.104  0.00  0.00    -0.075 A 
ATOM      6  C7  UNL d   1       1.167   1.705  -4.233  0.00  0.00     0.076 C 
ATOM      7  C8  UNL d   1       0.555   1.121  -1.867  0.00  0.00     0.001 A 
ENDROOT
BRANCH   1   8
ATOM      8  C1  UNL d   1      -0.103   0.663   0.528  0.00  0.00     0.053 C 
ATOM      9  C   UNL d   1      -1.621   0.583   0.566  0.00  0.00     0.018 C 
ENDBRANCH   1   8
TORSDOF 1
ENDMDL
