MODEL 1
REMARK minimizedAffinity -4.3255744
REMARK minimizedRMSD -1
REMARK  1 active torsions:
REMARK  status: ('A' for Active; 'I' for Inactive)
REMARK    1  A    between atoms: C1_2  and  C2_3 
ROOT
ATOM      1  C2  UNL d   1      -0.566  -0.073   0.233  0.00  0.00    -0.073 A 
ATOM      2  C3  UNL d   1       0.820  -0.159   0.060  0.00  0.00    -0.002 A 
ATOM      3  C4  UNL d   1       1.684   0.318   1.046  0.00  0.00     0.004 A 
ATOM      4  C5  UNL d   1       1.173   0.879   2.216  0.00  0.00    -0.004 A 
ATOM      5  C6  UNL d   1      -0.209   0.963   2.413  0.00  0.00    -0.075 A 
ATOM      6  C7  UNL d   1      -0.775   1.566   3.665  0.00  0.00     0.076 C 
ATOM      7  C8  UNL d   1      -1.071   0.485   1.417  0.00  0.00     0.001 A 
ENDROOT
BRANCH   1   8
ATOM      8  C1  UNL d   1      -1.504  -0.592  -0.826  0.00  0.00     0.053 C 
ATOM      9  C   UNL d   1      -2.957  -0.526  -0.384  0.00  0.00     0.018 C 
ENDBRANCH   1   8
TORSDOF 1
ENDMDL
