MODEL 1
REMARK minimizedAffinity -3.1939013
REMARK minimizedRMSD -1
REMARK  1 active torsions:
REMARK  status: ('A' for Active; 'I' for Inactive)
REMARK    1  A    between atoms: C1_2  and  C2_3 
ROOT
ATOM      1  C2  UNL d   1       0.124  -0.536  -1.357  0.00  0.00    -0.073 A 
ATOM      2  C3  UNL d   1       1.353  -0.834  -0.758  0.00  0.00    -0.002 A 
ATOM      3  C4  UNL d   1       1.539  -0.626   0.609  0.00  0.00     0.004 A 
ATOM      4  C5  UNL d   1       0.499  -0.125   1.392  0.00  0.00    -0.004 A 
ATOM      5  C6  UNL d   1      -0.741   0.168   0.813  0.00  0.00    -0.075 A 
ATOM      6  C7  UNL d   1      -1.869   0.710   1.640  0.00  0.00     0.076 C 
ATOM      7  C8  UNL d   1      -0.919  -0.041  -0.561  0.00  0.00     0.001 A 
ENDROOT
BRANCH   1   8
ATOM      8  C1  UNL d   1      -0.084  -0.765  -2.832  0.00  0.00     0.053 C 
ATOM      9  C   UNL d   1       0.594   0.303  -3.676  0.00  0.00     0.018 C 
ENDBRANCH   1   8
TORSDOF 1
ENDMDL
