MODEL 1
REMARK minimizedAffinity -3.0965085
REMARK minimizedRMSD -1
REMARK  1 active torsions:
REMARK  status: ('A' for Active; 'I' for Inactive)
REMARK    1  A    between atoms: C1_2  and  C2_3 
ROOT
ATOM      1  C2  UNL d   1      -0.162  -0.136  -0.148  0.00  0.00    -0.073 A 
ATOM      2  C3  UNL d   1      -1.479  -0.284  -0.599  0.00  0.00    -0.002 A 
ATOM      3  C4  UNL d   1      -2.542   0.216   0.154  0.00  0.00     0.004 A 
ATOM      4  C5  UNL d   1      -2.300   0.874   1.360  0.00  0.00    -0.004 A 
ATOM      5  C6  UNL d   1      -0.990   1.043   1.821  0.00  0.00    -0.075 A 
ATOM      6  C7  UNL d   1      -0.713   1.748   3.116  0.00  0.00     0.076 C 
ATOM      7  C8  UNL d   1       0.072   0.536   1.060  0.00  0.00     0.001 A 
ENDROOT
BRANCH   1   8
ATOM      8  C1  UNL d   1       0.990  -0.668  -0.961  0.00  0.00     0.053 C 
ATOM      9  C   UNL d   1       0.778  -0.464  -2.452  0.00  0.00     0.018 C 
ENDBRANCH   1   8
TORSDOF 1
ENDMDL
