MODEL 1
REMARK minimizedAffinity -2.7990849
REMARK minimizedRMSD -1
REMARK  1 active torsions:
REMARK  status: ('A' for Active; 'I' for Inactive)
REMARK    1  A    between atoms: C1_2  and  C2_3 
ROOT
ATOM      1  C2  UNL d   1       0.680  -0.144  -1.819  0.00  0.00    -0.073 A 
ATOM      2  C3  UNL d   1      -0.637  -0.577  -2.009  0.00  0.00    -0.002 A 
ATOM      3  C4  UNL d   1      -1.480  -0.773  -0.914  0.00  0.00     0.004 A 
ATOM      4  C5  UNL d   1      -1.018  -0.532   0.380  0.00  0.00    -0.004 A 
ATOM      5  C6  UNL d   1       0.292  -0.088   0.590  0.00  0.00    -0.075 A 
ATOM      6  C7  UNL d   1       0.805   0.173   1.975  0.00  0.00     0.076 C 
ATOM      7  C8  UNL d   1       1.133   0.104  -0.515  0.00  0.00     0.001 A 
ENDROOT
BRANCH   1   8
ATOM      8  C1  UNL d   1       1.591   0.076  -2.998  0.00  0.00     0.053 C 
ATOM      9  C   UNL d   1       1.247   1.348  -3.756  0.00  0.00     0.018 C 
ENDBRANCH   1   8
TORSDOF 1
ENDMDL
