MODEL 1
REMARK minimizedAffinity -3.18723416
REMARK minimizedRMSD -1
REMARK  1 active torsions:
REMARK  status: ('A' for Active; 'I' for Inactive)
REMARK    1  A    between atoms: C1_2  and  C2_3 
ROOT
ATOM      1  C2  UNL d   1      -1.154   0.110   1.228  0.00  0.00    -0.073 A 
ATOM      2  C3  UNL d   1      -1.699  -0.207  -0.021  0.00  0.00    -0.002 A 
ATOM      3  C4  UNL d   1      -0.941  -0.900  -0.966  0.00  0.00     0.004 A 
ATOM      4  C5  UNL d   1       0.366  -1.288  -0.670  0.00  0.00    -0.004 A 
ATOM      5  C6  UNL d   1       0.924  -0.992   0.578  0.00  0.00    -0.075 A 
ATOM      6  C7  UNL d   1       2.328  -1.401   0.912  0.00  0.00     0.076 C 
ATOM      7  C8  UNL d   1       0.157  -0.293   1.520  0.00  0.00     0.001 A 
ENDROOT
BRANCH   1   8
ATOM      8  C1  UNL d   1      -1.971   0.852   2.254  0.00  0.00     0.053 C 
ATOM      9  C   UNL d   1      -1.129   1.833   3.052  0.00  0.00     0.018 C 
ENDBRANCH   1   8
TORSDOF 1
ENDMDL
