MODEL 1
REMARK minimizedAffinity -3.4754107
REMARK minimizedRMSD -1
REMARK  1 active torsions:
REMARK  status: ('A' for Active; 'I' for Inactive)
REMARK    1  A    between atoms: C1_2  and  C2_3 
ROOT
ATOM      1  C2  UNL d   1      -0.406   0.785   1.402  0.00  0.00    -0.073 A 
ATOM      2  C3  UNL d   1      -1.469   0.566   0.519  0.00  0.00    -0.002 A 
ATOM      3  C4  UNL d   1      -1.321  -0.307  -0.559  0.00  0.00     0.004 A 
ATOM      4  C5  UNL d   1      -0.113  -0.976  -0.760  0.00  0.00    -0.004 A 
ATOM      5  C6  UNL d   1       0.957  -0.780   0.119  0.00  0.00    -0.075 A 
ATOM      6  C7  UNL d   1       2.263  -1.490  -0.085  0.00  0.00     0.076 C 
ATOM      7  C8  UNL d   1       0.801   0.101   1.197  0.00  0.00     0.001 A 
ENDROOT
BRANCH   1   8
ATOM      8  C1  UNL d   1      -0.563   1.723   2.572  0.00  0.00     0.053 C 
ATOM      9  C   UNL d   1      -1.641   1.255   3.536  0.00  0.00     0.018 C 
ENDBRANCH   1   8
TORSDOF 1
ENDMDL
