MODEL 1
REMARK minimizedAffinity -2.40907359
REMARK minimizedRMSD -1
REMARK  1 active torsions:
REMARK  status: ('A' for Active; 'I' for Inactive)
REMARK    1  A    between atoms: C1_2  and  C2_3 
ROOT
ATOM      1  C2  UNL d   1       0.580   0.553   0.330  0.00  0.00    -0.076 A 
ATOM      2  C3  UNL d   1       0.794   1.744  -0.386  0.00  0.00     0.004 A 
ATOM      3  C4  UNL d   1       0.364   2.971   0.119  0.00  0.00    -0.003 A 
ATOM      4  C5  UNL d   1      -0.285   3.026   1.347  0.00  0.00     0.000 A 
ATOM      5  C6  UNL d   1      -0.489   1.856   2.078  0.00  0.00     0.000 A 
ATOM      6  C7  UNL d   1      -0.048   0.614   1.592  0.00  0.00    -0.073 A 
ATOM      7  C8  UNL d   1      -0.301  -0.617   2.419  0.00  0.00     0.078 C 
ENDROOT
BRANCH   1   8
ATOM      8  C1  UNL d   1       1.044  -0.751  -0.280  0.00  0.00     0.053 C 
ATOM      9  C   UNL d   1      -0.047  -1.437  -1.088  0.00  0.00     0.018 C 
ENDBRANCH   1   8
TORSDOF 1
ENDMDL
