MODEL 1
REMARK minimizedAffinity -2.26169467
REMARK minimizedRMSD -1
REMARK  1 active torsions:
REMARK  status: ('A' for Active; 'I' for Inactive)
REMARK    1  A    between atoms: C1_2  and  C2_3 
ROOT
ATOM      1  C2  UNL d   1       0.734  -2.214  -1.509  0.00  0.00    -0.076 A 
ATOM      2  C3  UNL d   1       0.652  -3.174  -0.484  0.00  0.00     0.004 A 
ATOM      3  C4  UNL d   1       0.720  -4.536  -0.770  0.00  0.00    -0.003 A 
ATOM      4  C5  UNL d   1       0.872  -4.961  -2.085  0.00  0.00     0.000 A 
ATOM      5  C6  UNL d   1       0.972  -4.023  -3.112  0.00  0.00     0.000 A 
ATOM      6  C7  UNL d   1       0.922  -2.645  -2.839  0.00  0.00    -0.073 A 
ATOM      7  C8  UNL d   1       1.029  -1.678  -3.986  0.00  0.00     0.078 C 
ENDROOT
BRANCH   1   8
ATOM      8  C1  UNL d   1       0.627  -0.751  -1.141  0.00  0.00     0.053 C 
ATOM      9  C   UNL d   1      -0.255  -0.520   0.076  0.00  0.00     0.018 C 
ENDBRANCH   1   8
TORSDOF 1
ENDMDL
