MODEL 1
REMARK minimizedAffinity -3.16912937
REMARK minimizedRMSD -1
REMARK  1 active torsions:
REMARK  status: ('A' for Active; 'I' for Inactive)
REMARK    1  A    between atoms: C1_2  and  C2_3 
ROOT
ATOM      1  C2  UNL d   1       0.299  -1.423  -1.175  0.00  0.00    -0.076 A 
ATOM      2  C3  UNL d   1      -0.711  -1.964  -0.360  0.00  0.00     0.004 A 
ATOM      3  C4  UNL d   1      -1.139  -1.299   0.788  0.00  0.00    -0.003 A 
ATOM      4  C5  UNL d   1      -0.566  -0.081   1.139  0.00  0.00     0.000 A 
ATOM      5  C6  UNL d   1       0.425   0.478   0.332  0.00  0.00     0.000 A 
ATOM      6  C7  UNL d   1       0.857  -0.171  -0.837  0.00  0.00    -0.073 A 
ATOM      7  C8  UNL d   1       1.932   0.475  -1.667  0.00  0.00     0.078 C 
ENDROOT
BRANCH   1   8
ATOM      8  C1  UNL d   1       0.742  -2.202  -2.392  0.00  0.00     0.053 C 
ATOM      9  C   UNL d   1       0.538  -3.701  -2.231  0.00  0.00     0.018 C 
ENDBRANCH   1   8
TORSDOF 1
ENDMDL
