MODEL 1
REMARK minimizedAffinity -3.02997518
REMARK minimizedRMSD -1
REMARK  1 active torsions:
REMARK  status: ('A' for Active; 'I' for Inactive)
REMARK    1  A    between atoms: C1_2  and  C2_3 
ROOT
ATOM      1  C2  UNL d   1       0.418  -0.103   0.231  0.00  0.00    -0.076 A 
ATOM      2  C3  UNL d   1       0.087  -0.889   1.348  0.00  0.00     0.004 A 
ATOM      3  C4  UNL d   1      -0.781  -0.413   2.329  0.00  0.00    -0.003 A 
ATOM      4  C5  UNL d   1      -1.333   0.858   2.208  0.00  0.00     0.000 A 
ATOM      5  C6  UNL d   1      -1.030   1.645   1.098  0.00  0.00     0.000 A 
ATOM      6  C7  UNL d   1      -0.170   1.173   0.092  0.00  0.00    -0.073 A 
ATOM      7  C8  UNL d   1       0.127   2.066  -1.081  0.00  0.00     0.078 C 
ENDROOT
BRANCH   1   8
ATOM      8  C1  UNL d   1       1.386  -0.662  -0.787  0.00  0.00     0.053 C 
ATOM      9  C   UNL d   1       0.909  -1.977  -1.384  0.00  0.00     0.018 C 
ENDBRANCH   1   8
TORSDOF 1
ENDMDL
