MODEL 1
REMARK minimizedAffinity 0.847617328
REMARK minimizedRMSD -1
REMARK  1 active torsions:
REMARK  status: ('A' for Active; 'I' for Inactive)
REMARK    1  A    between atoms: C1_2  and  C2_3 
ROOT
ATOM      1  C2  UNL d   1       0.030  -1.326  -0.546  0.00  0.00    -0.076 A 
ATOM      2  C3  UNL d   1      -1.085  -1.629   0.254  0.00  0.00     0.004 A 
ATOM      3  C4  UNL d   1      -1.491  -0.771   1.274  0.00  0.00    -0.003 A 
ATOM      4  C5  UNL d   1      -0.788   0.405   1.511  0.00  0.00     0.000 A 
ATOM      5  C6  UNL d   1       0.310   0.730   0.716  0.00  0.00     0.000 A 
ATOM      6  C7  UNL d   1       0.723  -0.116  -0.327  0.00  0.00    -0.073 A 
ATOM      7  C8  UNL d   1       1.918   0.281  -1.149  0.00  0.00     0.078 C 
ENDROOT
BRANCH   1   8
ATOM      8  C1  UNL d   1       0.440  -2.309  -1.620  0.00  0.00     0.053 C 
ATOM      9  C   UNL d   1      -0.143  -3.695  -1.394  0.00  0.00     0.018 C 
ENDBRANCH   1   8
TORSDOF 1
ENDMDL
