MODEL 1
REMARK minimizedAffinity 0.52325654
REMARK minimizedRMSD -1
REMARK  1 active torsions:
REMARK  status: ('A' for Active; 'I' for Inactive)
REMARK    1  A    between atoms: C1_2  and  C2_3 
ROOT
ATOM      1  C2  UNL d   1       0.483  -0.218   1.564  0.00  0.00    -0.076 A 
ATOM      2  C3  UNL d   1       1.020  -0.890   0.453  0.00  0.00     0.004 A 
ATOM      3  C4  UNL d   1       0.748  -0.461  -0.845  0.00  0.00    -0.003 A 
ATOM      4  C5  UNL d   1      -0.066   0.646  -1.053  0.00  0.00     0.000 A 
ATOM      5  C6  UNL d   1      -0.594   1.336   0.038  0.00  0.00     0.000 A 
ATOM      6  C7  UNL d   1      -0.316   0.927   1.354  0.00  0.00    -0.073 A 
ATOM      7  C8  UNL d   1      -0.916   1.703   2.494  0.00  0.00     0.078 C 
ENDROOT
BRANCH   1   8
ATOM      8  C1  UNL d   1       0.791  -0.745   2.948  0.00  0.00     0.053 C 
ATOM      9  C   UNL d   1      -0.316  -1.633   3.493  0.00  0.00     0.018 C 
ENDBRANCH   1   8
TORSDOF 1
ENDMDL
