MODEL 1
REMARK minimizedAffinity -4.06983566
REMARK minimizedRMSD -1
REMARK  1 active torsions:
REMARK  status: ('A' for Active; 'I' for Inactive)
REMARK    1  A    between atoms: C1_2  and  C2_3 
ROOT
ATOM      1  C2  UNL d   1      -0.395   1.100   0.003  0.00  0.00    -0.076 A 
ATOM      2  C3  UNL d   1       0.076   1.906  -1.048  0.00  0.00     0.004 A 
ATOM      3  C4  UNL d   1       0.028   3.296  -0.963  0.00  0.00    -0.003 A 
ATOM      4  C5  UNL d   1      -0.492   3.903   0.175  0.00  0.00     0.000 A 
ATOM      5  C6  UNL d   1      -0.948   3.119   1.234  0.00  0.00     0.000 A 
ATOM      6  C7  UNL d   1      -0.891   1.716   1.171  0.00  0.00    -0.073 A 
ATOM      7  C8  UNL d   1      -1.403   0.920   2.340  0.00  0.00     0.078 C 
ENDROOT
BRANCH   1   8
ATOM      8  C1  UNL d   1      -0.343  -0.403  -0.157  0.00  0.00     0.053 C 
ATOM      9  C   UNL d   1       0.892  -0.865  -0.915  0.00  0.00     0.018 C 
ENDBRANCH   1   8
TORSDOF 1
ENDMDL
