MODEL 1
REMARK minimizedAffinity -1.59704983
REMARK minimizedRMSD -1
REMARK  1 active torsions:
REMARK  status: ('A' for Active; 'I' for Inactive)
REMARK    1  A    between atoms: C1_2  and  C2_3 
ROOT
ATOM      1  C2  UNL d   1       0.603  -0.793  -0.633  0.00  0.00    -0.076 A 
ATOM      2  C3  UNL d   1       0.026  -1.636   0.333  0.00  0.00     0.004 A 
ATOM      3  C4  UNL d   1      -0.201  -1.187   1.633  0.00  0.00    -0.003 A 
ATOM      4  C5  UNL d   1       0.145   0.112   1.988  0.00  0.00     0.000 A 
ATOM      5  C6  UNL d   1       0.701   0.967   1.038  0.00  0.00     0.000 A 
ATOM      6  C7  UNL d   1       0.922   0.536  -0.282  0.00  0.00    -0.073 A 
ATOM      7  C8  UNL d   1       1.530   1.499  -1.264  0.00  0.00     0.078 C 
ENDROOT
BRANCH   1   8
ATOM      8  C1  UNL d   1       0.850  -1.344  -2.019  0.00  0.00     0.053 C 
ATOM      9  C   UNL d   1       1.266  -2.806  -2.000  0.00  0.00     0.018 C 
ENDBRANCH   1   8
TORSDOF 1
ENDMDL
