MODEL 1
REMARK minimizedAffinity -0.428179115
REMARK minimizedRMSD -1
REMARK  0 active torsions:
REMARK  status: ('A' for Active; 'I' for Inactive)
ROOT
ATOM      1  C4' PXY d   1      -1.241   0.728   1.822  0.00  0.00     0.077 C 
ATOM      2  C1' PXY d   1       0.550  -3.087  -2.134  0.00  0.00     0.077 C 
ATOM      3  C1  PXY d   1       0.087  -2.077  -1.103  0.00  0.00    -0.082 A 
ATOM      4  C2  PXY d   1      -0.296  -2.493   0.094  0.00  0.00     0.003 A 
ATOM      5  C3  PXY d   1      -0.748  -1.596   1.027  0.00  0.00     0.003 A 
ATOM      6  C4  PXY d   1      -0.757  -0.255   0.752  0.00  0.00    -0.082 A 
ATOM      7  C5  PXY d   1      -0.357   0.178  -0.462  0.00  0.00     0.003 A 
ATOM      8  C6  PXY d   1       0.059  -0.752  -1.411  0.00  0.00     0.003 A 
ENDROOT
TORSDOF 0
ENDMDL
