MODEL 1
REMARK minimizedAffinity 1.90468323
REMARK minimizedRMSD -1
REMARK  0 active torsions:
REMARK  status: ('A' for Active; 'I' for Inactive)
ROOT
ATOM      1  C4' PXY d   1       1.109  -0.667  -2.100  0.00  0.00     0.077 C 
ATOM      2  C1' PXY d   1      -0.500   1.375   3.063  0.00  0.00     0.077 C 
ATOM      3  C1  PXY d   1      -0.081   0.828   1.712  0.00  0.00    -0.082 A 
ATOM      4  C2  PXY d   1       0.815   1.481   0.991  0.00  0.00     0.003 A 
ATOM      5  C3  PXY d   1       1.181   1.017  -0.246  0.00  0.00     0.003 A 
ATOM      6  C4  PXY d   1       0.664  -0.156  -0.727  0.00  0.00    -0.082 A 
ATOM      7  C5  PXY d   1      -0.243  -0.834   0.007  0.00  0.00     0.003 A 
ATOM      8  C6  PXY d   1      -0.632  -0.324   1.243  0.00  0.00     0.003 A 
ENDROOT
TORSDOF 0
ENDMDL
