MODEL 1
REMARK minimizedAffinity -0.964156091
REMARK minimizedRMSD -1
REMARK  0 active torsions:
REMARK  status: ('A' for Active; 'I' for Inactive)
ROOT
ATOM      1  C4' PXY d   1       0.802  -0.439  -3.291  0.00  0.00     0.077 C 
ATOM      2  C1' PXY d   1      -0.808  -0.359   2.260  0.00  0.00     0.077 C 
ATOM      3  C1  PXY d   1      -0.382  -0.392   0.806  0.00  0.00    -0.082 A 
ATOM      4  C2  PXY d   1      -0.121   0.741   0.174  0.00  0.00     0.003 A 
ATOM      5  C3  PXY d   1       0.234   0.731  -1.150  0.00  0.00     0.003 A 
ATOM      6  C4  PXY d   1       0.377  -0.454  -1.820  0.00  0.00    -0.082 A 
ATOM      7  C5  PXY d   1       0.124  -1.615  -1.180  0.00  0.00     0.003 A 
ATOM      8  C6  PXY d   1      -0.276  -1.581   0.153  0.00  0.00     0.003 A 
ENDROOT
TORSDOF 0
ENDMDL
