MODEL 1
REMARK minimizedAffinity -0.616346359
REMARK minimizedRMSD -1
REMARK  0 active torsions:
REMARK  status: ('A' for Active; 'I' for Inactive)
ROOT
ATOM      1  C4' PXY d   1      -2.021   1.592  -4.961  0.00  0.00     0.077 C 
ATOM      2  C1' PXY d   1      -6.000   5.655  -6.000  0.00  0.00     0.077 C 
ATOM      3  C1  PXY d   1      -4.966   4.581  -5.725  0.00  0.00    -0.082 A 
ATOM      4  C2  PXY d   1      -3.741   4.929  -5.365  0.00  0.00     0.003 A 
ATOM      5  C3  PXY d   1      -2.785   3.972  -5.143  0.00  0.00     0.003 A 
ATOM      6  C4  PXY d   1      -3.100   2.643  -5.240  0.00  0.00    -0.082 A 
ATOM      7  C5  PXY d   1      -4.350   2.279  -5.596  0.00  0.00     0.003 A 
ATOM      8  C6  PXY d   1      -5.295   3.268  -5.857  0.00  0.00     0.003 A 
ENDROOT
TORSDOF 0
ENDMDL
