MODEL 1
REMARK minimizedAffinity -2.05336308
REMARK minimizedRMSD -1
REMARK  0 active torsions:
REMARK  status: ('A' for Active; 'I' for Inactive)
ROOT
ATOM      1  C4' PXY d   1      -0.652  -1.093   0.679  0.00  0.00     0.077 C 
ATOM      2  C1' PXY d   1      -3.485   2.488   4.224  0.00  0.00     0.077 C 
ATOM      3  C1  PXY d   1      -2.753   1.543   3.291  0.00  0.00    -0.082 A 
ATOM      4  C2  PXY d   1      -1.459   1.326   3.463  0.00  0.00     0.003 A 
ATOM      5  C3  PXY d   1      -0.775   0.500   2.609  0.00  0.00     0.003 A 
ATOM      6  C4  PXY d   1      -1.433  -0.154   1.602  0.00  0.00    -0.082 A 
ATOM      7  C5  PXY d   1      -2.756   0.053   1.427  0.00  0.00     0.003 A 
ATOM      8  C6  PXY d   1      -3.423   0.928   2.279  0.00  0.00     0.003 A 
ENDROOT
TORSDOF 0
ENDMDL
