MODEL 1
REMARK minimizedAffinity -1.80076194
REMARK minimizedRMSD -1
REMARK  0 active torsions:
REMARK  status: ('A' for Active; 'I' for Inactive)
ROOT
ATOM      1  C4' PXY d   1      -0.829   0.405   2.086  0.00  0.00     0.077 C 
ATOM      2  C1' PXY d   1       1.790  -0.029  -3.049  0.00  0.00     0.077 C 
ATOM      3  C1  PXY d   1       1.094   0.075  -1.706  0.00  0.00    -0.082 A 
ATOM      4  C2  PXY d   1       1.207   1.186  -0.996  0.00  0.00     0.003 A 
ATOM      5  C3  PXY d   1       0.611   1.286   0.235  0.00  0.00     0.003 A 
ATOM      6  C4  PXY d   1      -0.152   0.258   0.721  0.00  0.00    -0.082 A 
ATOM      7  C5  PXY d   1      -0.281  -0.874  -0.002  0.00  0.00     0.003 A 
ATOM      8  C6  PXY d   1       0.366  -0.971  -1.231  0.00  0.00     0.003 A 
ENDROOT
TORSDOF 0
ENDMDL
