MODEL 1
REMARK minimizedAffinity 0.63006711
REMARK minimizedRMSD -1
REMARK  0 active torsions:
REMARK  status: ('A' for Active; 'I' for Inactive)
ROOT
ATOM      1  C4' PXY d   1       1.497   1.454   3.281  0.00  0.00     0.077 C 
ATOM      2  C1' PXY d   1       0.849   0.791  -2.424  0.00  0.00     0.077 C 
ATOM      3  C1  PXY d   1       1.006   0.962  -0.926  0.00  0.00    -0.082 A 
ATOM      4  C2  PXY d   1       2.004   1.691  -0.453  0.00  0.00     0.003 A 
ATOM      5  C3  PXY d   1       2.179   1.831   0.900  0.00  0.00     0.003 A 
ATOM      6  C4  PXY d   1       1.294   1.261   1.776  0.00  0.00    -0.082 A 
ATOM      7  C5  PXY d   1       0.268   0.525   1.300  0.00  0.00     0.003 A 
ATOM      8  C6  PXY d   1       0.131   0.361  -0.075  0.00  0.00     0.003 A 
ENDROOT
TORSDOF 0
ENDMDL
