MODEL 1
REMARK minimizedAffinity -0.886602521
REMARK minimizedRMSD -1
REMARK  0 active torsions:
REMARK  status: ('A' for Active; 'I' for Inactive)
ROOT
ATOM      1  C4' PXY d   1      -4.845  -0.235   0.306  0.00  0.00     0.077 C 
ATOM      2  C1' PXY d   1      -3.311   3.187   4.704  0.00  0.00     0.077 C 
ATOM      3  C1  PXY d   1      -3.701   2.290   3.546  0.00  0.00    -0.082 A 
ATOM      4  C2  PXY d   1      -4.961   2.249   3.146  0.00  0.00     0.003 A 
ATOM      5  C3  PXY d   1      -5.337   1.420   2.121  0.00  0.00     0.003 A 
ATOM      6  C4  PXY d   1      -4.404   0.663   1.464  0.00  0.00    -0.082 A 
ATOM      7  C5  PXY d   1      -3.114   0.707   1.860  0.00  0.00     0.003 A 
ATOM      8  C6  PXY d   1      -2.760   1.525   2.929  0.00  0.00     0.003 A 
ENDROOT
TORSDOF 0
ENDMDL
