MODEL 1
REMARK minimizedAffinity -4.99620819
REMARK minimizedRMSD -1
REMARK  0 active torsions:
REMARK  status: ('A' for Active; 'I' for Inactive)
ROOT
ATOM      1  C4' PXY d   1       1.661  -0.636  -3.365  0.00  0.00     0.077 C 
ATOM      2  C1' PXY d   1      -0.823   0.113   1.801  0.00  0.00     0.077 C 
ATOM      3  C1  PXY d   1      -0.170  -0.070   0.445  0.00  0.00    -0.082 A 
ATOM      4  C2  PXY d   1      -0.417  -1.164  -0.257  0.00  0.00     0.003 A 
ATOM      5  C3  PXY d   1       0.190  -1.361  -1.471  0.00  0.00     0.003 A 
ATOM      6  C4  PXY d   1       1.017  -0.404  -1.995  0.00  0.00    -0.082 A 
ATOM      7  C5  PXY d   1       1.265   0.720  -1.290  0.00  0.00     0.003 A 
ATOM      8  C6  PXY d   1       0.671   0.882  -0.041  0.00  0.00     0.003 A 
ENDROOT
TORSDOF 0
ENDMDL
