MODEL 1
REMARK minimizedAffinity -4.11236095
REMARK minimizedRMSD -1
REMARK  0 active torsions:
REMARK  status: ('A' for Active; 'I' for Inactive)
ROOT
ATOM      1  C4' PXY d   1      -1.337   0.106   0.945  0.00  0.00     0.077 C 
ATOM      2  C1' PXY d   1       2.338  -0.682  -3.447  0.00  0.00     0.077 C 
ATOM      3  C1  PXY d   1       1.372  -0.489  -2.295  0.00  0.00    -0.082 A 
ATOM      4  C2  PXY d   1       0.738   0.665  -2.160  0.00  0.00     0.003 A 
ATOM      5  C3  PXY d   1      -0.114   0.868  -1.105  0.00  0.00     0.003 A 
ATOM      6  C4  PXY d   1      -0.361  -0.137  -0.209  0.00  0.00    -0.082 A 
ATOM      7  C5  PXY d   1       0.274  -1.321  -0.346  0.00  0.00     0.003 A 
ATOM      8  C6  PXY d   1       1.167  -1.493  -1.400  0.00  0.00     0.003 A 
ENDROOT
TORSDOF 0
ENDMDL
