MODEL 1
REMARK minimizedAffinity -1.81598055
REMARK minimizedRMSD -1
REMARK  0 active torsions:
REMARK  status: ('A' for Active; 'I' for Inactive)
ROOT
ATOM      1  C4' PXY d   1      -2.469   0.037   0.084  0.00  0.00     0.077 C 
ATOM      2  C1' PXY d   1       3.042   0.616  -1.563  0.00  0.00     0.077 C 
ATOM      3  C1  PXY d   1       1.595   0.477  -1.133  0.00  0.00    -0.082 A 
ATOM      4  C2  PXY d   1       1.242  -0.517  -0.334  0.00  0.00     0.003 A 
ATOM      5  C3  PXY d   1      -0.067  -0.676   0.039  0.00  0.00     0.003 A 
ATOM      6  C4  PXY d   1      -1.018   0.222  -0.368  0.00  0.00    -0.082 A 
ATOM      7  C5  PXY d   1      -0.664   1.244  -1.175  0.00  0.00     0.003 A 
ATOM      8  C6  PXY d   1       0.663   1.365  -1.575  0.00  0.00     0.003 A 
ENDROOT
TORSDOF 0
ENDMDL
