MODEL 1
REMARK minimizedAffinity -5.02589321
REMARK minimizedRMSD -1
REMARK  0 active torsions:
REMARK  status: ('A' for Active; 'I' for Inactive)
ROOT
ATOM      1  C4' PXY d   1      -1.348  -0.280   1.511  0.00  0.00     0.077 C 
ATOM      2  C1' PXY d   1       2.126  -0.210  -3.108  0.00  0.00     0.077 C 
ATOM      3  C1  PXY d   1       1.212  -0.241  -1.900  0.00  0.00    -0.082 A 
ATOM      4  C2  PXY d   1       0.721   0.891  -1.422  0.00  0.00     0.003 A 
ATOM      5  C3  PXY d   1      -0.082   0.885  -0.310  0.00  0.00     0.003 A 
ATOM      6  C4  PXY d   1      -0.429  -0.298   0.287  0.00  0.00    -0.082 A 
ATOM      7  C5  PXY d   1       0.060  -1.458  -0.201  0.00  0.00     0.003 A 
ATOM      8  C6  PXY d   1       0.906  -1.426  -1.305  0.00  0.00     0.003 A 
ENDROOT
TORSDOF 0
ENDMDL
