MODEL 1
REMARK minimizedAffinity -3.46009564
REMARK minimizedRMSD -1
REMARK  0 active torsions:
REMARK  status: ('A' for Active; 'I' for Inactive)
ROOT
ATOM      1  C4' PXY d   1      -0.540   0.611   2.108  0.00  0.00     0.077 C 
ATOM      2  C1' PXY d   1       1.564  -0.314  -3.196  0.00  0.00     0.077 C 
ATOM      3  C1  PXY d   1       1.021  -0.062  -1.803  0.00  0.00    -0.082 A 
ATOM      4  C2  PXY d   1       0.356  -1.020  -1.177  0.00  0.00     0.003 A 
ATOM      5  C3  PXY d   1      -0.169  -0.798   0.070  0.00  0.00     0.003 A 
ATOM      6  C4  PXY d   1       0.034   0.398   0.705  0.00  0.00    -0.082 A 
ATOM      7  C5  PXY d   1       0.721   1.376   0.077  0.00  0.00     0.003 A 
ATOM      8  C6  PXY d   1       1.211   1.145  -1.205  0.00  0.00     0.003 A 
ENDROOT
TORSDOF 0
ENDMDL
