MODEL 1
REMARK minimizedAffinity -1.55270135
REMARK minimizedRMSD -1
REMARK  0 active torsions:
REMARK  status: ('A' for Active; 'I' for Inactive)
ROOT
ATOM      1  C4' PXY d   1       0.792   0.961   2.794  0.00  0.00     0.077 C 
ATOM      2  C1' PXY d   1       0.587   0.210  -2.934  0.00  0.00     0.077 C 
ATOM      3  C1  PXY d   1       0.630   0.401  -1.430  0.00  0.00    -0.082 A 
ATOM      4  C2  PXY d   1       1.324   1.403  -0.917  0.00  0.00     0.003 A 
ATOM      5  C3  PXY d   1       1.399   1.571   0.442  0.00  0.00     0.003 A 
ATOM      6  C4  PXY d   1       0.713   0.736   1.282  0.00  0.00    -0.082 A 
ATOM      7  C5  PXY d   1      -0.006  -0.283   0.766  0.00  0.00     0.003 A 
ATOM      8  C6  PXY d   1      -0.036  -0.461  -0.614  0.00  0.00     0.003 A 
ENDROOT
TORSDOF 0
ENDMDL
