MODEL 1
REMARK minimizedAffinity -5.32172966
REMARK minimizedRMSD -1
REMARK  0 active torsions:
REMARK  status: ('A' for Active; 'I' for Inactive)
ROOT
ATOM      1  C4' PXY d   1      -3.386  -0.183   1.238  0.00  0.00     0.077 C 
ATOM      2  C1' PXY d   1       1.832   1.458   3.108  0.00  0.00     0.077 C 
ATOM      3  C1  PXY d   1       0.467   1.030   2.605  0.00  0.00    -0.082 A 
ATOM      4  C2  PXY d   1      -0.578   1.097   3.413  0.00  0.00     0.003 A 
ATOM      5  C3  PXY d   1      -1.813   0.684   2.985  0.00  0.00     0.003 A 
ATOM      6  C4  PXY d   1      -1.991   0.247   1.700  0.00  0.00    -0.082 A 
ATOM      7  C5  PXY d   1      -0.931   0.186   0.866  0.00  0.00     0.003 A 
ATOM      8  C6  PXY d   1       0.322   0.571   1.332  0.00  0.00     0.003 A 
ENDROOT
TORSDOF 0
ENDMDL
