MODEL 1
REMARK minimizedAffinity -0.158643588
REMARK minimizedRMSD -1
REMARK  0 active torsions:
REMARK  status: ('A' for Active; 'I' for Inactive)
ROOT
ATOM      1  C4' PXY d   1      -5.620  -1.377  -5.999  0.00  0.00     0.077 C 
ATOM      2  C1' PXY d   1      -1.779  -4.808  -3.373  0.00  0.00     0.077 C 
ATOM      3  C1  PXY d   1      -2.794  -3.907  -4.051  0.00  0.00    -0.082 A 
ATOM      4  C2  PXY d   1      -2.923  -3.942  -5.367  0.00  0.00     0.003 A 
ATOM      5  C3  PXY d   1      -3.812  -3.111  -5.999  0.00  0.00     0.003 A 
ATOM      6  C4  PXY d   1      -4.616  -2.275  -5.272  0.00  0.00    -0.082 A 
ATOM      7  C5  PXY d   1      -4.498  -2.242  -3.927  0.00  0.00     0.003 A 
ATOM      8  C6  PXY d   1      -3.560  -3.063  -3.308  0.00  0.00     0.003 A 
ENDROOT
TORSDOF 0
ENDMDL
