MODEL 1
REMARK minimizedAffinity 0.442703485
REMARK minimizedRMSD -1
REMARK  0 active torsions:
REMARK  status: ('A' for Active; 'I' for Inactive)
ROOT
ATOM      1  C4' PXY d   1      -4.769  -0.595   1.657  0.00  0.00     0.077 C 
ATOM      2  C1' PXY d   1      -1.268  -2.778  -2.392  0.00  0.00     0.077 C 
ATOM      3  C1  PXY d   1      -2.197  -2.206  -1.338  0.00  0.00    -0.082 A 
ATOM      4  C2  PXY d   1      -1.708  -1.420  -0.393  0.00  0.00     0.003 A 
ATOM      5  C3  PXY d   1      -2.528  -0.921   0.586  0.00  0.00     0.003 A 
ATOM      6  C4  PXY d   1      -3.871  -1.186   0.567  0.00  0.00    -0.082 A 
ATOM      7  C5  PXY d   1      -4.379  -1.979  -0.400  0.00  0.00     0.003 A 
ATOM      8  C6  PXY d   1      -3.523  -2.509  -1.361  0.00  0.00     0.003 A 
ENDROOT
TORSDOF 0
ENDMDL
