MODEL 1
REMARK minimizedAffinity -0.1444792
REMARK minimizedRMSD -1
REMARK  0 active torsions:
REMARK  status: ('A' for Active; 'I' for Inactive)
ROOT
ATOM      1  C4' PXY d   1       0.427   0.459   1.019  0.00  0.00     0.077 C 
ATOM      2  C1' PXY d   1      -3.772   2.485   4.436  0.00  0.00     0.077 C 
ATOM      3  C1  PXY d   1      -2.663   1.951   3.551  0.00  0.00    -0.082 A 
ATOM      4  C2  PXY d   1      -2.584   2.348   2.291  0.00  0.00     0.003 A 
ATOM      5  C3  PXY d   1      -1.607   1.851   1.467  0.00  0.00     0.003 A 
ATOM      6  C4  PXY d   1      -0.670   0.979   1.952  0.00  0.00    -0.082 A 
ATOM      7  C5  PXY d   1      -0.738   0.577   3.239  0.00  0.00     0.003 A 
ATOM      8  C6  PXY d   1      -1.762   1.061   4.048  0.00  0.00     0.003 A 
ENDROOT
TORSDOF 0
ENDMDL
