MODEL 1
REMARK minimizedAffinity 6.01814795
REMARK minimizedRMSD -1
REMARK  0 active torsions:
REMARK  status: ('A' for Active; 'I' for Inactive)
ROOT
ATOM      1  C4' PXY d   1      -1.106  -2.304  -3.210  0.00  0.00     0.077 C 
ATOM      2  C1' PXY d   1       1.029   0.703   1.241  0.00  0.00     0.077 C 
ATOM      3  C1  PXY d   1       0.468  -0.097   0.081  0.00  0.00    -0.082 A 
ATOM      4  C2  PXY d   1       0.688   0.309  -1.159  0.00  0.00     0.003 A 
ATOM      5  C3  PXY d   1       0.161  -0.384  -2.218  0.00  0.00     0.003 A 
ATOM      6  C4  PXY d   1      -0.552  -1.534  -2.009  0.00  0.00    -0.082 A 
ATOM      7  C5  PXY d   1      -0.771  -1.960  -0.747  0.00  0.00     0.003 A 
ATOM      8  C6  PXY d   1      -0.263  -1.220   0.317  0.00  0.00     0.003 A 
ENDROOT
TORSDOF 0
ENDMDL
