MODEL 1
REMARK minimizedAffinity -4.95440149
REMARK minimizedRMSD -1
REMARK  1 active torsions:
REMARK  status: ('A' for Active; 'I' for Inactive)
REMARK    1  A    between atoms: C1_2  and  C2_3 
ROOT
ATOM      1  C2  UNL d   1      -0.327  -0.158   1.157  0.00  0.00    -0.077 A 
ATOM      2  C3  UNL d   1      -1.606   0.110   0.649  0.00  0.00     0.002 A 
ATOM      3  C4  UNL d   1      -2.695   0.246   1.513  0.00  0.00     0.002 A 
ATOM      4  C5  UNL d   1      -2.515   0.120   2.889  0.00  0.00    -0.004 A 
ATOM      5  C6  UNL d   1      -1.247  -0.148   3.404  0.00  0.00     0.002 A 
ATOM      6  C7  UNL d   1      -0.158  -0.285   2.542  0.00  0.00     0.002 A 
ENDROOT
BRANCH   1   7
ATOM      7  C1  UNL d   1       0.857  -0.256   0.231  0.00  0.00     0.055 C 
ATOM      8  C   UNL d   1       0.660   0.598  -1.012  0.00  0.00     0.019 C 
ENDBRANCH   1   7
TORSDOF 1
ENDMDL
