MODEL 1
REMARK minimizedAffinity -1.71147335
REMARK minimizedRMSD -1
REMARK  1 active torsions:
REMARK  status: ('A' for Active; 'I' for Inactive)
REMARK    1  A    between atoms: C1_2  and  C2_3 
ROOT
ATOM      1  C2  UNL d   1       0.470  -0.511  -1.250  0.00  0.00    -0.077 A 
ATOM      2  C3  UNL d   1       1.162  -1.191  -0.238  0.00  0.00     0.002 A 
ATOM      3  C4  UNL d   1       1.184  -0.687   1.064  0.00  0.00     0.002 A 
ATOM      4  C5  UNL d   1       0.513   0.496   1.366  0.00  0.00    -0.004 A 
ATOM      5  C6  UNL d   1      -0.176   1.181   0.366  0.00  0.00     0.002 A 
ATOM      6  C7  UNL d   1      -0.199   0.679  -0.936  0.00  0.00     0.002 A 
ENDROOT
BRANCH   1   7
ATOM      7  C1  UNL d   1       0.404  -1.080  -2.644  0.00  0.00     0.055 C 
ATOM      8  C   UNL d   1       1.715  -0.875  -3.388  0.00  0.00     0.019 C 
ENDBRANCH   1   7
TORSDOF 1
ENDMDL
