MODEL 1
REMARK minimizedAffinity -3.14009833
REMARK minimizedRMSD -1
REMARK  1 active torsions:
REMARK  status: ('A' for Active; 'I' for Inactive)
REMARK    1  A    between atoms: C1_2  and  C2_3 
ROOT
ATOM      1  C2  UNL d   1      -1.224   0.738   0.835  0.00  0.00    -0.077 A 
ATOM      2  C3  UNL d   1      -0.427   0.743  -0.318  0.00  0.00     0.002 A 
ATOM      3  C4  UNL d   1       0.946   0.508  -0.229  0.00  0.00     0.002 A 
ATOM      4  C5  UNL d   1       1.533   0.262   1.010  0.00  0.00    -0.004 A 
ATOM      5  C6  UNL d   1       0.750   0.257   2.164  0.00  0.00     0.002 A 
ATOM      6  C7  UNL d   1      -0.623   0.493   2.076  0.00  0.00     0.002 A 
ENDROOT
BRANCH   1   7
ATOM      7  C1  UNL d   1      -2.713   0.943   0.735  0.00  0.00     0.055 C 
ATOM      8  C   UNL d   1      -3.337   1.148   2.108  0.00  0.00     0.019 C 
ENDBRANCH   1   7
TORSDOF 1
ENDMDL
