MODEL 1
REMARK minimizedAffinity -3.73187232
REMARK minimizedRMSD -1
REMARK  1 active torsions:
REMARK  status: ('A' for Active; 'I' for Inactive)
REMARK    1  A    between atoms: C1_2  and  C2_3 
ROOT
ATOM      1  C2  UNL d   1       0.675  -0.356  -1.556  0.00  0.00    -0.077 A 
ATOM      2  C3  UNL d   1       1.551   0.166  -2.517  0.00  0.00     0.002 A 
ATOM      3  C4  UNL d   1       1.841  -0.557  -3.676  0.00  0.00     0.002 A 
ATOM      4  C5  UNL d   1       1.255  -1.803  -3.886  0.00  0.00    -0.004 A 
ATOM      5  C6  UNL d   1       0.383  -2.332  -2.935  0.00  0.00     0.002 A 
ATOM      6  C7  UNL d   1       0.094  -1.611  -1.776  0.00  0.00     0.002 A 
ENDROOT
BRANCH   1   7
ATOM      7  C1  UNL d   1       0.323   0.444  -0.329  0.00  0.00     0.055 C 
ATOM      8  C   UNL d   1       1.494   0.516   0.640  0.00  0.00     0.019 C 
ENDBRANCH   1   7
TORSDOF 1
ENDMDL
