MODEL 1
REMARK minimizedAffinity -2.24203181
REMARK minimizedRMSD -1
REMARK  1 active torsions:
REMARK  status: ('A' for Active; 'I' for Inactive)
REMARK    1  A    between atoms: C1_2  and  C2_3 
ROOT
ATOM      1  C2  UNL d   1       0.845  -0.841  -1.154  0.00  0.00    -0.077 A 
ATOM      2  C3  UNL d   1      -0.167   0.123  -1.050  0.00  0.00     0.002 A 
ATOM      3  C4  UNL d   1      -0.287   0.899   0.105  0.00  0.00     0.002 A 
ATOM      4  C5  UNL d   1       0.603   0.722   1.162  0.00  0.00    -0.004 A 
ATOM      5  C6  UNL d   1       1.612  -0.237   1.069  0.00  0.00     0.002 A 
ATOM      6  C7  UNL d   1       1.733  -1.014  -0.084  0.00  0.00     0.002 A 
ENDROOT
BRANCH   1   7
ATOM      7  C1  UNL d   1       1.007  -1.645  -2.417  0.00  0.00     0.055 C 
ATOM      8  C   UNL d   1       2.437  -1.583  -2.933  0.00  0.00     0.019 C 
ENDBRANCH   1   7
TORSDOF 1
ENDMDL
