MODEL 1
REMARK minimizedAffinity 6.05358362
REMARK minimizedRMSD -1
REMARK  1 active torsions:
REMARK  status: ('A' for Active; 'I' for Inactive)
REMARK    1  A    between atoms: C1_2  and  C2_3 
ROOT
ATOM      1  C2  UNL d   1       1.312  -0.440   1.254  0.00  0.00    -0.077 A 
ATOM      2  C3  UNL d   1       1.593   0.474   0.228  0.00  0.00     0.002 A 
ATOM      3  C4  UNL d   1       1.505   1.848   0.462  0.00  0.00     0.002 A 
ATOM      4  C5  UNL d   1       1.141   2.319   1.722  0.00  0.00    -0.004 A 
ATOM      5  C6  UNL d   1       0.858   1.418   2.748  0.00  0.00     0.002 A 
ATOM      6  C7  UNL d   1       0.944   0.045   2.515  0.00  0.00     0.002 A 
ENDROOT
BRANCH   1   7
ATOM      7  C1  UNL d   1       1.454  -1.921   1.016  0.00  0.00     0.055 C 
ATOM      8  C   UNL d   1       0.446  -2.712   1.837  0.00  0.00     0.019 C 
ENDBRANCH   1   7
TORSDOF 1
ENDMDL
