MODEL 1
REMARK minimizedAffinity -5.17945051
REMARK minimizedRMSD -1
REMARK  1 active torsions:
REMARK  status: ('A' for Active; 'I' for Inactive)
REMARK    1  A    between atoms: C1_2  and  C2_3 
ROOT
ATOM      1  C2  UNL d   1      -0.635   0.383   0.371  0.00  0.00    -0.077 A 
ATOM      2  C3  UNL d   1      -1.938   0.756   0.014  0.00  0.00     0.002 A 
ATOM      3  C4  UNL d   1      -2.972   0.694   0.951  0.00  0.00     0.002 A 
ATOM      4  C5  UNL d   1      -2.711   0.264   2.251  0.00  0.00    -0.004 A 
ATOM      5  C6  UNL d   1      -1.419  -0.111   2.614  0.00  0.00     0.002 A 
ATOM      6  C7  UNL d   1      -0.385  -0.050   1.679  0.00  0.00     0.002 A 
ENDROOT
BRANCH   1   7
ATOM      7  C1  UNL d   1       0.491   0.497  -0.624  0.00  0.00     0.055 C 
ATOM      8  C   UNL d   1       1.808   0.821   0.064  0.00  0.00     0.019 C 
ENDBRANCH   1   7
TORSDOF 1
ENDMDL
