MODEL 1
REMARK minimizedAffinity -4.87561893
REMARK minimizedRMSD -1
REMARK  1 active torsions:
REMARK  status: ('A' for Active; 'I' for Inactive)
REMARK    1  A    between atoms: C1_2  and  C2_3 
ROOT
ATOM      1  C2  UNL d   1      -0.631   0.323   1.725  0.00  0.00    -0.077 A 
ATOM      2  C3  UNL d   1       0.475   0.527   0.888  0.00  0.00     0.002 A 
ATOM      3  C4  UNL d   1       0.293   0.821  -0.465  0.00  0.00     0.002 A 
ATOM      4  C5  UNL d   1      -0.994   0.917  -0.991  0.00  0.00    -0.004 A 
ATOM      5  C6  UNL d   1      -2.100   0.713  -0.167  0.00  0.00     0.002 A 
ATOM      6  C7  UNL d   1      -1.919   0.418   1.185  0.00  0.00     0.002 A 
ENDROOT
BRANCH   1   7
ATOM      7  C1  UNL d   1      -0.437   0.055   3.195  0.00  0.00     0.055 C 
ATOM      8  C   UNL d   1      -1.771  -0.076   3.914  0.00  0.00     0.019 C 
ENDBRANCH   1   7
TORSDOF 1
ENDMDL
