MODEL 1
REMARK minimizedAffinity -4.04389095
REMARK minimizedRMSD -1
REMARK  1 active torsions:
REMARK  status: ('A' for Active; 'I' for Inactive)
REMARK    1  A    between atoms: C1_2  and  C2_3 
ROOT
ATOM      1  C2  UNL d   1      -0.380  -0.037   1.000  0.00  0.00    -0.077 A 
ATOM      2  C3  UNL d   1       0.758   0.781   0.978  0.00  0.00     0.002 A 
ATOM      3  C4  UNL d   1       2.010   0.243   0.672  0.00  0.00     0.002 A 
ATOM      4  C5  UNL d   1       2.134  -1.114   0.382  0.00  0.00    -0.004 A 
ATOM      5  C6  UNL d   1       1.008  -1.936   0.402  0.00  0.00     0.002 A 
ATOM      6  C7  UNL d   1      -0.243  -1.400   0.709  0.00  0.00     0.002 A 
ENDROOT
BRANCH   1   7
ATOM      7  C1  UNL d   1      -1.738   0.551   1.281  0.00  0.00     0.055 C 
ATOM      8  C   UNL d   1      -2.608   0.557   0.033  0.00  0.00     0.019 C 
ENDBRANCH   1   7
TORSDOF 1
ENDMDL
