MODEL 1
REMARK minimizedAffinity -5.40976477
REMARK minimizedRMSD -1
REMARK  1 active torsions:
REMARK  status: ('A' for Active; 'I' for Inactive)
REMARK    1  A    between atoms: C1_2  and  C2_3 
ROOT
ATOM      1  C2  UNL d   1      -0.505  -0.608   1.525  0.00  0.00    -0.077 A 
ATOM      2  C3  UNL d   1      -1.578  -0.400   0.647  0.00  0.00     0.002 A 
ATOM      3  C4  UNL d   1      -2.852  -0.115   1.143  0.00  0.00     0.002 A 
ATOM      4  C5  UNL d   1      -3.063  -0.032   2.518  0.00  0.00    -0.004 A 
ATOM      5  C6  UNL d   1      -2.003  -0.240   3.399  0.00  0.00     0.002 A 
ATOM      6  C7  UNL d   1      -0.730  -0.526   2.905  0.00  0.00     0.002 A 
ENDROOT
BRANCH   1   7
ATOM      7  C1  UNL d   1       0.879  -0.867   0.991  0.00  0.00     0.055 C 
ATOM      8  C   UNL d   1       1.299   0.207  -0.002  0.00  0.00     0.019 C 
ENDBRANCH   1   7
TORSDOF 1
ENDMDL
