MODEL 1
REMARK minimizedAffinity 5.71774244
REMARK minimizedRMSD -1
REMARK  1 active torsions:
REMARK  status: ('A' for Active; 'I' for Inactive)
REMARK    1  A    between atoms: C1_2  and  C2_3 
ROOT
ATOM      1  C2  UNL d   1       4.620   3.145   2.750  0.00  0.00    -0.073 A 
ATOM      2  C3  UNL d   1       4.101   3.845   1.656  0.00  0.00    -0.002 A 
ATOM      3  C4  UNL d   1       4.190   5.237   1.603  0.00  0.00     0.004 A 
ATOM      4  C5  UNL d   1       4.803   5.941   2.640  0.00  0.00    -0.004 A 
ATOM      5  C6  UNL d   1       5.338   5.257   3.737  0.00  0.00    -0.075 A 
ATOM      6  C7  UNL d   1       5.999   6.000   4.861  0.00  0.00     0.076 C 
ATOM      7  C8  UNL d   1       5.243   3.860   3.783  0.00  0.00     0.001 A 
ENDROOT
BRANCH   1   8
ATOM      8  C1  UNL d   1       4.532   1.641   2.808  0.00  0.00     0.053 C 
ATOM      9  C   UNL d   1       5.079   1.088   4.114  0.00  0.00     0.018 C 
ENDBRANCH   1   8
TORSDOF 1
ENDMDL
