MODEL 1
REMARK minimizedAffinity 15.922225
REMARK minimizedRMSD -1
REMARK  1 active torsions:
REMARK  status: ('A' for Active; 'I' for Inactive)
REMARK    1  A    between atoms: C1_2  and  C2_3 
ROOT
ATOM      1  C2  UNL d   1      -0.624  -0.556   1.156  0.00  0.00    -0.073 A 
ATOM      2  C3  UNL d   1      -0.669  -1.044  -0.155  0.00  0.00    -0.002 A 
ATOM      3  C4  UNL d   1      -1.792  -1.736  -0.611  0.00  0.00     0.004 A 
ATOM      4  C5  UNL d   1      -2.882  -1.940   0.234  0.00  0.00    -0.004 A 
ATOM      5  C6  UNL d   1      -2.861  -1.449   1.544  0.00  0.00    -0.075 A 
ATOM      6  C7  UNL d   1      -4.024  -1.662   2.467  0.00  0.00     0.076 C 
ATOM      7  C8  UNL d   1      -1.728  -0.758   1.995  0.00  0.00     0.001 A 
ENDROOT
BRANCH   1   8
ATOM      8  C1  UNL d   1       0.584   0.197   1.651  0.00  0.00     0.053 C 
ATOM      9  C   UNL d   1       0.813  -0.007   3.140  0.00  0.00     0.018 C 
ENDBRANCH   1   8
TORSDOF 1
ENDMDL
