MODEL 1
REMARK minimizedAffinity 16.5558052
REMARK minimizedRMSD -1
REMARK  1 active torsions:
REMARK  status: ('A' for Active; 'I' for Inactive)
REMARK    1  A    between atoms: C1_2  and  C2_3 
ROOT
ATOM      1  C2  UNL d   1       3.173   1.482  -5.495  0.00  0.00    -0.073 A 
ATOM      2  C3  UNL d   1       3.870   0.271  -5.576  0.00  0.00    -0.002 A 
ATOM      3  C4  UNL d   1       5.247   0.264  -5.800  0.00  0.00     0.004 A 
ATOM      4  C5  UNL d   1       5.942   1.466  -5.937  0.00  0.00    -0.004 A 
ATOM      5  C6  UNL d   1       5.265   2.687  -5.847  0.00  0.00    -0.075 A 
ATOM      6  C7  UNL d   1       5.998   3.988  -5.994  0.00  0.00     0.076 C 
ATOM      7  C8  UNL d   1       3.881   2.685  -5.625  0.00  0.00     0.001 A 
ENDROOT
BRANCH   1   8
ATOM      8  C1  UNL d   1       1.687   1.494  -5.247  0.00  0.00     0.053 C 
ATOM      9  C   UNL d   1       1.112   0.089  -5.155  0.00  0.00     0.018 C 
ENDBRANCH   1   8
TORSDOF 1
ENDMDL
