MODEL 1
REMARK minimizedAffinity 11.6264954
REMARK minimizedRMSD -1
REMARK  1 active torsions:
REMARK  status: ('A' for Active; 'I' for Inactive)
REMARK    1  A    between atoms: C1_2  and  C2_3 
ROOT
ATOM      1  C2  UNL d   1       0.064   1.359   3.812  0.00  0.00    -0.073 A 
ATOM      2  C3  UNL d   1      -0.035   1.257   2.420  0.00  0.00    -0.002 A 
ATOM      3  C4  UNL d   1       0.404   0.106   1.764  0.00  0.00     0.004 A 
ATOM      4  C5  UNL d   1       0.938  -0.957   2.493  0.00  0.00    -0.004 A 
ATOM      5  C6  UNL d   1       1.034  -0.879   3.886  0.00  0.00    -0.075 A 
ATOM      6  C7  UNL d   1       1.608  -2.012   4.685  0.00  0.00     0.076 C 
ATOM      7  C8  UNL d   1       0.593   0.281   4.537  0.00  0.00     0.001 A 
ENDROOT
BRANCH   1   8
ATOM      8  C1  UNL d   1      -0.414   2.597   4.525  0.00  0.00     0.053 C 
ATOM      9  C   UNL d   1      -0.043   2.586   5.999  0.00  0.00     0.018 C 
ENDBRANCH   1   8
TORSDOF 1
ENDMDL
