MODEL 1
REMARK minimizedAffinity 7.60926867
REMARK minimizedRMSD -1
REMARK  1 active torsions:
REMARK  status: ('A' for Active; 'I' for Inactive)
REMARK    1  A    between atoms: C1_2  and  C2_3 
ROOT
ATOM      1  C2  UNL d   1       5.431   3.613   3.079  0.00  0.00    -0.073 A 
ATOM      2  C3  UNL d   1       5.998   4.875   3.295  0.00  0.00    -0.002 A 
ATOM      3  C4  UNL d   1       5.479   5.999   2.653  0.00  0.00     0.004 A 
ATOM      4  C5  UNL d   1       4.385   5.876   1.795  0.00  0.00    -0.004 A 
ATOM      5  C6  UNL d   1       3.798   4.626   1.576  0.00  0.00    -0.075 A 
ATOM      6  C7  UNL d   1       2.623   4.476   0.655  0.00  0.00     0.076 C 
ATOM      7  C8  UNL d   1       4.327   3.501   2.223  0.00  0.00     0.001 A 
ENDROOT
BRANCH   1   8
ATOM      8  C1  UNL d   1       5.985   2.397   3.775  0.00  0.00     0.053 C 
ATOM      9  C   UNL d   1       4.920   1.334   3.998  0.00  0.00     0.018 C 
ENDBRANCH   1   8
TORSDOF 1
ENDMDL
