MODEL 1
REMARK minimizedAffinity 14.7501116
REMARK minimizedRMSD -1
REMARK  1 active torsions:
REMARK  status: ('A' for Active; 'I' for Inactive)
REMARK    1  A    between atoms: C1_2  and  C2_3 
ROOT
ATOM      1  C2  UNL d   1       1.895   2.280   5.809  0.00  0.00    -0.073 A 
ATOM      2  C3  UNL d   1       2.229   3.626   5.999  0.00  0.00    -0.002 A 
ATOM      3  C4  UNL d   1       3.543   4.059   5.815  0.00  0.00     0.004 A 
ATOM      4  C5  UNL d   1       4.533   3.154   5.433  0.00  0.00    -0.004 A 
ATOM      5  C6  UNL d   1       4.216   1.807   5.226  0.00  0.00    -0.075 A 
ATOM      6  C7  UNL d   1       5.270   0.821   4.817  0.00  0.00     0.076 C 
ATOM      7  C8  UNL d   1       2.895   1.380   5.415  0.00  0.00     0.001 A 
ENDROOT
BRANCH   1   8
ATOM      8  C1  UNL d   1       0.476   1.810   6.000  0.00  0.00     0.053 C 
ATOM      9  C   UNL d   1      -0.513   2.965   5.999  0.00  0.00     0.018 C 
ENDBRANCH   1   8
TORSDOF 1
ENDMDL
