MODEL 1
REMARK minimizedAffinity 12.6500874
REMARK minimizedRMSD -1
REMARK  1 active torsions:
REMARK  status: ('A' for Active; 'I' for Inactive)
REMARK    1  A    between atoms: C1_2  and  C2_3 
ROOT
ATOM      1  C2  UNL d   1      -5.944   3.570  -1.522  0.00  0.00    -0.073 A 
ATOM      2  C3  UNL d   1      -5.997   3.293  -0.151  0.00  0.00    -0.002 A 
ATOM      3  C4  UNL d   1      -5.967   1.974   0.303  0.00  0.00     0.004 A 
ATOM      4  C5  UNL d   1      -5.877   0.920  -0.606  0.00  0.00    -0.004 A 
ATOM      5  C6  UNL d   1      -5.812   1.177  -1.979  0.00  0.00    -0.075 A 
ATOM      6  C7  UNL d   1      -5.717   0.054  -2.971  0.00  0.00     0.076 C 
ATOM      7  C8  UNL d   1      -5.845   2.504  -2.428  0.00  0.00     0.001 A 
ENDROOT
BRANCH   1   8
ATOM      8  C1  UNL d   1      -5.969   4.993  -2.017  0.00  0.00     0.053 C 
ATOM      9  C   UNL d   1      -5.984   5.994  -0.873  0.00  0.00     0.018 C 
ENDBRANCH   1   8
TORSDOF 1
ENDMDL
