MODEL 1
REMARK minimizedAffinity 16.9304428
REMARK minimizedRMSD -1
REMARK  1 active torsions:
REMARK  status: ('A' for Active; 'I' for Inactive)
REMARK    1  A    between atoms: C1_2  and  C2_3 
ROOT
ATOM      1  C2  UNL d   1       5.297   1.473  -5.689  0.00  0.00    -0.073 A 
ATOM      2  C3  UNL d   1       5.989   0.293  -5.985  0.00  0.00    -0.002 A 
ATOM      3  C4  UNL d   1       5.333  -0.938  -5.944  0.00  0.00     0.004 A 
ATOM      4  C5  UNL d   1       3.979  -1.001  -5.615  0.00  0.00    -0.004 A 
ATOM      5  C6  UNL d   1       3.267   0.168  -5.328  0.00  0.00    -0.075 A 
ATOM      6  C7  UNL d   1       1.811   0.117  -4.971  0.00  0.00     0.076 C 
ATOM      7  C8  UNL d   1       3.934   1.400  -5.369  0.00  0.00     0.001 A 
ENDROOT
BRANCH   1   8
ATOM      8  C1  UNL d   1       5.999   2.805  -5.738  0.00  0.00     0.053 C 
ATOM      9  C   UNL d   1       5.031   3.952  -5.983  0.00  0.00     0.018 C 
ENDBRANCH   1   8
TORSDOF 1
ENDMDL
