MODEL 1
REMARK minimizedAffinity 13.0186615
REMARK minimizedRMSD -1
REMARK  1 active torsions:
REMARK  status: ('A' for Active; 'I' for Inactive)
REMARK    1  A    between atoms: C1_2  and  C2_3 
ROOT
ATOM      1  C2  UNL d   1       1.323  -1.686   4.346  0.00  0.00    -0.073 A 
ATOM      2  C3  UNL d   1       1.842  -0.456   4.764  0.00  0.00    -0.002 A 
ATOM      3  C4  UNL d   1       1.468   0.723   4.117  0.00  0.00     0.004 A 
ATOM      4  C5  UNL d   1       0.567   0.685   3.053  0.00  0.00    -0.004 A 
ATOM      5  C6  UNL d   1       0.028  -0.534   2.629  0.00  0.00    -0.075 A 
ATOM      6  C7  UNL d   1      -0.941  -0.593   1.485  0.00  0.00     0.076 C 
ATOM      7  C8  UNL d   1       0.411  -1.714   3.281  0.00  0.00     0.001 A 
ENDROOT
BRANCH   1   8
ATOM      8  C1  UNL d   1       1.719  -2.961   5.045  0.00  0.00     0.053 C 
ATOM      9  C   UNL d   1       3.188  -2.963   5.437  0.00  0.00     0.018 C 
ENDBRANCH   1   8
TORSDOF 1
ENDMDL
