MODEL 1
REMARK minimizedAffinity 10.027318
REMARK minimizedRMSD -1
REMARK  1 active torsions:
REMARK  status: ('A' for Active; 'I' for Inactive)
REMARK    1  A    between atoms: C1_2  and  C2_3 
ROOT
ATOM      1  C2  UNL d   1       5.083  -4.102  -2.271  0.00  0.00    -0.076 A 
ATOM      2  C3  UNL d   1       5.580  -2.949  -2.902  0.00  0.00     0.004 A 
ATOM      3  C4  UNL d   1       5.009  -2.474  -4.082  0.00  0.00    -0.003 A 
ATOM      4  C5  UNL d   1       3.931  -3.145  -4.649  0.00  0.00     0.000 A 
ATOM      5  C6  UNL d   1       3.413  -4.280  -4.027  0.00  0.00     0.000 A 
ATOM      6  C7  UNL d   1       3.967  -4.763  -2.829  0.00  0.00    -0.073 A 
ATOM      7  C8  UNL d   1       3.373  -5.996  -2.204  0.00  0.00     0.078 C 
ENDROOT
BRANCH   1   8
ATOM      8  C1  UNL d   1       5.760  -4.586  -1.008  0.00  0.00     0.053 C 
ATOM      9  C   UNL d   1       5.018  -4.161   0.250  0.00  0.00     0.018 C 
ENDBRANCH   1   8
TORSDOF 1
ENDMDL
