MODEL 1
REMARK minimizedAffinity 4.71043301
REMARK minimizedRMSD -1
REMARK  1 active torsions:
REMARK  status: ('A' for Active; 'I' for Inactive)
REMARK    1  A    between atoms: C1_2  and  C2_3 
ROOT
ATOM      1  C2  UNL d   1      -0.631   1.380  -1.815  0.00  0.00    -0.076 A 
ATOM      2  C3  UNL d   1      -1.873   0.787  -2.104  0.00  0.00     0.004 A 
ATOM      3  C4  UNL d   1      -2.025  -0.066  -3.195  0.00  0.00    -0.003 A 
ATOM      4  C5  UNL d   1      -0.937  -0.342  -4.016  0.00  0.00     0.000 A 
ATOM      5  C6  UNL d   1       0.307   0.223  -3.735  0.00  0.00     0.000 A 
ATOM      6  C7  UNL d   1       0.481   1.073  -2.629  0.00  0.00    -0.073 A 
ATOM      7  C8  UNL d   1       1.843   1.659  -2.376  0.00  0.00     0.078 C 
ENDROOT
BRANCH   1   8
ATOM      8  C1  UNL d   1      -0.533   2.318  -0.634  0.00  0.00     0.053 C 
ATOM      9  C   UNL d   1      -1.284   1.803   0.584  0.00  0.00     0.018 C 
ENDBRANCH   1   8
TORSDOF 1
ENDMDL
