MODEL 1
REMARK minimizedAffinity 8.96947861
REMARK minimizedRMSD -1
REMARK  1 active torsions:
REMARK  status: ('A' for Active; 'I' for Inactive)
REMARK    1  A    between atoms: C1_2  and  C2_3 
ROOT
ATOM      1  C2  UNL d   1      -0.161   1.979   0.713  0.00  0.00    -0.076 A 
ATOM      2  C3  UNL d   1       0.419   1.084  -0.204  0.00  0.00     0.004 A 
ATOM      3  C4  UNL d   1       0.634   1.454  -1.530  0.00  0.00    -0.003 A 
ATOM      4  C5  UNL d   1       0.273   2.725  -1.962  0.00  0.00     0.000 A 
ATOM      5  C6  UNL d   1      -0.287   3.632  -1.063  0.00  0.00     0.000 A 
ATOM      6  C7  UNL d   1      -0.495   3.280   0.282  0.00  0.00    -0.073 A 
ATOM      7  C8  UNL d   1      -1.108   4.296   1.207  0.00  0.00     0.078 C 
ENDROOT
BRANCH   1   8
ATOM      8  C1  UNL d   1      -0.394   1.512   2.132  0.00  0.00     0.053 C 
ATOM      9  C   UNL d   1      -1.852   1.172   2.401  0.00  0.00     0.018 C 
ENDBRANCH   1   8
TORSDOF 1
ENDMDL
