MODEL 1
REMARK minimizedAffinity 15.4614563
REMARK minimizedRMSD -1
REMARK  1 active torsions:
REMARK  status: ('A' for Active; 'I' for Inactive)
REMARK    1  A    between atoms: C1_2  and  C2_3 
ROOT
ATOM      1  C2  UNL d   1       1.571  -3.255  -3.829  0.00  0.00    -0.076 A 
ATOM      2  C3  UNL d   1       0.709  -3.190  -2.721  0.00  0.00     0.004 A 
ATOM      3  C4  UNL d   1       1.084  -3.719  -1.487  0.00  0.00    -0.003 A 
ATOM      4  C5  UNL d   1       2.328  -4.321  -1.341  0.00  0.00     0.000 A 
ATOM      5  C6  UNL d   1       3.204  -4.380  -2.425  0.00  0.00     0.000 A 
ATOM      6  C7  UNL d   1       2.847  -3.837  -3.671  0.00  0.00    -0.073 A 
ATOM      7  C8  UNL d   1       3.828  -3.933  -4.808  0.00  0.00     0.078 C 
ENDROOT
BRANCH   1   8
ATOM      8  C1  UNL d   1       1.099  -2.689  -5.149  0.00  0.00     0.053 C 
ATOM      9  C   UNL d   1       0.371  -3.719  -5.998  0.00  0.00     0.018 C 
ENDBRANCH   1   8
TORSDOF 1
ENDMDL
