MODEL 1
REMARK minimizedAffinity 7.10588503
REMARK minimizedRMSD -1
REMARK  1 active torsions:
REMARK  status: ('A' for Active; 'I' for Inactive)
REMARK    1  A    between atoms: C1_2  and  C2_3 
ROOT
ATOM      1  C2  UNL d   1      -0.822   2.564   1.619  0.00  0.00    -0.076 A 
ATOM      2  C3  UNL d   1       0.488   2.479   2.121  0.00  0.00     0.004 A 
ATOM      3  C4  UNL d   1       0.760   1.794   3.304  0.00  0.00    -0.003 A 
ATOM      4  C5  UNL d   1      -0.273   1.182   4.004  0.00  0.00     0.000 A 
ATOM      5  C6  UNL d   1      -1.577   1.241   3.512  0.00  0.00     0.000 A 
ATOM      6  C7  UNL d   1      -1.866   1.914   2.312  0.00  0.00    -0.073 A 
ATOM      7  C8  UNL d   1      -3.290   1.951   1.830  0.00  0.00     0.078 C 
ENDROOT
BRANCH   1   8
ATOM      8  C1  UNL d   1      -1.061   3.343   0.346  0.00  0.00     0.053 C 
ATOM      9  C   UNL d   1       0.117   3.266  -0.614  0.00  0.00     0.018 C 
ENDBRANCH   1   8
TORSDOF 1
ENDMDL
