MODEL 1
REMARK minimizedAffinity 16.2321472
REMARK minimizedRMSD -1
REMARK  1 active torsions:
REMARK  status: ('A' for Active; 'I' for Inactive)
REMARK    1  A    between atoms: C1_2  and  C2_3 
ROOT
ATOM      1  C2  UNL d   1      -1.707   1.662  -1.645  0.00  0.00    -0.076 A 
ATOM      2  C3  UNL d   1      -1.556   1.402  -0.271  0.00  0.00     0.004 A 
ATOM      3  C4  UNL d   1      -0.494   1.945   0.449  0.00  0.00    -0.003 A 
ATOM      4  C5  UNL d   1       0.434   2.759  -0.191  0.00  0.00     0.000 A 
ATOM      5  C6  UNL d   1       0.290   3.042  -1.549  0.00  0.00     0.000 A 
ATOM      6  C7  UNL d   1      -0.784   2.515  -2.287  0.00  0.00    -0.073 A 
ATOM      7  C8  UNL d   1      -0.887   2.848  -3.750  0.00  0.00     0.078 C 
ENDROOT
BRANCH   1   8
ATOM      8  C1  UNL d   1      -2.863   1.022  -2.380  0.00  0.00     0.053 C 
ATOM      9  C   UNL d   1      -3.593  -0.009  -1.534  0.00  0.00     0.018 C 
ENDBRANCH   1   8
TORSDOF 1
ENDMDL
