MODEL 1
REMARK minimizedAffinity 8.65520668
REMARK minimizedRMSD -1
REMARK  1 active torsions:
REMARK  status: ('A' for Active; 'I' for Inactive)
REMARK    1  A    between atoms: C1_2  and  C2_3 
ROOT
ATOM      1  C2  UNL d   1       3.701  -4.634  -0.187  0.00  0.00    -0.076 A 
ATOM      2  C3  UNL d   1       3.848  -5.739  -1.044  0.00  0.00     0.004 A 
ATOM      3  C4  UNL d   1       2.920  -5.994  -2.052  0.00  0.00    -0.003 A 
ATOM      4  C5  UNL d   1       1.829  -5.148  -2.220  0.00  0.00     0.000 A 
ATOM      5  C6  UNL d   1       1.677  -4.037  -1.390  0.00  0.00     0.000 A 
ATOM      6  C7  UNL d   1       2.612  -3.757  -0.379  0.00  0.00    -0.073 A 
ATOM      7  C8  UNL d   1       2.395  -2.549   0.491  0.00  0.00     0.078 C 
ENDROOT
BRANCH   1   8
ATOM      8  C1  UNL d   1       4.724  -4.424   0.906  0.00  0.00     0.053 C 
ATOM      9  C   UNL d   1       5.474  -5.700   1.255  0.00  0.00     0.018 C 
ENDBRANCH   1   8
TORSDOF 1
ENDMDL
