MODEL 1
REMARK minimizedAffinity 8.15328217
REMARK minimizedRMSD -1
REMARK  1 active torsions:
REMARK  status: ('A' for Active; 'I' for Inactive)
REMARK    1  A    between atoms: C1_2  and  C2_3 
ROOT
ATOM      1  C2  UNL d   1      -0.686   4.002  -1.555  0.00  0.00    -0.076 A 
ATOM      2  C3  UNL d   1       0.031   2.851  -1.185  0.00  0.00     0.004 A 
ATOM      3  C4  UNL d   1       0.143   2.474   0.153  0.00  0.00    -0.003 A 
ATOM      4  C5  UNL d   1      -0.462   3.242   1.142  0.00  0.00     0.000 A 
ATOM      5  C6  UNL d   1      -1.192   4.377   0.791  0.00  0.00     0.000 A 
ATOM      6  C7  UNL d   1      -1.328   4.761  -0.554  0.00  0.00    -0.073 A 
ATOM      7  C8  UNL d   1      -2.122   5.998  -0.874  0.00  0.00     0.078 C 
ENDROOT
BRANCH   1   8
ATOM      8  C1  UNL d   1      -0.750   4.376  -3.018  0.00  0.00     0.053 C 
ATOM      9  C   UNL d   1      -1.599   3.410  -3.830  0.00  0.00     0.018 C 
ENDBRANCH   1   8
TORSDOF 1
ENDMDL
