MODEL 1
REMARK minimizedAffinity 20.2466164
REMARK minimizedRMSD -1
REMARK  1 active torsions:
REMARK  status: ('A' for Active; 'I' for Inactive)
REMARK    1  A    between atoms: C1_2  and  C2_3 
ROOT
ATOM      1  C2  UNL d   1      -4.122   4.262   0.355  0.00  0.00    -0.076 A 
ATOM      2  C3  UNL d   1      -4.055   4.044  -1.032  0.00  0.00     0.004 A 
ATOM      3  C4  UNL d   1      -4.840   4.785  -1.913  0.00  0.00    -0.003 A 
ATOM      4  C5  UNL d   1      -5.704   5.758  -1.422  0.00  0.00     0.000 A 
ATOM      5  C6  UNL d   1      -5.770   6.000  -0.050  0.00  0.00     0.000 A 
ATOM      6  C7  UNL d   1      -4.973   5.273   0.851  0.00  0.00    -0.073 A 
ATOM      7  C8  UNL d   1      -5.089   5.571   2.321  0.00  0.00     0.078 C 
ENDROOT
BRANCH   1   8
ATOM      8  C1  UNL d   1      -3.267   3.409   1.265  0.00  0.00     0.053 C 
ATOM      9  C   UNL d   1      -3.665   1.941   1.231  0.00  0.00     0.018 C 
ENDBRANCH   1   8
TORSDOF 1
ENDMDL
