MODEL 1
REMARK minimizedAffinity 5.18158054
REMARK minimizedRMSD -1
REMARK  1 active torsions:
REMARK  status: ('A' for Active; 'I' for Inactive)
REMARK    1  A    between atoms: C1_2  and  C2_3 
ROOT
ATOM      1  C2  UNL d   1      -0.161   2.288   1.755  0.00  0.00    -0.076 A 
ATOM      2  C3  UNL d   1      -1.274   2.209   2.611  0.00  0.00     0.004 A 
ATOM      3  C4  UNL d   1      -2.541   1.909   2.114  0.00  0.00    -0.003 A 
ATOM      4  C5  UNL d   1      -2.717   1.682   0.754  0.00  0.00     0.000 A 
ATOM      5  C6  UNL d   1      -1.621   1.739  -0.107  0.00  0.00     0.000 A 
ATOM      6  C7  UNL d   1      -0.334   2.024   0.379  0.00  0.00    -0.073 A 
ATOM      7  C8  UNL d   1       0.811   2.079  -0.595  0.00  0.00     0.078 C 
ENDROOT
BRANCH   1   8
ATOM      8  C1  UNL d   1       1.184   2.644   2.347  0.00  0.00     0.053 C 
ATOM      9  C   UNL d   1       1.557   4.099   2.111  0.00  0.00     0.018 C 
ENDBRANCH   1   8
TORSDOF 1
ENDMDL
