MODEL 1
REMARK minimizedAffinity 18.9573727
REMARK minimizedRMSD -1
REMARK  1 active torsions:
REMARK  status: ('A' for Active; 'I' for Inactive)
REMARK    1  A    between atoms: C1_2  and  C2_3 
ROOT
ATOM      1  C2  UNL d   1       4.502  -3.463   1.727  0.00  0.00    -0.076 A 
ATOM      2  C3  UNL d   1       3.276  -3.798   1.127  0.00  0.00     0.004 A 
ATOM      3  C4  UNL d   1       2.260  -2.853   0.994  0.00  0.00    -0.003 A 
ATOM      4  C5  UNL d   1       2.454  -1.557   1.460  0.00  0.00     0.000 A 
ATOM      5  C6  UNL d   1       3.671  -1.202   2.042  0.00  0.00     0.000 A 
ATOM      6  C7  UNL d   1       4.711  -2.139   2.169  0.00  0.00    -0.073 A 
ATOM      7  C8  UNL d   1       6.000  -1.703   2.810  0.00  0.00     0.078 C 
ENDROOT
BRANCH   1   8
ATOM      8  C1  UNL d   1       5.557  -4.537   1.868  0.00  0.00     0.053 C 
ATOM      9  C   UNL d   1       4.976  -5.869   2.316  0.00  0.00     0.018 C 
ENDBRANCH   1   8
TORSDOF 1
ENDMDL
