MODEL 1
REMARK minimizedAffinity 9.63184929
REMARK minimizedRMSD -1
REMARK  1 active torsions:
REMARK  status: ('A' for Active; 'I' for Inactive)
REMARK    1  A    between atoms: C1_2  and  C2_3 
ROOT
ATOM      1  C2  UNL d   1      -0.672   3.236  -1.623  0.00  0.00    -0.076 A 
ATOM      2  C3  UNL d   1      -1.457   2.270  -0.970  0.00  0.00     0.004 A 
ATOM      3  C4  UNL d   1      -1.006   1.644   0.191  0.00  0.00    -0.003 A 
ATOM      4  C5  UNL d   1       0.238   1.974   0.717  0.00  0.00     0.000 A 
ATOM      5  C6  UNL d   1       1.023   2.943   0.092  0.00  0.00     0.000 A 
ATOM      6  C7  UNL d   1       0.576   3.595  -1.069  0.00  0.00    -0.073 A 
ATOM      7  C8  UNL d   1       1.466   4.628  -1.705  0.00  0.00     0.078 C 
ENDROOT
BRANCH   1   8
ATOM      8  C1  UNL d   1      -1.202   3.862  -2.893  0.00  0.00     0.053 C 
ATOM      9  C   UNL d   1      -1.758   2.831  -3.863  0.00  0.00     0.018 C 
ENDBRANCH   1   8
TORSDOF 1
ENDMDL
