MODEL 1
REMARK minimizedAffinity 16.6021194
REMARK minimizedRMSD -1
REMARK  1 active torsions:
REMARK  status: ('A' for Active; 'I' for Inactive)
REMARK    1  A    between atoms: C1_2  and  C2_3 
ROOT
ATOM      1  C2  UNL d   1      -0.035   3.510  -1.329  0.00  0.00    -0.076 A 
ATOM      2  C3  UNL d   1      -0.402   4.142  -2.530  0.00  0.00     0.004 A 
ATOM      3  C4  UNL d   1      -1.381   3.595  -3.358  0.00  0.00    -0.003 A 
ATOM      4  C5  UNL d   1      -2.009   2.408  -2.999  0.00  0.00     0.000 A 
ATOM      5  C6  UNL d   1      -1.670   1.777  -1.802  0.00  0.00     0.000 A 
ATOM      6  C7  UNL d   1      -0.697   2.324  -0.948  0.00  0.00    -0.073 A 
ATOM      7  C8  UNL d   1      -0.366   1.598   0.327  0.00  0.00     0.078 C 
ENDROOT
BRANCH   1   8
ATOM      8  C1  UNL d   1       1.052   4.136  -0.485  0.00  0.00     0.053 C 
ATOM      9  C   UNL d   1       1.878   5.152  -1.258  0.00  0.00     0.018 C 
ENDBRANCH   1   8
TORSDOF 1
ENDMDL
