MODEL 1
REMARK minimizedAffinity 8.63778782
REMARK minimizedRMSD -1
REMARK  1 active torsions:
REMARK  status: ('A' for Active; 'I' for Inactive)
REMARK    1  A    between atoms: C1_2  and  C2_3 
ROOT
ATOM      1  C2  UNL d   1      -1.626   2.081  -1.606  0.00  0.00    -0.076 A 
ATOM      2  C3  UNL d   1      -1.287   1.950  -0.248  0.00  0.00     0.004 A 
ATOM      3  C4  UNL d   1      -0.187   2.621   0.284  0.00  0.00    -0.003 A 
ATOM      4  C5  UNL d   1       0.591   3.434  -0.533  0.00  0.00     0.000 A 
ATOM      5  C6  UNL d   1       0.258   3.589  -1.879  0.00  0.00     0.000 A 
ATOM      6  C7  UNL d   1      -0.857   2.932  -2.427  0.00  0.00    -0.073 A 
ATOM      7  C8  UNL d   1      -1.165   3.130  -3.886  0.00  0.00     0.078 C 
ENDROOT
BRANCH   1   8
ATOM      8  C1  UNL d   1      -2.814   1.307  -2.134  0.00  0.00     0.053 C 
ATOM      9  C   UNL d   1      -3.155   0.103  -1.270  0.00  0.00     0.018 C 
ENDBRANCH   1   8
TORSDOF 1
ENDMDL
