MODEL 1
REMARK minimizedAffinity -0.270276666
REMARK minimizedRMSD -1
REMARK  0 active torsions:
REMARK  status: ('A' for Active; 'I' for Inactive)
ROOT
ATOM      1  C   UNL d   1       2.591  -0.914   0.649  0.00  0.00     0.124 A 
ATOM      2  C1  UNL d   1       1.441  -1.608   0.999  0.00  0.00     0.062 A 
ATOM      3  C2  UNL d   1       0.222  -0.942   1.090  0.00  0.00     0.162 A 
ATOM      4  C3  UNL d   1       0.147   0.427   0.831  0.00  0.00    -0.034 A 
ATOM      5  C4  UNL d   1       1.309   1.118   0.481  0.00  0.00     0.162 A 
ATOM      6  C5  UNL d   1       2.524   0.447   0.391  0.00  0.00     0.062 A 
ATOM      7  F   UNL d   1       3.635   1.119   0.053  0.00  0.00    -0.097 F 
ATOM      8  F1  UNL d   1       1.273   2.434   0.225  0.00  0.00    -0.096 F 
ATOM      9  I   UNL d   1      -1.673   1.427   0.967  0.00  0.00    -0.060 I 
ATOM     10  F2  UNL d   1      -0.873  -1.637   1.430  0.00  0.00    -0.096 F 
ATOM     11  F3  UNL d   1       1.503  -2.924   1.250  0.00  0.00    -0.097 F 
ATOM     12  F4  UNL d   1       3.763  -1.558   0.563  0.00  0.00    -0.092 F 
ENDROOT
TORSDOF 0
ENDMDL
