MODEL 1
REMARK minimizedAffinity -5.071558
REMARK minimizedRMSD -1
REMARK  0 active torsions:
REMARK  status: ('A' for Active; 'I' for Inactive)
ROOT
ATOM      1  C   UNL d   1      -0.877   1.247  -0.755  0.00  0.00     0.124 A 
ATOM      2  C1  UNL d   1      -1.197   0.747   0.500  0.00  0.00     0.062 A 
ATOM      3  C2  UNL d   1      -0.509  -0.347   1.015  0.00  0.00     0.162 A 
ATOM      4  C3  UNL d   1       0.509  -0.950   0.275  0.00  0.00    -0.034 A 
ATOM      5  C4  UNL d   1       0.825  -0.442  -0.986  0.00  0.00     0.162 A 
ATOM      6  C5  UNL d   1       0.134   0.652  -1.496  0.00  0.00     0.062 A 
ATOM      7  F   UNL d   1       0.445   1.133  -2.709  0.00  0.00    -0.097 F 
ATOM      8  F1  UNL d   1       1.798  -0.997  -1.724  0.00  0.00    -0.096 F 
ATOM      9  I   UNL d   1       1.541  -2.587   1.041  0.00  0.00    -0.060 I 
ATOM     10  F2  UNL d   1      -0.840  -0.809   2.230  0.00  0.00    -0.096 F 
ATOM     11  F3  UNL d   1      -2.174   1.320   1.218  0.00  0.00    -0.097 F 
ATOM     12  F4  UNL d   1      -1.542   2.299  -1.248  0.00  0.00    -0.092 F 
ENDROOT
TORSDOF 0
ENDMDL
