MODEL 1
REMARK minimizedAffinity -2.44079542
REMARK minimizedRMSD -1
REMARK  0 active torsions:
REMARK  status: ('A' for Active; 'I' for Inactive)
ROOT
ATOM      1  C   UNL d   1      -1.390   1.476  -0.432  0.00  0.00     0.124 A 
ATOM      2  C1  UNL d   1      -1.376   1.037   0.885  0.00  0.00     0.062 A 
ATOM      3  C2  UNL d   1      -0.631  -0.083   1.242  0.00  0.00     0.162 A 
ATOM      4  C3  UNL d   1       0.108  -0.772   0.280  0.00  0.00    -0.034 A 
ATOM      5  C4  UNL d   1       0.089  -0.325  -1.042  0.00  0.00     0.162 A 
ATOM      6  C5  UNL d   1      -0.657   0.795  -1.394  0.00  0.00     0.062 A 
ATOM      7  F   UNL d   1      -0.669   1.218  -2.666  0.00  0.00    -0.097 F 
ATOM      8  F1  UNL d   1       0.789  -0.963  -1.992  0.00  0.00    -0.096 F 
ATOM      9  I   UNL d   1       1.224  -2.447   0.809  0.00  0.00    -0.060 I 
ATOM     10  F2  UNL d   1      -0.637  -0.485   2.521  0.00  0.00    -0.096 F 
ATOM     11  F3  UNL d   1      -2.084   1.692   1.816  0.00  0.00    -0.097 F 
ATOM     12  F4  UNL d   1      -2.109   2.553  -0.772  0.00  0.00    -0.092 F 
ENDROOT
TORSDOF 0
ENDMDL
