MODEL 1
REMARK minimizedAffinity 1.99845207
REMARK minimizedRMSD -1
REMARK  0 active torsions:
REMARK  status: ('A' for Active; 'I' for Inactive)
ROOT
ATOM      1  C   UNL d   1      -2.679   1.430  -2.448  0.00  0.00     0.124 A 
ATOM      2  C1  UNL d   1      -1.520   1.056  -3.115  0.00  0.00     0.062 A 
ATOM      3  C2  UNL d   1      -0.397   0.656  -2.396  0.00  0.00     0.162 A 
ATOM      4  C3  UNL d   1      -0.427   0.628  -1.002  0.00  0.00    -0.034 A 
ATOM      5  C4  UNL d   1      -1.595   1.007  -0.338  0.00  0.00     0.162 A 
ATOM      6  C5  UNL d   1      -2.715   1.406  -1.061  0.00  0.00     0.062 A 
ATOM      7  F   UNL d   1      -3.833   1.767  -0.415  0.00  0.00    -0.097 F 
ATOM      8  F1  UNL d   1      -1.658   0.991   1.001  0.00  0.00    -0.096 F 
ATOM      9  I   UNL d   1       1.251   0.031   0.076  0.00  0.00    -0.060 I 
ATOM     10  F2  UNL d   1       0.708   0.300  -3.067  0.00  0.00    -0.096 F 
ATOM     11  F3  UNL d   1      -1.482   1.080  -4.455  0.00  0.00    -0.097 F 
ATOM     12  F4  UNL d   1      -3.757   1.816  -3.141  0.00  0.00    -0.092 F 
ENDROOT
TORSDOF 0
ENDMDL
