MODEL 1
REMARK minimizedAffinity -4.01555157
REMARK minimizedRMSD -1
REMARK  0 active torsions:
REMARK  status: ('A' for Active; 'I' for Inactive)
ROOT
ATOM      1  C   UNL d   1      -1.084   0.471   1.665  0.00  0.00     0.124 A 
ATOM      2  C1  UNL d   1      -0.763  -0.843   1.978  0.00  0.00     0.062 A 
ATOM      3  C2  UNL d   1       0.417  -1.407   1.503  0.00  0.00     0.162 A 
ATOM      4  C3  UNL d   1       1.286  -0.658   0.710  0.00  0.00    -0.034 A 
ATOM      5  C4  UNL d   1       0.956   0.662   0.399  0.00  0.00     0.162 A 
ATOM      6  C5  UNL d   1      -0.225   1.222   0.876  0.00  0.00     0.062 A 
ATOM      7  F   UNL d   1      -0.533   2.491   0.572  0.00  0.00    -0.097 F 
ATOM      8  F1  UNL d   1       1.769   1.411  -0.361  0.00  0.00    -0.096 F 
ATOM      9  I   UNL d   1       3.052  -1.498  -0.002  0.00  0.00    -0.060 I 
ATOM     10  F2  UNL d   1       0.701  -2.679   1.821  0.00  0.00    -0.096 F 
ATOM     11  F3  UNL d   1      -1.593  -1.571   2.739  0.00  0.00    -0.097 F 
ATOM     12  F4  UNL d   1      -2.221   1.011   2.122  0.00  0.00    -0.092 F 
ENDROOT
TORSDOF 0
ENDMDL
