MODEL 1
REMARK minimizedAffinity -1.98559034
REMARK minimizedRMSD -1
REMARK  0 active torsions:
REMARK  status: ('A' for Active; 'I' for Inactive)
ROOT
ATOM      1  C   UNL d   1      -1.211   1.628  -0.408  0.00  0.00     0.124 A 
ATOM      2  C1  UNL d   1      -0.402   0.961  -1.317  0.00  0.00     0.062 A 
ATOM      3  C2  UNL d   1       0.331  -0.152  -0.917  0.00  0.00     0.162 A 
ATOM      4  C3  UNL d   1       0.257  -0.606   0.400  0.00  0.00    -0.034 A 
ATOM      5  C4  UNL d   1      -0.558   0.071   1.309  0.00  0.00     0.162 A 
ATOM      6  C5  UNL d   1      -1.289   1.183   0.904  0.00  0.00     0.062 A 
ATOM      7  F   UNL d   1      -2.070   1.826   1.783  0.00  0.00    -0.097 F 
ATOM      8  F1  UNL d   1      -0.652  -0.339   2.583  0.00  0.00    -0.096 F 
ATOM      9  I   UNL d   1       1.351  -2.271   1.004  0.00  0.00    -0.060 I 
ATOM     10  F2  UNL d   1       1.104  -0.778  -1.816  0.00  0.00    -0.096 F 
ATOM     11  F3  UNL d   1      -0.325   1.390  -2.585  0.00  0.00    -0.097 F 
ATOM     12  F4  UNL d   1      -1.915   2.700  -0.797  0.00  0.00    -0.092 F 
ENDROOT
TORSDOF 0
ENDMDL
