MODEL 1
REMARK minimizedAffinity 1.74528193
REMARK minimizedRMSD -1
REMARK  0 active torsions:
REMARK  status: ('A' for Active; 'I' for Inactive)
ROOT
ATOM      1  C   UNL d   1       3.202  -0.901   0.683  0.00  0.00     0.124 A 
ATOM      2  C1  UNL d   1       2.050  -0.679   1.425  0.00  0.00     0.062 A 
ATOM      3  C2  UNL d   1       0.841  -0.432   0.783  0.00  0.00     0.162 A 
ATOM      4  C3  UNL d   1       0.776  -0.405  -0.610  0.00  0.00    -0.034 A 
ATOM      5  C4  UNL d   1       1.939  -0.629  -1.350  0.00  0.00     0.162 A 
ATOM      6  C5  UNL d   1       3.145  -0.876  -0.703  0.00  0.00     0.062 A 
ATOM      7  F   UNL d   1       4.257  -1.090  -1.422  0.00  0.00    -0.097 F 
ATOM      8  F1  UNL d   1       1.912  -0.611  -2.691  0.00  0.00    -0.096 F 
ATOM      9  I   UNL d   1      -1.031  -0.035  -1.574  0.00  0.00    -0.060 I 
ATOM     10  F2  UNL d   1      -0.257  -0.220   1.525  0.00  0.00    -0.096 F 
ATOM     11  F3  UNL d   1       2.103  -0.702   2.765  0.00  0.00    -0.097 F 
ATOM     12  F4  UNL d   1       4.365  -1.139   1.304  0.00  0.00    -0.092 F 
ENDROOT
TORSDOF 0
ENDMDL
