MODEL 1
REMARK minimizedAffinity -0.55080229
REMARK minimizedRMSD -1
REMARK  0 active torsions:
REMARK  status: ('A' for Active; 'I' for Inactive)
ROOT
ATOM      1  C   UNL d   1       0.233   1.648   0.129  0.00  0.00     0.124 A 
ATOM      2  C1  UNL d   1      -0.715   0.695   0.474  0.00  0.00     0.062 A 
ATOM      3  C2  UNL d   1      -0.336  -0.629   0.678  0.00  0.00     0.162 A 
ATOM      4  C3  UNL d   1       0.999  -1.008   0.538  0.00  0.00    -0.034 A 
ATOM      5  C4  UNL d   1       1.947  -0.044   0.190  0.00  0.00     0.162 A 
ATOM      6  C5  UNL d   1       1.563   1.277  -0.013  0.00  0.00     0.062 A 
ATOM      7  F   UNL d   1       2.481   2.196  -0.347  0.00  0.00    -0.097 F 
ATOM      8  F1  UNL d   1       3.240  -0.374   0.047  0.00  0.00    -0.096 F 
ATOM      9  I   UNL d   1       1.571  -2.986   0.843  0.00  0.00    -0.060 I 
ATOM     10  F2  UNL d   1      -1.274  -1.528   1.011  0.00  0.00    -0.096 F 
ATOM     11  F3  UNL d   1      -2.001   1.050   0.610  0.00  0.00    -0.097 F 
ATOM     12  F4  UNL d   1      -0.134   2.920  -0.068  0.00  0.00    -0.092 F 
ENDROOT
TORSDOF 0
ENDMDL
