MODEL 1
REMARK minimizedAffinity 0.120869085
REMARK minimizedRMSD -1
REMARK  0 active torsions:
REMARK  status: ('A' for Active; 'I' for Inactive)
ROOT
ATOM      1  C   UNL d   1       2.263  -1.285   0.437  0.00  0.00     0.124 A 
ATOM      2  C1  UNL d   1       0.999  -1.712   0.820  0.00  0.00     0.062 A 
ATOM      3  C2  UNL d   1      -0.136  -1.116   0.278  0.00  0.00     0.162 A 
ATOM      4  C3  UNL d   1      -0.012  -0.086  -0.655  0.00  0.00    -0.034 A 
ATOM      5  C4  UNL d   1       1.263   0.338  -1.035  0.00  0.00     0.162 A 
ATOM      6  C5  UNL d   1       2.393  -0.261  -0.490  0.00  0.00     0.062 A 
ATOM      7  F   UNL d   1       3.614   0.153  -0.861  0.00  0.00    -0.097 F 
ATOM      8  F1  UNL d   1       1.418   1.326  -1.929  0.00  0.00    -0.096 F 
ATOM      9  I   UNL d   1      -1.706   0.809  -1.468  0.00  0.00    -0.060 I 
ATOM     10  F2  UNL d   1      -1.345  -1.548   0.667  0.00  0.00    -0.096 F 
ATOM     11  F3  UNL d   1       0.869  -2.701   1.717  0.00  0.00    -0.097 F 
ATOM     12  F4  UNL d   1       3.352  -1.860   0.961  0.00  0.00    -0.092 F 
ENDROOT
TORSDOF 0
ENDMDL
