MODEL 1
REMARK minimizedAffinity 3.34586072
REMARK minimizedRMSD -1
REMARK  0 active torsions:
REMARK  status: ('A' for Active; 'I' for Inactive)
ROOT
ATOM      1  C   UNL d   1      -1.401   0.637   1.158  0.00  0.00     0.124 A 
ATOM      2  C1  UNL d   1      -0.703  -0.254   1.962  0.00  0.00     0.062 A 
ATOM      3  C2  UNL d   1       0.514  -0.777   1.535  0.00  0.00     0.162 A 
ATOM      4  C3  UNL d   1       1.043  -0.408   0.298  0.00  0.00    -0.034 A 
ATOM      5  C4  UNL d   1       0.336   0.488  -0.505  0.00  0.00     0.162 A 
ATOM      6  C5  UNL d   1      -0.881   1.008  -0.074  0.00  0.00     0.062 A 
ATOM      7  F   UNL d   1      -1.553   1.869  -0.851  0.00  0.00    -0.097 F 
ATOM      8  F1  UNL d   1       0.815   0.864  -1.700  0.00  0.00    -0.096 F 
ATOM      9  I   UNL d   1       2.863  -1.187  -0.344  0.00  0.00    -0.060 I 
ATOM     10  F2  UNL d   1       1.166  -1.636   2.332  0.00  0.00    -0.096 F 
ATOM     11  F3  UNL d   1      -1.204  -0.615   3.152  0.00  0.00    -0.097 F 
ATOM     12  F4  UNL d   1      -2.572   1.137   1.571  0.00  0.00    -0.092 F 
ENDROOT
TORSDOF 0
ENDMDL
