MODEL 1
REMARK minimizedAffinity 0.395973057
REMARK minimizedRMSD -1
REMARK  0 active torsions:
REMARK  status: ('A' for Active; 'I' for Inactive)
ROOT
ATOM      1  C   UNL d   1       1.993  -0.993   0.915  0.00  0.00     0.124 A 
ATOM      2  C1  UNL d   1       0.955  -1.758   0.400  0.00  0.00     0.062 A 
ATOM      3  C2  UNL d   1      -0.118  -1.142  -0.238  0.00  0.00     0.162 A 
ATOM      4  C3  UNL d   1      -0.159   0.246  -0.366  0.00  0.00    -0.034 A 
ATOM      5  C4  UNL d   1       0.888   1.009   0.156  0.00  0.00     0.162 A 
ATOM      6  C5  UNL d   1       1.958   0.389   0.793  0.00  0.00     0.062 A 
ATOM      7  F   UNL d   1       2.960   1.129   1.290  0.00  0.00    -0.097 F 
ATOM      8  F1  UNL d   1       0.881   2.346   0.050  0.00  0.00    -0.096 F 
ATOM      9  I   UNL d   1      -1.761   1.170  -1.320  0.00  0.00    -0.060 I 
ATOM     10  F2  UNL d   1      -1.106  -1.906  -0.727  0.00  0.00    -0.096 F 
ATOM     11  F3  UNL d   1       0.986  -3.093   0.518  0.00  0.00    -0.097 F 
ATOM     12  F4  UNL d   1       3.023  -1.588   1.530  0.00  0.00    -0.092 F 
ENDROOT
TORSDOF 0
ENDMDL
