MODEL 1
REMARK minimizedAffinity -4.23821878
REMARK minimizedRMSD -1
REMARK  0 active torsions:
REMARK  status: ('A' for Active; 'I' for Inactive)
ROOT
ATOM      1  C   UNL d   1       1.371  -1.587   1.598  0.00  0.00     0.124 A 
ATOM      2  C1  UNL d   1       0.120  -1.213   2.069  0.00  0.00     0.062 A 
ATOM      3  C2  UNL d   1      -0.605  -0.220   1.418  0.00  0.00     0.162 A 
ATOM      4  C3  UNL d   1      -0.081   0.407   0.287  0.00  0.00    -0.034 A 
ATOM      5  C4  UNL d   1       1.178   0.025  -0.181  0.00  0.00     0.162 A 
ATOM      6  C5  UNL d   1       1.899  -0.968   0.474  0.00  0.00     0.062 A 
ATOM      7  F   UNL d   1       3.107  -1.328   0.018  0.00  0.00    -0.097 F 
ATOM      8  F1  UNL d   1       1.712   0.607  -1.265  0.00  0.00    -0.096 F 
ATOM      9  I   UNL d   1      -1.162   1.893  -0.691  0.00  0.00    -0.060 I 
ATOM     10  F2  UNL d   1      -1.811   0.122   1.895  0.00  0.00    -0.096 F 
ATOM     11  F3  UNL d   1      -0.391  -1.809   3.156  0.00  0.00    -0.097 F 
ATOM     12  F4  UNL d   1       2.067  -2.543   2.228  0.00  0.00    -0.092 F 
ENDROOT
TORSDOF 0
ENDMDL
