MODEL 1
REMARK minimizedAffinity -6.47693825
REMARK minimizedRMSD -1
REMARK  0 active torsions:
REMARK  status: ('A' for Active; 'I' for Inactive)
ROOT
ATOM      1  C   UNL d   1       2.071  -2.048   1.206  0.00  0.00     0.124 A 
ATOM      2  C1  UNL d   1       0.766  -1.952   1.668  0.00  0.00     0.062 A 
ATOM      3  C2  UNL d   1      -0.031  -0.873   1.296  0.00  0.00     0.162 A 
ATOM      4  C3  UNL d   1       0.475   0.119   0.456  0.00  0.00    -0.034 A 
ATOM      5  C4  UNL d   1       1.789   0.015  -0.004  0.00  0.00     0.162 A 
ATOM      6  C5  UNL d   1       2.581  -1.065   0.370  0.00  0.00     0.062 A 
ATOM      7  F   UNL d   1       3.842  -1.156  -0.077  0.00  0.00    -0.097 F 
ATOM      8  F1  UNL d   1       2.307   0.951  -0.814  0.00  0.00    -0.096 F 
ATOM      9  I   UNL d   1      -0.713   1.734  -0.103  0.00  0.00    -0.060 I 
ATOM     10  F2  UNL d   1      -1.288  -0.806   1.758  0.00  0.00    -0.096 F 
ATOM     11  F3  UNL d   1       0.271  -2.900   2.477  0.00  0.00    -0.097 F 
ATOM     12  F4  UNL d   1       2.835  -3.087   1.566  0.00  0.00    -0.092 F 
ENDROOT
TORSDOF 0
ENDMDL
