MODEL 1
REMARK minimizedAffinity -3.90842628
REMARK minimizedRMSD -1
REMARK  0 active torsions:
REMARK  status: ('A' for Active; 'I' for Inactive)
ROOT
ATOM      1  C   UNL d   1       0.148   0.969  -0.615  0.00  0.00     0.124 A 
ATOM      2  C1  UNL d   1       1.450   0.495  -0.700  0.00  0.00     0.062 A 
ATOM      3  C2  UNL d   1       1.801  -0.701  -0.080  0.00  0.00     0.162 A 
ATOM      4  C3  UNL d   1       0.849  -1.432   0.630  0.00  0.00    -0.034 A 
ATOM      5  C4  UNL d   1      -0.458  -0.948   0.712  0.00  0.00     0.162 A 
ATOM      6  C5  UNL d   1      -0.804   0.247   0.090  0.00  0.00     0.062 A 
ATOM      7  F   UNL d   1      -2.062   0.704   0.173  0.00  0.00    -0.097 F 
ATOM      8  F1  UNL d   1      -1.399  -1.626   1.386  0.00  0.00    -0.096 F 
ATOM      9  I   UNL d   1       1.370  -3.220   1.559  0.00  0.00    -0.060 I 
ATOM     10  F2  UNL d   1       3.067  -1.135  -0.178  0.00  0.00    -0.096 F 
ATOM     11  F3  UNL d   1       2.372   1.191  -1.380  0.00  0.00    -0.097 F 
ATOM     12  F4  UNL d   1      -0.187   2.120  -1.212  0.00  0.00    -0.092 F 
ENDROOT
TORSDOF 0
ENDMDL
