MODEL 1
REMARK minimizedAffinity -2.55460095
REMARK minimizedRMSD -1
REMARK  0 active torsions:
REMARK  status: ('A' for Active; 'I' for Inactive)
ROOT
ATOM      1  C   UNL d   1      -1.214   1.347  -0.334  0.00  0.00     0.124 A 
ATOM      2  C1  UNL d   1      -1.389   0.734   0.898  0.00  0.00     0.062 A 
ATOM      3  C2  UNL d   1      -0.605  -0.360   1.254  0.00  0.00     0.162 A 
ATOM      4  C3  UNL d   1       0.364  -0.846   0.376  0.00  0.00    -0.034 A 
ATOM      5  C4  UNL d   1       0.534  -0.225  -0.863  0.00  0.00     0.162 A 
ATOM      6  C5  UNL d   1      -0.253   0.868  -1.213  0.00  0.00     0.062 A 
ATOM      7  F   UNL d   1      -0.082   1.459  -2.405  0.00  0.00    -0.097 F 
ATOM      8  F1  UNL d   1       1.455  -0.667  -1.731  0.00  0.00    -0.096 F 
ATOM      9  I   UNL d   1       1.539  -2.481   0.904  0.00  0.00    -0.060 I 
ATOM     10  F2  UNL d   1      -0.796  -0.933   2.452  0.00  0.00    -0.096 F 
ATOM     11  F3  UNL d   1      -2.317   1.195   1.749  0.00  0.00    -0.097 F 
ATOM     12  F4  UNL d   1      -1.971   2.399  -0.674  0.00  0.00    -0.092 F 
ENDROOT
TORSDOF 0
ENDMDL
