MODEL 1
REMARK minimizedAffinity -4.4008193
REMARK minimizedRMSD -1
REMARK  1 active torsions:
REMARK  status: ('A' for Active; 'I' for Inactive)
REMARK    1  A    between atoms: C3_4  and  O_7 
ROOT
ATOM      1  C   UNL d   1      -6.000   1.900   0.006  0.00  0.00    -0.033 A 
ATOM      2  C1  UNL d   1      -5.963   3.083   0.745  0.00  0.00     0.039 A 
ATOM      3  C2  UNL d   1      -4.762   3.520   1.308  0.00  0.00    -0.080 A 
ATOM      4  C3  UNL d   1      -3.607   2.766   1.123  0.00  0.00     0.150 A 
ATOM      5  C4  UNL d   1      -3.635   1.588   0.384  0.00  0.00    -0.007 A 
ATOM      6  C5  UNL d   1      -4.835   1.153  -0.176  0.00  0.00     0.039 A 
ENDROOT
BRANCH   4   7
ATOM      7  O   UNL d   1      -2.412   3.149   1.657  0.00  0.00    -0.526 OA
ATOM      8  H5  UNL d   1      -2.551   3.966   2.166  0.00  0.00     0.418 HD
ENDBRANCH   4   7
TORSDOF 1
ENDMDL
