MODEL 1
REMARK minimizedAffinity 3.31504297
REMARK minimizedRMSD -1
REMARK  1 active torsions:
REMARK  status: ('A' for Active; 'I' for Inactive)
REMARK    1  A    between atoms: C3_4  and  O_7 
ROOT
ATOM      1  C   UNL d   1       2.077  -5.996  -0.528  0.00  0.00    -0.033 A 
ATOM      2  C1  UNL d   1       0.865  -5.995  -1.220  0.00  0.00     0.039 A 
ATOM      3  C2  UNL d   1       0.855  -5.993  -2.616  0.00  0.00    -0.080 A 
ATOM      4  C3  UNL d   1       2.064  -5.993  -3.307  0.00  0.00     0.150 A 
ATOM      5  C4  UNL d   1       3.276  -5.998  -2.625  0.00  0.00    -0.007 A 
ATOM      6  C5  UNL d   1       3.283  -5.999  -1.230  0.00  0.00     0.039 A 
ENDROOT
BRANCH   4   7
ATOM      7  O   UNL d   1       2.105  -5.985  -4.670  0.00  0.00    -0.526 OA
ATOM      8  H5  UNL d   1       1.194  -5.953  -5.005  0.00  0.00     0.418 HD
ENDBRANCH   4   7
TORSDOF 1
ENDMDL
