MODEL 1
REMARK minimizedAffinity 1.06081784
REMARK minimizedRMSD -1
REMARK  1 active torsions:
REMARK  status: ('A' for Active; 'I' for Inactive)
REMARK    1  A    between atoms: C3_4  and  O_7 
ROOT
ATOM      1  C   UNL d   1       4.806  -5.817  -1.828  0.00  0.00    -0.033 A 
ATOM      2  C1  UNL d   1       5.386  -5.898  -3.095  0.00  0.00     0.039 A 
ATOM      3  C2  UNL d   1       4.578  -5.959  -4.232  0.00  0.00    -0.080 A 
ATOM      4  C3  UNL d   1       3.193  -5.937  -4.089  0.00  0.00     0.150 A 
ATOM      5  C4  UNL d   1       2.609  -5.853  -2.829  0.00  0.00    -0.007 A 
ATOM      6  C5  UNL d   1       3.417  -5.793  -1.695  0.00  0.00     0.039 A 
ENDROOT
BRANCH   4   7
ATOM      7  O   UNL d   1       2.364  -6.000  -5.169  0.00  0.00    -0.526 OA
ATOM      8  H5  UNL d   1       2.907  -6.084  -5.970  0.00  0.00     0.418 HD
ENDBRANCH   4   7
TORSDOF 1
ENDMDL
