MODEL 1
REMARK minimizedAffinity 3.42384839
REMARK minimizedRMSD -1
REMARK  1 active torsions:
REMARK  status: ('A' for Active; 'I' for Inactive)
REMARK    1  A    between atoms: C3_4  and  O_7 
ROOT
ATOM      1  C   UNL d   1       2.270  -3.296   2.969  0.00  0.00    -0.033 A 
ATOM      2  C1  UNL d   1       2.052  -1.926   3.128  0.00  0.00     0.039 A 
ATOM      3  C2  UNL d   1       1.149  -1.260   2.296  0.00  0.00    -0.080 A 
ATOM      4  C3  UNL d   1       0.472  -1.975   1.312  0.00  0.00     0.150 A 
ATOM      5  C4  UNL d   1       0.681  -3.340   1.151  0.00  0.00    -0.007 A 
ATOM      6  C5  UNL d   1       1.584  -4.003   1.982  0.00  0.00     0.039 A 
ENDROOT
BRANCH   4   7
ATOM      7  O   UNL d   1      -0.415  -1.367   0.474  0.00  0.00    -0.526 OA
ATOM      8  H5  UNL d   1      -0.437  -0.419   0.683  0.00  0.00     0.418 HD
ENDBRANCH   4   7
TORSDOF 1
ENDMDL
