MODEL 1
REMARK minimizedAffinity 3.38073945
REMARK minimizedRMSD -1
REMARK  1 active torsions:
REMARK  status: ('A' for Active; 'I' for Inactive)
REMARK    1  A    between atoms: C3_4  and  O_7 
ROOT
ATOM      1  C   UNL d   1       1.698  -1.757   3.323  0.00  0.00    -0.033 A 
ATOM      2  C1  UNL d   1       2.700  -1.928   4.280  0.00  0.00     0.039 A 
ATOM      3  C2  UNL d   1       2.947  -3.194   4.815  0.00  0.00    -0.080 A 
ATOM      4  C3  UNL d   1       2.188  -4.278   4.385  0.00  0.00     0.150 A 
ATOM      5  C4  UNL d   1       1.191  -4.115   3.429  0.00  0.00    -0.007 A 
ATOM      6  C5  UNL d   1       0.944  -2.851   2.896  0.00  0.00     0.039 A 
ENDROOT
BRANCH   4   7
ATOM      7  O   UNL d   1       2.390  -5.532   4.881  0.00  0.00    -0.526 OA
ATOM      8  H5  UNL d   1       3.090  -5.487   5.554  0.00  0.00     0.418 HD
ENDBRANCH   4   7
TORSDOF 1
ENDMDL
