MODEL 1
REMARK minimizedAffinity 1.89246523
REMARK minimizedRMSD -1
REMARK  1 active torsions:
REMARK  status: ('A' for Active; 'I' for Inactive)
REMARK    1  A    between atoms: C3_4  and  O_7 
ROOT
ATOM      1  C   UNL d   1       1.708  -3.629   3.574  0.00  0.00    -0.033 A 
ATOM      2  C1  UNL d   1       2.265  -2.458   3.055  0.00  0.00     0.039 A 
ATOM      3  C2  UNL d   1       3.545  -2.060   3.445  0.00  0.00    -0.080 A 
ATOM      4  C3  UNL d   1       4.257  -2.840   4.352  0.00  0.00     0.150 A 
ATOM      5  C4  UNL d   1       3.710  -4.009   4.870  0.00  0.00    -0.007 A 
ATOM      6  C5  UNL d   1       2.431  -4.406   4.480  0.00  0.00     0.039 A 
ENDROOT
BRANCH   4   7
ATOM      7  O   UNL d   1       5.507  -2.489   4.766  0.00  0.00    -0.526 OA
ATOM      8  H5  UNL d   1       5.744  -1.644   4.348  0.00  0.00     0.418 HD
ENDBRANCH   4   7
TORSDOF 1
ENDMDL
