MODEL 1
REMARK minimizedAffinity 4.76982975
REMARK minimizedRMSD -1
REMARK  1 active torsions:
REMARK  status: ('A' for Active; 'I' for Inactive)
REMARK    1  A    between atoms: C3_4  and  O_7 
ROOT
ATOM      1  C   UNL d   1       3.297  -1.083  -2.826  0.00  0.00    -0.033 A 
ATOM      2  C1  UNL d   1       4.518  -1.736  -3.002  0.00  0.00     0.039 A 
ATOM      3  C2  UNL d   1       5.441  -1.255  -3.932  0.00  0.00    -0.080 A 
ATOM      4  C3  UNL d   1       5.133  -0.120  -4.678  0.00  0.00     0.150 A 
ATOM      5  C4  UNL d   1       3.920   0.538  -4.504  0.00  0.00    -0.007 A 
ATOM      6  C5  UNL d   1       2.998   0.055  -3.575  0.00  0.00     0.039 A 
ENDROOT
BRANCH   4   7
ATOM      7  O   UNL d   1       6.000   0.384  -5.601  0.00  0.00    -0.526 OA
ATOM      8  H5  UNL d   1       6.783  -0.190  -5.633  0.00  0.00     0.418 HD
ENDBRANCH   4   7
TORSDOF 1
ENDMDL
