MODEL 1
REMARK minimizedAffinity 9.52659035
REMARK minimizedRMSD -1
REMARK  1 active torsions:
REMARK  status: ('A' for Active; 'I' for Inactive)
REMARK    1  A    between atoms: C1_2  and  C2_3 
ROOT
ATOM      1  C2  UNL d   1       1.254  -2.830   1.664  0.00  0.00    -0.081 A 
ATOM      2  C3  UNL d   1      -0.026  -3.256   2.041  0.00  0.00     0.006 A 
ATOM      3  C4  UNL d   1      -0.877  -2.401   2.746  0.00  0.00     0.002 A 
ATOM      4  C5  UNL d   1      -0.467  -1.106   3.078  0.00  0.00    -0.080 A 
ATOM      5  C6  UNL d   1      -1.382  -0.168   3.807  0.00  0.00     0.076 C 
ATOM      6  C7  UNL d   1       0.818  -0.686   2.716  0.00  0.00     0.002 A 
ATOM      7  C8  UNL d   1       1.670  -1.540   2.012  0.00  0.00     0.006 A 
ENDROOT
BRANCH   1   8
ATOM      8  C1  UNL d   1       2.150  -3.726   0.848  0.00  0.00     0.054 C 
ATOM      9  C   UNL d   1       1.908  -5.194   1.171  0.00  0.00     0.018 C 
ENDBRANCH   1   8
TORSDOF 1
ENDMDL
