MODEL 1
REMARK minimizedAffinity 12.7641211
REMARK minimizedRMSD -1
REMARK  1 active torsions:
REMARK  status: ('A' for Active; 'I' for Inactive)
REMARK    1  A    between atoms: C1_2  and  C2_3 
ROOT
ATOM      1  C2  UNL d   1      -0.009   4.189   3.363  0.00  0.00    -0.081 A 
ATOM      2  C3  UNL d   1       0.297   5.375   4.041  0.00  0.00     0.006 A 
ATOM      3  C4  UNL d   1      -0.643   5.971   4.886  0.00  0.00     0.002 A 
ATOM      4  C5  UNL d   1      -1.901   5.387   5.072  0.00  0.00    -0.080 A 
ATOM      5  C6  UNL d   1      -2.908   6.000   5.999  0.00  0.00     0.076 C 
ATOM      6  C7  UNL d   1      -2.213   4.212   4.381  0.00  0.00     0.002 A 
ATOM      7  C8  UNL d   1      -1.274   3.616   3.536  0.00  0.00     0.006 A 
ENDROOT
BRANCH   1   8
ATOM      8  C1  UNL d   1       1.025   3.510   2.502  0.00  0.00     0.054 C 
ATOM      9  C   UNL d   1       2.264   3.147   3.308  0.00  0.00     0.018 C 
ENDBRANCH   1   8
TORSDOF 1
ENDMDL
