MODEL 1
REMARK minimizedAffinity -0.206565008
REMARK minimizedRMSD -1
REMARK  1 active torsions:
REMARK  status: ('A' for Active; 'I' for Inactive)
REMARK    1  A    between atoms: C1_2  and  C2_3 
ROOT
ATOM      1  C2  UNL d   1       0.850  -2.476   0.892  0.00  0.00    -0.081 A 
ATOM      2  C3  UNL d   1       0.661  -3.542   0.004  0.00  0.00     0.006 A 
ATOM      3  C4  UNL d   1       1.754  -4.278  -0.461  0.00  0.00     0.002 A 
ATOM      4  C5  UNL d   1       3.051  -3.966  -0.040  0.00  0.00    -0.080 A 
ATOM      5  C6  UNL d   1       4.229  -4.768  -0.508  0.00  0.00     0.076 C 
ATOM      6  C7  UNL d   1       3.241  -2.890   0.834  0.00  0.00     0.002 A 
ATOM      7  C8  UNL d   1       2.150  -2.153   1.298  0.00  0.00     0.006 A 
ENDROOT
BRANCH   1   8
ATOM      8  C1  UNL d   1      -0.331  -1.721   1.446  0.00  0.00     0.054 C 
ATOM      9  C   UNL d   1       0.029  -0.996   2.734  0.00  0.00     0.018 C 
ENDBRANCH   1   8
TORSDOF 1
ENDMDL
