MODEL 1
REMARK minimizedAffinity 7.64591312
REMARK minimizedRMSD -1
REMARK  1 active torsions:
REMARK  status: ('A' for Active; 'I' for Inactive)
REMARK    1  A    between atoms: C1_2  and  C2_3 
ROOT
ATOM      1  C2  UNL d   1       0.054  -1.397   2.566  0.00  0.00    -0.081 A 
ATOM      2  C3  UNL d   1       1.073  -0.665   3.187  0.00  0.00     0.006 A 
ATOM      3  C4  UNL d   1       2.353  -0.619   2.629  0.00  0.00     0.002 A 
ATOM      4  C5  UNL d   1       2.633  -1.298   1.438  0.00  0.00    -0.080 A 
ATOM      5  C6  UNL d   1       3.995  -1.232   0.813  0.00  0.00     0.076 C 
ATOM      6  C7  UNL d   1       1.619  -2.044   0.827  0.00  0.00     0.002 A 
ATOM      7  C8  UNL d   1       0.340  -2.090   1.384  0.00  0.00     0.006 A 
ENDROOT
BRANCH   1   8
ATOM      8  C1  UNL d   1      -1.344  -1.396   3.129  0.00  0.00     0.054 C 
ATOM      9  C   UNL d   1      -1.884  -2.812   3.276  0.00  0.00     0.018 C 
ENDBRANCH   1   8
TORSDOF 1
ENDMDL
