MODEL 1
REMARK minimizedAffinity 10.960331
REMARK minimizedRMSD -1
REMARK  1 active torsions:
REMARK  status: ('A' for Active; 'I' for Inactive)
REMARK    1  A    between atoms: C1_2  and  C2_3 
ROOT
ATOM      1  C2  UNL d   1       2.163  -2.675   0.386  0.00  0.00    -0.081 A 
ATOM      2  C3  UNL d   1       2.700  -2.185   1.582  0.00  0.00     0.006 A 
ATOM      3  C4  UNL d   1       1.917  -1.417   2.447  0.00  0.00     0.002 A 
ATOM      4  C5  UNL d   1       0.583  -1.133   2.135  0.00  0.00    -0.080 A 
ATOM      5  C6  UNL d   1      -0.277  -0.336   3.069  0.00  0.00     0.076 C 
ATOM      6  C7  UNL d   1       0.052  -1.609   0.931  0.00  0.00     0.002 A 
ATOM      7  C8  UNL d   1       0.834  -2.376   0.065  0.00  0.00     0.006 A 
ENDROOT
BRANCH   1   8
ATOM      8  C1  UNL d   1       2.985  -3.558  -0.518  0.00  0.00     0.054 C 
ATOM      9  C   UNL d   1       2.506  -5.002  -0.467  0.00  0.00     0.018 C 
ENDBRANCH   1   8
TORSDOF 1
ENDMDL
