MODEL 1
REMARK minimizedAffinity 11.7436514
REMARK minimizedRMSD -1
REMARK  2 active torsions:
REMARK  status: ('A' for Active; 'I' for Inactive)
REMARK    1  A    between atoms: C1_2  and  C2_3 
REMARK    2  A    between atoms: C2_3  and  C3_4 
ROOT
ATOM      1  C3  UNL d   1       1.090  -0.467   0.920  0.00  0.00    -0.075 A 
ATOM      2  C4  UNL d   1       0.736  -0.637  -0.426  0.00  0.00     0.002 A 
ATOM      3  C5  UNL d   1      -0.393  -0.003  -0.947  0.00  0.00     0.002 A 
ATOM      4  C6  UNL d   1      -1.185   0.799  -0.129  0.00  0.00    -0.004 A 
ATOM      5  C7  UNL d   1      -0.852   0.962   1.214  0.00  0.00     0.002 A 
ATOM      6  C8  UNL d   1       0.279   0.332   1.737  0.00  0.00     0.002 A 
ENDROOT
BRANCH   1   7
ATOM      7  C2  UNL d   1       2.326  -1.127   1.483  0.00  0.00     0.056 C 
BRANCH   7   8
ATOM      8  C1  UNL d   1       2.911  -0.415   2.708  0.00  0.00     0.007 C 
ATOM      9  C   UNL d   1       4.323  -0.871   3.050  0.00  0.00     0.009 C 
ENDBRANCH   7   8
ENDBRANCH   1   7
TORSDOF 2
ENDMDL
