MODEL 1
REMARK minimizedAffinity 9.5403204
REMARK minimizedRMSD -1
REMARK  2 active torsions:
REMARK  status: ('A' for Active; 'I' for Inactive)
REMARK    1  A    between atoms: C1_2  and  C2_3 
REMARK    2  A    between atoms: C2_3  and  C3_4 
ROOT
ATOM      1  C3  UNL d   1       0.531   2.560   1.649  0.00  0.00    -0.075 A 
ATOM      2  C4  UNL d   1       1.367   2.259   2.734  0.00  0.00     0.002 A 
ATOM      3  C5  UNL d   1       2.215   3.230   3.265  0.00  0.00     0.002 A 
ATOM      4  C6  UNL d   1       2.247   4.509   2.714  0.00  0.00    -0.004 A 
ATOM      5  C7  UNL d   1       1.433   4.815   1.625  0.00  0.00     0.002 A 
ATOM      6  C8  UNL d   1       0.579   3.846   1.094  0.00  0.00     0.002 A 
ENDROOT
BRANCH   1   7
ATOM      7  C2  UNL d   1      -0.411   1.522   1.088  0.00  0.00     0.056 C 
BRANCH   7   8
ATOM      8  C1  UNL d   1       0.133   0.785  -0.141  0.00  0.00     0.007 C 
ATOM      9  C   UNL d   1       0.690  -0.594   0.184  0.00  0.00     0.009 C 
ENDBRANCH   7   8
ENDBRANCH   1   7
TORSDOF 2
ENDMDL
