MODEL 1
REMARK minimizedAffinity 6.69767141
REMARK minimizedRMSD -1
REMARK  2 active torsions:
REMARK  status: ('A' for Active; 'I' for Inactive)
REMARK    1  A    between atoms: C1_2  and  C2_3 
REMARK    2  A    between atoms: C2_3  and  C3_4 
ROOT
ATOM      1  C3  UNL d   1       0.668   2.318   2.264  0.00  0.00    -0.075 A 
ATOM      2  C4  UNL d   1       0.680   3.601   1.697  0.00  0.00     0.002 A 
ATOM      3  C5  UNL d   1       1.587   4.563   2.140  0.00  0.00     0.002 A 
ATOM      4  C6  UNL d   1       2.486   4.260   3.160  0.00  0.00    -0.004 A 
ATOM      5  C7  UNL d   1       2.472   2.994   3.742  0.00  0.00     0.002 A 
ATOM      6  C8  UNL d   1       1.568   2.028   3.298  0.00  0.00     0.002 A 
ENDROOT
BRANCH   1   7
ATOM      7  C2  UNL d   1      -0.292   1.263   1.768  0.00  0.00     0.056 C 
BRANCH   7   8
ATOM      8  C1  UNL d   1       0.392   0.028   1.172  0.00  0.00     0.007 C 
ATOM      9  C   UNL d   1       0.289  -0.041  -0.346  0.00  0.00     0.009 C 
ENDBRANCH   7   8
ENDBRANCH   1   7
TORSDOF 2
ENDMDL
