MODEL 1
REMARK minimizedAffinity 17.5347881
REMARK minimizedRMSD -1
REMARK  2 active torsions:
REMARK  status: ('A' for Active; 'I' for Inactive)
REMARK    1  A    between atoms: C1_2  and  C2_3 
REMARK    2  A    between atoms: C2_3  and  C3_4 
ROOT
ATOM      1  C3  UNL d   1      -5.148   3.586  -3.028  0.00  0.00    -0.075 A 
ATOM      2  C4  UNL d   1      -4.750   2.831  -4.141  0.00  0.00     0.002 A 
ATOM      3  C5  UNL d   1      -4.964   3.310  -5.434  0.00  0.00     0.002 A 
ATOM      4  C6  UNL d   1      -5.585   4.542  -5.630  0.00  0.00    -0.004 A 
ATOM      5  C7  UNL d   1      -5.999   5.292  -4.532  0.00  0.00     0.002 A 
ATOM      6  C8  UNL d   1      -5.783   4.817  -3.237  0.00  0.00     0.002 A 
ENDROOT
BRANCH   1   7
ATOM      7  C2  UNL d   1      -4.894   3.086  -1.626  0.00  0.00     0.056 C 
BRANCH   7   8
ATOM      8  C1  UNL d   1      -4.710   1.568  -1.528  0.00  0.00     0.007 C 
ATOM      9  C   UNL d   1      -5.999   0.827  -1.200  0.00  0.00     0.009 C 
ENDBRANCH   7   8
ENDBRANCH   1   7
TORSDOF 2
ENDMDL
