MODEL 1
REMARK minimizedAffinity -6.27028513
REMARK minimizedRMSD -1
REMARK  2 active torsions:
REMARK  status: ('A' for Active; 'I' for Inactive)
REMARK    1  A    between atoms: C1_2  and  C2_3 
REMARK    2  A    between atoms: C2_3  and  C3_4 
ROOT
ATOM      1  C3  UNL d   1      -1.777   1.356  -0.691  0.00  0.00    -0.075 A 
ATOM      2  C4  UNL d   1      -1.169   2.251  -1.584  0.00  0.00     0.002 A 
ATOM      3  C5  UNL d   1      -0.762   3.514  -1.154  0.00  0.00     0.002 A 
ATOM      4  C6  UNL d   1      -0.965   3.902   0.168  0.00  0.00    -0.004 A 
ATOM      5  C7  UNL d   1      -1.583   3.028   1.060  0.00  0.00     0.002 A 
ATOM      6  C8  UNL d   1      -1.988   1.762   0.634  0.00  0.00     0.002 A 
ENDROOT
BRANCH   1   7
ATOM      7  C2  UNL d   1      -2.193  -0.023  -1.143  0.00  0.00     0.056 C 
BRANCH   7   8
ATOM      8  C1  UNL d   1      -1.053  -0.854  -1.741  0.00  0.00     0.007 C 
ATOM      9  C   UNL d   1       0.127  -1.025  -0.794  0.00  0.00     0.009 C 
ENDBRANCH   7   8
ENDBRANCH   1   7
TORSDOF 2
ENDMDL
