MODEL 1
REMARK minimizedAffinity -3.18649077
REMARK minimizedRMSD -1
REMARK  2 active torsions:
REMARK  status: ('A' for Active; 'I' for Inactive)
REMARK    1  A    between atoms: C1_2  and  C2_3 
REMARK    2  A    between atoms: C2_3  and  C3_4 
ROOT
ATOM      1  C3  UNL d   1      -0.746   0.475  -0.619  0.00  0.00    -0.075 A 
ATOM      2  C4  UNL d   1      -0.405   0.378  -1.975  0.00  0.00     0.002 A 
ATOM      3  C5  UNL d   1       0.422  -0.651  -2.426  0.00  0.00     0.002 A 
ATOM      4  C6  UNL d   1       0.924  -1.589  -1.527  0.00  0.00    -0.004 A 
ATOM      5  C7  UNL d   1       0.605  -1.493  -0.174  0.00  0.00     0.002 A 
ATOM      6  C8  UNL d   1      -0.225  -0.466   0.279  0.00  0.00     0.002 A 
ENDROOT
BRANCH   1   7
ATOM      7  C2  UNL d   1      -1.664   1.570  -0.129  0.00  0.00     0.056 C 
BRANCH   7   8
ATOM      8  C1  UNL d   1      -1.132   2.986  -0.376  0.00  0.00     0.007 C 
ATOM      9  C   UNL d   1      -1.143   3.857   0.873  0.00  0.00     0.009 C 
ENDBRANCH   7   8
ENDBRANCH   1   7
TORSDOF 2
ENDMDL
