MODEL 1
REMARK minimizedAffinity -2.78657651
REMARK minimizedRMSD -1
REMARK  2 active torsions:
REMARK  status: ('A' for Active; 'I' for Inactive)
REMARK    1  A    between atoms: C1_2  and  C2_3 
REMARK    2  A    between atoms: C2_3  and  C3_4 
ROOT
ATOM      1  C3  UNL d   1       0.533   3.694   1.465  0.00  0.00    -0.075 A 
ATOM      2  C4  UNL d   1      -0.734   3.209   1.820  0.00  0.00     0.002 A 
ATOM      3  C5  UNL d   1      -1.611   2.738   0.842  0.00  0.00     0.002 A 
ATOM      4  C6  UNL d   1      -1.238   2.756  -0.500  0.00  0.00    -0.004 A 
ATOM      5  C7  UNL d   1       0.012   3.251  -0.865  0.00  0.00     0.002 A 
ATOM      6  C8  UNL d   1       0.894   3.718   0.112  0.00  0.00     0.002 A 
ENDROOT
BRANCH   1   7
ATOM      7  C2  UNL d   1       1.499   4.177   2.521  0.00  0.00     0.056 C 
BRANCH   7   8
ATOM      8  C1  UNL d   1       2.089   3.058   3.386  0.00  0.00     0.007 C 
ATOM      9  C   UNL d   1       2.495   1.830   2.583  0.00  0.00     0.009 C 
ENDBRANCH   7   8
ENDBRANCH   1   7
TORSDOF 2
ENDMDL
