MODEL 1
REMARK minimizedAffinity -1.89280236
REMARK minimizedRMSD -1
REMARK  2 active torsions:
REMARK  status: ('A' for Active; 'I' for Inactive)
REMARK    1  A    between atoms: C1_2  and  C2_3 
REMARK    2  A    between atoms: C2_3  and  C3_4 
ROOT
ATOM      1  C3  UNL d   1       0.315   0.643   0.370  0.00  0.00    -0.075 A 
ATOM      2  C4  UNL d   1       0.174   1.796   1.156  0.00  0.00     0.002 A 
ATOM      3  C5  UNL d   1       0.557   1.789   2.498  0.00  0.00     0.002 A 
ATOM      4  C6  UNL d   1       1.076   0.631   3.072  0.00  0.00    -0.004 A 
ATOM      5  C7  UNL d   1       1.205  -0.525   2.305  0.00  0.00     0.002 A 
ATOM      6  C8  UNL d   1       0.826  -0.520   0.961  0.00  0.00     0.002 A 
ENDROOT
BRANCH   1   7
ATOM      7  C2  UNL d   1      -0.070   0.652  -1.090  0.00  0.00     0.056 C 
BRANCH   7   8
ATOM      8  C1  UNL d   1      -1.508   1.113  -1.353  0.00  0.00     0.007 C 
ATOM      9  C   UNL d   1      -2.311   0.126  -2.190  0.00  0.00     0.009 C 
ENDBRANCH   7   8
ENDBRANCH   1   7
TORSDOF 2
ENDMDL
