MODEL 1
REMARK minimizedAffinity 3.57307029
REMARK minimizedRMSD -1
REMARK  2 active torsions:
REMARK  status: ('A' for Active; 'I' for Inactive)
REMARK    1  A    between atoms: C1_2  and  C2_3 
REMARK    2  A    between atoms: C2_3  and  C3_4 
ROOT
ATOM      1  C3  UNL d   1       0.008   0.336  -0.678  0.00  0.00    -0.075 A 
ATOM      2  C4  UNL d   1       0.214  -0.163   0.617  0.00  0.00     0.002 A 
ATOM      3  C5  UNL d   1       1.350  -0.915   0.914  0.00  0.00     0.002 A 
ATOM      4  C6  UNL d   1       2.288  -1.187  -0.080  0.00  0.00    -0.004 A 
ATOM      5  C7  UNL d   1       2.086  -0.711  -1.373  0.00  0.00     0.002 A 
ATOM      6  C8  UNL d   1       0.952   0.046  -1.672  0.00  0.00     0.002 A 
ENDROOT
BRANCH   1   7
ATOM      7  C2  UNL d   1      -1.205   1.177  -0.998  0.00  0.00     0.056 C 
BRANCH   7   8
ATOM      8  C1  UNL d   1      -2.539   0.468  -0.743  0.00  0.00     0.007 C 
ATOM      9  C   UNL d   1      -3.002   0.562   0.705  0.00  0.00     0.009 C 
ENDBRANCH   7   8
ENDBRANCH   1   7
TORSDOF 2
ENDMDL
