MODEL 1
REMARK minimizedAffinity -3.12844443
REMARK minimizedRMSD -1
REMARK  0 active torsions:
REMARK  status: ('A' for Active; 'I' for Inactive)
ROOT
ATOM      1  O1  BZF d   1       0.670  -1.482   0.510  0.00  0.00    -0.204 OA
ATOM      2  C2  BZF d   1       0.480  -0.177   0.921  0.00  0.00     0.174 A 
ATOM      3  C3  BZF d   1       0.606   0.675  -0.117  0.00  0.00    -0.012 A 
ATOM      4  C3A BZF d   1       0.800  -0.157  -1.265  0.00  0.00    -0.107 A 
ATOM      5  C4  BZF d   1       0.971   0.102  -2.594  0.00  0.00     0.055 A 
ATOM      6  C5  BZF d   1       1.208  -0.931  -3.444  0.00  0.00    -0.016 A 
ATOM      7  C6  BZF d   1       1.286  -2.234  -2.998  0.00  0.00     0.022 A 
ATOM      8  C7  BZF d   1       1.117  -2.542  -1.689  0.00  0.00     0.029 A 
ATOM      9  C7A BZF d   1       0.844  -1.503  -0.833  0.00  0.00     0.058 A 
ENDROOT
TORSDOF 0
ENDMDL
