MODEL 1
REMARK minimizedAffinity -1.95081866
REMARK minimizedRMSD -1
REMARK  0 active torsions:
REMARK  status: ('A' for Active; 'I' for Inactive)
ROOT
ATOM      1  O1  BZF d   1      -2.261   0.716   0.994  0.00  0.00    -0.204 OA
ATOM      2  C2  BZF d   1      -2.624   1.065  -0.292  0.00  0.00     0.174 A 
ATOM      3  C3  BZF d   1      -1.533   1.306  -1.048  0.00  0.00    -0.012 A 
ATOM      4  C3A BZF d   1      -0.417   1.005  -0.205  0.00  0.00    -0.107 A 
ATOM      5  C4  BZF d   1       0.936   1.034  -0.391  0.00  0.00     0.055 A 
ATOM      6  C5  BZF d   1       1.753   0.752   0.657  0.00  0.00    -0.016 A 
ATOM      7  C6  BZF d   1       1.253   0.442   1.905  0.00  0.00     0.022 A 
ATOM      8  C7  BZF d   1      -0.081   0.396   2.137  0.00  0.00     0.029 A 
ATOM      9  C7A BZF d   1      -0.910   0.648   1.071  0.00  0.00     0.058 A 
ENDROOT
TORSDOF 0
ENDMDL
