MODEL 1
REMARK minimizedAffinity -3.12843847
REMARK minimizedRMSD -1
REMARK  0 active torsions:
REMARK  status: ('A' for Active; 'I' for Inactive)
ROOT
ATOM      1  O1  BZF d   1      -1.201  -0.868  -1.175  0.00  0.00    -0.204 OA
ATOM      2  C2  BZF d   1      -0.941   0.261  -0.422  0.00  0.00     0.174 A 
ATOM      3  C3  BZF d   1       0.254   0.791  -0.753  0.00  0.00    -0.012 A 
ATOM      4  C3A BZF d   1       0.732  -0.006  -1.841  0.00  0.00    -0.107 A 
ATOM      5  C4  BZF d   1       1.859   0.034  -2.611  0.00  0.00     0.055 A 
ATOM      6  C5  BZF d   1       2.057  -0.934  -3.544  0.00  0.00    -0.016 A 
ATOM      7  C6  BZF d   1       1.152  -1.959  -3.729  0.00  0.00     0.022 A 
ATOM      8  C7  BZF d   1       0.017  -2.039  -2.993  0.00  0.00     0.029 A 
ATOM      9  C7A BZF d   1      -0.202  -1.043  -2.072  0.00  0.00     0.058 A 
ENDROOT
TORSDOF 0
ENDMDL
