MODEL 1
REMARK minimizedAffinity -0.302820474
REMARK minimizedRMSD -1
REMARK  0 active torsions:
REMARK  status: ('A' for Active; 'I' for Inactive)
ROOT
ATOM      1  O1  BZF d   1      -1.818   0.565   0.209  0.00  0.00    -0.204 OA
ATOM      2  C2  BZF d   1      -1.385   0.492  -1.101  0.00  0.00     0.174 A 
ATOM      3  C3  BZF d   1      -0.037   0.465  -1.158  0.00  0.00    -0.012 A 
ATOM      4  C3A BZF d   1       0.396   0.433   0.205  0.00  0.00    -0.107 A 
ATOM      5  C4  BZF d   1       1.625   0.382   0.798  0.00  0.00     0.055 A 
ATOM      6  C5  BZF d   1       1.707   0.437   2.154  0.00  0.00    -0.016 A 
ATOM      7  C6  BZF d   1       0.583   0.546   2.945  0.00  0.00     0.022 A 
ATOM      8  C7  BZF d   1      -0.658   0.595   2.403  0.00  0.00     0.029 A 
ATOM      9  C7A BZF d   1      -0.746   0.507   1.035  0.00  0.00     0.058 A 
ENDROOT
TORSDOF 0
ENDMDL
