MODEL 1
REMARK minimizedAffinity -0.0419516712
REMARK minimizedRMSD -1
REMARK  0 active torsions:
REMARK  status: ('A' for Active; 'I' for Inactive)
ROOT
ATOM      1  O1  BZF d   1       1.173   0.140  -1.252  0.00  0.00    -0.204 OA
ATOM      2  C2  BZF d   1       0.046   0.475  -1.978  0.00  0.00     0.174 A 
ATOM      3  C3  BZF d   1      -1.009   0.667  -1.160  0.00  0.00    -0.012 A 
ATOM      4  C3A BZF d   1      -0.488   0.529   0.165  0.00  0.00    -0.107 A 
ATOM      5  C4  BZF d   1      -1.046   0.626   1.408  0.00  0.00     0.055 A 
ATOM      6  C5  BZF d   1      -0.279   0.362   2.499  0.00  0.00    -0.016 A 
ATOM      7  C6  BZF d   1       1.045  -0.005   2.383  0.00  0.00     0.022 A 
ATOM      8  C7  BZF d   1       1.644  -0.109   1.172  0.00  0.00     0.029 A 
ATOM      9  C7A BZF d   1       0.881   0.188   0.069  0.00  0.00     0.058 A 
ENDROOT
TORSDOF 0
ENDMDL
