MODEL 1
REMARK minimizedAffinity -3.51310849
REMARK minimizedRMSD -1
REMARK  0 active torsions:
REMARK  status: ('A' for Active; 'I' for Inactive)
ROOT
ATOM      1  O1  BZF d   1       1.765  -1.480  -2.438  0.00  0.00    -0.204 OA
ATOM      2  C2  BZF d   1       0.899  -2.094  -3.322  0.00  0.00     0.174 A 
ATOM      3  C3  BZF d   1      -0.384  -1.862  -2.975  0.00  0.00    -0.012 A 
ATOM      4  C3A BZF d   1      -0.315  -0.975  -1.855  0.00  0.00    -0.107 A 
ATOM      5  C4  BZF d   1      -1.261  -0.372  -1.076  0.00  0.00     0.055 A 
ATOM      6  C5  BZF d   1      -0.863   0.378  -0.015  0.00  0.00    -0.016 A 
ATOM      7  C6  BZF d   1       0.470   0.541   0.300  0.00  0.00     0.022 A 
ATOM      8  C7  BZF d   1       1.445  -0.034  -0.446  0.00  0.00     0.029 A 
ATOM      9  C7A BZF d   1       1.047  -0.765  -1.539  0.00  0.00     0.058 A 
ENDROOT
TORSDOF 0
ENDMDL
