MODEL 1
REMARK minimizedAffinity -2.93071628
REMARK minimizedRMSD -1
REMARK  0 active torsions:
REMARK  status: ('A' for Active; 'I' for Inactive)
ROOT
ATOM      1  O1  BZF d   1      -0.741  -1.139   0.013  0.00  0.00    -0.204 OA
ATOM      2  C2  BZF d   1      -0.225  -0.131   0.805  0.00  0.00     0.174 A 
ATOM      3  C3  BZF d   1       0.730   0.555   0.144  0.00  0.00    -0.012 A 
ATOM      4  C3A BZF d   1       0.751  -0.004  -1.173  0.00  0.00    -0.107 A 
ATOM      5  C4  BZF d   1       1.479   0.268  -2.297  0.00  0.00     0.055 A 
ATOM      6  C5  BZF d   1       1.309  -0.510  -3.398  0.00  0.00    -0.016 A 
ATOM      7  C6  BZF d   1       0.425  -1.570  -3.409  0.00  0.00     0.022 A 
ATOM      8  C7  BZF d   1      -0.322  -1.875  -2.320  0.00  0.00     0.029 A 
ATOM      9  C7A BZF d   1      -0.177  -1.070  -1.217  0.00  0.00     0.058 A 
ENDROOT
TORSDOF 0
ENDMDL
