MODEL 1
REMARK minimizedAffinity -3.07398391
REMARK minimizedRMSD -1
REMARK  0 active torsions:
REMARK  status: ('A' for Active; 'I' for Inactive)
ROOT
ATOM      1  O1  BZF d   1      -0.364   0.328  -1.167  0.00  0.00    -0.204 OA
ATOM      2  C2  BZF d   1       0.666  -0.003  -2.027  0.00  0.00     0.174 A 
ATOM      3  C3  BZF d   1       1.801  -0.248  -1.342  0.00  0.00    -0.012 A 
ATOM      4  C3A BZF d   1       1.437  -0.149   0.038  0.00  0.00    -0.107 A 
ATOM      5  C4  BZF d   1       2.129  -0.303   1.205  0.00  0.00     0.055 A 
ATOM      6  C5  BZF d   1       1.497  -0.064   2.384  0.00  0.00    -0.016 A 
ATOM      7  C6  BZF d   1       0.177   0.334   2.433  0.00  0.00     0.022 A 
ATOM      8  C7  BZF d   1      -0.552   0.496   1.302  0.00  0.00     0.029 A 
ATOM      9  C7A BZF d   1       0.075   0.224   0.110  0.00  0.00     0.058 A 
ENDROOT
TORSDOF 0
ENDMDL
