MODEL 1
REMARK minimizedAffinity -2.64568496
REMARK minimizedRMSD -1
REMARK  0 active torsions:
REMARK  status: ('A' for Active; 'I' for Inactive)
ROOT
ATOM      1  O1  BZF d   1      -1.516   0.229  -0.916  0.00  0.00    -0.204 OA
ATOM      2  C2  BZF d   1      -0.497   0.380  -1.836  0.00  0.00     0.174 A 
ATOM      3  C3  BZF d   1       0.692   0.518  -1.215  0.00  0.00    -0.012 A 
ATOM      4  C3A BZF d   1       0.410   0.356   0.178  0.00  0.00    -0.107 A 
ATOM      5  C4  BZF d   1       1.186   0.371   1.302  0.00  0.00     0.055 A 
ATOM      6  C5  BZF d   1       0.591   0.255   2.518  0.00  0.00    -0.016 A 
ATOM      7  C6  BZF d   1      -0.777   0.129   2.647  0.00  0.00     0.022 A 
ATOM      8  C7  BZF d   1      -1.588   0.104   1.562  0.00  0.00     0.029 A 
ATOM      9  C7A BZF d   1      -0.986   0.187   0.330  0.00  0.00     0.058 A 
ENDROOT
TORSDOF 0
ENDMDL
