MODEL 1
REMARK minimizedAffinity -2.48102069
REMARK minimizedRMSD -1
REMARK  0 active torsions:
REMARK  status: ('A' for Active; 'I' for Inactive)
ROOT
ATOM      1  O1  BZF d   1       5.587  -2.624   4.224  0.00  0.00    -0.204 OA
ATOM      2  C2  BZF d   1       5.023  -2.292   3.008  0.00  0.00     0.174 A 
ATOM      3  C3  BZF d   1       4.125  -3.223   2.627  0.00  0.00    -0.012 A 
ATOM      4  C3A BZF d   1       4.060  -4.150   3.714  0.00  0.00    -0.107 A 
ATOM      5  C4  BZF d   1       3.333  -5.285   3.939  0.00  0.00     0.055 A 
ATOM      6  C5  BZF d   1       3.559  -6.000   5.072  0.00  0.00    -0.016 A 
ATOM      7  C6  BZF d   1       4.504  -5.613   5.999  0.00  0.00     0.022 A 
ATOM      8  C7  BZF d   1       5.245  -4.492   5.823  0.00  0.00     0.029 A 
ATOM      9  C7A BZF d   1       4.997  -3.749   4.694  0.00  0.00     0.058 A 
ENDROOT
TORSDOF 0
ENDMDL
