MODEL 1
REMARK minimizedAffinity 0.909184813
REMARK minimizedRMSD -1
REMARK  0 active torsions:
REMARK  status: ('A' for Active; 'I' for Inactive)
ROOT
ATOM      1  O1  BZF d   1       0.730   0.409   2.918  0.00  0.00    -0.204 OA
ATOM      2  C2  BZF d   1       2.082   0.339   2.644  0.00  0.00     0.174 A 
ATOM      3  C3  BZF d   1       2.298   0.266   1.315  0.00  0.00    -0.012 A 
ATOM      4  C3A BZF d   1       1.004   0.385   0.716  0.00  0.00    -0.107 A 
ATOM      5  C4  BZF d   1       0.565   0.400  -0.577  0.00  0.00     0.055 A 
ATOM      6  C5  BZF d   1      -0.770   0.458  -0.820  0.00  0.00    -0.016 A 
ATOM      7  C6  BZF d   1      -1.694   0.496   0.203  0.00  0.00     0.022 A 
ATOM      8  C7  BZF d   1      -1.307   0.488   1.502  0.00  0.00     0.029 A 
ATOM      9  C7A BZF d   1       0.043   0.464   1.751  0.00  0.00     0.058 A 
ENDROOT
TORSDOF 0
ENDMDL
