MODEL 1
REMARK minimizedAffinity -3.29379177
REMARK minimizedRMSD -1
REMARK  0 active torsions:
REMARK  status: ('A' for Active; 'I' for Inactive)
ROOT
ATOM      1  O1  BZF d   1      -0.527   0.553  -0.937  0.00  0.00    -0.204 OA
ATOM      2  C2  BZF d   1       0.853   0.522  -0.989  0.00  0.00     0.174 A 
ATOM      3  C3  BZF d   1       1.378   0.497   0.253  0.00  0.00    -0.012 A 
ATOM      4  C3A BZF d   1       0.254   0.421   1.135  0.00  0.00    -0.107 A 
ATOM      5  C4  BZF d   1       0.129   0.352   2.494  0.00  0.00     0.055 A 
ATOM      6  C5  BZF d   1      -1.113   0.362   3.044  0.00  0.00    -0.016 A 
ATOM      7  C6  BZF d   1      -2.250   0.446   2.268  0.00  0.00     0.022 A 
ATOM      8  C7  BZF d   1      -2.177   0.511   0.916  0.00  0.00     0.029 A 
ATOM      9  C7A BZF d   1      -0.924   0.468   0.355  0.00  0.00     0.058 A 
ENDROOT
TORSDOF 0
ENDMDL
