MODEL 1
REMARK minimizedAffinity -3.49320602
REMARK minimizedRMSD -1
REMARK  0 active torsions:
REMARK  status: ('A' for Active; 'I' for Inactive)
ROOT
ATOM      1  O1  BZF d   1      -1.248   0.921  -0.852  0.00  0.00    -0.204 OA
ATOM      2  C2  BZF d   1      -2.552   1.026  -0.407  0.00  0.00     0.174 A 
ATOM      3  C3  BZF d   1      -2.653   0.628   0.877  0.00  0.00    -0.012 A 
ATOM      4  C3A BZF d   1      -1.314   0.337   1.288  0.00  0.00    -0.107 A 
ATOM      5  C4  BZF d   1      -0.763  -0.089   2.463  0.00  0.00     0.055 A 
ATOM      6  C5  BZF d   1       0.570  -0.347   2.512  0.00  0.00    -0.016 A 
ATOM      7  C6  BZF d   1       1.380  -0.196   1.406  0.00  0.00     0.022 A 
ATOM      8  C7  BZF d   1       0.881   0.228   0.220  0.00  0.00     0.029 A 
ATOM      9  C7A BZF d   1      -0.460   0.522   0.175  0.00  0.00     0.058 A 
ENDROOT
TORSDOF 0
ENDMDL
