MODEL 1
REMARK minimizedAffinity -5.7338686
REMARK minimizedRMSD -1
REMARK  0 active torsions:
REMARK  status: ('A' for Active; 'I' for Inactive)
ROOT
ATOM      1  O1  BZF d   1      -1.551   0.461  -0.771  0.00  0.00    -0.204 OA
ATOM      2  C2  BZF d   1      -0.521   0.763  -1.640  0.00  0.00     0.174 A 
ATOM      3  C3  BZF d   1       0.673   0.663  -1.020  0.00  0.00    -0.012 A 
ATOM      4  C3A BZF d   1       0.375   0.183   0.295  0.00  0.00    -0.107 A 
ATOM      5  C4  BZF d   1       1.147  -0.132   1.376  0.00  0.00     0.055 A 
ATOM      6  C5  BZF d   1       0.541  -0.502   2.535  0.00  0.00    -0.016 A 
ATOM      7  C6  BZF d   1      -0.832  -0.564   2.648  0.00  0.00     0.022 A 
ATOM      8  C7  BZF d   1      -1.640  -0.266   1.601  0.00  0.00     0.029 A 
ATOM      9  C7A BZF d   1      -1.029   0.077   0.419  0.00  0.00     0.058 A 
ENDROOT
TORSDOF 0
ENDMDL
