MODEL 1
REMARK minimizedAffinity -0.934737742
REMARK minimizedRMSD -1
REMARK  0 active torsions:
REMARK  status: ('A' for Active; 'I' for Inactive)
ROOT
ATOM      1  O1  BZF d   1       0.206   0.165   2.796  0.00  0.00    -0.204 OA
ATOM      2  C2  BZF d   1      -1.166   0.088   2.932  0.00  0.00     0.174 A 
ATOM      3  C3  BZF d   1      -1.763   0.019   1.725  0.00  0.00    -0.012 A 
ATOM      4  C3A BZF d   1      -0.692  -0.038   0.778  0.00  0.00    -0.107 A 
ATOM      5  C4  BZF d   1      -0.647  -0.131  -0.584  0.00  0.00     0.055 A 
ATOM      6  C5  BZF d   1       0.560  -0.089  -1.209  0.00  0.00    -0.016 A 
ATOM      7  C6  BZF d   1       1.738   0.051  -0.505  0.00  0.00     0.022 A 
ATOM      8  C7  BZF d   1       1.743   0.142   0.848  0.00  0.00     0.029 A 
ATOM      9  C7A BZF d   1       0.528   0.067   1.484  0.00  0.00     0.058 A 
ENDROOT
TORSDOF 0
ENDMDL
