MODEL 1
REMARK minimizedAffinity -2.04035378
REMARK minimizedRMSD -1
REMARK  0 active torsions:
REMARK  status: ('A' for Active; 'I' for Inactive)
ROOT
ATOM      1  O1  BZF d   1      -2.790   0.662   0.650  0.00  0.00    -0.204 OA
ATOM      2  C2  BZF d   1      -3.439   1.018   1.816  0.00  0.00     0.174 A 
ATOM      3  C3  BZF d   1      -2.577   1.048   2.853  0.00  0.00    -0.012 A 
ATOM      4  C3A BZF d   1      -1.293   0.779   2.283  0.00  0.00    -0.107 A 
ATOM      5  C4  BZF d   1      -0.034   0.690   2.805  0.00  0.00     0.055 A 
ATOM      6  C5  BZF d   1       0.996   0.340   1.990  0.00  0.00    -0.016 A 
ATOM      7  C6  BZF d   1       0.802   0.066   0.652  0.00  0.00     0.022 A 
ATOM      8  C7  BZF d   1      -0.428   0.146   0.088  0.00  0.00     0.029 A 
ATOM      9  C7A BZF d   1      -1.465   0.532   0.902  0.00  0.00     0.058 A 
ENDROOT
TORSDOF 0
ENDMDL
