MODEL 1
REMARK minimizedAffinity -4.13816404
REMARK minimizedRMSD -1
REMARK  0 active torsions:
REMARK  status: ('A' for Active; 'I' for Inactive)
ROOT
ATOM      1  O1  BZF d   1       2.370  -1.289  -1.839  0.00  0.00    -0.204 OA
ATOM      2  C2  BZF d   1       1.766  -1.510  -3.062  0.00  0.00     0.174 A 
ATOM      3  C3  BZF d   1       0.534  -0.962  -3.093  0.00  0.00    -0.012 A 
ATOM      4  C3A BZF d   1       0.394  -0.280  -1.842  0.00  0.00    -0.107 A 
ATOM      5  C4  BZF d   1      -0.604   0.468  -1.288  0.00  0.00     0.055 A 
ATOM      6  C5  BZF d   1      -0.456   0.931  -0.019  0.00  0.00    -0.016 A 
ATOM      7  C6  BZF d   1       0.673   0.660   0.726  0.00  0.00     0.022 A 
ATOM      8  C7  BZF d   1       1.693  -0.074   0.217  0.00  0.00     0.029 A 
ATOM      9  C7A BZF d   1       1.560  -0.515  -1.078  0.00  0.00     0.058 A 
ENDROOT
TORSDOF 0
ENDMDL
