MODEL 1
REMARK minimizedAffinity -2.2711792
REMARK minimizedRMSD -1
REMARK  0 active torsions:
REMARK  status: ('A' for Active; 'I' for Inactive)
ROOT
ATOM      1  O1  BZF d   1      -0.958   1.080   1.953  0.00  0.00    -0.204 OA
ATOM      2  C2  BZF d   1      -0.026   0.719   2.906  0.00  0.00     0.174 A 
ATOM      3  C3  BZF d   1       0.977   0.009   2.350  0.00  0.00    -0.012 A 
ATOM      4  C3A BZF d   1       0.698  -0.001   0.947  0.00  0.00    -0.107 A 
ATOM      5  C4  BZF d   1       1.339  -0.534  -0.135  0.00  0.00     0.055 A 
ATOM      6  C5  BZF d   1       0.765  -0.428  -1.362  0.00  0.00    -0.016 A 
ATOM      7  C6  BZF d   1      -0.451   0.199  -1.543  0.00  0.00     0.022 A 
ATOM      8  C7  BZF d   1      -1.122   0.748  -0.501  0.00  0.00     0.029 A 
ATOM      9  C7A BZF d   1      -0.528   0.671   0.735  0.00  0.00     0.058 A 
ENDROOT
TORSDOF 0
ENDMDL
