MODEL 1
REMARK minimizedAffinity -3.49888802
REMARK minimizedRMSD -1
REMARK  0 active torsions:
REMARK  status: ('A' for Active; 'I' for Inactive)
ROOT
ATOM      1  O1  BZF d   1      -1.273   0.390  -0.962  0.00  0.00    -0.204 OA
ATOM      2  C2  BZF d   1      -0.089   0.306  -1.668  0.00  0.00     0.174 A 
ATOM      3  C3  BZF d   1       0.956   0.139  -0.831  0.00  0.00    -0.012 A 
ATOM      4  C3A BZF d   1       0.379   0.025   0.473  0.00  0.00    -0.107 A 
ATOM      5  C4  BZF d   1       0.904  -0.170   1.718  0.00  0.00     0.055 A 
ATOM      6  C5  BZF d   1       0.075  -0.161   2.794  0.00  0.00    -0.016 A 
ATOM      7  C6  BZF d   1      -1.283   0.046   2.662  0.00  0.00     0.022 A 
ATOM      8  C7  BZF d   1      -1.851   0.239   1.447  0.00  0.00     0.029 A 
ATOM      9  C7A BZF d   1      -1.020   0.197   0.355  0.00  0.00     0.058 A 
ENDROOT
TORSDOF 0
ENDMDL
