MODEL 1
REMARK minimizedAffinity -1.09989345
REMARK minimizedRMSD -1
REMARK  1 active torsions:
REMARK  status: ('A' for Active; 'I' for Inactive)
REMARK    1  A    between atoms: C1_2  and  C2_3 
ROOT
ATOM      1  C2  UNL d   1       0.556  -0.826  -0.430  0.00  0.00    -0.081 A 
ATOM      2  C3  UNL d   1       0.791  -0.819   0.951  0.00  0.00     0.006 A 
ATOM      3  C4  UNL d   1       0.463   0.301   1.719  0.00  0.00     0.002 A 
ATOM      4  C5  UNL d   1      -0.112   1.428   1.122  0.00  0.00    -0.080 A 
ATOM      5  C6  UNL d   1      -0.496   2.625   1.940  0.00  0.00     0.076 C 
ATOM      6  C7  UNL d   1      -0.330   1.428  -0.260  0.00  0.00     0.002 A 
ATOM      7  C8  UNL d   1      -0.002   0.309  -1.029  0.00  0.00     0.006 A 
ENDROOT
BRANCH   1   8
ATOM      8  C1  UNL d   1       0.848  -2.056  -1.250  0.00  0.00     0.054 C 
ATOM      9  C   UNL d   1      -0.246  -3.102  -1.089  0.00  0.00     0.018 C 
ENDBRANCH   1   8
TORSDOF 1
ENDMDL
