MODEL 1
REMARK minimizedAffinity -2.95713544
REMARK minimizedRMSD -1
REMARK  1 active torsions:
REMARK  status: ('A' for Active; 'I' for Inactive)
REMARK    1  A    between atoms: C1_2  and  C2_3 
ROOT
ATOM      1  C2  UNL d   1       0.088  -0.787   0.245  0.00  0.00    -0.081 A 
ATOM      2  C3  UNL d   1      -0.812   0.039  -0.439  0.00  0.00     0.006 A 
ATOM      3  C4  UNL d   1      -1.326   1.185   0.172  0.00  0.00     0.002 A 
ATOM      4  C5  UNL d   1      -0.942   1.529   1.473  0.00  0.00    -0.080 A 
ATOM      5  C6  UNL d   1      -1.463   2.772   2.129  0.00  0.00     0.076 C 
ATOM      6  C7  UNL d   1      -0.056   0.694   2.162  0.00  0.00     0.002 A 
ATOM      7  C8  UNL d   1       0.458  -0.452   1.552  0.00  0.00     0.006 A 
ENDROOT
BRANCH   1   8
ATOM      8  C1  UNL d   1       0.694  -1.988  -0.435  0.00  0.00     0.054 C 
ATOM      9  C   UNL d   1      -0.381  -2.954  -0.913  0.00  0.00     0.018 C 
ENDBRANCH   1   8
TORSDOF 1
ENDMDL
