MODEL 1
REMARK minimizedAffinity 0.313391268
REMARK minimizedRMSD -1
REMARK  1 active torsions:
REMARK  status: ('A' for Active; 'I' for Inactive)
REMARK    1  A    between atoms: C1_2  and  C2_3 
ROOT
ATOM      1  C2  UNL d   1       0.139  -1.123  -0.608  0.00  0.00    -0.081 A 
ATOM      2  C3  UNL d   1       0.287  -0.800   0.746  0.00  0.00     0.006 A 
ATOM      3  C4  UNL d   1      -0.278   0.369   1.261  0.00  0.00     0.002 A 
ATOM      4  C5  UNL d   1      -1.007   1.230   0.434  0.00  0.00    -0.080 A 
ATOM      5  C6  UNL d   1      -1.644   2.473   0.981  0.00  0.00     0.076 C 
ATOM      6  C7  UNL d   1      -1.140   0.916  -0.923  0.00  0.00     0.002 A 
ATOM      7  C8  UNL d   1      -0.575  -0.252  -1.439  0.00  0.00     0.006 A 
ENDROOT
BRANCH   1   8
ATOM      8  C1  UNL d   1       0.692  -2.415  -1.153  0.00  0.00     0.054 C 
ATOM      9  C   UNL d   1      -0.345  -3.528  -1.096  0.00  0.00     0.018 C 
ENDBRANCH   1   8
TORSDOF 1
ENDMDL
