MODEL 1
REMARK minimizedAffinity -4.76196098
REMARK minimizedRMSD -1
REMARK  1 active torsions:
REMARK  status: ('A' for Active; 'I' for Inactive)
REMARK    1  A    between atoms: C1_2  and  C2_3 
ROOT
ATOM      1  C2  UNL d   1      -0.072  -1.190  -1.077  0.00  0.00    -0.081 A 
ATOM      2  C3  UNL d   1      -0.312  -1.393   0.287  0.00  0.00     0.006 A 
ATOM      3  C4  UNL d   1      -0.560  -0.308   1.132  0.00  0.00     0.002 A 
ATOM      4  C5  UNL d   1      -0.579   0.996   0.625  0.00  0.00    -0.080 A 
ATOM      5  C6  UNL d   1      -0.874   2.166   1.516  0.00  0.00     0.076 C 
ATOM      6  C7  UNL d   1      -0.322   1.200  -0.734  0.00  0.00     0.002 A 
ATOM      7  C8  UNL d   1      -0.074   0.116  -1.579  0.00  0.00     0.006 A 
ENDROOT
BRANCH   1   8
ATOM      8  C1  UNL d   1       0.132  -2.363  -2.002  0.00  0.00     0.054 C 
ATOM      9  C   UNL d   1      -0.838  -3.492  -1.686  0.00  0.00     0.018 C 
ENDBRANCH   1   8
TORSDOF 1
ENDMDL
