MODEL 1
REMARK minimizedAffinity -1.90508914
REMARK minimizedRMSD -1
REMARK  1 active torsions:
REMARK  status: ('A' for Active; 'I' for Inactive)
REMARK    1  A    between atoms: C1_2  and  C2_3 
ROOT
ATOM      1  C2  UNL d   1       0.784  -1.236  -0.345  0.00  0.00    -0.081 A 
ATOM      2  C3  UNL d   1       1.556  -0.389   0.460  0.00  0.00     0.006 A 
ATOM      3  C4  UNL d   1       1.024   0.810   0.940  0.00  0.00     0.002 A 
ATOM      4  C5  UNL d   1      -0.289   1.178   0.630  0.00  0.00    -0.080 A 
ATOM      5  C6  UNL d   1      -0.882   2.448   1.163  0.00  0.00     0.076 C 
ATOM      6  C7  UNL d   1      -1.055   0.340  -0.188  0.00  0.00     0.002 A 
ATOM      7  C8  UNL d   1      -0.523  -0.858  -0.669  0.00  0.00     0.006 A 
ENDROOT
BRANCH   1   8
ATOM      8  C1  UNL d   1       1.333  -2.561  -0.810  0.00  0.00     0.054 C 
ATOM      9  C   UNL d   1       0.226  -3.592  -0.974  0.00  0.00     0.018 C 
ENDBRANCH   1   8
TORSDOF 1
ENDMDL
