MODEL 1
REMARK minimizedAffinity -2.84564233
REMARK minimizedRMSD -1
REMARK  1 active torsions:
REMARK  status: ('A' for Active; 'I' for Inactive)
REMARK    1  A    between atoms: C1_2  and  C2_3 
ROOT
ATOM      1  C2  UNL d   1      -0.357  -0.525   0.020  0.00  0.00    -0.081 A 
ATOM      2  C3  UNL d   1      -1.549  -1.258  -0.048  0.00  0.00     0.006 A 
ATOM      3  C4  UNL d   1      -1.557  -2.548  -0.584  0.00  0.00     0.002 A 
ATOM      4  C5  UNL d   1      -0.374  -3.129  -1.053  0.00  0.00    -0.080 A 
ATOM      5  C6  UNL d   1      -0.363  -4.524  -1.604  0.00  0.00     0.076 C 
ATOM      6  C7  UNL d   1       0.813  -2.390  -1.001  0.00  0.00     0.002 A 
ATOM      7  C8  UNL d   1       0.822  -1.100  -0.466  0.00  0.00     0.006 A 
ENDROOT
BRANCH   1   8
ATOM      8  C1  UNL d   1      -0.334   0.841   0.657  0.00  0.00     0.054 C 
ATOM      9  C   UNL d   1      -0.169   0.745   2.167  0.00  0.00     0.018 C 
ENDBRANCH   1   8
TORSDOF 1
ENDMDL
