MODEL 1
REMARK minimizedAffinity -2.72536373
REMARK minimizedRMSD -1
REMARK  1 active torsions:
REMARK  status: ('A' for Active; 'I' for Inactive)
REMARK    1  A    between atoms: C1_2  and  C2_3 
ROOT
ATOM      1  C2  UNL d   1      -0.483  -1.052  -0.563  0.00  0.00    -0.081 A 
ATOM      2  C3  UNL d   1       0.418  -1.081   0.508  0.00  0.00     0.006 A 
ATOM      3  C4  UNL d   1       0.533   0.015   1.367  0.00  0.00     0.002 A 
ATOM      4  C5  UNL d   1      -0.256   1.155   1.173  0.00  0.00    -0.080 A 
ATOM      5  C6  UNL d   1      -0.164   2.326   2.105  0.00  0.00     0.076 C 
ATOM      6  C7  UNL d   1      -1.144   1.190   0.092  0.00  0.00     0.002 A 
ATOM      7  C8  UNL d   1      -1.259   0.095  -0.767  0.00  0.00     0.006 A 
ENDROOT
BRANCH   1   8
ATOM      8  C1  UNL d   1      -0.656  -2.257  -1.452  0.00  0.00     0.054 C 
ATOM      9  C   UNL d   1      -1.414  -3.366  -0.738  0.00  0.00     0.018 C 
ENDBRANCH   1   8
TORSDOF 1
ENDMDL
