MODEL 1
REMARK minimizedAffinity -5.98930073
REMARK minimizedRMSD -1
REMARK  0 active torsions:
REMARK  status: ('A' for Active; 'I' for Inactive)
ROOT
ATOM      1  C   UNL d   1       3.239  -0.302   0.796  0.00  0.00     0.124 A 
ATOM      2  C1  UNL d   1       2.855   0.997   0.492  0.00  0.00     0.062 A 
ATOM      3  C2  UNL d   1       1.546   1.267   0.103  0.00  0.00     0.162 A 
ATOM      4  C3  UNL d   1       0.610   0.236   0.016  0.00  0.00    -0.034 A 
ATOM      5  C4  UNL d   1       1.004  -1.068   0.322  0.00  0.00     0.162 A 
ATOM      6  C5  UNL d   1       2.314  -1.333   0.710  0.00  0.00     0.062 A 
ATOM      7  F   UNL d   1       2.683  -2.588   1.003  0.00  0.00    -0.097 F 
ATOM      8  F1  UNL d   1       0.131  -2.083   0.249  0.00  0.00    -0.096 F 
ATOM      9  I   UNL d   1      -1.348   0.636  -0.565  0.00  0.00    -0.060 I 
ATOM     10  F2  UNL d   1       1.203   2.532  -0.184  0.00  0.00    -0.096 F 
ATOM     11  F3  UNL d   1       3.747   1.995   0.573  0.00  0.00    -0.097 F 
ATOM     12  F4  UNL d   1       4.499  -0.559   1.169  0.00  0.00    -0.092 F 
ENDROOT
TORSDOF 0
ENDMDL
