MODEL 1
REMARK minimizedAffinity -1.1798358
REMARK minimizedRMSD -1
REMARK  0 active torsions:
REMARK  status: ('A' for Active; 'I' for Inactive)
ROOT
ATOM      1  C   UNL d   1       1.306   0.338   1.299  0.00  0.00     0.124 A 
ATOM      2  C1  UNL d   1       1.930  -0.853   0.953  0.00  0.00     0.062 A 
ATOM      3  C2  UNL d   1       1.349  -1.701   0.015  0.00  0.00     0.162 A 
ATOM      4  C3  UNL d   1       0.137  -1.361  -0.586  0.00  0.00    -0.034 A 
ATOM      5  C4  UNL d   1      -0.485  -0.163  -0.233  0.00  0.00     0.162 A 
ATOM      6  C5  UNL d   1       0.099   0.682   0.706  0.00  0.00     0.062 A 
ATOM      7  F   UNL d   1      -0.506   1.831   1.038  0.00  0.00    -0.097 F 
ATOM      8  F1  UNL d   1      -1.651   0.195  -0.791  0.00  0.00    -0.096 F 
ATOM      9  I   UNL d   1      -0.734  -2.627  -1.990  0.00  0.00    -0.060 I 
ATOM     10  F2  UNL d   1       1.975  -2.845  -0.300  0.00  0.00    -0.096 F 
ATOM     11  F3  UNL d   1       3.095  -1.188   1.526  0.00  0.00    -0.097 F 
ATOM     12  F4  UNL d   1       1.866   1.152   2.203  0.00  0.00    -0.092 F 
ENDROOT
TORSDOF 0
ENDMDL
