MODEL 1
REMARK minimizedAffinity -4.03959227
REMARK minimizedRMSD -1
REMARK  0 active torsions:
REMARK  status: ('A' for Active; 'I' for Inactive)
ROOT
ATOM      1  C   UNL d   1       3.004  -0.621   0.506  0.00  0.00     0.124 A 
ATOM      2  C1  UNL d   1       2.018  -1.520   0.123  0.00  0.00     0.062 A 
ATOM      3  C2  UNL d   1       0.717  -1.079  -0.100  0.00  0.00     0.162 A 
ATOM      4  C3  UNL d   1       0.393   0.269   0.060  0.00  0.00    -0.034 A 
ATOM      5  C4  UNL d   1       1.390   1.166   0.447  0.00  0.00     0.162 A 
ATOM      6  C5  UNL d   1       2.689   0.720   0.668  0.00  0.00     0.062 A 
ATOM      7  F   UNL d   1       3.640   1.590   1.039  0.00  0.00    -0.097 F 
ATOM      8  F1  UNL d   1       1.114   2.469   0.610  0.00  0.00    -0.096 F 
ATOM      9  I   UNL d   1      -1.551   0.932  -0.271  0.00  0.00    -0.060 I 
ATOM     10  F2  UNL d   1      -0.216  -1.969  -0.470  0.00  0.00    -0.096 F 
ATOM     11  F3  UNL d   1       2.319  -2.817  -0.034  0.00  0.00    -0.097 F 
ATOM     12  F4  UNL d   1       4.255  -1.049   0.720  0.00  0.00    -0.092 F 
ENDROOT
TORSDOF 0
ENDMDL
