MODEL 1
REMARK minimizedAffinity -3.44744205
REMARK minimizedRMSD -1
REMARK  0 active torsions:
REMARK  status: ('A' for Active; 'I' for Inactive)
ROOT
ATOM      1  C   UNL d   1       2.637   0.320   0.526  0.00  0.00     0.124 A 
ATOM      2  C1  UNL d   1       2.087   1.562   0.240  0.00  0.00     0.062 A 
ATOM      3  C2  UNL d   1       0.718   1.688   0.024  0.00  0.00     0.162 A 
ATOM      4  C3  UNL d   1      -0.112   0.569   0.095  0.00  0.00    -0.034 A 
ATOM      5  C4  UNL d   1       0.449  -0.677   0.382  0.00  0.00     0.162 A 
ATOM      6  C5  UNL d   1       1.818  -0.798   0.597  0.00  0.00     0.062 A 
ATOM      7  F   UNL d   1       2.347  -1.998   0.873  0.00  0.00    -0.097 F 
ATOM      8  F1  UNL d   1      -0.320  -1.773   0.458  0.00  0.00    -0.096 F 
ATOM      9  I   UNL d   1      -2.160   0.754  -0.226  0.00  0.00    -0.060 I 
ATOM     10  F2  UNL d   1       0.214   2.901  -0.250  0.00  0.00    -0.096 F 
ATOM     11  F3  UNL d   1       2.877   2.643   0.169  0.00  0.00    -0.097 F 
ATOM     12  F4  UNL d   1       3.955   0.201   0.731  0.00  0.00    -0.092 F 
ENDROOT
TORSDOF 0
ENDMDL
