MODEL 1
REMARK minimizedAffinity 0.0857749358
REMARK minimizedRMSD -1
REMARK  0 active torsions:
REMARK  status: ('A' for Active; 'I' for Inactive)
ROOT
ATOM      1  C   UNL d   1      -0.807   1.295  -0.819  0.00  0.00     0.124 A 
ATOM      2  C1  UNL d   1      -0.927  -0.088  -0.842  0.00  0.00     0.062 A 
ATOM      3  C2  UNL d   1       0.039  -0.884  -0.233  0.00  0.00     0.162 A 
ATOM      4  C3  UNL d   1       1.134  -0.299   0.405  0.00  0.00    -0.034 A 
ATOM      5  C4  UNL d   1       1.247   1.093   0.422  0.00  0.00     0.162 A 
ATOM      6  C5  UNL d   1       0.279   1.884  -0.188  0.00  0.00     0.062 A 
ATOM      7  F   UNL d   1       0.396   3.219  -0.165  0.00  0.00    -0.097 F 
ATOM      8  F1  UNL d   1       2.286   1.688   1.026  0.00  0.00    -0.096 F 
ATOM      9  I   UNL d   1       2.580  -1.485   1.316  0.00  0.00    -0.060 I 
ATOM     10  F2  UNL d   1      -0.101  -2.217  -0.270  0.00  0.00    -0.096 F 
ATOM     11  F3  UNL d   1      -1.975  -0.659  -1.452  0.00  0.00    -0.097 F 
ATOM     12  F4  UNL d   1      -1.738   2.058  -1.407  0.00  0.00    -0.092 F 
ENDROOT
TORSDOF 0
ENDMDL
