MODEL 1
REMARK minimizedAffinity -0.826923311
REMARK minimizedRMSD -1
REMARK  0 active torsions:
REMARK  status: ('A' for Active; 'I' for Inactive)
ROOT
ATOM      1  C   UNL d   1       3.152  -0.343   0.417  0.00  0.00     0.124 A 
ATOM      2  C1  UNL d   1       2.265  -1.273  -0.108  0.00  0.00     0.062 A 
ATOM      3  C2  UNL d   1       0.936  -0.925  -0.331  0.00  0.00     0.162 A 
ATOM      4  C3  UNL d   1       0.485   0.360  -0.030  0.00  0.00    -0.034 A 
ATOM      5  C4  UNL d   1       1.382   1.290   0.499  0.00  0.00     0.162 A 
ATOM      6  C5  UNL d   1       2.710   0.937   0.720  0.00  0.00     0.062 A 
ATOM      7  F   UNL d   1       3.565   1.837   1.227  0.00  0.00    -0.097 F 
ATOM      8  F1  UNL d   1       0.982   2.534   0.800  0.00  0.00    -0.096 F 
ATOM      9  I   UNL d   1      -1.502   0.884  -0.361  0.00  0.00    -0.060 I 
ATOM     10  F2  UNL d   1       0.101  -1.844  -0.839  0.00  0.00    -0.096 F 
ATOM     11  F3  UNL d   1       2.689  -2.511  -0.401  0.00  0.00    -0.097 F 
ATOM     12  F4  UNL d   1       4.430  -0.681   0.631  0.00  0.00    -0.092 F 
ENDROOT
TORSDOF 0
ENDMDL
