MODEL 1
REMARK minimizedAffinity -0.841786265
REMARK minimizedRMSD -1
REMARK  0 active torsions:
REMARK  status: ('A' for Active; 'I' for Inactive)
ROOT
ATOM      1  C   UNL d   1      -1.026   1.488  -0.436  0.00  0.00     0.124 A 
ATOM      2  C1  UNL d   1      -1.214   0.123  -0.273  0.00  0.00     0.062 A 
ATOM      3  C2  UNL d   1      -0.126  -0.710  -0.027  0.00  0.00     0.162 A 
ATOM      4  C3  UNL d   1       1.161  -0.179   0.058  0.00  0.00    -0.034 A 
ATOM      5  C4  UNL d   1       1.343   1.195  -0.108  0.00  0.00     0.162 A 
ATOM      6  C5  UNL d   1       0.252   2.023  -0.353  0.00  0.00     0.062 A 
ATOM      7  F   UNL d   1       0.437   3.342  -0.511  0.00  0.00    -0.097 F 
ATOM      8  F1  UNL d   1       2.567   1.738  -0.033  0.00  0.00    -0.096 F 
ATOM      9  I   UNL d   1       2.790  -1.421   0.424  0.00  0.00    -0.060 I 
ATOM     10  F2  UNL d   1      -0.338  -2.025   0.126  0.00  0.00    -0.096 F 
ATOM     11  F3  UNL d   1      -2.448  -0.396  -0.353  0.00  0.00    -0.097 F 
ATOM     12  F4  UNL d   1      -2.074   2.287  -0.673  0.00  0.00    -0.092 F 
ENDROOT
TORSDOF 0
ENDMDL
