MODEL 1
REMARK minimizedAffinity -0.315995842
REMARK minimizedRMSD -1
REMARK  0 active torsions:
REMARK  status: ('A' for Active; 'I' for Inactive)
ROOT
ATOM      1  C   UNL d   1       2.295  -0.748   0.876  0.00  0.00     0.124 A 
ATOM      2  C1  UNL d   1       1.521  -1.695   0.219  0.00  0.00     0.062 A 
ATOM      3  C2  UNL d   1       0.259  -1.356  -0.261  0.00  0.00     0.162 A 
ATOM      4  C3  UNL d   1      -0.236  -0.064  -0.087  0.00  0.00    -0.034 A 
ATOM      5  C4  UNL d   1       0.547   0.882   0.576  0.00  0.00     0.162 A 
ATOM      6  C5  UNL d   1       1.808   0.539   1.054  0.00  0.00     0.062 A 
ATOM      7  F   UNL d   1       2.554   1.455   1.688  0.00  0.00    -0.097 F 
ATOM      8  F1  UNL d   1       0.101   2.134   0.760  0.00  0.00    -0.096 F 
ATOM      9  I   UNL d   1      -2.123   0.446  -0.803  0.00  0.00    -0.060 I 
ATOM     10  F2  UNL d   1      -0.467  -2.291  -0.891  0.00  0.00    -0.096 F 
ATOM     11  F3  UNL d   1       1.990  -2.939   0.048  0.00  0.00    -0.097 F 
ATOM     12  F4  UNL d   1       3.509  -1.077   1.338  0.00  0.00    -0.092 F 
ENDROOT
TORSDOF 0
ENDMDL
