MODEL 1
REMARK minimizedAffinity 1.32497621
REMARK minimizedRMSD -1
REMARK  0 active torsions:
REMARK  status: ('A' for Active; 'I' for Inactive)
ROOT
ATOM      1  C4' PXY d   1       2.837   0.032   1.083  0.00  0.00     0.077 C 
ATOM      2  C1' PXY d   1       5.709   2.775  -3.118  0.00  0.00     0.077 C 
ATOM      3  C1  PXY d   1       4.946   2.055  -2.024  0.00  0.00    -0.082 A 
ATOM      4  C2  PXY d   1       5.319   2.197  -0.763  0.00  0.00     0.003 A 
ATOM      5  C3  PXY d   1       4.660   1.528   0.236  0.00  0.00     0.003 A 
ATOM      6  C4  PXY d   1       3.573   0.747  -0.054  0.00  0.00    -0.082 A 
ATOM      7  C5  PXY d   1       3.179   0.605  -1.337  0.00  0.00     0.003 A 
ATOM      8  C6  PXY d   1       3.887   1.260  -2.340  0.00  0.00     0.003 A 
ENDROOT
TORSDOF 0
ENDMDL
