MODEL 1
REMARK minimizedAffinity 2.41296983
REMARK minimizedRMSD -1
REMARK  0 active torsions:
REMARK  status: ('A' for Active; 'I' for Inactive)
ROOT
ATOM      1  C4' PXY d   1       2.930   0.179   0.949  0.00  0.00     0.077 C 
ATOM      2  C1' PXY d   1       5.996   2.837  -3.169  0.00  0.00     0.077 C 
ATOM      3  C1  PXY d   1       5.181   2.140  -2.097  0.00  0.00    -0.082 A 
ATOM      4  C2  PXY d   1       5.553   2.231  -0.830  0.00  0.00     0.003 A 
ATOM      5  C3  PXY d   1       4.847   1.581   0.149  0.00  0.00     0.003 A 
ATOM      6  C4  PXY d   1       3.717   0.874  -0.166  0.00  0.00    -0.082 A 
ATOM      7  C5  PXY d   1       3.325   0.785  -1.455  0.00  0.00     0.003 A 
ATOM      8  C6  PXY d   1       4.080   1.418  -2.438  0.00  0.00     0.003 A 
ENDROOT
TORSDOF 0
ENDMDL
