MODEL 1
REMARK minimizedAffinity 6.72502279
REMARK minimizedRMSD -1
REMARK  0 active torsions:
REMARK  status: ('A' for Active; 'I' for Inactive)
ROOT
ATOM      1  C4' PXY d   1       6.000   2.639  -3.367  0.00  0.00     0.077 C 
ATOM      2  C1' PXY d   1       1.817  -0.220  -0.584  0.00  0.00     0.077 C 
ATOM      3  C1  PXY d   1       2.915   0.538  -1.304  0.00  0.00    -0.082 A 
ATOM      4  C2  PXY d   1       3.037   0.422  -2.617  0.00  0.00     0.003 A 
ATOM      5  C3  PXY d   1       4.044   1.076  -3.280  0.00  0.00     0.003 A 
ATOM      6  C4  PXY d   1       4.901   1.899  -2.600  0.00  0.00    -0.082 A 
ATOM      7  C5  PXY d   1       4.776   2.030  -1.262  0.00  0.00     0.003 A 
ATOM      8  C6  PXY d   1       3.773   1.326  -0.602  0.00  0.00     0.003 A 
ENDROOT
TORSDOF 0
ENDMDL
