MODEL 1
REMARK minimizedAffinity -2.32581878
REMARK minimizedRMSD -1
REMARK  0 active torsions:
REMARK  status: ('A' for Active; 'I' for Inactive)
ROOT
ATOM      1  C4' PXY d   1      -2.000  -0.477  -2.043  0.00  0.00     0.077 C 
ATOM      2  C1' PXY d   1      -5.841   2.053  -5.544  0.00  0.00     0.077 C 
ATOM      3  C1  PXY d   1      -4.824   1.396  -4.632  0.00  0.00    -0.082 A 
ATOM      4  C2  PXY d   1      -5.108   0.236  -4.064  0.00  0.00     0.003 A 
ATOM      5  C3  PXY d   1      -4.213  -0.357  -3.211  0.00  0.00     0.003 A 
ATOM      6  C4  PXY d   1      -2.992   0.218  -2.979  0.00  0.00    -0.082 A 
ATOM      7  C5  PXY d   1      -2.691   1.397  -3.563  0.00  0.00     0.003 A 
ATOM      8  C6  PXY d   1      -3.630   2.002  -4.394  0.00  0.00     0.003 A 
ENDROOT
TORSDOF 0
ENDMDL
