MODEL 1
REMARK minimizedAffinity 7.79604864
REMARK minimizedRMSD -1
REMARK  0 active torsions:
REMARK  status: ('A' for Active; 'I' for Inactive)
ROOT
ATOM      1  C4' PXY d   1       5.942   2.471  -3.274  0.00  0.00     0.077 C 
ATOM      2  C1' PXY d   1       2.511   0.051   0.700  0.00  0.00     0.077 C 
ATOM      3  C1  PXY d   1       3.415   0.695  -0.333  0.00  0.00    -0.082 A 
ATOM      4  C2  PXY d   1       3.135   0.562  -1.620  0.00  0.00     0.003 A 
ATOM      5  C3  PXY d   1       3.959   1.111  -2.568  0.00  0.00     0.003 A 
ATOM      6  C4  PXY d   1       5.052   1.847  -2.195  0.00  0.00    -0.082 A 
ATOM      7  C5  PXY d   1       5.338   1.995  -0.884  0.00  0.00     0.003 A 
ATOM      8  C6  PXY d   1       4.511   1.396   0.062  0.00  0.00     0.003 A 
ENDROOT
TORSDOF 0
ENDMDL
