MODEL 1
REMARK minimizedAffinity 15.1318674
REMARK minimizedRMSD -1
REMARK  0 active torsions:
REMARK  status: ('A' for Active; 'I' for Inactive)
ROOT
ATOM      1  C4' PXY d   1      -5.703   2.990  -5.075  0.00  0.00     0.077 C 
ATOM      2  C1' PXY d   1      -4.200  -2.588  -5.284  0.00  0.00     0.077 C 
ATOM      3  C1  PXY d   1      -4.599  -1.126  -5.241  0.00  0.00    -0.082 A 
ATOM      4  C2  PXY d   1      -3.939  -0.290  -4.455  0.00  0.00     0.003 A 
ATOM      5  C3  PXY d   1      -4.308   1.028  -4.380  0.00  0.00     0.003 A 
ATOM      6  C4  PXY d   1      -5.328   1.508  -5.157  0.00  0.00    -0.082 A 
ATOM      7  C5  PXY d   1      -5.999   0.664  -5.969  0.00  0.00     0.003 A 
ATOM      8  C6  PXY d   1      -5.636  -0.680  -6.000  0.00  0.00     0.003 A 
ENDROOT
TORSDOF 0
ENDMDL
