MODEL 1
REMARK minimizedAffinity -4.95953274
REMARK minimizedRMSD -1
REMARK  0 active torsions:
REMARK  status: ('A' for Active; 'I' for Inactive)
ROOT
ATOM      1  C1  DEN d   1      -1.659   1.094   1.180  0.00  0.00     0.130 A 
ATOM      2  C2  DEN d   1      -0.783   2.236   0.931  0.00  0.00    -0.031 A 
ATOM      3  C3  DEN d   1       0.546   1.717   0.550  0.00  0.00     0.027 A 
ATOM      4  C4  DEN d   1       1.327  -0.730   0.316  0.00  0.00     0.027 A 
ATOM      5  C5  DEN d   1       0.943  -2.047   0.435  0.00  0.00    -0.003 A 
ATOM      6  C6  DEN d   1      -0.316  -2.407   0.841  0.00  0.00     0.001 A 
ATOM      7  C7  DEN d   1      -1.249  -1.437   1.098  0.00  0.00     0.017 A 
ATOM      8  C8  DEN d   1      -0.866  -0.107   0.987  0.00  0.00    -0.094 A 
ATOM      9  C9  DEN d   1       0.407   0.236   0.564  0.00  0.00    -0.072 A 
ENDROOT
TORSDOF 0
ENDMDL
