MODEL 1
REMARK minimizedAffinity -4.62460327
REMARK minimizedRMSD -1
REMARK  0 active torsions:
REMARK  status: ('A' for Active; 'I' for Inactive)
ROOT
ATOM      1  C1  DEN d   1      -1.140   1.135  -1.236  0.00  0.00     0.130 A 
ATOM      2  C2  DEN d   1      -0.656   0.319  -0.126  0.00  0.00    -0.031 A 
ATOM      3  C3  DEN d   1       0.819   0.297  -0.186  0.00  0.00     0.027 A 
ATOM      4  C4  DEN d   1       2.392   1.444  -1.878  0.00  0.00     0.027 A 
ATOM      5  C5  DEN d   1       2.445   2.235  -3.004  0.00  0.00    -0.003 A 
ATOM      6  C6  DEN d   1       1.314   2.683  -3.635  0.00  0.00     0.001 A 
ATOM      7  C7  DEN d   1       0.083   2.380  -3.117  0.00  0.00     0.017 A 
ATOM      8  C8  DEN d   1       0.022   1.577  -1.986  0.00  0.00    -0.094 A 
ATOM      9  C9  DEN d   1       1.176   1.145  -1.355  0.00  0.00    -0.072 A 
ENDROOT
TORSDOF 0
ENDMDL
