MODEL 1
REMARK minimizedAffinity -4.98476744
REMARK minimizedRMSD -1
REMARK  0 active torsions:
REMARK  status: ('A' for Active; 'I' for Inactive)
ROOT
ATOM      1  C1  DEN d   1       1.229   0.689   0.611  0.00  0.00     0.130 A 
ATOM      2  C2  DEN d   1       2.209  -0.390   0.519  0.00  0.00    -0.031 A 
ATOM      3  C3  DEN d   1       1.474  -1.670   0.462  0.00  0.00     0.027 A 
ATOM      4  C4  DEN d   1      -1.071  -2.084   0.501  0.00  0.00     0.027 A 
ATOM      5  C5  DEN d   1      -2.306  -1.478   0.582  0.00  0.00    -0.003 A 
ATOM      6  C6  DEN d   1      -2.447  -0.122   0.711  0.00  0.00     0.001 A 
ATOM      7  C7  DEN d   1      -1.335   0.679   0.718  0.00  0.00     0.017 A 
ATOM      8  C8  DEN d   1      -0.087   0.075   0.644  0.00  0.00    -0.094 A 
ATOM      9  C9  DEN d   1       0.035  -1.297   0.502  0.00  0.00    -0.072 A 
ENDROOT
TORSDOF 0
ENDMDL
