MODEL 1
REMARK minimizedAffinity -4.45070124
REMARK minimizedRMSD -1
REMARK  0 active torsions:
REMARK  status: ('A' for Active; 'I' for Inactive)
ROOT
ATOM      1  C1  DEN d   1      -0.669   0.868   0.242  0.00  0.00     0.130 A 
ATOM      2  C2  DEN d   1       0.747   0.642  -0.033  0.00  0.00    -0.031 A 
ATOM      3  C3  DEN d   1       1.042  -0.780   0.231  0.00  0.00     0.027 A 
ATOM      4  C4  DEN d   1      -0.550  -2.646   1.030  0.00  0.00     0.027 A 
ATOM      5  C5  DEN d   1      -1.843  -2.933   1.407  0.00  0.00    -0.003 A 
ATOM      6  C6  DEN d   1      -2.820  -1.974   1.455  0.00  0.00     0.001 A 
ATOM      7  C7  DEN d   1      -2.529  -0.690   1.076  0.00  0.00     0.017 A 
ATOM      8  C8  DEN d   1      -1.226  -0.391   0.702  0.00  0.00    -0.094 A 
ATOM      9  C9  DEN d   1      -0.256  -1.378   0.648  0.00  0.00    -0.072 A 
ENDROOT
TORSDOF 0
ENDMDL
