MODEL 1
REMARK minimizedAffinity 0.0308856145
REMARK minimizedRMSD -1
REMARK  0 active torsions:
REMARK  status: ('A' for Active; 'I' for Inactive)
ROOT
ATOM      1  C1  DEN d   1      -1.484  -0.697   1.490  0.00  0.00     0.130 A 
ATOM      2  C2  DEN d   1      -1.122  -2.079   1.794  0.00  0.00    -0.031 A 
ATOM      3  C3  DEN d   1       0.080  -2.420   1.007  0.00  0.00     0.027 A 
ATOM      4  C4  DEN d   1       1.413  -0.948  -0.639  0.00  0.00     0.027 A 
ATOM      5  C5  DEN d   1       1.482   0.294  -1.232  0.00  0.00    -0.003 A 
ATOM      6  C6  DEN d   1       0.556   1.273  -0.986  0.00  0.00     0.001 A 
ATOM      7  C7  DEN d   1      -0.455   1.042  -0.091  0.00  0.00     0.017 A 
ATOM      8  C8  DEN d   1      -0.536  -0.210   0.504  0.00  0.00    -0.094 A 
ATOM      9  C9  DEN d   1       0.417  -1.182   0.253  0.00  0.00    -0.072 A 
ENDROOT
TORSDOF 0
ENDMDL
