MODEL 1
REMARK minimizedAffinity -5.08915472
REMARK minimizedRMSD -1
REMARK  0 active torsions:
REMARK  status: ('A' for Active; 'I' for Inactive)
ROOT
ATOM      1  C1  DEN d   1       1.810  -0.136  -0.569  0.00  0.00     0.130 A 
ATOM      2  C2  DEN d   1       1.605   1.299  -0.746  0.00  0.00    -0.031 A 
ATOM      3  C3  DEN d   1       0.235   1.623  -0.302  0.00  0.00     0.027 A 
ATOM      4  C4  DEN d   1      -1.579   0.051   0.642  0.00  0.00     0.027 A 
ATOM      5  C5  DEN d   1      -1.874  -1.255   0.967  0.00  0.00    -0.003 A 
ATOM      6  C6  DEN d   1      -0.982  -2.276   0.773  0.00  0.00     0.001 A 
ATOM      7  C7  DEN d   1       0.266  -2.001   0.281  0.00  0.00     0.017 A 
ATOM      8  C8  DEN d   1       0.569  -0.689  -0.056  0.00  0.00    -0.094 A 
ATOM      9  C9  DEN d   1      -0.342   0.331   0.159  0.00  0.00    -0.072 A 
ENDROOT
TORSDOF 0
ENDMDL
