MODEL 1
REMARK minimizedAffinity -3.37949896
REMARK minimizedRMSD -1
REMARK  0 active torsions:
REMARK  status: ('A' for Active; 'I' for Inactive)
ROOT
ATOM      1  C1  DEN d   1      -0.962   0.932  -0.646  0.00  0.00     0.130 A 
ATOM      2  C2  DEN d   1       0.451   1.214  -0.884  0.00  0.00    -0.031 A 
ATOM      3  C3  DEN d   1       1.234   0.057  -0.407  0.00  0.00     0.027 A 
ATOM      4  C4  DEN d   1       0.401  -2.134   0.669  0.00  0.00     0.027 A 
ATOM      5  C5  DEN d   1      -0.714  -2.826   1.087  0.00  0.00    -0.003 A 
ATOM      6  C6  DEN d   1      -1.977  -2.304   0.990  0.00  0.00     0.001 A 
ATOM      7  C7  DEN d   1      -2.160  -1.072   0.419  0.00  0.00     0.017 A 
ATOM      8  C8  DEN d   1      -1.039  -0.366   0.001  0.00  0.00    -0.094 A 
ATOM      9  C9  DEN d   1       0.227  -0.916   0.098  0.00  0.00    -0.072 A 
ENDROOT
TORSDOF 0
ENDMDL
