MODEL 1
REMARK minimizedAffinity -3.90181327
REMARK minimizedRMSD -1
REMARK  0 active torsions:
REMARK  status: ('A' for Active; 'I' for Inactive)
ROOT
ATOM      1  C1  DEN d   1      -1.571  -2.250   1.354  0.00  0.00     0.130 A 
ATOM      2  C2  DEN d   1      -2.643  -1.663   0.554  0.00  0.00    -0.031 A 
ATOM      3  C3  DEN d   1      -2.065  -0.571  -0.254  0.00  0.00     0.027 A 
ATOM      4  C4  DEN d   1       0.375   0.261  -0.347  0.00  0.00     0.027 A 
ATOM      5  C5  DEN d   1       1.642   0.082   0.161  0.00  0.00    -0.003 A 
ATOM      6  C6  DEN d   1       1.919  -0.856   1.120  0.00  0.00     0.001 A 
ATOM      7  C7  DEN d   1       0.922  -1.683   1.567  0.00  0.00     0.017 A 
ATOM      8  C8  DEN d   1      -0.360  -1.503   1.065  0.00  0.00    -0.094 A 
ATOM      9  C9  DEN d   1      -0.617  -0.557   0.087  0.00  0.00    -0.072 A 
ENDROOT
TORSDOF 0
ENDMDL
