MODEL 1
REMARK minimizedAffinity -5.55668497
REMARK minimizedRMSD -1
REMARK  0 active torsions:
REMARK  status: ('A' for Active; 'I' for Inactive)
ROOT
ATOM      1  C1  DEN d   1      -2.101  -1.585   1.107  0.00  0.00     0.130 A 
ATOM      2  C2  DEN d   1      -1.558  -2.894   1.461  0.00  0.00    -0.031 A 
ATOM      3  C3  DEN d   1      -0.102  -2.865   1.218  0.00  0.00     0.027 A 
ATOM      4  C4  DEN d   1       1.358  -0.930   0.337  0.00  0.00     0.027 A 
ATOM      5  C5  DEN d   1       1.345   0.372  -0.111  0.00  0.00    -0.003 A 
ATOM      6  C6  DEN d   1       0.187   1.096  -0.216  0.00  0.00     0.001 A 
ATOM      7  C7  DEN d   1      -1.001   0.537   0.175  0.00  0.00     0.017 A 
ATOM      8  C8  DEN d   1      -0.996  -0.778   0.621  0.00  0.00    -0.094 A 
ATOM      9  C9  DEN d   1       0.186  -1.489   0.731  0.00  0.00    -0.072 A 
ENDROOT
TORSDOF 0
ENDMDL
