MODEL 1
REMARK minimizedAffinity -4.19291306
REMARK minimizedRMSD -1
REMARK  0 active torsions:
REMARK  status: ('A' for Active; 'I' for Inactive)
ROOT
ATOM      1  C1  DEN d   1      -0.437   0.378  -1.708  0.00  0.00     0.130 A 
ATOM      2  C2  DEN d   1       0.739   1.208  -1.463  0.00  0.00    -0.031 A 
ATOM      3  C3  DEN d   1       1.421   0.689  -0.261  0.00  0.00     0.027 A 
ATOM      4  C4  DEN d   1       0.776  -1.310   1.236  0.00  0.00     0.027 A 
ATOM      5  C5  DEN d   1      -0.149  -2.312   1.434  0.00  0.00    -0.003 A 
ATOM      6  C6  DEN d   1      -1.244  -2.465   0.625  0.00  0.00     0.001 A 
ATOM      7  C7  DEN d   1      -1.418  -1.630  -0.447  0.00  0.00     0.017 A 
ATOM      8  C8  DEN d   1      -0.494  -0.613  -0.649  0.00  0.00    -0.094 A 
ATOM      9  C9  DEN d   1       0.613  -0.482   0.173  0.00  0.00    -0.072 A 
ENDROOT
TORSDOF 0
ENDMDL
