MODEL 1
REMARK minimizedAffinity 0.495146364
REMARK minimizedRMSD -1
REMARK  0 active torsions:
REMARK  status: ('A' for Active; 'I' for Inactive)
ROOT
ATOM      1  C1  DEN d   1      -2.339  -0.558   0.575  0.00  0.00     0.130 A 
ATOM      2  C2  DEN d   1      -2.112  -1.882   1.148  0.00  0.00    -0.031 A 
ATOM      3  C3  DEN d   1      -0.674  -2.194   1.018  0.00  0.00     0.027 A 
ATOM      4  C4  DEN d   1       1.212  -0.762  -0.003  0.00  0.00     0.027 A 
ATOM      5  C5  DEN d   1       1.504   0.431  -0.626  0.00  0.00    -0.003 A 
ATOM      6  C6  DEN d   1       0.537   1.356  -0.921  0.00  0.00     0.001 A 
ATOM      7  C7  DEN d   1      -0.761   1.123  -0.551  0.00  0.00     0.017 A 
ATOM      8  C8  DEN d   1      -1.064  -0.081   0.071  0.00  0.00    -0.094 A 
ATOM      9  C9  DEN d   1      -0.071  -0.998   0.371  0.00  0.00    -0.072 A 
ENDROOT
TORSDOF 0
ENDMDL
