MODEL 1
REMARK minimizedAffinity -4.71776581
REMARK minimizedRMSD -1
REMARK  0 active torsions:
REMARK  status: ('A' for Active; 'I' for Inactive)
ROOT
ATOM      1  C1  DEN d   1      -1.873  -2.039  -0.186  0.00  0.00     0.130 A 
ATOM      2  C2  DEN d   1      -1.576  -2.794   1.029  0.00  0.00    -0.031 A 
ATOM      3  C3  DEN d   1      -0.311  -2.277   1.590  0.00  0.00     0.027 A 
ATOM      4  C4  DEN d   1       1.205  -0.388   0.703  0.00  0.00     0.027 A 
ATOM      5  C5  DEN d   1       1.373   0.538  -0.303  0.00  0.00    -0.003 A 
ATOM      6  C6  DEN d   1       0.496   0.646  -1.349  0.00  0.00     0.001 A 
ATOM      7  C7  DEN d   1      -0.614  -0.156  -1.390  0.00  0.00     0.017 A 
ATOM      8  C8  DEN d   1      -0.786  -1.097  -0.384  0.00  0.00    -0.094 A 
ATOM      9  C9  DEN d   1       0.105  -1.183   0.672  0.00  0.00    -0.072 A 
ENDROOT
TORSDOF 0
ENDMDL
