MODEL 1
REMARK minimizedAffinity -3.8018806
REMARK minimizedRMSD -1
REMARK  0 active torsions:
REMARK  status: ('A' for Active; 'I' for Inactive)
ROOT
ATOM      1  C1  DEN d   1      -0.037   0.043  -1.403  0.00  0.00     0.130 A 
ATOM      2  C2  DEN d   1       0.734   1.114  -0.779  0.00  0.00    -0.031 A 
ATOM      3  C3  DEN d   1       0.655   0.942   0.685  0.00  0.00     0.027 A 
ATOM      4  C4  DEN d   1      -0.577  -0.875   2.040  0.00  0.00     0.027 A 
ATOM      5  C5  DEN d   1      -1.378  -1.992   1.951  0.00  0.00    -0.003 A 
ATOM      6  C6  DEN d   1      -1.812  -2.485   0.750  0.00  0.00     0.001 A 
ATOM      7  C7  DEN d   1      -1.411  -1.886  -0.415  0.00  0.00     0.017 A 
ATOM      8  C8  DEN d   1      -0.609  -0.755  -0.333  0.00  0.00    -0.094 A 
ATOM      9  C9  DEN d   1      -0.171  -0.279   0.890  0.00  0.00    -0.072 A 
ENDROOT
TORSDOF 0
ENDMDL
