MODEL 1
REMARK minimizedAffinity 8.82720757
REMARK minimizedRMSD -1
REMARK  1 active torsions:
REMARK  status: ('A' for Active; 'I' for Inactive)
REMARK    1  A    between atoms: C1_2  and  C2_3 
ROOT
ATOM      1  C2  UNL d   1       0.412  -0.211  -0.879  0.00  0.00    -0.081 A 
ATOM      2  C3  UNL d   1       1.511  -1.064  -0.717  0.00  0.00     0.006 A 
ATOM      3  C4  UNL d   1       2.020  -1.329   0.556  0.00  0.00     0.002 A 
ATOM      4  C5  UNL d   1       1.435  -0.753   1.689  0.00  0.00    -0.080 A 
ATOM      5  C6  UNL d   1       1.953  -1.054   3.064  0.00  0.00     0.076 C 
ATOM      6  C7  UNL d   1       0.348   0.113   1.526  0.00  0.00     0.002 A 
ATOM      7  C8  UNL d   1      -0.161   0.379   0.253  0.00  0.00     0.006 A 
ENDROOT
BRANCH   1   8
ATOM      8  C1  UNL d   1      -0.180   0.026  -2.245  0.00  0.00     0.054 C 
ATOM      9  C   UNL d   1      -1.295  -0.966  -2.544  0.00  0.00     0.018 C 
ENDBRANCH   1   8
TORSDOF 1
ENDMDL
