MODEL 1
REMARK minimizedAffinity 5.97641706
REMARK minimizedRMSD -1
REMARK  1 active torsions:
REMARK  status: ('A' for Active; 'I' for Inactive)
REMARK    1  A    between atoms: C1_2  and  C2_3 
ROOT
ATOM      1  C2  UNL d   1      -5.662  -0.850   2.404  0.00  0.00    -0.081 A 
ATOM      2  C3  UNL d   1      -5.743  -0.259   3.670  0.00  0.00     0.006 A 
ATOM      3  C4  UNL d   1      -5.861  -1.050   4.815  0.00  0.00     0.002 A 
ATOM      4  C5  UNL d   1      -5.891  -2.445   4.714  0.00  0.00    -0.080 A 
ATOM      5  C6  UNL d   1      -5.987  -3.306   5.938  0.00  0.00     0.076 C 
ATOM      6  C7  UNL d   1      -5.828  -3.036   3.448  0.00  0.00     0.002 A 
ATOM      7  C8  UNL d   1      -5.711  -2.245   2.302  0.00  0.00     0.006 A 
ENDROOT
BRANCH   1   8
ATOM      8  C1  UNL d   1      -5.470  -0.003   1.172  0.00  0.00     0.054 C 
ATOM      9  C   UNL d   1      -4.267   0.918   1.316  0.00  0.00     0.018 C 
ENDBRANCH   1   8
TORSDOF 1
ENDMDL
