MODEL 1
REMARK minimizedAffinity 6.77903843
REMARK minimizedRMSD -1
REMARK  1 active torsions:
REMARK  status: ('A' for Active; 'I' for Inactive)
REMARK    1  A    between atoms: C1_2  and  C2_3 
ROOT
ATOM      1  C2  UNL d   1      -5.726  -1.195   2.363  0.00  0.00    -0.081 A 
ATOM      2  C3  UNL d   1      -5.668  -0.626   3.641  0.00  0.00     0.006 A 
ATOM      3  C4  UNL d   1      -5.767  -1.431   4.779  0.00  0.00     0.002 A 
ATOM      4  C5  UNL d   1      -5.919  -2.816   4.658  0.00  0.00    -0.080 A 
ATOM      5  C6  UNL d   1      -5.996  -3.694   5.871  0.00  0.00     0.076 C 
ATOM      6  C7  UNL d   1      -5.995  -3.382   3.380  0.00  0.00     0.002 A 
ATOM      7  C8  UNL d   1      -5.896  -2.578   2.242  0.00  0.00     0.006 A 
ENDROOT
BRANCH   1   8
ATOM      8  C1  UNL d   1      -5.554  -0.338   1.134  0.00  0.00     0.054 C 
ATOM      9  C   UNL d   1      -4.330   0.558   1.252  0.00  0.00     0.018 C 
ENDBRANCH   1   8
TORSDOF 1
ENDMDL
