MODEL 1
REMARK minimizedAffinity 4.63906717
REMARK minimizedRMSD -1
REMARK  1 active torsions:
REMARK  status: ('A' for Active; 'I' for Inactive)
REMARK    1  A    between atoms: C1_2  and  C2_3 
ROOT
ATOM      1  C2  UNL d   1       0.537   1.578   2.200  0.00  0.00    -0.081 A 
ATOM      2  C3  UNL d   1       0.767   2.957   2.290  0.00  0.00     0.006 A 
ATOM      3  C4  UNL d   1       0.583   3.780   1.177  0.00  0.00     0.002 A 
ATOM      4  C5  UNL d   1       0.159   3.240  -0.042  0.00  0.00    -0.080 A 
ATOM      5  C6  UNL d   1      -0.072   4.117  -1.237  0.00  0.00     0.076 C 
ATOM      6  C7  UNL d   1      -0.054   1.861  -0.138  0.00  0.00     0.002 A 
ATOM      7  C8  UNL d   1       0.130   1.037   0.975  0.00  0.00     0.006 A 
ENDROOT
BRANCH   1   8
ATOM      8  C1  UNL d   1       0.672   0.697   3.415  0.00  0.00     0.054 C 
ATOM      9  C   UNL d   1       0.329  -0.750   3.091  0.00  0.00     0.018 C 
ENDBRANCH   1   8
TORSDOF 1
ENDMDL
