MODEL 1
REMARK minimizedAffinity 8.86190701
REMARK minimizedRMSD -1
REMARK  1 active torsions:
REMARK  status: ('A' for Active; 'I' for Inactive)
REMARK    1  A    between atoms: C1_2  and  C2_3 
ROOT
ATOM      1  C2  UNL d   1       0.263   2.110   1.671  0.00  0.00    -0.081 A 
ATOM      2  C3  UNL d   1       0.503   3.487   1.580  0.00  0.00     0.006 A 
ATOM      3  C4  UNL d   1       0.198   4.183   0.408  0.00  0.00     0.002 A 
ATOM      4  C5  UNL d   1      -0.360   3.516  -0.689  0.00  0.00    -0.080 A 
ATOM      5  C6  UNL d   1      -0.721   4.257  -1.942  0.00  0.00     0.076 C 
ATOM      6  C7  UNL d   1      -0.584   2.138  -0.604  0.00  0.00     0.002 A 
ATOM      7  C8  UNL d   1      -0.277   1.441   0.568  0.00  0.00     0.006 A 
ENDROOT
BRANCH   1   8
ATOM      8  C1  UNL d   1       0.532   1.369   2.956  0.00  0.00     0.054 C 
ATOM      9  C   UNL d   1       0.461  -0.137   2.751  0.00  0.00     0.018 C 
ENDBRANCH   1   8
TORSDOF 1
ENDMDL
