MODEL 1
REMARK minimizedAffinity 7.1293726
REMARK minimizedRMSD -1
REMARK  1 active torsions:
REMARK  status: ('A' for Active; 'I' for Inactive)
REMARK    1  A    between atoms: C1_2  and  C2_3 
ROOT
ATOM      1  C2  UNL d   1      -0.108   0.194  -0.540  0.00  0.00    -0.081 A 
ATOM      2  C3  UNL d   1      -0.031   1.104   0.522  0.00  0.00     0.006 A 
ATOM      3  C4  UNL d   1       0.651   0.769   1.694  0.00  0.00     0.002 A 
ATOM      4  C5  UNL d   1       1.273  -0.477   1.821  0.00  0.00    -0.080 A 
ATOM      5  C6  UNL d   1       2.034  -0.838   3.063  0.00  0.00     0.076 C 
ATOM      6  C7  UNL d   1       1.181  -1.393   0.768  0.00  0.00     0.002 A 
ATOM      7  C8  UNL d   1       0.499  -1.059  -0.404  0.00  0.00     0.006 A 
ENDROOT
BRANCH   1   8
ATOM      8  C1  UNL d   1      -0.787   0.577  -1.830  0.00  0.00     0.054 C 
ATOM      9  C   UNL d   1      -2.076  -0.207  -2.031  0.00  0.00     0.018 C 
ENDBRANCH   1   8
TORSDOF 1
ENDMDL
