MODEL 1
REMARK minimizedAffinity 5.31269789
REMARK minimizedRMSD -1
REMARK  1 active torsions:
REMARK  status: ('A' for Active; 'I' for Inactive)
REMARK    1  A    between atoms: C1_2  and  C2_3 
ROOT
ATOM      1  C2  UNL d   1       0.963  -4.017  -0.224  0.00  0.00    -0.081 A 
ATOM      2  C3  UNL d   1       0.117  -4.920  -0.879  0.00  0.00     0.006 A 
ATOM      3  C4  UNL d   1      -1.063  -4.476  -1.481  0.00  0.00     0.002 A 
ATOM      4  C5  UNL d   1      -1.412  -3.121  -1.446  0.00  0.00    -0.080 A 
ATOM      5  C6  UNL d   1      -2.660  -2.627  -2.114  0.00  0.00     0.076 C 
ATOM      6  C7  UNL d   1      -0.575  -2.222  -0.777  0.00  0.00     0.002 A 
ATOM      7  C8  UNL d   1       0.604  -2.665  -0.174  0.00  0.00     0.006 A 
ENDROOT
BRANCH   1   8
ATOM      8  C1  UNL d   1       2.268  -4.482   0.370  0.00  0.00     0.054 C 
ATOM      9  C   UNL d   1       2.382  -6.000   0.335  0.00  0.00     0.018 C 
ENDBRANCH   1   8
TORSDOF 1
ENDMDL
