MODEL 1
REMARK minimizedAffinity 4.02407265
REMARK minimizedRMSD -1
REMARK  1 active torsions:
REMARK  status: ('A' for Active; 'I' for Inactive)
REMARK    1  A    between atoms: C1_2  and  C2_3 
ROOT
ATOM      1  C2  UNL d   1       1.986   4.010   5.982  0.00  0.00    -0.076 A 
ATOM      2  C3  UNL d   1       2.978   5.005   5.964  0.00  0.00     0.004 A 
ATOM      3  C4  UNL d   1       4.331   4.669   5.972  0.00  0.00    -0.003 A 
ATOM      4  C5  UNL d   1       4.713   3.332   5.999  0.00  0.00     0.000 A 
ATOM      5  C6  UNL d   1       3.742   2.331   6.000  0.00  0.00     0.000 A 
ATOM      6  C7  UNL d   1       2.374   2.653   5.975  0.00  0.00    -0.073 A 
ATOM      7  C8  UNL d   1       1.369   1.534   5.983  0.00  0.00     0.078 C 
ENDROOT
BRANCH   1   8
ATOM      8  C1  UNL d   1       0.535   4.435   6.000  0.00  0.00     0.053 C 
ATOM      9  C   UNL d   1       0.289   5.702   5.196  0.00  0.00     0.018 C 
ENDBRANCH   1   8
TORSDOF 1
ENDMDL
