MODEL 1
REMARK minimizedAffinity -1.4666394
REMARK minimizedRMSD -1
REMARK  1 active torsions:
REMARK  status: ('A' for Active; 'I' for Inactive)
REMARK    1  A    between atoms: C1_2  and  C2_3 
ROOT
ATOM      1  C2  UNL d   1       3.682   4.136   5.970  0.00  0.00    -0.076 A 
ATOM      2  C3  UNL d   1       4.771   3.247   5.941  0.00  0.00     0.004 A 
ATOM      3  C4  UNL d   1       4.571   1.867   5.950  0.00  0.00    -0.003 A 
ATOM      4  C5  UNL d   1       3.279   1.354   5.988  0.00  0.00     0.000 A 
ATOM      5  C6  UNL d   1       2.187   2.221   5.999  0.00  0.00     0.000 A 
ATOM      6  C7  UNL d   1       2.370   3.614   5.974  0.00  0.00    -0.073 A 
ATOM      7  C8  UNL d   1       1.157   4.503   5.994  0.00  0.00     0.078 C 
ENDROOT
BRANCH   1   8
ATOM      8  C1  UNL d   1       3.961   5.622   5.986  0.00  0.00     0.053 C 
ATOM      9  C   UNL d   1       5.449   5.935   6.000  0.00  0.00     0.018 C 
ENDBRANCH   1   8
TORSDOF 1
ENDMDL
