MODEL 1
REMARK minimizedAffinity 1.80669439
REMARK minimizedRMSD -1
REMARK  0 active torsions:
REMARK  status: ('A' for Active; 'I' for Inactive)
ROOT
ATOM      1  C   UNL d   1      -4.829   0.001  -5.858  0.00  0.00     0.077 C 
ATOM      2  C1  UNL d   1      -4.571   1.369  -5.301  0.00  0.00    -0.074 A 
ATOM      3  C2  UNL d   1      -5.559   2.358  -5.336  0.00  0.00    -0.005 A 
ATOM      4  C3  UNL d   1      -5.308   3.623  -4.805  0.00  0.00     0.006 A 
ATOM      5  C4  UNL d   1      -4.067   3.912  -4.235  0.00  0.00    -0.005 A 
ATOM      6  C5  UNL d   1      -3.067   2.936  -4.191  0.00  0.00    -0.074 A 
ATOM      7  C6  UNL d   1      -1.731   3.227  -3.574  0.00  0.00     0.077 C 
ATOM      8  C7  UNL d   1      -3.330   1.665  -4.720  0.00  0.00    -0.001 A 
ENDROOT
TORSDOF 0
ENDMDL
