MODEL 1
REMARK minimizedAffinity 6.45695019
REMARK minimizedRMSD -1
REMARK  0 active torsions:
REMARK  status: ('A' for Active; 'I' for Inactive)
ROOT
ATOM      1  C   UNL d   1       0.947  -1.180  -1.434  0.00  0.00     0.077 C 
ATOM      2  C1  UNL d   1       1.482   0.219  -1.520  0.00  0.00    -0.074 A 
ATOM      3  C2  UNL d   1       2.443   0.678  -0.614  0.00  0.00    -0.005 A 
ATOM      4  C3  UNL d   1       2.939   1.978  -0.713  0.00  0.00     0.006 A 
ATOM      5  C4  UNL d   1       2.479   2.831  -1.718  0.00  0.00    -0.005 A 
ATOM      6  C5  UNL d   1       1.519   2.388  -2.634  0.00  0.00    -0.074 A 
ATOM      7  C6  UNL d   1       1.022   3.289  -3.725  0.00  0.00     0.077 C 
ATOM      8  C7  UNL d   1       1.031   1.078  -2.532  0.00  0.00    -0.001 A 
ENDROOT
TORSDOF 0
ENDMDL
