MODEL 1
REMARK minimizedAffinity 6.69665527
REMARK minimizedRMSD -1
REMARK  0 active torsions:
REMARK  status: ('A' for Active; 'I' for Inactive)
ROOT
ATOM      1  C   UNL d   1       0.152  -0.749  -1.604  0.00  0.00     0.077 C 
ATOM      2  C1  UNL d   1       1.049   0.448  -1.718  0.00  0.00    -0.074 A 
ATOM      3  C2  UNL d   1       1.304   1.039  -2.960  0.00  0.00    -0.005 A 
ATOM      4  C3  UNL d   1       2.133   2.158  -3.049  0.00  0.00     0.006 A 
ATOM      5  C4  UNL d   1       2.713   2.696  -1.899  0.00  0.00    -0.005 A 
ATOM      6  C5  UNL d   1       2.468   2.119  -0.649  0.00  0.00    -0.074 A 
ATOM      7  C6  UNL d   1       3.076   2.690   0.597  0.00  0.00     0.077 C 
ATOM      8  C7  UNL d   1       1.629   0.999  -0.567  0.00  0.00    -0.001 A 
ENDROOT
TORSDOF 0
ENDMDL
