MODEL 1
REMARK minimizedAffinity 0.649106443
REMARK minimizedRMSD -1
REMARK  0 active torsions:
REMARK  status: ('A' for Active; 'I' for Inactive)
ROOT
ATOM      1  C   UNL d   1       1.732  -1.616  -1.218  0.00  0.00     0.077 C 
ATOM      2  C1  UNL d   1       1.736  -1.509   0.278  0.00  0.00    -0.074 A 
ATOM      3  C2  UNL d   1       2.930  -1.327   0.982  0.00  0.00    -0.005 A 
ATOM      4  C3  UNL d   1       2.917  -1.219   2.373  0.00  0.00     0.006 A 
ATOM      5  C4  UNL d   1       1.712  -1.293   3.072  0.00  0.00    -0.005 A 
ATOM      6  C5  UNL d   1       0.508  -1.474   2.385  0.00  0.00    -0.074 A 
ATOM      7  C6  UNL d   1      -0.797  -1.545   3.120  0.00  0.00     0.077 C 
ATOM      8  C7  UNL d   1       0.528  -1.574   0.987  0.00  0.00    -0.001 A 
ENDROOT
TORSDOF 0
ENDMDL
