MODEL 1
REMARK minimizedAffinity 8.23203945
REMARK minimizedRMSD -1
REMARK  0 active torsions:
REMARK  status: ('A' for Active; 'I' for Inactive)
ROOT
ATOM      1  C   UNL d   1       2.008  -1.158  -0.888  0.00  0.00     0.077 C 
ATOM      2  C1  UNL d   1       1.875  -1.091   0.605  0.00  0.00    -0.074 A 
ATOM      3  C2  UNL d   1       2.892  -0.543   1.393  0.00  0.00    -0.005 A 
ATOM      4  C3  UNL d   1       2.750  -0.479   2.779  0.00  0.00     0.006 A 
ATOM      5  C4  UNL d   1       1.592  -0.961   3.390  0.00  0.00    -0.005 A 
ATOM      6  C5  UNL d   1       0.565  -1.512   2.618  0.00  0.00    -0.074 A 
ATOM      7  C6  UNL d   1      -0.691  -2.026   3.258  0.00  0.00     0.077 C 
ATOM      8  C7  UNL d   1       0.712  -1.567   1.225  0.00  0.00    -0.001 A 
ENDROOT
TORSDOF 0
ENDMDL
