MODEL 1
REMARK minimizedAffinity 1.23045278
REMARK minimizedRMSD -1
REMARK  0 active torsions:
REMARK  status: ('A' for Active; 'I' for Inactive)
ROOT
ATOM      1  C   UNL d   1       1.529  -0.417  -2.860  0.00  0.00     0.077 C 
ATOM      2  C1  UNL d   1       2.374  -0.467  -1.623  0.00  0.00    -0.074 A 
ATOM      3  C2  UNL d   1       3.546   0.291  -1.521  0.00  0.00    -0.005 A 
ATOM      4  C3  UNL d   1       4.317   0.242  -0.360  0.00  0.00     0.006 A 
ATOM      5  C4  UNL d   1       3.925  -0.564   0.710  0.00  0.00    -0.005 A 
ATOM      6  C5  UNL d   1       2.756  -1.327   0.627  0.00  0.00    -0.074 A 
ATOM      7  C6  UNL d   1       2.316  -2.191   1.772  0.00  0.00     0.077 C 
ATOM      8  C7  UNL d   1       1.983  -1.267  -0.540  0.00  0.00    -0.001 A 
ENDROOT
TORSDOF 0
ENDMDL
