MODEL 1
REMARK minimizedAffinity 1.14993358
REMARK minimizedRMSD -1
REMARK  0 active torsions:
REMARK  status: ('A' for Active; 'I' for Inactive)
ROOT
ATOM      1  C   UNL d   1       1.077   2.311  -1.376  0.00  0.00     0.077 C 
ATOM      2  C1  UNL d   1       1.410   0.875  -1.101  0.00  0.00    -0.074 A 
ATOM      3  C2  UNL d   1       2.147   0.119  -2.019  0.00  0.00    -0.005 A 
ATOM      4  C3  UNL d   1       2.457  -1.213  -1.746  0.00  0.00     0.006 A 
ATOM      5  C4  UNL d   1       2.035  -1.802  -0.553  0.00  0.00    -0.005 A 
ATOM      6  C5  UNL d   1       1.298  -1.062   0.377  0.00  0.00    -0.074 A 
ATOM      7  C6  UNL d   1       0.845  -1.677   1.668  0.00  0.00     0.077 C 
ATOM      8  C7  UNL d   1       0.996   0.278   0.098  0.00  0.00    -0.001 A 
ENDROOT
TORSDOF 0
ENDMDL
