MODEL 1
REMARK minimizedAffinity 6.2926178
REMARK minimizedRMSD -1
REMARK  0 active torsions:
REMARK  status: ('A' for Active; 'I' for Inactive)
ROOT
ATOM      1  N1  IND d   1      -1.522   2.964  -3.608  0.00  0.00    -0.196 N 
ATOM      2  C2  IND d   1      -1.821   4.218  -4.062  0.00  0.00     0.054 A 
ATOM      3  C3  IND d   1      -1.253   5.154  -3.269  0.00  0.00    -0.031 A 
ATOM      4  C4  IND d   1       0.290   4.853  -1.231  0.00  0.00     0.051 A 
ATOM      5  C5  IND d   1       0.820   3.894  -0.413  0.00  0.00    -0.031 A 
ATOM      6  C6  IND d   1       0.594   2.549  -0.624  0.00  0.00     0.015 A 
ATOM      7  C7  IND d   1      -0.165   2.111  -1.673  0.00  0.00    -0.016 A 
ATOM      8  C8  IND d   1      -0.710   3.082  -2.501  0.00  0.00    -0.047 A 
ATOM      9  C9  IND d   1      -0.519   4.449  -2.267  0.00  0.00    -0.096 A 
ATOM     10  HN1 IND d   1      -1.795   2.227  -3.954  0.00  0.00     0.298 HD
ENDROOT
TORSDOF 0
ENDMDL
