MODEL 1
REMARK minimizedAffinity 9.95532608
REMARK minimizedRMSD -1
REMARK  0 active torsions:
REMARK  status: ('A' for Active; 'I' for Inactive)
ROOT
ATOM      1  N1  IND d   1      -1.136  -0.303   5.265  0.00  0.00    -0.196 N 
ATOM      2  C2  IND d   1      -2.101  -0.934   5.999  0.00  0.00     0.054 A 
ATOM      3  C3  IND d   1      -2.284  -2.196   5.549  0.00  0.00    -0.031 A 
ATOM      4  C4  IND d   1      -1.038  -3.465   3.688  0.00  0.00     0.051 A 
ATOM      5  C5  IND d   1      -0.099  -3.294   2.710  0.00  0.00    -0.031 A 
ATOM      6  C6  IND d   1       0.558  -2.094   2.532  0.00  0.00     0.015 A 
ATOM      7  C7  IND d   1       0.307  -1.018   3.336  0.00  0.00    -0.016 A 
ATOM      8  C8  IND d   1      -0.652  -1.186   4.325  0.00  0.00    -0.047 A 
ATOM      9  C9  IND d   1      -1.352  -2.389   4.484  0.00  0.00    -0.096 A 
ATOM     10  HN1 IND d   1      -0.876   0.510   5.372  0.00  0.00     0.298 HD
ENDROOT
TORSDOF 0
ENDMDL
