MODEL 1
REMARK minimizedAffinity 16.3689346
REMARK minimizedRMSD -1
REMARK  0 active torsions:
REMARK  status: ('A' for Active; 'I' for Inactive)
ROOT
ATOM      1  N1  IND d   1       0.394   3.780  -1.867  0.00  0.00    -0.196 N 
ATOM      2  C2  IND d   1       0.643   2.973  -0.793  0.00  0.00     0.054 A 
ATOM      3  C3  IND d   1      -0.387   2.120  -0.596  0.00  0.00    -0.031 A 
ATOM      4  C4  IND d   1      -2.538   1.807  -1.976  0.00  0.00     0.051 A 
ATOM      5  C5  IND d   1      -3.230   2.339  -3.028  0.00  0.00    -0.031 A 
ATOM      6  C6  IND d   1      -2.738   3.398  -3.763  0.00  0.00     0.015 A 
ATOM      7  C7  IND d   1      -1.525   3.960  -3.480  0.00  0.00    -0.016 A 
ATOM      8  C8  IND d   1      -0.823   3.427  -2.408  0.00  0.00    -0.047 A 
ATOM      9  C9  IND d   1      -1.337   2.380  -1.631  0.00  0.00    -0.096 A 
ATOM     10  HN1 IND d   1       0.910   4.404  -2.156  0.00  0.00     0.298 HD
ENDROOT
TORSDOF 0
ENDMDL
