MODEL 1
REMARK minimizedAffinity 13.2825356
REMARK minimizedRMSD -1
REMARK  0 active torsions:
REMARK  status: ('A' for Active; 'I' for Inactive)
ROOT
ATOM      1  N1  IND d   1      -1.849  -3.217   1.153  0.00  0.00    -0.196 N 
ATOM      2  C2  IND d   1      -2.980  -3.291   1.916  0.00  0.00     0.054 A 
ATOM      3  C3  IND d   1      -2.870  -2.489   2.999  0.00  0.00    -0.031 A 
ATOM      4  C4  IND d   1      -0.965  -0.890   3.663  0.00  0.00     0.051 A 
ATOM      5  C5  IND d   1       0.294  -0.504   3.297  0.00  0.00    -0.031 A 
ATOM      6  C6  IND d   1       0.915  -1.011   2.174  0.00  0.00     0.015 A 
ATOM      7  C7  IND d   1       0.292  -1.919   1.364  0.00  0.00    -0.016 A 
ATOM      8  C8  IND d   1      -0.984  -2.318   1.736  0.00  0.00    -0.047 A 
ATOM      9  C9  IND d   1      -1.602  -1.839   2.899  0.00  0.00    -0.096 A 
ATOM     10  HN1 IND d   1      -1.702  -3.658   0.429  0.00  0.00     0.298 HD
ENDROOT
TORSDOF 0
ENDMDL
