MODEL 1
REMARK minimizedAffinity 5.95248795
REMARK minimizedRMSD -1
REMARK  0 active torsions:
REMARK  status: ('A' for Active; 'I' for Inactive)
ROOT
ATOM      1  N1  IND d   1      -1.907  -2.172   4.643  0.00  0.00    -0.196 N 
ATOM      2  C2  IND d   1      -2.316  -3.316   4.017  0.00  0.00     0.054 A 
ATOM      3  C3  IND d   1      -1.528  -3.575   2.949  0.00  0.00    -0.031 A 
ATOM      4  C4  IND d   1       0.550  -2.312   2.105  0.00  0.00     0.051 A 
ATOM      5  C5  IND d   1       1.290  -1.185   2.328  0.00  0.00    -0.031 A 
ATOM      6  C6  IND d   1       0.998  -0.313   3.357  0.00  0.00     0.015 A 
ATOM      7  C7  IND d   1      -0.043  -0.543   4.212  0.00  0.00    -0.016 A 
ATOM      8  C8  IND d   1      -0.801  -1.683   3.983  0.00  0.00    -0.047 A 
ATOM      9  C9  IND d   1      -0.535  -2.549   2.915  0.00  0.00    -0.096 A 
ATOM     10  HN1 IND d   1      -2.278  -1.817   5.332  0.00  0.00     0.298 HD
ENDROOT
TORSDOF 0
ENDMDL
