MODEL 1
REMARK minimizedAffinity 9.67335033
REMARK minimizedRMSD -1
REMARK  0 active torsions:
REMARK  status: ('A' for Active; 'I' for Inactive)
ROOT
ATOM      1  N1  IND d   1       5.174  -1.838  -0.684  0.00  0.00    -0.196 N 
ATOM      2  C2  IND d   1       5.784  -1.035  -1.607  0.00  0.00     0.054 A 
ATOM      3  C3  IND d   1       5.086   0.111  -1.768  0.00  0.00    -0.031 A 
ATOM      4  C4  IND d   1       2.969   0.922  -0.548  0.00  0.00     0.051 A 
ATOM      5  C5  IND d   1       2.024   0.519   0.354  0.00  0.00    -0.031 A 
ATOM      6  C6  IND d   1       2.084  -0.714   0.970  0.00  0.00     0.015 A 
ATOM      7  C7  IND d   1       3.101  -1.590   0.715  0.00  0.00    -0.016 A 
ATOM      8  C8  IND d   1       4.058  -1.187  -0.206  0.00  0.00    -0.047 A 
ATOM      9  C9  IND d   1       3.980   0.046  -0.866  0.00  0.00    -0.096 A 
ATOM     10  HN1 IND d   1       5.441  -2.619  -0.444  0.00  0.00     0.298 HD
ENDROOT
TORSDOF 0
ENDMDL
