MODEL 1
REMARK minimizedAffinity 13.1900234
REMARK minimizedRMSD -1
REMARK  0 active torsions:
REMARK  status: ('A' for Active; 'I' for Inactive)
ROOT
ATOM      1  N1  IND d   1      -1.402  -2.849   1.541  0.00  0.00    -0.196 N 
ATOM      2  C2  IND d   1      -2.413  -3.280   2.355  0.00  0.00     0.054 A 
ATOM      3  C3  IND d   1      -2.243  -2.804   3.609  0.00  0.00    -0.031 A 
ATOM      4  C4  IND d   1      -0.434  -1.218   4.525  0.00  0.00     0.051 A 
ATOM      5  C5  IND d   1       0.724  -0.585   4.169  0.00  0.00    -0.031 A 
ATOM      6  C6  IND d   1       1.241  -0.674   2.893  0.00  0.00     0.015 A 
ATOM      7  C7  IND d   1       0.611  -1.393   1.917  0.00  0.00    -0.016 A 
ATOM      8  C8  IND d   1      -0.561  -2.043   2.277  0.00  0.00    -0.047 A 
ATOM      9  C9  IND d   1      -1.069  -1.992   3.582  0.00  0.00    -0.096 A 
ATOM     10  HN1 IND d   1      -1.308  -3.049   0.710  0.00  0.00     0.298 HD
ENDROOT
TORSDOF 0
ENDMDL
