MODEL 1
REMARK minimizedAffinity 16.3608418
REMARK minimizedRMSD -1
REMARK  0 active torsions:
REMARK  status: ('A' for Active; 'I' for Inactive)
ROOT
ATOM      1  N1  IND d   1      -1.612  -3.009   1.548  0.00  0.00    -0.196 N 
ATOM      2  C2  IND d   1      -2.755  -3.161   2.282  0.00  0.00     0.054 A 
ATOM      3  C3  IND d   1      -2.687  -2.428   3.416  0.00  0.00    -0.031 A 
ATOM      4  C4  IND d   1      -0.838  -0.826   4.219  0.00  0.00     0.051 A 
ATOM      5  C5  IND d   1       0.417  -0.385   3.905  0.00  0.00    -0.031 A 
ATOM      6  C6  IND d   1       1.072  -0.803   2.765  0.00  0.00     0.015 A 
ATOM      7  C7  IND d   1       0.489  -1.672   1.886  0.00  0.00    -0.016 A 
ATOM      8  C8  IND d   1      -0.782  -2.127   2.206  0.00  0.00    -0.047 A 
ATOM      9  C9  IND d   1      -1.435  -1.740   3.383  0.00  0.00    -0.096 A 
ATOM     10  HN1 IND d   1      -1.439  -3.399   0.801  0.00  0.00     0.298 HD
ENDROOT
TORSDOF 0
ENDMDL
