MODEL 1
REMARK minimizedAffinity 5.95901203
REMARK minimizedRMSD -1
REMARK  0 active torsions:
REMARK  status: ('A' for Active; 'I' for Inactive)
ROOT
ATOM      1  N1  IND d   1      -1.544  -1.493   4.914  0.00  0.00    -0.196 N 
ATOM      2  C2  IND d   1      -0.867  -0.341   5.204  0.00  0.00     0.054 A 
ATOM      3  C3  IND d   1       0.122  -0.139   4.305  0.00  0.00    -0.031 A 
ATOM      4  C4  IND d   1       0.745  -1.515   2.220  0.00  0.00     0.051 A 
ATOM      5  C5  IND d   1       0.437  -2.672   1.561  0.00  0.00    -0.031 A 
ATOM      6  C6  IND d   1      -0.570  -3.511   1.994  0.00  0.00     0.015 A 
ATOM      7  C7  IND d   1      -1.317  -3.216   3.099  0.00  0.00    -0.016 A 
ATOM      8  C8  IND d   1      -1.002  -2.046   3.775  0.00  0.00    -0.047 A 
ATOM      9  C9  IND d   1       0.047  -1.212   3.365  0.00  0.00    -0.096 A 
ATOM     10  HN1 IND d   1      -2.199  -1.817   5.367  0.00  0.00     0.298 HD
ENDROOT
TORSDOF 0
ENDMDL
