MODEL 1
REMARK minimizedAffinity 10.8213472
REMARK minimizedRMSD -1
REMARK  0 active torsions:
REMARK  status: ('A' for Active; 'I' for Inactive)
ROOT
ATOM      1  N1  IND d   1       0.497  -0.466   3.048  0.00  0.00    -0.196 N 
ATOM      2  C2  IND d   1      -0.501  -1.295   3.479  0.00  0.00     0.054 A 
ATOM      3  C3  IND d   1      -0.377  -2.515   2.911  0.00  0.00    -0.031 A 
ATOM      4  C4  IND d   1       1.444  -3.403   1.323  0.00  0.00     0.051 A 
ATOM      5  C5  IND d   1       2.545  -3.006   0.617  0.00  0.00    -0.031 A 
ATOM      6  C6  IND d   1       3.031  -1.716   0.689  0.00  0.00     0.015 A 
ATOM      7  C7  IND d   1       2.438  -0.775   1.482  0.00  0.00    -0.016 A 
ATOM      8  C8  IND d   1       1.316  -1.173   2.194  0.00  0.00    -0.047 A 
ATOM      9  C9  IND d   1       0.793  -2.468   2.093  0.00  0.00    -0.096 A 
ATOM     10  HN1 IND d   1       0.597   0.358   3.272  0.00  0.00     0.298 HD
ENDROOT
TORSDOF 0
ENDMDL
