MODEL 1
REMARK minimizedAffinity 11.6585331
REMARK minimizedRMSD -1
REMARK  0 active torsions:
REMARK  status: ('A' for Active; 'I' for Inactive)
ROOT
ATOM      1  N1  IND d   1      -3.449  -5.610  -0.122  0.00  0.00    -0.196 N 
ATOM      2  C2  IND d   1      -4.655  -5.786  -0.742  0.00  0.00     0.054 A 
ATOM      3  C3  IND d   1      -5.597  -5.003  -0.169  0.00  0.00    -0.031 A 
ATOM      4  C4  IND d   1      -5.359  -3.281   1.729  0.00  0.00     0.051 A 
ATOM      5  C5  IND d   1      -4.458  -2.793   2.635  0.00  0.00    -0.031 A 
ATOM      6  C6  IND d   1      -3.149  -3.226   2.666  0.00  0.00     0.015 A 
ATOM      7  C7  IND d   1      -2.685  -4.159   1.782  0.00  0.00    -0.016 A 
ATOM      8  C8  IND d   1      -3.598  -4.662   0.866  0.00  0.00    -0.047 A 
ATOM      9  C9  IND d   1      -4.939  -4.257   0.857  0.00  0.00    -0.096 A 
ATOM     10  HN1 IND d   1      -2.720  -6.022  -0.317  0.00  0.00     0.298 HD
ENDROOT
TORSDOF 0
ENDMDL
