MODEL 1
REMARK minimizedAffinity 11.0243711
REMARK minimizedRMSD -1
REMARK  0 active torsions:
REMARK  status: ('A' for Active; 'I' for Inactive)
ROOT
ATOM      1  N1  IND d   1      -2.647   3.201  -2.361  0.00  0.00    -0.196 N 
ATOM      2  C2  IND d   1      -2.485   4.243  -3.232  0.00  0.00     0.054 A 
ATOM      3  C3  IND d   1      -1.197   4.653  -3.242  0.00  0.00    -0.031 A 
ATOM      4  C4  IND d   1       0.834   3.693  -1.985  0.00  0.00     0.051 A 
ATOM      5  C5  IND d   1       1.178   2.763  -1.045  0.00  0.00    -0.031 A 
ATOM      6  C6  IND d   1       0.246   1.912  -0.486  0.00  0.00     0.015 A 
ATOM      7  C7  IND d   1      -1.068   1.953  -0.856  0.00  0.00    -0.016 A 
ATOM      8  C8  IND d   1      -1.422   2.901  -1.806  0.00  0.00    -0.047 A 
ATOM      9  C9  IND d   1      -0.489   3.795  -2.346  0.00  0.00    -0.096 A 
ATOM     10  HN1 IND d   1      -3.388   2.801  -2.189  0.00  0.00     0.298 HD
ENDROOT
TORSDOF 0
ENDMDL
