MODEL 1
REMARK minimizedAffinity 11.1658297
REMARK minimizedRMSD -1
REMARK  0 active torsions:
REMARK  status: ('A' for Active; 'I' for Inactive)
ROOT
ATOM      1  N1  IND d   1      -1.862   4.205  -2.905  0.00  0.00    -0.196 N 
ATOM      2  C2  IND d   1      -1.458   2.933  -3.202  0.00  0.00     0.054 A 
ATOM      3  C3  IND d   1      -2.252   2.031  -2.582  0.00  0.00    -0.031 A 
ATOM      4  C4  IND d   1      -4.332   2.417  -1.115  0.00  0.00     0.051 A 
ATOM      5  C5  IND d   1      -5.069   3.409  -0.531  0.00  0.00    -0.031 A 
ATOM      6  C6  IND d   1      -4.771   4.743  -0.715  0.00  0.00     0.015 A 
ATOM      7  C7  IND d   1      -3.726   5.138  -1.501  0.00  0.00    -0.016 A 
ATOM      8  C8  IND d   1      -2.971   4.134  -2.090  0.00  0.00    -0.047 A 
ATOM      9  C9  IND d   1      -3.243   2.777  -1.874  0.00  0.00    -0.096 A 
ATOM     10  HN1 IND d   1      -1.487   4.927  -3.181  0.00  0.00     0.298 HD
ENDROOT
TORSDOF 0
ENDMDL
