MODEL 1
REMARK minimizedAffinity 5.89786339
REMARK minimizedRMSD -1
REMARK  0 active torsions:
REMARK  status: ('A' for Active; 'I' for Inactive)
ROOT
ATOM      1  N1  IND d   1      -1.658   2.333  -3.306  0.00  0.00    -0.196 N 
ATOM      2  C2  IND d   1      -1.812   3.437  -4.098  0.00  0.00     0.054 A 
ATOM      3  C3  IND d   1      -0.982   4.425  -3.695  0.00  0.00    -0.031 A 
ATOM      4  C4  IND d   1       0.786   4.414  -1.824  0.00  0.00     0.051 A 
ATOM      5  C5  IND d   1       1.270   3.645  -0.803  0.00  0.00    -0.031 A 
ATOM      6  C6  IND d   1       0.795   2.372  -0.562  0.00  0.00     0.015 A 
ATOM      7  C7  IND d   1      -0.178   1.814  -1.342  0.00  0.00    -0.016 A 
ATOM      8  C8  IND d   1      -0.677   2.596  -2.375  0.00  0.00    -0.047 A 
ATOM      9  C9  IND d   1      -0.229   3.904  -2.599  0.00  0.00    -0.096 A 
ATOM     10  HN1 IND d   1      -2.099   1.599  -3.377  0.00  0.00     0.298 HD
ENDROOT
TORSDOF 0
ENDMDL
