MODEL 1
REMARK minimizedAffinity 2.39704585
REMARK minimizedRMSD -1
REMARK  0 active torsions:
REMARK  status: ('A' for Active; 'I' for Inactive)
ROOT
ATOM      1  N1  IND d   1      -1.838  -1.559   5.557  0.00  0.00    -0.196 N 
ATOM      2  C2  IND d   1      -1.130  -0.477   5.999  0.00  0.00     0.054 A 
ATOM      3  C3  IND d   1      -0.129  -0.186   5.138  0.00  0.00    -0.031 A 
ATOM      4  C4  IND d   1       0.466  -1.290   2.889  0.00  0.00     0.051 A 
ATOM      5  C5  IND d   1       0.127  -2.339   2.082  0.00  0.00    -0.031 A 
ATOM      6  C6  IND d   1      -0.906  -3.198   2.396  0.00  0.00     0.015 A 
ATOM      7  C7  IND d   1      -1.650  -3.032   3.530  0.00  0.00    -0.016 A 
ATOM      8  C8  IND d   1      -1.305  -1.972   4.356  0.00  0.00    -0.047 A 
ATOM      9  C9  IND d   1      -0.230  -1.122   4.063  0.00  0.00    -0.096 A 
ATOM     10  HN1 IND d   1      -2.505  -1.922   5.962  0.00  0.00     0.298 HD
ENDROOT
TORSDOF 0
ENDMDL
