MODEL 1
REMARK minimizedAffinity 16.1777267
REMARK minimizedRMSD -1
REMARK  0 active torsions:
REMARK  status: ('A' for Active; 'I' for Inactive)
ROOT
ATOM      1  N1  IND d   1       3.162   0.586   3.311  0.00  0.00    -0.196 N 
ATOM      2  C2  IND d   1       3.833   0.130   2.211  0.00  0.00     0.054 A 
ATOM      3  C3  IND d   1       3.226  -0.971   1.713  0.00  0.00    -0.031 A 
ATOM      4  C4  IND d   1       1.063  -2.135   2.482  0.00  0.00     0.051 A 
ATOM      5  C5  IND d   1       0.115  -2.106   3.466  0.00  0.00    -0.031 A 
ATOM      6  C6  IND d   1       0.133  -1.157   4.468  0.00  0.00     0.015 A 
ATOM      7  C7  IND d   1       1.098  -0.190   4.516  0.00  0.00    -0.016 A 
ATOM      8  C8  IND d   1       2.066  -0.221   3.522  0.00  0.00    -0.047 A 
ATOM      9  C9  IND d   1       2.077  -1.208   2.528  0.00  0.00    -0.096 A 
ATOM     10  HN1 IND d   1       3.386   1.264   3.790  0.00  0.00     0.298 HD
ENDROOT
TORSDOF 0
ENDMDL
