MODEL 1
REMARK minimizedAffinity 11.6329947
REMARK minimizedRMSD -1
REMARK  0 active torsions:
REMARK  status: ('A' for Active; 'I' for Inactive)
ROOT
ATOM      1  N1  IND d   1       3.793  -5.159  -5.991  0.00  0.00    -0.196 N 
ATOM      2  C2  IND d   1       4.932  -5.915  -5.998  0.00  0.00     0.054 A 
ATOM      3  C3  IND d   1       5.948  -5.241  -5.414  0.00  0.00    -0.031 A 
ATOM      4  C4  IND d   1       5.940  -2.927  -4.287  0.00  0.00     0.051 A 
ATOM      5  C5  IND d   1       5.142  -1.840  -4.063  0.00  0.00    -0.031 A 
ATOM      6  C6  IND d   1       3.826  -1.805  -4.476  0.00  0.00     0.015 A 
ATOM      7  C7  IND d   1       3.253  -2.864  -5.122  0.00  0.00    -0.016 A 
ATOM      8  C8  IND d   1       4.063  -3.966  -5.357  0.00  0.00    -0.047 A 
ATOM      9  C9  IND d   1       5.411  -3.991  -4.978  0.00  0.00    -0.096 A 
ATOM     10  HN1 IND d   1       3.036  -5.390  -6.326  0.00  0.00     0.298 HD
ENDROOT
TORSDOF 0
ENDMDL
