MODEL 1
REMARK minimizedAffinity 15.8819628
REMARK minimizedRMSD -1
REMARK  0 active torsions:
REMARK  status: ('A' for Active; 'I' for Inactive)
ROOT
ATOM      1  N1  IND d   1       2.420  -5.886  -5.895  0.00  0.00    -0.196 N 
ATOM      2  C2  IND d   1       1.485  -4.895  -5.781  0.00  0.00     0.054 A 
ATOM      3  C3  IND d   1       2.088  -3.687  -5.701  0.00  0.00    -0.031 A 
ATOM      4  C4  IND d   1       4.589  -3.095  -5.841  0.00  0.00     0.051 A 
ATOM      5  C5  IND d   1       5.829  -3.665  -5.909  0.00  0.00    -0.031 A 
ATOM      6  C6  IND d   1       6.000  -5.033  -5.980  0.00  0.00     0.015 A 
ATOM      7  C7  IND d   1       4.931  -5.884  -5.997  0.00  0.00    -0.016 A 
ATOM      8  C8  IND d   1       3.671  -5.308  -5.921  0.00  0.00    -0.047 A 
ATOM      9  C9  IND d   1       3.493  -3.924  -5.806  0.00  0.00    -0.096 A 
ATOM     10  HN1 IND d   1       2.255  -6.729  -5.942  0.00  0.00     0.298 HD
ENDROOT
TORSDOF 0
ENDMDL
