MODEL 1
REMARK minimizedAffinity 28.3409595
REMARK minimizedRMSD -1
REMARK  0 active torsions:
REMARK  status: ('A' for Active; 'I' for Inactive)
ROOT
ATOM      1  N1  IND d   1       2.597   1.555   0.896  0.00  0.00    -0.196 N 
ATOM      2  C2  IND d   1       1.595   2.322   0.370  0.00  0.00     0.054 A 
ATOM      3  C3  IND d   1       0.440   1.620   0.326  0.00  0.00    -0.031 A 
ATOM      4  C4  IND d   1      -0.058  -0.766   1.155  0.00  0.00     0.051 A 
ATOM      5  C5  IND d   1       0.550  -1.873   1.677  0.00  0.00    -0.031 A 
ATOM      6  C6  IND d   1       1.897  -1.894   1.973  0.00  0.00     0.015 A 
ATOM      7  C7  IND d   1       2.689  -0.800   1.769  0.00  0.00    -0.016 A 
ATOM      8  C8  IND d   1       2.077   0.324   1.233  0.00  0.00    -0.047 A 
ATOM      9  C9  IND d   1       0.719   0.338   0.890  0.00  0.00    -0.096 A 
ATOM     10  HN1 IND d   1       3.415   1.800   0.999  0.00  0.00     0.298 HD
ENDROOT
TORSDOF 0
ENDMDL
