MODEL 1
REMARK minimizedAffinity -1.907763
REMARK minimizedRMSD -1
REMARK  0 active torsions:
REMARK  status: ('A' for Active; 'I' for Inactive)
ROOT
ATOM      1  N1  IND d   1      -0.986   0.511   0.278  0.00  0.00    -0.196 N 
ATOM      2  C2  IND d   1      -0.019   1.316  -0.256  0.00  0.00     0.054 A 
ATOM      3  C3  IND d   1       1.063   0.583  -0.604  0.00  0.00    -0.031 A 
ATOM      4  C4  IND d   1       1.422  -1.963  -0.481  0.00  0.00     0.051 A 
ATOM      5  C5  IND d   1       0.836  -3.113  -0.033  0.00  0.00    -0.031 A 
ATOM      6  C6  IND d   1      -0.414  -3.115   0.551  0.00  0.00     0.015 A 
ATOM      7  C7  IND d   1      -1.132  -1.962   0.699  0.00  0.00    -0.016 A 
ATOM      8  C8  IND d   1      -0.537  -0.791   0.252  0.00  0.00    -0.047 A 
ATOM      9  C9  IND d   1       0.749  -0.778  -0.303  0.00  0.00    -0.096 A 
ATOM     10  HN1 IND d   1      -1.748   0.774   0.579  0.00  0.00     0.298 HD
ENDROOT
TORSDOF 0
ENDMDL
