MODEL 1
REMARK minimizedAffinity -3.26721692
REMARK minimizedRMSD -1
REMARK  0 active torsions:
REMARK  status: ('A' for Active; 'I' for Inactive)
ROOT
ATOM      1  N1  IND d   1      -1.816  -0.662   0.591  0.00  0.00    -0.196 N 
ATOM      2  C2  IND d   1      -1.152   0.522   0.425  0.00  0.00     0.054 A 
ATOM      3  C3  IND d   1       0.038   0.312  -0.181  0.00  0.00    -0.031 A 
ATOM      4  C4  IND d   1       1.053  -1.877  -1.078  0.00  0.00     0.051 A 
ATOM      5  C5  IND d   1       0.836  -3.226  -1.126  0.00  0.00    -0.031 A 
ATOM      6  C6  IND d   1      -0.302  -3.800  -0.595  0.00  0.00     0.015 A 
ATOM      7  C7  IND d   1      -1.273  -3.042  -0.005  0.00  0.00    -0.016 A 
ATOM      8  C8  IND d   1      -1.052  -1.673   0.052  0.00  0.00    -0.047 A 
ATOM      9  C9  IND d   1       0.120  -1.089  -0.447  0.00  0.00    -0.096 A 
ATOM     10  HN1 IND d   1      -2.582  -0.758   0.969  0.00  0.00     0.298 HD
ENDROOT
TORSDOF 0
ENDMDL
