MODEL 1
REMARK minimizedAffinity -2.37410641
REMARK minimizedRMSD -1
REMARK  0 active torsions:
REMARK  status: ('A' for Active; 'I' for Inactive)
ROOT
ATOM      1  N1  IND d   1      -2.398  -1.795   1.155  0.00  0.00    -0.196 N 
ATOM      2  C2  IND d   1      -2.314  -3.115   0.808  0.00  0.00     0.054 A 
ATOM      3  C3  IND d   1      -1.234  -3.328   0.024  0.00  0.00    -0.031 A 
ATOM      4  C4  IND d   1       0.590  -1.674  -0.730  0.00  0.00     0.051 A 
ATOM      5  C5  IND d   1       0.925  -0.350  -0.695  0.00  0.00    -0.031 A 
ATOM      6  C6  IND d   1       0.154   0.579  -0.026  0.00  0.00     0.015 A 
ATOM      7  C7  IND d   1      -0.978   0.214   0.646  0.00  0.00    -0.016 A 
ATOM      8  C8  IND d   1      -1.325  -1.129   0.607  0.00  0.00    -0.047 A 
ATOM      9  C9  IND d   1      -0.570  -2.069  -0.107  0.00  0.00    -0.096 A 
ATOM     10  HN1 IND d   1      -3.018  -1.441   1.634  0.00  0.00     0.298 HD
ENDROOT
TORSDOF 0
ENDMDL
