MODEL 1
REMARK minimizedAffinity -1.76290572
REMARK minimizedRMSD -1
REMARK  0 active torsions:
REMARK  status: ('A' for Active; 'I' for Inactive)
ROOT
ATOM      1  N1  IND d   1       0.968   0.602  -0.219  0.00  0.00    -0.196 N 
ATOM      2  C2  IND d   1      -0.381   0.423  -0.350  0.00  0.00     0.054 A 
ATOM      3  C3  IND d   1      -1.045   1.512   0.098  0.00  0.00    -0.031 A 
ATOM      4  C4  IND d   1      -0.117   3.741   0.992  0.00  0.00     0.051 A 
ATOM      5  C5  IND d   1       1.051   4.362   1.333  0.00  0.00    -0.031 A 
ATOM      6  C6  IND d   1       2.277   3.751   1.167  0.00  0.00     0.015 A 
ATOM      7  C7  IND d   1       2.381   2.493   0.642  0.00  0.00    -0.016 A 
ATOM      8  C8  IND d   1       1.196   1.857   0.302  0.00  0.00    -0.047 A 
ATOM      9  C9  IND d   1      -0.054   2.456   0.507  0.00  0.00    -0.096 A 
ATOM     10  HN1 IND d   1       1.573   0.028  -0.428  0.00  0.00     0.298 HD
ENDROOT
TORSDOF 0
ENDMDL
