MODEL 1
REMARK minimizedAffinity -4.44339561
REMARK minimizedRMSD -1
REMARK  0 active torsions:
REMARK  status: ('A' for Active; 'I' for Inactive)
ROOT
ATOM      1  N1  IND d   1       0.975   0.276  -0.609  0.00  0.00    -0.196 N 
ATOM      2  C2  IND d   1       0.565   1.549  -0.327  0.00  0.00     0.054 A 
ATOM      3  C3  IND d   1      -0.546   1.526   0.443  0.00  0.00    -0.031 A 
ATOM      4  C4  IND d   1      -1.803  -0.486   1.441  0.00  0.00     0.051 A 
ATOM      5  C5  IND d   1      -1.827  -1.853   1.433  0.00  0.00    -0.031 A 
ATOM      6  C6  IND d   1      -0.898  -2.595   0.732  0.00  0.00     0.015 A 
ATOM      7  C7  IND d   1       0.101  -1.995   0.019  0.00  0.00    -0.016 A 
ATOM      8  C8  IND d   1       0.124  -0.607   0.019  0.00  0.00    -0.047 A 
ATOM      9  C9  IND d   1      -0.841   0.151   0.694  0.00  0.00    -0.096 A 
ATOM     10  HN1 IND d   1       1.650   0.063  -1.096  0.00  0.00     0.298 HD
ENDROOT
TORSDOF 0
ENDMDL
