MODEL 1
REMARK minimizedAffinity -2.74366188
REMARK minimizedRMSD -1
REMARK  0 active torsions:
REMARK  status: ('A' for Active; 'I' for Inactive)
ROOT
ATOM      1  N1  IND d   1       1.319   0.695  -0.709  0.00  0.00    -0.196 N 
ATOM      2  C2  IND d   1       0.073   0.181  -0.480  0.00  0.00     0.054 A 
ATOM      3  C3  IND d   1      -0.681   1.066   0.210  0.00  0.00    -0.031 A 
ATOM      4  C4  IND d   1      -0.107   3.456   0.977  0.00  0.00     0.051 A 
ATOM      5  C5  IND d   1       0.924   4.352   1.030  0.00  0.00    -0.031 A 
ATOM      6  C6  IND d   1       2.163   4.070   0.493  0.00  0.00     0.015 A 
ATOM      7  C7  IND d   1       2.416   2.881  -0.130  0.00  0.00    -0.016 A 
ATOM      8  C8  IND d   1       1.373   1.966  -0.180  0.00  0.00    -0.047 A 
ATOM      9  C9  IND d   1       0.126   2.229   0.401  0.00  0.00    -0.096 A 
ATOM     10  HN1 IND d   1       1.961   0.292  -1.116  0.00  0.00     0.298 HD
ENDROOT
TORSDOF 0
ENDMDL
