MODEL 1
REMARK minimizedAffinity -3.84462905
REMARK minimizedRMSD -1
REMARK  0 active torsions:
REMARK  status: ('A' for Active; 'I' for Inactive)
ROOT
ATOM      1  N1  IND d   1      -0.418   0.779   0.284  0.00  0.00    -0.196 N 
ATOM      2  C2  IND d   1       0.683   0.701  -0.521  0.00  0.00     0.054 A 
ATOM      3  C3  IND d   1       0.941  -0.587  -0.842  0.00  0.00    -0.031 A 
ATOM      4  C4  IND d   1      -0.373  -2.717  -0.240  0.00  0.00     0.051 A 
ATOM      5  C5  IND d   1      -1.430  -3.155   0.507  0.00  0.00    -0.031 A 
ATOM      6  C6  IND d   1      -2.222  -2.287   1.230  0.00  0.00     0.015 A 
ATOM      7  C7  IND d   1      -1.992  -0.940   1.224  0.00  0.00    -0.016 A 
ATOM      8  C8  IND d   1      -0.915  -0.492   0.473  0.00  0.00    -0.047 A 
ATOM      9  C9  IND d   1      -0.082  -1.373  -0.229  0.00  0.00    -0.096 A 
ATOM     10  HN1 IND d   1      -0.746   1.501   0.617  0.00  0.00     0.298 HD
ENDROOT
TORSDOF 0
ENDMDL
