MODEL 1
REMARK minimizedAffinity -3.36901307
REMARK minimizedRMSD -1
REMARK  0 active torsions:
REMARK  status: ('A' for Active; 'I' for Inactive)
ROOT
ATOM      1  N1  IND d   1       0.635   0.361  -0.875  0.00  0.00    -0.196 N 
ATOM      2  C2  IND d   1      -0.046   1.474  -0.469  0.00  0.00     0.054 A 
ATOM      3  C3  IND d   1      -1.031   1.135   0.392  0.00  0.00    -0.031 A 
ATOM      4  C4  IND d   1      -1.640  -1.175   1.353  0.00  0.00     0.051 A 
ATOM      5  C5  IND d   1      -1.325  -2.501   1.251  0.00  0.00    -0.031 A 
ATOM      6  C6  IND d   1      -0.319  -2.950   0.420  0.00  0.00     0.015 A 
ATOM      7  C7  IND d   1       0.421  -2.084  -0.335  0.00  0.00    -0.016 A 
ATOM      8  C8  IND d   1       0.100  -0.737  -0.239  0.00  0.00    -0.047 A 
ATOM      9  C9  IND d   1      -0.948  -0.280   0.571  0.00  0.00    -0.096 A 
ATOM     10  HN1 IND d   1       1.289   0.348  -1.434  0.00  0.00     0.298 HD
ENDROOT
TORSDOF 0
ENDMDL
