MODEL 1
REMARK minimizedAffinity -4.05128431
REMARK minimizedRMSD -1
REMARK  0 active torsions:
REMARK  status: ('A' for Active; 'I' for Inactive)
ROOT
ATOM      1  N1  IND d   1      -1.877  -0.032   0.972  0.00  0.00    -0.196 N 
ATOM      2  C2  IND d   1      -1.176   0.941   0.316  0.00  0.00     0.054 A 
ATOM      3  C3  IND d   1      -0.187   0.389  -0.424  0.00  0.00    -0.031 A 
ATOM      4  C4  IND d   1       0.396  -2.093  -0.784  0.00  0.00     0.051 A 
ATOM      5  C5  IND d   1       0.060  -3.350  -0.365  0.00  0.00    -0.031 A 
ATOM      6  C6  IND d   1      -0.961  -3.570   0.537  0.00  0.00     0.015 A 
ATOM      7  C7  IND d   1      -1.695  -2.537   1.048  0.00  0.00    -0.016 A 
ATOM      8  C8  IND d   1      -1.352  -1.258   0.630  0.00  0.00    -0.047 A 
ATOM      9  C9  IND d   1      -0.290  -1.026  -0.252  0.00  0.00    -0.096 A 
ATOM     10  HN1 IND d   1      -2.536   0.101   1.509  0.00  0.00     0.298 HD
ENDROOT
TORSDOF 0
ENDMDL
