MODEL 1
REMARK minimizedAffinity -4.07682657
REMARK minimizedRMSD -1
REMARK  0 active torsions:
REMARK  status: ('A' for Active; 'I' for Inactive)
ROOT
ATOM      1  N1  IND d   1       0.738   0.530  -0.637  0.00  0.00    -0.196 N 
ATOM      2  C2  IND d   1       0.019   1.360   0.177  0.00  0.00     0.054 A 
ATOM      3  C3  IND d   1      -0.872   0.650   0.905  0.00  0.00    -0.031 A 
ATOM      4  C4  IND d   1      -1.251  -1.895   0.994  0.00  0.00     0.051 A 
ATOM      5  C5  IND d   1      -0.859  -3.064   0.404  0.00  0.00    -0.031 A 
ATOM      6  C6  IND d   1       0.106  -3.095  -0.581  0.00  0.00     0.015 A 
ATOM      7  C7  IND d   1       0.727  -1.955  -1.007  0.00  0.00    -0.016 A 
ATOM      8  C8  IND d   1       0.327  -0.766  -0.415  0.00  0.00    -0.047 A 
ATOM      9  C9  IND d   1      -0.683  -0.722   0.555  0.00  0.00    -0.096 A 
ATOM     10  HN1 IND d   1       1.345   0.776  -1.194  0.00  0.00     0.298 HD
ENDROOT
TORSDOF 0
ENDMDL
