MODEL 1
REMARK minimizedAffinity -1.58971977
REMARK minimizedRMSD -1
REMARK  0 active torsions:
REMARK  status: ('A' for Active; 'I' for Inactive)
ROOT
ATOM      1  N1  IND d   1      -0.899   0.740   0.471  0.00  0.00    -0.196 N 
ATOM      2  C2  IND d   1       0.366   1.211   0.255  0.00  0.00     0.054 A 
ATOM      3  C3  IND d   1       1.190   0.199  -0.101  0.00  0.00    -0.031 A 
ATOM      4  C4  IND d   1       0.653  -2.288  -0.488  0.00  0.00     0.051 A 
ATOM      5  C5  IND d   1      -0.357  -3.202  -0.380  0.00  0.00    -0.031 A 
ATOM      6  C6  IND d   1      -1.627  -2.840   0.022  0.00  0.00     0.015 A 
ATOM      7  C7  IND d   1      -1.937  -1.544   0.322  0.00  0.00    -0.016 A 
ATOM      8  C8  IND d   1      -0.911  -0.615   0.221  0.00  0.00    -0.047 A 
ATOM      9  C9  IND d   1       0.390  -0.983  -0.146  0.00  0.00    -0.096 A 
ATOM     10  HN1 IND d   1      -1.573   1.211   0.720  0.00  0.00     0.298 HD
ENDROOT
TORSDOF 0
ENDMDL
