MODEL 1
REMARK minimizedAffinity -3.95090842
REMARK minimizedRMSD -1
REMARK  0 active torsions:
REMARK  status: ('A' for Active; 'I' for Inactive)
ROOT
ATOM      1  N1  IND d   1      -1.286   0.532   0.454  0.00  0.00    -0.196 N 
ATOM      2  C2  IND d   1      -0.375   1.106  -0.388  0.00  0.00     0.054 A 
ATOM      3  C3  IND d   1       0.552   0.197  -0.768  0.00  0.00    -0.031 A 
ATOM      4  C4  IND d   1       0.708  -2.311  -0.210  0.00  0.00     0.051 A 
ATOM      5  C5  IND d   1       0.124  -3.283   0.552  0.00  0.00    -0.031 A 
ATOM      6  C6  IND d   1      -0.985  -3.029   1.334  0.00  0.00     0.015 A 
ATOM      7  C7  IND d   1      -1.559  -1.790   1.374  0.00  0.00    -0.016 A 
ATOM      8  C8  IND d   1      -0.964  -0.799   0.607  0.00  0.00    -0.047 A 
ATOM      9  C9  IND d   1       0.186  -1.040  -0.155  0.00  0.00    -0.096 A 
ATOM     10  HN1 IND d   1      -1.949   0.935   0.825  0.00  0.00     0.298 HD
ENDROOT
TORSDOF 0
ENDMDL
