MODEL 1
REMARK minimizedAffinity -3.95020199
REMARK minimizedRMSD -1
REMARK  0 active torsions:
REMARK  status: ('A' for Active; 'I' for Inactive)
ROOT
ATOM      1  N1  IND d   1      -1.395   0.334   0.864  0.00  0.00    -0.196 N 
ATOM      2  C2  IND d   1      -0.581   1.303   0.348  0.00  0.00     0.054 A 
ATOM      3  C3  IND d   1       0.504   0.745  -0.235  0.00  0.00    -0.031 A 
ATOM      4  C4  IND d   1       1.096  -1.741  -0.547  0.00  0.00     0.051 A 
ATOM      5  C5  IND d   1       0.678  -2.998  -0.212  0.00  0.00    -0.031 A 
ATOM      6  C6  IND d   1      -0.478  -3.213   0.511  0.00  0.00     0.015 A 
ATOM      7  C7  IND d   1      -1.267  -2.175   0.918  0.00  0.00    -0.016 A 
ATOM      8  C8  IND d   1      -0.842  -0.897   0.586  0.00  0.00    -0.047 A 
ATOM      9  C9  IND d   1       0.352  -0.670  -0.111  0.00  0.00    -0.096 A 
ATOM     10  HN1 IND d   1      -2.128   0.470   1.292  0.00  0.00     0.298 HD
ENDROOT
TORSDOF 0
ENDMDL
