MODEL 1
REMARK minimizedAffinity -5.49177313
REMARK minimizedRMSD -1
REMARK  0 active torsions:
REMARK  status: ('A' for Active; 'I' for Inactive)
ROOT
ATOM      1  N1  IND d   1       0.333  -0.435  -2.192  0.00  0.00    -0.196 N 
ATOM      2  C2  IND d   1       0.065   0.779  -1.624  0.00  0.00     0.054 A 
ATOM      3  C3  IND d   1      -0.334   0.622  -0.342  0.00  0.00    -0.031 A 
ATOM      4  C4  IND d   1      -0.523  -1.529   1.059  0.00  0.00     0.051 A 
ATOM      5  C5  IND d   1      -0.421  -2.889   0.965  0.00  0.00    -0.031 A 
ATOM      6  C6  IND d   1      -0.052  -3.512  -0.209  0.00  0.00     0.015 A 
ATOM      7  C7  IND d   1       0.241  -2.796  -1.335  0.00  0.00    -0.016 A 
ATOM      8  C8  IND d   1       0.131  -1.415  -1.245  0.00  0.00    -0.047 A 
ATOM      9  C9  IND d   1      -0.284  -0.779  -0.068  0.00  0.00    -0.096 A 
ATOM     10  HN1 IND d   1       0.584  -0.565  -3.004  0.00  0.00     0.298 HD
ENDROOT
TORSDOF 0
ENDMDL
