MODEL 1
REMARK minimizedAffinity -3.87697077
REMARK minimizedRMSD -1
REMARK  0 active torsions:
REMARK  status: ('A' for Active; 'I' for Inactive)
ROOT
ATOM      1  N1  IND d   1       0.197  -0.052  -0.452  0.00  0.00    -0.196 N 
ATOM      2  C2  IND d   1      -0.351   0.514   0.665  0.00  0.00     0.054 A 
ATOM      3  C3  IND d   1      -0.993  -0.423   1.400  0.00  0.00    -0.031 A 
ATOM      4  C4  IND d   1      -1.185  -2.960   1.009  0.00  0.00     0.051 A 
ATOM      5  C5  IND d   1      -0.878  -3.936   0.104  0.00  0.00    -0.031 A 
ATOM      6  C6  IND d   1      -0.181  -3.663  -1.056  0.00  0.00     0.015 A 
ATOM      7  C7  IND d   1       0.247  -2.399  -1.348  0.00  0.00    -0.016 A 
ATOM      8  C8  IND d   1      -0.069  -1.404  -0.434  0.00  0.00    -0.047 A 
ATOM      9  C9  IND d   1      -0.812  -1.668   0.723  0.00  0.00    -0.096 A 
ATOM     10  HN1 IND d   1       0.634   0.366  -1.063  0.00  0.00     0.298 HD
ENDROOT
TORSDOF 0
ENDMDL
