MODEL 1
REMARK minimizedAffinity 0.19164671
REMARK minimizedRMSD -1
REMARK  1 active torsions:
REMARK  status: ('A' for Active; 'I' for Inactive)
REMARK    1  A    between atoms: C1_2  and  C2_3 
ROOT
ATOM      1  C2  UNL d   1      -0.182  -1.265   1.880  0.00  0.00    -0.073 A 
ATOM      2  C3  UNL d   1       0.068  -0.470   0.755  0.00  0.00    -0.002 A 
ATOM      3  C4  UNL d   1       1.021  -0.861  -0.186  0.00  0.00     0.004 A 
ATOM      4  C5  UNL d   1       1.728  -2.052  -0.017  0.00  0.00    -0.004 A 
ATOM      5  C6  UNL d   1       1.483  -2.865   1.095  0.00  0.00    -0.075 A 
ATOM      6  C7  UNL d   1       2.236  -4.148   1.293  0.00  0.00     0.076 C 
ATOM      7  C8  UNL d   1       0.526  -2.464   2.037  0.00  0.00     0.001 A 
ENDROOT
BRANCH   1   8
ATOM      8  C1  UNL d   1      -1.215  -0.850   2.895  0.00  0.00     0.053 C 
ATOM      9  C   UNL d   1      -2.265   0.073   2.297  0.00  0.00     0.018 C 
ENDBRANCH   1   8
TORSDOF 1
ENDMDL
