MODEL 1
REMARK minimizedAffinity 0.935447574
REMARK minimizedRMSD -1
REMARK  1 active torsions:
REMARK  status: ('A' for Active; 'I' for Inactive)
REMARK    1  A    between atoms: C1_2  and  C2_3 
ROOT
ATOM      1  C2  UNL d   1       0.356  -0.375  -0.785  0.00  0.00    -0.073 A 
ATOM      2  C3  UNL d   1      -0.987  -0.190  -1.131  0.00  0.00    -0.002 A 
ATOM      3  C4  UNL d   1      -1.958  -0.048  -0.139  0.00  0.00     0.004 A 
ATOM      4  C5  UNL d   1      -1.595  -0.082   1.208  0.00  0.00    -0.004 A 
ATOM      5  C6  UNL d   1      -0.257  -0.254   1.574  0.00  0.00    -0.075 A 
ATOM      6  C7  UNL d   1       0.149  -0.295   3.018  0.00  0.00     0.076 C 
ATOM      7  C8  UNL d   1       0.712  -0.399   0.572  0.00  0.00     0.001 A 
ENDROOT
BRANCH   1   8
ATOM      8  C1  UNL d   1       1.409  -0.523  -1.853  0.00  0.00     0.053 C 
ATOM      9  C   UNL d   1       1.562   0.743  -2.681  0.00  0.00     0.018 C 
ENDBRANCH   1   8
TORSDOF 1
ENDMDL
