MODEL 1
REMARK minimizedAffinity 6.66305733
REMARK minimizedRMSD -1
REMARK  1 active torsions:
REMARK  status: ('A' for Active; 'I' for Inactive)
REMARK    1  A    between atoms: C1_2  and  C2_3 
ROOT
ATOM      1  C2  UNL d   1      -0.718   0.015   0.272  0.00  0.00    -0.073 A 
ATOM      2  C3  UNL d   1       0.632  -0.270   0.038  0.00  0.00    -0.002 A 
ATOM      3  C4  UNL d   1       1.360   0.479  -0.887  0.00  0.00     0.004 A 
ATOM      4  C5  UNL d   1       0.750   1.524  -1.581  0.00  0.00    -0.004 A 
ATOM      5  C6  UNL d   1      -0.595   1.832  -1.352  0.00  0.00    -0.075 A 
ATOM      6  C7  UNL d   1      -1.267   2.951  -2.092  0.00  0.00     0.076 C 
ATOM      7  C8  UNL d   1      -1.320   1.073  -0.423  0.00  0.00     0.001 A 
ENDROOT
BRANCH   1   8
ATOM      8  C1  UNL d   1      -1.507  -0.787   1.275  0.00  0.00     0.053 C 
ATOM      9  C   UNL d   1      -0.904  -0.709   2.669  0.00  0.00     0.018 C 
ENDBRANCH   1   8
TORSDOF 1
ENDMDL
