MODEL 1
REMARK minimizedAffinity 2.20296311
REMARK minimizedRMSD -1
REMARK  1 active torsions:
REMARK  status: ('A' for Active; 'I' for Inactive)
REMARK    1  A    between atoms: C1_2  and  C2_3 
ROOT
ATOM      1  C2  UNL d   1       0.241  -2.045   2.000  0.00  0.00    -0.073 A 
ATOM      2  C3  UNL d   1       0.982  -1.359   1.031  0.00  0.00    -0.002 A 
ATOM      3  C4  UNL d   1       0.386  -0.352   0.271  0.00  0.00     0.004 A 
ATOM      4  C5  UNL d   1      -0.952  -0.016   0.476  0.00  0.00    -0.004 A 
ATOM      5  C6  UNL d   1      -1.706  -0.683   1.447  0.00  0.00    -0.075 A 
ATOM      6  C7  UNL d   1      -3.147  -0.335   1.678  0.00  0.00     0.076 C 
ATOM      7  C8  UNL d   1      -1.101  -1.695   2.205  0.00  0.00     0.001 A 
ENDROOT
BRANCH   1   8
ATOM      8  C1  UNL d   1       0.882  -3.129   2.827  0.00  0.00     0.053 C 
ATOM      9  C   UNL d   1       1.804  -4.009   1.999  0.00  0.00     0.018 C 
ENDBRANCH   1   8
TORSDOF 1
ENDMDL
