MODEL 1
REMARK minimizedAffinity -2.12918878
REMARK minimizedRMSD -1
REMARK  1 active torsions:
REMARK  status: ('A' for Active; 'I' for Inactive)
REMARK    1  A    between atoms: C1_2  and  C2_3 
ROOT
ATOM      1  C2  UNL d   1       0.673  -2.794   3.001  0.00  0.00    -0.073 A 
ATOM      2  C3  UNL d   1       0.928  -3.533   1.840  0.00  0.00    -0.002 A 
ATOM      3  C4  UNL d   1       2.135  -4.216   1.689  0.00  0.00     0.004 A 
ATOM      4  C5  UNL d   1       3.097  -4.173   2.698  0.00  0.00    -0.004 A 
ATOM      5  C6  UNL d   1       2.857  -3.449   3.871  0.00  0.00    -0.075 A 
ATOM      6  C7  UNL d   1       3.882  -3.391   4.965  0.00  0.00     0.076 C 
ATOM      7  C8  UNL d   1       1.643  -2.764   4.014  0.00  0.00     0.001 A 
ENDROOT
BRANCH   1   8
ATOM      8  C1  UNL d   1      -0.632  -2.061   3.171  0.00  0.00     0.053 C 
ATOM      9  C   UNL d   1      -1.742  -2.979   3.657  0.00  0.00     0.018 C 
ENDBRANCH   1   8
TORSDOF 1
ENDMDL
