MODEL 1
REMARK minimizedAffinity 4.41798782
REMARK minimizedRMSD -1
REMARK  1 active torsions:
REMARK  status: ('A' for Active; 'I' for Inactive)
REMARK    1  A    between atoms: C1_2  and  C2_3 
ROOT
ATOM      1  C2  UNL d   1      -4.861   1.037  -4.257  0.00  0.00    -0.073 A 
ATOM      2  C3  UNL d   1      -5.799   2.048  -4.492  0.00  0.00    -0.002 A 
ATOM      3  C4  UNL d   1      -5.532   3.362  -4.104  0.00  0.00     0.004 A 
ATOM      4  C5  UNL d   1      -4.323   3.678  -3.485  0.00  0.00    -0.004 A 
ATOM      5  C6  UNL d   1      -3.368   2.684  -3.252  0.00  0.00    -0.075 A 
ATOM      6  C7  UNL d   1      -2.063   3.008  -2.585  0.00  0.00     0.076 C 
ATOM      7  C8  UNL d   1      -3.645   1.366  -3.642  0.00  0.00     0.001 A 
ENDROOT
BRANCH   1   8
ATOM      8  C1  UNL d   1      -5.143  -0.382  -4.680  0.00  0.00     0.053 C 
ATOM      9  C   UNL d   1      -4.470  -0.728  -5.999  0.00  0.00     0.018 C 
ENDBRANCH   1   8
TORSDOF 1
ENDMDL
