MODEL 1
REMARK minimizedAffinity 5.74528933
REMARK minimizedRMSD -1
REMARK  1 active torsions:
REMARK  status: ('A' for Active; 'I' for Inactive)
REMARK    1  A    between atoms: C1_2  and  C2_3 
ROOT
ATOM      1  C2  UNL d   1       0.794  -2.297   1.335  0.00  0.00    -0.073 A 
ATOM      2  C3  UNL d   1       0.396  -2.545   2.654  0.00  0.00    -0.002 A 
ATOM      3  C4  UNL d   1      -0.625  -1.792   3.236  0.00  0.00     0.004 A 
ATOM      4  C5  UNL d   1      -1.261  -0.789   2.505  0.00  0.00    -0.004 A 
ATOM      5  C6  UNL d   1      -0.886  -0.534   1.182  0.00  0.00    -0.075 A 
ATOM      6  C7  UNL d   1      -1.559   0.543   0.383  0.00  0.00     0.076 C 
ATOM      7  C8  UNL d   1       0.142  -1.292   0.606  0.00  0.00     0.001 A 
ENDROOT
BRANCH   1   8
ATOM      8  C1  UNL d   1       1.891  -3.111   0.701  0.00  0.00     0.053 C 
ATOM      9  C   UNL d   1       2.211  -4.361   1.505  0.00  0.00     0.018 C 
ENDBRANCH   1   8
TORSDOF 1
ENDMDL
