MODEL 1
REMARK minimizedAffinity -1.62257731
REMARK minimizedRMSD -1
REMARK  1 active torsions:
REMARK  status: ('A' for Active; 'I' for Inactive)
REMARK    1  A    between atoms: C1_2  and  C2_3 
ROOT
ATOM      1  C2  UNL d   1       1.769  -2.852   1.841  0.00  0.00    -0.073 A 
ATOM      2  C3  UNL d   1       1.059  -2.407   2.961  0.00  0.00    -0.002 A 
ATOM      3  C4  UNL d   1       0.081  -1.420   2.830  0.00  0.00     0.004 A 
ATOM      4  C5  UNL d   1      -0.201  -0.873   1.578  0.00  0.00    -0.004 A 
ATOM      5  C6  UNL d   1       0.490  -1.313   0.444  0.00  0.00    -0.075 A 
ATOM      6  C7  UNL d   1       0.200  -0.734  -0.909  0.00  0.00     0.076 C 
ATOM      7  C8  UNL d   1       1.472  -2.304   0.585  0.00  0.00     0.001 A 
ENDROOT
BRANCH   1   8
ATOM      8  C1  UNL d   1       2.820  -3.923   1.976  0.00  0.00     0.053 C 
ATOM      9  C   UNL d   1       3.501  -3.885   3.336  0.00  0.00     0.018 C 
ENDBRANCH   1   8
TORSDOF 1
ENDMDL
