MODEL 1
REMARK minimizedAffinity 2.68600988
REMARK minimizedRMSD -1
REMARK  1 active torsions:
REMARK  status: ('A' for Active; 'I' for Inactive)
REMARK    1  A    between atoms: C1_2  and  C2_3 
ROOT
ATOM      1  C2  UNL d   1       0.431  -1.250   0.775  0.00  0.00    -0.073 A 
ATOM      2  C3  UNL d   1      -0.018  -1.416   2.090  0.00  0.00    -0.002 A 
ATOM      3  C4  UNL d   1       0.466  -2.465   2.873  0.00  0.00     0.004 A 
ATOM      4  C5  UNL d   1       1.407  -3.353   2.353  0.00  0.00    -0.004 A 
ATOM      5  C6  UNL d   1       1.877  -3.197   1.045  0.00  0.00    -0.075 A 
ATOM      6  C7  UNL d   1       2.887  -4.145   0.470  0.00  0.00     0.076 C 
ATOM      7  C8  UNL d   1       1.384  -2.143   0.264  0.00  0.00     0.001 A 
ENDROOT
BRANCH   1   8
ATOM      8  C1  UNL d   1      -0.084  -0.116  -0.073  0.00  0.00     0.053 C 
ATOM      9  C   UNL d   1      -1.590   0.054   0.056  0.00  0.00     0.018 C 
ENDBRANCH   1   8
TORSDOF 1
ENDMDL
