MODEL 1
REMARK minimizedAffinity 2.84123278
REMARK minimizedRMSD -1
REMARK  1 active torsions:
REMARK  status: ('A' for Active; 'I' for Inactive)
REMARK    1  A    between atoms: C1_2  and  C2_3 
ROOT
ATOM      1  C2  UNL d   1      -0.649  -1.535   2.031  0.00  0.00    -0.073 A 
ATOM      2  C3  UNL d   1       0.076  -0.707   1.166  0.00  0.00    -0.002 A 
ATOM      3  C4  UNL d   1      -0.566   0.320   0.471  0.00  0.00     0.004 A 
ATOM      4  C5  UNL d   1      -1.934   0.532   0.638  0.00  0.00    -0.004 A 
ATOM      5  C6  UNL d   1      -2.673  -0.277   1.507  0.00  0.00    -0.075 A 
ATOM      6  C7  UNL d   1      -4.146  -0.063   1.696  0.00  0.00     0.076 C 
ATOM      7  C8  UNL d   1      -2.022  -1.307   2.199  0.00  0.00     0.001 A 
ENDROOT
BRANCH   1   8
ATOM      8  C1  UNL d   1       0.041  -2.640   2.788  0.00  0.00     0.053 C 
ATOM      9  C   UNL d   1       1.025  -3.402   1.915  0.00  0.00     0.018 C 
ENDBRANCH   1   8
TORSDOF 1
ENDMDL
