MODEL 1
REMARK minimizedAffinity 6.7974925
REMARK minimizedRMSD -1
REMARK  2 active torsions:
REMARK  status: ('A' for Active; 'I' for Inactive)
REMARK    1  A    between atoms: C1_2  and  C2_3 
REMARK    2  A    between atoms: C2_3  and  C3_4 
ROOT
ATOM      1  C3  UNL d   1      -1.396  -3.696  -3.420  0.00  0.00    -0.075 A 
ATOM      2  C4  UNL d   1      -1.769  -4.915  -2.837  0.00  0.00     0.002 A 
ATOM      3  C5  UNL d   1      -2.135  -6.000  -3.634  0.00  0.00     0.002 A 
ATOM      4  C6  UNL d   1      -2.142  -5.877  -5.022  0.00  0.00    -0.004 A 
ATOM      5  C7  UNL d   1      -1.789  -4.665  -5.612  0.00  0.00     0.002 A 
ATOM      6  C8  UNL d   1      -1.419  -3.579  -4.817  0.00  0.00     0.002 A 
ENDROOT
BRANCH   1   7
ATOM      7  C2  UNL d   1      -0.971  -2.527  -2.564  0.00  0.00     0.056 C 
BRANCH   7   8
ATOM      8  C1  UNL d   1      -0.932  -1.189  -3.309  0.00  0.00     0.007 C 
ATOM      9  C   UNL d   1       0.431  -0.879  -3.915  0.00  0.00     0.009 C 
ENDBRANCH   7   8
ENDBRANCH   1   7
TORSDOF 2
ENDMDL
