MODEL 1
REMARK minimizedAffinity 6.04612064
REMARK minimizedRMSD -1
REMARK  2 active torsions:
REMARK  status: ('A' for Active; 'I' for Inactive)
REMARK    1  A    between atoms: C1_2  and  C2_3 
REMARK    2  A    between atoms: C2_3  and  C3_4 
ROOT
ATOM      1  C3  UNL d   1       1.199  -2.049   4.497  0.00  0.00    -0.075 A 
ATOM      2  C4  UNL d   1       1.554  -0.711   4.722  0.00  0.00     0.002 A 
ATOM      3  C5  UNL d   1       1.124   0.292   3.853  0.00  0.00     0.002 A 
ATOM      4  C6  UNL d   1       0.344  -0.030   2.744  0.00  0.00    -0.004 A 
ATOM      5  C7  UNL d   1      -0.000  -1.358   2.501  0.00  0.00     0.002 A 
ATOM      6  C8  UNL d   1       0.425  -2.363   3.372  0.00  0.00     0.002 A 
ENDROOT
BRANCH   1   7
ATOM      7  C2  UNL d   1       1.637  -3.135   5.450  0.00  0.00     0.056 C 
BRANCH   7   8
ATOM      8  C1  UNL d   1       3.060  -2.956   5.989  0.00  0.00     0.007 C 
ATOM      9  C   UNL d   1       3.868  -4.247   5.991  0.00  0.00     0.009 C 
ENDBRANCH   7   8
ENDBRANCH   1   7
TORSDOF 2
ENDMDL
