MODEL 1
REMARK minimizedAffinity 15.4293022
REMARK minimizedRMSD -1
REMARK  2 active torsions:
REMARK  status: ('A' for Active; 'I' for Inactive)
REMARK    1  A    between atoms: C1_2  and  C2_3 
REMARK    2  A    between atoms: C2_3  and  C3_4 
ROOT
ATOM      1  C3  UNL d   1      -0.477  -3.555  -5.271  0.00  0.00    -0.075 A 
ATOM      2  C4  UNL d   1       0.234  -4.747  -5.472  0.00  0.00     0.002 A 
ATOM      3  C5  UNL d   1      -0.442  -5.961  -5.602  0.00  0.00     0.002 A 
ATOM      4  C6  UNL d   1      -1.832  -5.999  -5.523  0.00  0.00    -0.004 A 
ATOM      5  C7  UNL d   1      -2.547  -4.823  -5.307  0.00  0.00     0.002 A 
ATOM      6  C8  UNL d   1      -1.874  -3.607  -5.181  0.00  0.00     0.002 A 
ENDROOT
BRANCH   1   7
ATOM      7  C2  UNL d   1       0.247  -2.234  -5.159  0.00  0.00     0.056 C 
BRANCH   7   8
ATOM      8  C1  UNL d   1      -0.000  -1.498  -3.838  0.00  0.00     0.007 C 
ATOM      9  C   UNL d   1       0.237   0.004  -3.934  0.00  0.00     0.009 C 
ENDBRANCH   7   8
ENDBRANCH   1   7
TORSDOF 2
ENDMDL
