MODEL 1
REMARK minimizedAffinity 5.75371933
REMARK minimizedRMSD -1
REMARK  2 active torsions:
REMARK  status: ('A' for Active; 'I' for Inactive)
REMARK    1  A    between atoms: C1_2  and  C2_3 
REMARK    2  A    between atoms: C2_3  and  C3_4 
ROOT
ATOM      1  C3  UNL d   1       0.867   0.052   3.740  0.00  0.00    -0.075 A 
ATOM      2  C4  UNL d   1       1.168  -1.295   3.492  0.00  0.00     0.002 A 
ATOM      3  C5  UNL d   1       0.664  -1.937   2.360  0.00  0.00     0.002 A 
ATOM      4  C6  UNL d   1      -0.153  -1.244   1.469  0.00  0.00    -0.004 A 
ATOM      5  C7  UNL d   1      -0.472   0.090   1.714  0.00  0.00     0.002 A 
ATOM      6  C8  UNL d   1       0.035   0.735   2.843  0.00  0.00     0.002 A 
ENDROOT
BRANCH   1   7
ATOM      7  C2  UNL d   1       1.433   0.760   4.947  0.00  0.00     0.056 C 
BRANCH   7   8
ATOM      8  C1  UNL d   1       0.384   1.134   6.000  0.00  0.00     0.007 C 
ATOM      9  C   UNL d   1       0.033   2.615   5.999  0.00  0.00     0.009 C 
ENDBRANCH   7   8
ENDBRANCH   1   7
TORSDOF 2
ENDMDL
