MODEL 1
REMARK minimizedAffinity 7.04428291
REMARK minimizedRMSD -1
REMARK  2 active torsions:
REMARK  status: ('A' for Active; 'I' for Inactive)
REMARK    1  A    between atoms: C1_2  and  C2_3 
REMARK    2  A    between atoms: C2_3  and  C3_4 
ROOT
ATOM      1  C3  UNL d   1       0.624  -0.657  -4.130  0.00  0.00    -0.075 A 
ATOM      2  C4  UNL d   1      -0.225  -0.179  -3.121  0.00  0.00     0.002 A 
ATOM      3  C5  UNL d   1      -1.258  -0.977  -2.629  0.00  0.00     0.002 A 
ATOM      4  C6  UNL d   1      -1.462  -2.255  -3.145  0.00  0.00    -0.004 A 
ATOM      5  C7  UNL d   1      -0.635  -2.733  -4.159  0.00  0.00     0.002 A 
ATOM      6  C8  UNL d   1       0.402  -1.939  -4.651  0.00  0.00     0.002 A 
ENDROOT
BRANCH   1   7
ATOM      7  C2  UNL d   1       1.763   0.190  -4.647  0.00  0.00     0.056 C 
BRANCH   7   8
ATOM      8  C1  UNL d   1       3.151  -0.404  -4.384  0.00  0.00     0.007 C 
ATOM      9  C   UNL d   1       4.286   0.475  -4.892  0.00  0.00     0.009 C 
ENDBRANCH   7   8
ENDBRANCH   1   7
TORSDOF 2
ENDMDL
