MODEL 1
REMARK minimizedAffinity 6.4190402
REMARK minimizedRMSD -1
REMARK  2 active torsions:
REMARK  status: ('A' for Active; 'I' for Inactive)
REMARK    1  A    between atoms: C1_2  and  C2_3 
REMARK    2  A    between atoms: C2_3  and  C3_4 
ROOT
ATOM      1  C3  UNL d   1       0.530  -0.795   3.060  0.00  0.00    -0.075 A 
ATOM      2  C4  UNL d   1       0.631   0.484   3.625  0.00  0.00     0.002 A 
ATOM      3  C5  UNL d   1      -0.347   1.448   3.377  0.00  0.00     0.002 A 
ATOM      4  C6  UNL d   1      -1.432   1.148   2.556  0.00  0.00    -0.004 A 
ATOM      5  C7  UNL d   1      -1.534  -0.115   1.976  0.00  0.00     0.002 A 
ATOM      6  C8  UNL d   1      -0.558  -1.082   2.225  0.00  0.00     0.002 A 
ENDROOT
BRANCH   1   7
ATOM      7  C2  UNL d   1       1.570  -1.851   3.347  0.00  0.00     0.056 C 
BRANCH   7   8
ATOM      8  C1  UNL d   1       1.305  -2.657   4.624  0.00  0.00     0.007 C 
ATOM      9  C   UNL d   1       2.579  -3.049   5.361  0.00  0.00     0.009 C 
ENDBRANCH   7   8
ENDBRANCH   1   7
TORSDOF 2
ENDMDL
