MODEL 1
REMARK minimizedAffinity 10.4990082
REMARK minimizedRMSD -1
REMARK  0 active torsions:
REMARK  status: ('A' for Active; 'I' for Inactive)
ROOT
ATOM      1  C   UNL d   1       2.997  -2.076   0.488  0.00  0.00    -0.002 A 
ATOM      2  C1  UNL d   1       2.158  -2.016  -0.616  0.00  0.00     0.010 A 
ATOM      3  C2  UNL d   1       0.773  -1.958  -0.453  0.00  0.00     0.041 A 
ATOM      4  C3  UNL d   1       0.239  -1.961   0.850  0.00  0.00    -0.075 A 
ATOM      5  S   UNL d   1      -1.426  -1.897   1.292  0.00  0.00     0.015 SA
ATOM      6  C4  UNL d   1      -1.064  -1.948   2.957  0.00  0.00     0.022 A 
ATOM      7  C5  UNL d   1       0.290  -2.013   3.188  0.00  0.00     0.026 A 
ATOM      8  C6  UNL d   1       1.063  -2.021   1.978  0.00  0.00    -0.082 A 
ATOM      9  C7  UNL d   1       2.463  -2.079   1.780  0.00  0.00     0.045 A 
ENDROOT
TORSDOF 0
ENDMDL
