MODEL 1
REMARK minimizedAffinity 16.3894577
REMARK minimizedRMSD -1
REMARK  0 active torsions:
REMARK  status: ('A' for Active; 'I' for Inactive)
ROOT
ATOM      1  C   UNL d   1       2.308  -2.642  -0.080  0.00  0.00    -0.002 A 
ATOM      2  C1  UNL d   1       2.982  -1.497   0.321  0.00  0.00     0.010 A 
ATOM      3  C2  UNL d   1       2.560  -0.781   1.443  0.00  0.00     0.041 A 
ATOM      4  C3  UNL d   1       1.439  -1.239   2.162  0.00  0.00    -0.075 A 
ATOM      5  S   UNL d   1       0.742  -0.524   3.568  0.00  0.00     0.015 SA
ATOM      6  C4  UNL d   1      -0.466  -1.722   3.669  0.00  0.00     0.022 A 
ATOM      7  C5  UNL d   1      -0.356  -2.652   2.663  0.00  0.00     0.026 A 
ATOM      8  C6  UNL d   1       0.744  -2.390   1.778  0.00  0.00    -0.082 A 
ATOM      9  C7  UNL d   1       1.196  -3.093   0.636  0.00  0.00     0.045 A 
ENDROOT
TORSDOF 0
ENDMDL
