MODEL 1
REMARK minimizedAffinity 10.6603584
REMARK minimizedRMSD -1
REMARK  0 active torsions:
REMARK  status: ('A' for Active; 'I' for Inactive)
ROOT
ATOM      1  C   UNL d   1      -0.822   5.404  -4.737  0.00  0.00    -0.002 A 
ATOM      2  C1  UNL d   1       0.436   4.840  -4.574  0.00  0.00     0.010 A 
ATOM      3  C2  UNL d   1       0.607   3.702  -3.784  0.00  0.00     0.041 A 
ATOM      4  C3  UNL d   1      -0.518   3.133  -3.155  0.00  0.00    -0.075 A 
ATOM      5  S   UNL d   1      -0.548   1.739  -2.142  0.00  0.00     0.015 SA
ATOM      6  C4  UNL d   1      -2.231   1.858  -1.901  0.00  0.00     0.022 A 
ATOM      7  C5  UNL d   1      -2.773   2.930  -2.570  0.00  0.00     0.026 A 
ATOM      8  C6  UNL d   1      -1.795   3.682  -3.304  0.00  0.00    -0.082 A 
ATOM      9  C7  UNL d   1      -1.935   4.837  -4.111  0.00  0.00     0.045 A 
ENDROOT
TORSDOF 0
ENDMDL
