MODEL 1
REMARK minimizedAffinity 16.6728611
REMARK minimizedRMSD -1
REMARK  0 active torsions:
REMARK  status: ('A' for Active; 'I' for Inactive)
ROOT
ATOM      1  C   UNL d   1       2.042  -1.516   0.300  0.00  0.00    -0.002 A 
ATOM      2  C1  UNL d   1       1.122  -1.519  -0.740  0.00  0.00     0.010 A 
ATOM      3  C2  UNL d   1      -0.248  -1.563  -0.475  0.00  0.00     0.041 A 
ATOM      4  C3  UNL d   1      -0.683  -1.603   0.864  0.00  0.00    -0.075 A 
ATOM      5  S   UNL d   1      -2.312  -1.660   1.427  0.00  0.00     0.015 SA
ATOM      6  C4  UNL d   1      -1.825  -1.681   3.061  0.00  0.00     0.022 A 
ATOM      7  C5  UNL d   1      -0.457  -1.646   3.191  0.00  0.00     0.026 A 
ATOM      8  C6  UNL d   1       0.224  -1.600   1.928  0.00  0.00    -0.082 A 
ATOM      9  C7  UNL d   1       1.607  -1.555   1.627  0.00  0.00     0.045 A 
ENDROOT
TORSDOF 0
ENDMDL
