MODEL 1
REMARK minimizedAffinity 11.7740259
REMARK minimizedRMSD -1
REMARK  0 active torsions:
REMARK  status: ('A' for Active; 'I' for Inactive)
ROOT
ATOM      1  C   UNL d   1      -1.236   3.254  -3.072  0.00  0.00    -0.002 A 
ATOM      2  C1  UNL d   1      -2.157   2.313  -2.632  0.00  0.00     0.010 A 
ATOM      3  C2  UNL d   1      -1.743   1.213  -1.878  0.00  0.00     0.041 A 
ATOM      4  C3  UNL d   1      -0.375   1.075  -1.569  0.00  0.00    -0.075 A 
ATOM      5  S   UNL d   1       0.362  -0.190  -0.658  0.00  0.00     0.015 SA
ATOM      6  C4  UNL d   1       1.915   0.489  -0.830  0.00  0.00     0.022 A 
ATOM      7  C5  UNL d   1       1.891   1.653  -1.562  0.00  0.00     0.026 A 
ATOM      8  C6  UNL d   1       0.570   2.010  -1.999  0.00  0.00    -0.082 A 
ATOM      9  C7  UNL d   1       0.119   3.113  -2.763  0.00  0.00     0.045 A 
ENDROOT
TORSDOF 0
ENDMDL
