MODEL 1
REMARK minimizedAffinity -2.14750791
REMARK minimizedRMSD -1
REMARK  0 active torsions:
REMARK  status: ('A' for Active; 'I' for Inactive)
ROOT
ATOM      1  C1  BNZ d   1      -1.104   1.785  -0.511  0.00  0.00     0.000 A 
ATOM      2  C2  BNZ d   1      -2.068   2.531  -1.134  0.00  0.00     0.000 A 
ATOM      3  C3  BNZ d   1      -2.668   2.084  -2.279  0.00  0.00     0.000 A 
ATOM      4  C4  BNZ d   1      -2.274   0.913  -2.820  0.00  0.00     0.000 A 
ATOM      5  C5  BNZ d   1      -1.297   0.154  -2.208  0.00  0.00     0.000 A 
ATOM      6  C6  BNZ d   1      -0.723   0.588  -1.035  0.00  0.00     0.000 A 
ENDROOT
TORSDOF 0
ENDMDL
