MODEL 1
REMARK minimizedAffinity -3.79570317
REMARK minimizedRMSD -1
REMARK  0 active torsions:
REMARK  status: ('A' for Active; 'I' for Inactive)
ROOT
ATOM      1  C1  BNZ d   1       2.154  -1.459   0.757  0.00  0.00     0.000 A 
ATOM      2  C2  BNZ d   1       1.168  -2.302   1.195  0.00  0.00     0.000 A 
ATOM      3  C3  BNZ d   1      -0.135  -2.104   0.833  0.00  0.00     0.000 A 
ATOM      4  C4  BNZ d   1      -0.456  -1.040   0.068  0.00  0.00     0.000 A 
ATOM      5  C5  BNZ d   1       0.525  -0.176  -0.374  0.00  0.00     0.000 A 
ATOM      6  C6  BNZ d   1       1.841  -0.401  -0.040  0.00  0.00     0.000 A 
ENDROOT
TORSDOF 0
ENDMDL
