MODEL 1
REMARK minimizedAffinity -1.82322764
REMARK minimizedRMSD -1
REMARK  0 active torsions:
REMARK  status: ('A' for Active; 'I' for Inactive)
ROOT
ATOM      1  C1  BNZ d   1       1.746   1.289  -0.088  0.00  0.00     0.000 A 
ATOM      2  C2  BNZ d   1       0.543   1.929   0.051  0.00  0.00     0.000 A 
ATOM      3  C3  BNZ d   1      -0.629   1.285  -0.233  0.00  0.00     0.000 A 
ATOM      4  C4  BNZ d   1      -0.594   0.018  -0.693  0.00  0.00     0.000 A 
ATOM      5  C5  BNZ d   1       0.611  -0.637  -0.848  0.00  0.00     0.000 A 
ATOM      6  C6  BNZ d   1       1.786   0.001  -0.523  0.00  0.00     0.000 A 
ENDROOT
TORSDOF 0
ENDMDL
