MODEL 1
REMARK minimizedAffinity -4.45380783
REMARK minimizedRMSD -1
REMARK  0 active torsions:
REMARK  status: ('A' for Active; 'I' for Inactive)
ROOT
ATOM      1  C1  BNZ d   1       1.906  -0.221  -0.661  0.00  0.00     0.000 A 
ATOM      2  C2  BNZ d   1       2.321  -1.446  -0.211  0.00  0.00     0.000 A 
ATOM      3  C3  BNZ d   1       1.530  -2.192   0.618  0.00  0.00     0.000 A 
ATOM      4  C4  BNZ d   1       0.345  -1.695   1.028  0.00  0.00     0.000 A 
ATOM      5  C5  BNZ d   1      -0.083  -0.458   0.590  0.00  0.00     0.000 A 
ATOM      6  C6  BNZ d   1       0.698   0.273  -0.275  0.00  0.00     0.000 A 
ENDROOT
TORSDOF 0
ENDMDL
