MODEL 1
REMARK minimizedAffinity -5.01751137
REMARK minimizedRMSD -1
REMARK  0 active torsions:
REMARK  status: ('A' for Active; 'I' for Inactive)
ROOT
ATOM      1  C1  BNZ d   1      -1.128   0.500   1.423  0.00  0.00     0.000 A 
ATOM      2  C2  BNZ d   1      -1.071  -0.721   2.040  0.00  0.00     0.000 A 
ATOM      3  C3  BNZ d   1      -0.364  -1.752   1.487  0.00  0.00     0.000 A 
ATOM      4  C4  BNZ d   1       0.251  -1.574   0.300  0.00  0.00     0.000 A 
ATOM      5  C5  BNZ d   1       0.195  -0.351  -0.339  0.00  0.00     0.000 A 
ATOM      6  C6  BNZ d   1      -0.485   0.696   0.239  0.00  0.00     0.000 A 
ENDROOT
TORSDOF 0
ENDMDL
