MODEL 1
REMARK minimizedAffinity -2.57556415
REMARK minimizedRMSD -1
REMARK  0 active torsions:
REMARK  status: ('A' for Active; 'I' for Inactive)
ROOT
ATOM      1  C1  BNZ d   1       1.430  -0.104   0.338  0.00  0.00     0.000 A 
ATOM      2  C2  BNZ d   1       1.866  -1.325   0.778  0.00  0.00     0.000 A 
ATOM      3  C3  BNZ d   1       0.977  -2.291   1.159  0.00  0.00     0.000 A 
ATOM      4  C4  BNZ d   1      -0.344  -2.021   1.137  0.00  0.00     0.000 A 
ATOM      5  C5  BNZ d   1      -0.800  -0.791   0.705  0.00  0.00     0.000 A 
ATOM      6  C6  BNZ d   1       0.097   0.165   0.286  0.00  0.00     0.000 A 
ENDROOT
TORSDOF 0
ENDMDL
