MODEL 1
REMARK minimizedAffinity -3.9181335
REMARK minimizedRMSD -1
REMARK  0 active torsions:
REMARK  status: ('A' for Active; 'I' for Inactive)
ROOT
ATOM      1  C1  BNZ d   1       0.168   1.874  -0.369  0.00  0.00     0.000 A 
ATOM      2  C2  BNZ d   1      -0.746   0.932   0.023  0.00  0.00     0.000 A 
ATOM      3  C3  BNZ d   1      -0.347  -0.328   0.371  0.00  0.00     0.000 A 
ATOM      4  C4  BNZ d   1       0.959  -0.657   0.289  0.00  0.00     0.000 A 
ATOM      5  C5  BNZ d   1       1.891   0.279  -0.114  0.00  0.00     0.000 A 
ATOM      6  C6  BNZ d   1       1.490   1.558  -0.426  0.00  0.00     0.000 A 
ENDROOT
TORSDOF 0
ENDMDL
