MODEL 1
REMARK minimizedAffinity -3.09763932
REMARK minimizedRMSD -1
REMARK  0 active torsions:
REMARK  status: ('A' for Active; 'I' for Inactive)
ROOT
ATOM      1  C1  BNZ d   1      -2.060   1.036  -2.830  0.00  0.00     0.000 A 
ATOM      2  C2  BNZ d   1      -1.061   1.836  -3.317  0.00  0.00     0.000 A 
ATOM      3  C3  BNZ d   1      -1.339   3.080  -3.811  0.00  0.00     0.000 A 
ATOM      4  C4  BNZ d   1      -2.618   3.505  -3.855  0.00  0.00     0.000 A 
ATOM      5  C5  BNZ d   1      -3.637   2.706  -3.376  0.00  0.00     0.000 A 
ATOM      6  C6  BNZ d   1      -3.349   1.471  -2.843  0.00  0.00     0.000 A 
ENDROOT
TORSDOF 0
ENDMDL
