MODEL 1
REMARK minimizedAffinity -2.42400098
REMARK minimizedRMSD -1
REMARK  0 active torsions:
REMARK  status: ('A' for Active; 'I' for Inactive)
ROOT
ATOM      1  C1  BNZ d   1       2.053  -1.131   0.230  0.00  0.00     0.000 A 
ATOM      2  C2  BNZ d   1       1.593   0.044  -0.302  0.00  0.00     0.000 A 
ATOM      3  C3  BNZ d   1       0.279   0.400  -0.182  0.00  0.00     0.000 A 
ATOM      4  C4  BNZ d   1      -0.581  -0.437   0.432  0.00  0.00     0.000 A 
ATOM      5  C5  BNZ d   1      -0.136  -1.630   0.965  0.00  0.00     0.000 A 
ATOM      6  C6  BNZ d   1       1.196  -1.967   0.877  0.00  0.00     0.000 A 
ENDROOT
TORSDOF 0
ENDMDL
