MODEL 1
REMARK minimizedAffinity -5.39689541
REMARK minimizedRMSD -1
REMARK  0 active torsions:
REMARK  status: ('A' for Active; 'I' for Inactive)
ROOT
ATOM      1  C1  BNZ d   1      -0.594  -0.481   0.921  0.00  0.00     0.000 A 
ATOM      2  C2  BNZ d   1      -0.269  -1.765   1.266  0.00  0.00     0.000 A 
ATOM      3  C3  BNZ d   1       0.966  -2.276   0.976  0.00  0.00     0.000 A 
ATOM      4  C4  BNZ d   1       1.857  -1.517   0.307  0.00  0.00     0.000 A 
ATOM      5  C5  BNZ d   1       1.540  -0.223  -0.056  0.00  0.00     0.000 A 
ATOM      6  C6  BNZ d   1       0.311   0.301   0.272  0.00  0.00     0.000 A 
ENDROOT
TORSDOF 0
ENDMDL
