MODEL 1
REMARK minimizedAffinity -4.12414742
REMARK minimizedRMSD -1
REMARK  0 active torsions:
REMARK  status: ('A' for Active; 'I' for Inactive)
ROOT
ATOM      1  C1  BNZ d   1       1.447   0.222  -0.443  0.00  0.00     0.000 A 
ATOM      2  C2  BNZ d   1       1.736  -0.917   0.260  0.00  0.00     0.000 A 
ATOM      3  C3  BNZ d   1       0.768  -1.558   0.981  0.00  0.00     0.000 A 
ATOM      4  C4  BNZ d   1      -0.475  -1.038   1.032  0.00  0.00     0.000 A 
ATOM      5  C5  BNZ d   1      -0.779   0.115   0.337  0.00  0.00     0.000 A 
ATOM      6  C6  BNZ d   1       0.187   0.736  -0.420  0.00  0.00     0.000 A 
ENDROOT
TORSDOF 0
ENDMDL
