MODEL 1
REMARK minimizedAffinity -3.47407246
REMARK minimizedRMSD -1
REMARK  0 active torsions:
REMARK  status: ('A' for Active; 'I' for Inactive)
ROOT
ATOM      1  C1  BNZ d   1       0.610   0.315  -0.116  0.00  0.00     0.000 A 
ATOM      2  C2  BNZ d   1       0.993  -0.953   0.232  0.00  0.00     0.000 A 
ATOM      3  C3  BNZ d   1       0.132  -1.788   0.888  0.00  0.00     0.000 A 
ATOM      4  C4  BNZ d   1      -1.094  -1.341   1.229  0.00  0.00     0.000 A 
ATOM      5  C5  BNZ d   1      -1.491  -0.062   0.892  0.00  0.00     0.000 A 
ATOM      6  C6  BNZ d   1      -0.636   0.762   0.198  0.00  0.00     0.000 A 
ENDROOT
TORSDOF 0
ENDMDL
