MODEL 1
REMARK minimizedAffinity -4.04870415
REMARK minimizedRMSD -1
REMARK  0 active torsions:
REMARK  status: ('A' for Active; 'I' for Inactive)
ROOT
ATOM      1  C1  BNZ d   1       0.588  -0.399  -0.625  0.00  0.00     0.000 A 
ATOM      2  C2  BNZ d   1       0.764  -1.663  -0.128  0.00  0.00     0.000 A 
ATOM      3  C3  BNZ d   1      -0.035  -2.138   0.874  0.00  0.00     0.000 A 
ATOM      4  C4  BNZ d   1      -0.981  -1.336   1.405  0.00  0.00     0.000 A 
ATOM      5  C5  BNZ d   1      -1.164  -0.056   0.920  0.00  0.00     0.000 A 
ATOM      6  C6  BNZ d   1      -0.384   0.406  -0.115  0.00  0.00     0.000 A 
ENDROOT
TORSDOF 0
ENDMDL
