MODEL 1
REMARK minimizedAffinity -2.83384681
REMARK minimizedRMSD -1
REMARK  0 active torsions:
REMARK  status: ('A' for Active; 'I' for Inactive)
ROOT
ATOM      1  C1  BNZ d   1      -1.215  -0.432   1.427  0.00  0.00     0.000 A 
ATOM      2  C2  BNZ d   1      -1.288   0.795   0.824  0.00  0.00     0.000 A 
ATOM      3  C3  BNZ d   1      -0.286   1.232   0.003  0.00  0.00     0.000 A 
ATOM      4  C4  BNZ d   1       0.804   0.460  -0.181  0.00  0.00     0.000 A 
ATOM      5  C5  BNZ d   1       0.897  -0.776   0.428  0.00  0.00     0.000 A 
ATOM      6  C6  BNZ d   1      -0.131  -1.229   1.222  0.00  0.00     0.000 A 
ENDROOT
TORSDOF 0
ENDMDL
