MODEL 1
REMARK minimizedAffinity -3.26711869
REMARK minimizedRMSD -1
REMARK  0 active torsions:
REMARK  status: ('A' for Active; 'I' for Inactive)
ROOT
ATOM      1  C1  BNZ d   1       1.846  -1.201   0.598  0.00  0.00     0.000 A 
ATOM      2  C2  BNZ d   1       1.377  -2.451   0.906  0.00  0.00     0.000 A 
ATOM      3  C3  BNZ d   1       0.105  -2.823   0.569  0.00  0.00     0.000 A 
ATOM      4  C4  BNZ d   1      -0.707  -1.933  -0.038  0.00  0.00     0.000 A 
ATOM      5  C5  BNZ d   1      -0.251  -0.667  -0.346  0.00  0.00     0.000 A 
ATOM      6  C6  BNZ d   1       1.042  -0.309  -0.040  0.00  0.00     0.000 A 
ENDROOT
TORSDOF 0
ENDMDL
