MODEL 1
REMARK minimizedAffinity -3.49048448
REMARK minimizedRMSD -1
REMARK  0 active torsions:
REMARK  status: ('A' for Active; 'I' for Inactive)
ROOT
ATOM      1  C1  BNZ d   1      -0.784   0.555  -0.153  0.00  0.00     0.000 A 
ATOM      2  C2  BNZ d   1      -1.716   0.480   0.848  0.00  0.00     0.000 A 
ATOM      3  C3  BNZ d   1      -1.672  -0.528   1.771  0.00  0.00     0.000 A 
ATOM      4  C4  BNZ d   1      -0.723  -1.480   1.667  0.00  0.00     0.000 A 
ATOM      5  C5  BNZ d   1       0.217  -1.424   0.658  0.00  0.00     0.000 A 
ATOM      6  C6  BNZ d   1       0.194  -0.386  -0.245  0.00  0.00     0.000 A 
ENDROOT
TORSDOF 0
ENDMDL
