MODEL 1
REMARK minimizedAffinity -4.09665442
REMARK minimizedRMSD -1
REMARK  0 active torsions:
REMARK  status: ('A' for Active; 'I' for Inactive)
ROOT
ATOM      1  C1  BNZ d   1       0.279   0.592  -0.298  0.00  0.00     0.000 A 
ATOM      2  C2  BNZ d   1       1.572   0.196  -0.511  0.00  0.00     0.000 A 
ATOM      3  C3  BNZ d   1       2.005  -1.033  -0.098  0.00  0.00     0.000 A 
ATOM      4  C4  BNZ d   1       1.156  -1.847   0.562  0.00  0.00     0.000 A 
ATOM      5  C5  BNZ d   1      -0.148  -1.458   0.793  0.00  0.00     0.000 A 
ATOM      6  C6  BNZ d   1      -0.591  -0.236   0.342  0.00  0.00     0.000 A 
ENDROOT
TORSDOF 0
ENDMDL
