MODEL 1
REMARK minimizedAffinity -4.54018497
REMARK minimizedRMSD -1
REMARK  0 active torsions:
REMARK  status: ('A' for Active; 'I' for Inactive)
ROOT
ATOM      1  C2' OXE d   1       2.285  -0.023  -0.914  0.00  0.00     0.078 C 
ATOM      2  C1' OXE d   1       0.634  -1.754   0.555  0.00  0.00     0.078 C 
ATOM      3  C1  OXE d   1       0.053  -0.435   0.112  0.00  0.00    -0.078 A 
ATOM      4  C2  OXE d   1       0.883   0.426  -0.566  0.00  0.00    -0.078 A 
ATOM      5  C3  OXE d   1       0.381   1.633  -1.045  0.00  0.00     0.003 A 
ATOM      6  C4  OXE d   1      -0.915   2.045  -0.710  0.00  0.00    -0.002 A 
ATOM      7  C5  OXE d   1      -1.763   1.200   0.013  0.00  0.00    -0.002 A 
ATOM      8  C6  OXE d   1      -1.310  -0.058   0.395  0.00  0.00     0.003 A 
ENDROOT
TORSDOF 0
ENDMDL
