MODEL 1
REMARK minimizedAffinity -3.24999976
REMARK minimizedRMSD -1
REMARK  0 active torsions:
REMARK  status: ('A' for Active; 'I' for Inactive)
ROOT
ATOM      1  C2' OXE d   1       1.369  -2.250  -2.372  0.00  0.00     0.078 C 
ATOM      2  C1' OXE d   1       2.928  -0.265  -1.143  0.00  0.00     0.078 C 
ATOM      3  C1  OXE d   1       1.523  -0.472  -0.634  0.00  0.00    -0.078 A 
ATOM      4  C2  OXE d   1       0.752  -1.413  -1.272  0.00  0.00    -0.078 A 
ATOM      5  C3  OXE d   1      -0.533  -1.682  -0.808  0.00  0.00     0.003 A 
ATOM      6  C4  OXE d   1      -1.100  -0.897   0.203  0.00  0.00    -0.002 A 
ATOM      7  C5  OXE d   1      -0.345   0.094   0.840  0.00  0.00    -0.002 A 
ATOM      8  C6  OXE d   1       0.979   0.290   0.463  0.00  0.00     0.003 A 
ENDROOT
TORSDOF 0
ENDMDL
