MODEL 1
REMARK minimizedAffinity -4.57550573
REMARK minimizedRMSD -1
REMARK  0 active torsions:
REMARK  status: ('A' for Active; 'I' for Inactive)
ROOT
ATOM      1  C2' OXE d   1       1.719   2.481  -1.360  0.00  0.00     0.078 C 
ATOM      2  C1' OXE d   1       2.926   0.115  -0.453  0.00  0.00     0.078 C 
ATOM      3  C1  OXE d   1       1.422   0.203  -0.398  0.00  0.00    -0.078 A 
ATOM      4  C2  OXE d   1       0.842   1.382  -0.800  0.00  0.00    -0.078 A 
ATOM      5  C3  OXE d   1      -0.545   1.497  -0.820  0.00  0.00     0.003 A 
ATOM      6  C4  OXE d   1      -1.348   0.480  -0.290  0.00  0.00    -0.002 A 
ATOM      7  C5  OXE d   1      -0.776  -0.714   0.162  0.00  0.00    -0.002 A 
ATOM      8  C6  OXE d   1       0.601  -0.885   0.075  0.00  0.00     0.003 A 
ENDROOT
TORSDOF 0
ENDMDL
