MODEL 1
REMARK minimizedAffinity -2.22109056
REMARK minimizedRMSD -1
REMARK  0 active torsions:
REMARK  status: ('A' for Active; 'I' for Inactive)
ROOT
ATOM      1  C2' OXE d   1       0.981  -2.014   1.164  0.00  0.00     0.078 C 
ATOM      2  C1' OXE d   1       2.025  -0.687  -1.078  0.00  0.00     0.078 C 
ATOM      3  C1  OXE d   1       0.756  -0.146  -0.468  0.00  0.00    -0.078 A 
ATOM      4  C2  OXE d   1       0.226  -0.829   0.600  0.00  0.00    -0.078 A 
ATOM      5  C3  OXE d   1      -0.913  -0.342   1.234  0.00  0.00     0.003 A 
ATOM      6  C4  OXE d   1      -1.610   0.748   0.699  0.00  0.00    -0.002 A 
ATOM      7  C5  OXE d   1      -1.110   1.435  -0.412  0.00  0.00    -0.002 A 
ATOM      8  C6  OXE d   1       0.092   1.027  -0.981  0.00  0.00     0.003 A 
ENDROOT
TORSDOF 0
ENDMDL
