MODEL 1
REMARK minimizedAffinity -5.4726696
REMARK minimizedRMSD -1
REMARK  0 active torsions:
REMARK  status: ('A' for Active; 'I' for Inactive)
ROOT
ATOM      1  C2' OXE d   1      -0.963  -0.021   0.939  0.00  0.00     0.078 C 
ATOM      2  C1' OXE d   1      -0.023  -2.518   0.067  0.00  0.00     0.078 C 
ATOM      3  C1  OXE d   1       0.783  -1.296  -0.297  0.00  0.00    -0.078 A 
ATOM      4  C2  OXE d   1       0.291  -0.074   0.094  0.00  0.00    -0.078 A 
ATOM      5  C3  OXE d   1       1.024   1.080  -0.169  0.00  0.00     0.003 A 
ATOM      6  C4  OXE d   1       2.177   1.023  -0.960  0.00  0.00    -0.002 A 
ATOM      7  C5  OXE d   1       2.674  -0.208  -1.402  0.00  0.00    -0.002 A 
ATOM      8  C6  OXE d   1       2.014  -1.378  -1.044  0.00  0.00     0.003 A 
ENDROOT
TORSDOF 0
ENDMDL
