MODEL 1
REMARK minimizedAffinity -5.01189518
REMARK minimizedRMSD -1
REMARK  0 active torsions:
REMARK  status: ('A' for Active; 'I' for Inactive)
ROOT
ATOM      1  C2' OXE d   1       1.241  -1.787  -0.302  0.00  0.00     0.078 C 
ATOM      2  C1' OXE d   1      -0.672   0.219   0.143  0.00  0.00     0.078 C 
ATOM      3  C1  OXE d   1       0.328   0.433  -0.966  0.00  0.00    -0.078 A 
ATOM      4  C2  OXE d   1       1.289  -0.532  -1.146  0.00  0.00    -0.078 A 
ATOM      5  C3  OXE d   1       2.202  -0.409  -2.190  0.00  0.00     0.003 A 
ATOM      6  C4  OXE d   1       2.246   0.759  -2.960  0.00  0.00    -0.002 A 
ATOM      7  C5  OXE d   1       1.300   1.772  -2.767  0.00  0.00    -0.002 A 
ATOM      8  C6  OXE d   1       0.310   1.606  -1.805  0.00  0.00     0.003 A 
ENDROOT
TORSDOF 0
ENDMDL
