MODEL 1
REMARK minimizedAffinity -5.32985592
REMARK minimizedRMSD -1
REMARK  0 active torsions:
REMARK  status: ('A' for Active; 'I' for Inactive)
ROOT
ATOM      1  C2' OXE d   1      -0.653   0.409   0.115  0.00  0.00     0.078 C 
ATOM      2  C1' OXE d   1       0.135   2.394  -1.706  0.00  0.00     0.078 C 
ATOM      3  C1  OXE d   1       1.018   1.179  -1.564  0.00  0.00    -0.078 A 
ATOM      4  C2  OXE d   1       0.649   0.235  -0.637  0.00  0.00    -0.078 A 
ATOM      5  C3  OXE d   1       1.398  -0.931  -0.505  0.00  0.00     0.003 A 
ATOM      6  C4  OXE d   1       2.606  -1.080  -1.197  0.00  0.00    -0.002 A 
ATOM      7  C5  OXE d   1       3.021  -0.111  -2.117  0.00  0.00    -0.002 A 
ATOM      8  C6  OXE d   1       2.218   1.002  -2.343  0.00  0.00     0.003 A 
ENDROOT
TORSDOF 0
ENDMDL
