MODEL 1
REMARK minimizedAffinity -5.84093618
REMARK minimizedRMSD -1
REMARK  0 active torsions:
REMARK  status: ('A' for Active; 'I' for Inactive)
ROOT
ATOM      1  C2' OXE d   1      -0.013  -2.084  -0.703  0.00  0.00     0.078 C 
ATOM      2  C1' OXE d   1      -0.383   0.632  -0.098  0.00  0.00     0.078 C 
ATOM      3  C1  OXE d   1       0.887   0.236  -0.809  0.00  0.00    -0.078 A 
ATOM      4  C2  OXE d   1       1.081  -1.101  -1.059  0.00  0.00    -0.078 A 
ATOM      5  C3  OXE d   1       2.210  -1.514  -1.760  0.00  0.00     0.003 A 
ATOM      6  C4  OXE d   1       3.222  -0.600  -2.077  0.00  0.00    -0.002 A 
ATOM      7  C5  OXE d   1       3.062   0.761  -1.796  0.00  0.00    -0.002 A 
ATOM      8  C6  OXE d   1       1.885   1.201  -1.201  0.00  0.00     0.003 A 
ENDROOT
TORSDOF 0
ENDMDL
