MODEL 1
REMARK minimizedAffinity -4.27170324
REMARK minimizedRMSD -1
REMARK  0 active torsions:
REMARK  status: ('A' for Active; 'I' for Inactive)
ROOT
ATOM      1  C2' OXE d   1       0.045  -1.915   0.245  0.00  0.00     0.078 C 
ATOM      2  C1' OXE d   1       2.303  -0.943  -1.111  0.00  0.00     0.078 C 
ATOM      3  C1  OXE d   1       1.138  -0.004  -0.921  0.00  0.00    -0.078 A 
ATOM      4  C2  OXE d   1       0.019  -0.502  -0.298  0.00  0.00    -0.078 A 
ATOM      5  C3  OXE d   1      -1.063   0.337  -0.049  0.00  0.00     0.003 A 
ATOM      6  C4  OXE d   1      -1.083   1.639  -0.564  0.00  0.00    -0.002 A 
ATOM      7  C5  OXE d   1       0.030   2.154  -1.237  0.00  0.00    -0.002 A 
ATOM      8  C6  OXE d   1       1.162   1.361  -1.386  0.00  0.00     0.003 A 
ENDROOT
TORSDOF 0
ENDMDL
