MODEL 1
REMARK minimizedAffinity -3.05783367
REMARK minimizedRMSD -1
REMARK  0 active torsions:
REMARK  status: ('A' for Active; 'I' for Inactive)
ROOT
ATOM      1  C2' OXE d   1       0.766   1.819   0.239  0.00  0.00     0.078 C 
ATOM      2  C1' OXE d   1      -0.835  -0.379   0.937  0.00  0.00     0.078 C 
ATOM      3  C1  OXE d   1       0.294  -0.611  -0.037  0.00  0.00    -0.078 A 
ATOM      4  C2  OXE d   1       1.043   0.479  -0.409  0.00  0.00    -0.078 A 
ATOM      5  C3  OXE d   1       2.129   0.311  -1.262  0.00  0.00     0.003 A 
ATOM      6  C4  OXE d   1       2.372  -0.930  -1.864  0.00  0.00    -0.002 A 
ATOM      7  C5  OXE d   1       1.597  -2.045  -1.530  0.00  0.00    -0.002 A 
ATOM      8  C6  OXE d   1       0.583  -1.912  -0.588  0.00  0.00     0.003 A 
ENDROOT
TORSDOF 0
ENDMDL
