MODEL 1
REMARK minimizedAffinity -4.20699406
REMARK minimizedRMSD -1
REMARK  0 active torsions:
REMARK  status: ('A' for Active; 'I' for Inactive)
ROOT
ATOM      1  C2' OXE d   1      -2.127   0.061   1.361  0.00  0.00     0.078 C 
ATOM      2  C1' OXE d   1      -2.122   1.815  -0.832  0.00  0.00     0.078 C 
ATOM      3  C1  OXE d   1      -0.854   1.054  -0.537  0.00  0.00    -0.078 A 
ATOM      4  C2  OXE d   1      -0.851   0.233   0.566  0.00  0.00    -0.078 A 
ATOM      5  C3  OXE d   1       0.276  -0.533   0.851  0.00  0.00     0.003 A 
ATOM      6  C4  OXE d   1       1.455  -0.360   0.117  0.00  0.00    -0.002 A 
ATOM      7  C5  OXE d   1       1.486   0.500  -0.986  0.00  0.00    -0.002 A 
ATOM      8  C6  OXE d   1       0.330   1.181  -1.351  0.00  0.00     0.003 A 
ENDROOT
TORSDOF 0
ENDMDL
