MODEL 1
REMARK minimizedAffinity -4.09011602
REMARK minimizedRMSD -1
REMARK  0 active torsions:
REMARK  status: ('A' for Active; 'I' for Inactive)
ROOT
ATOM      1  C2' OXE d   1       1.531   2.084  -1.554  0.00  0.00     0.078 C 
ATOM      2  C1' OXE d   1       3.089  -0.237  -1.301  0.00  0.00     0.078 C 
ATOM      3  C1  OXE d   1       1.677  -0.278  -0.774  0.00  0.00    -0.078 A 
ATOM      4  C2  OXE d   1       0.937   0.877  -0.860  0.00  0.00    -0.078 A 
ATOM      5  C3  OXE d   1      -0.390   0.879  -0.439  0.00  0.00     0.003 A 
ATOM      6  C4  OXE d   1      -0.929  -0.238   0.212  0.00  0.00    -0.002 A 
ATOM      7  C5  OXE d   1      -0.179  -1.412   0.345  0.00  0.00    -0.002 A 
ATOM      8  C6  OXE d   1       1.108  -1.462  -0.179  0.00  0.00     0.003 A 
ENDROOT
TORSDOF 0
ENDMDL
