MODEL 1
REMARK minimizedAffinity -6.41883516
REMARK minimizedRMSD -1
REMARK  0 active torsions:
REMARK  status: ('A' for Active; 'I' for Inactive)
ROOT
ATOM      1  C2' OXE d   1      -1.034   0.775   0.179  0.00  0.00     0.078 C 
ATOM      2  C1' OXE d   1       0.516  -1.566   0.167  0.00  0.00     0.078 C 
ATOM      3  C1  OXE d   1       0.950  -0.431  -0.726  0.00  0.00    -0.078 A 
ATOM      4  C2  OXE d   1       0.159   0.693  -0.749  0.00  0.00    -0.078 A 
ATOM      5  C3  OXE d   1       0.544   1.790  -1.514  0.00  0.00     0.003 A 
ATOM      6  C4  OXE d   1       1.643   1.703  -2.377  0.00  0.00    -0.002 A 
ATOM      7  C5  OXE d   1       2.439   0.553  -2.399  0.00  0.00    -0.002 A 
ATOM      8  C6  OXE d   1       2.131  -0.505  -1.550  0.00  0.00     0.003 A 
ENDROOT
TORSDOF 0
ENDMDL
