MODEL 1
REMARK minimizedAffinity -4.02923012
REMARK minimizedRMSD -1
REMARK  0 active torsions:
REMARK  status: ('A' for Active; 'I' for Inactive)
ROOT
ATOM      1  C2' OXE d   1       2.736  -0.365  -1.135  0.00  0.00     0.078 C 
ATOM      2  C1' OXE d   1       1.049   1.875  -1.026  0.00  0.00     0.078 C 
ATOM      3  C1  OXE d   1       0.441   0.522  -0.752  0.00  0.00    -0.078 A 
ATOM      4  C2  OXE d   1       1.264  -0.573  -0.854  0.00  0.00    -0.078 A 
ATOM      5  C3  OXE d   1       0.767  -1.839  -0.558  0.00  0.00     0.003 A 
ATOM      6  C4  OXE d   1      -0.599  -2.024  -0.308  0.00  0.00    -0.002 A 
ATOM      7  C5  OXE d   1      -1.463  -0.925  -0.239  0.00  0.00    -0.002 A 
ATOM      8  C6  OXE d   1      -0.952   0.356  -0.416  0.00  0.00     0.003 A 
ENDROOT
TORSDOF 0
ENDMDL
