MODEL 1
REMARK minimizedAffinity -5.86711836
REMARK minimizedRMSD -1
REMARK  0 active torsions:
REMARK  status: ('A' for Active; 'I' for Inactive)
ROOT
ATOM      1  C2' OXE d   1       1.132   1.943  -1.333  0.00  0.00     0.078 C 
ATOM      2  C1' OXE d   1       3.012  -0.141  -1.311  0.00  0.00     0.078 C 
ATOM      3  C1  OXE d   1       1.588  -0.475  -0.942  0.00  0.00    -0.078 A 
ATOM      4  C2  OXE d   1       0.684   0.560  -0.911  0.00  0.00    -0.078 A 
ATOM      5  C3  OXE d   1      -0.654   0.298  -0.630  0.00  0.00     0.003 A 
ATOM      6  C4  OXE d   1      -1.057  -0.982  -0.230  0.00  0.00    -0.002 A 
ATOM      7  C5  OXE d   1      -0.144  -2.042  -0.217  0.00  0.00    -0.002 A 
ATOM      8  C6  OXE d   1       1.170  -1.815  -0.611  0.00  0.00     0.003 A 
ENDROOT
TORSDOF 0
ENDMDL
