MODEL 1
REMARK minimizedAffinity -4.31119871
REMARK minimizedRMSD -1
REMARK  0 active torsions:
REMARK  status: ('A' for Active; 'I' for Inactive)
ROOT
ATOM      1  C2' OXE d   1       1.306   1.785  -0.760  0.00  0.00     0.078 C 
ATOM      2  C1' OXE d   1       3.096  -0.308  -1.305  0.00  0.00     0.078 C 
ATOM      3  C1  OXE d   1       1.663  -0.669  -1.000  0.00  0.00    -0.078 A 
ATOM      4  C2  OXE d   1       0.805   0.358  -0.689  0.00  0.00    -0.078 A 
ATOM      5  C3  OXE d   1      -0.539   0.085  -0.453  0.00  0.00     0.003 A 
ATOM      6  C4  OXE d   1      -0.992  -1.238  -0.380  0.00  0.00    -0.002 A 
ATOM      7  C5  OXE d   1      -0.125  -2.301  -0.654  0.00  0.00    -0.002 A 
ATOM      8  C6  OXE d   1       1.193  -2.032  -1.007  0.00  0.00     0.003 A 
ENDROOT
TORSDOF 0
ENDMDL
