MODEL 1
REMARK minimizedAffinity -3.29450464
REMARK minimizedRMSD -1
REMARK  0 active torsions:
REMARK  status: ('A' for Active; 'I' for Inactive)
ROOT
ATOM      1  C2' OXE d   1       0.734  -1.104   2.130  0.00  0.00     0.078 C 
ATOM      2  C1' OXE d   1      -1.345   0.735   1.714  0.00  0.00     0.078 C 
ATOM      3  C1  OXE d   1      -0.248   0.668   0.681  0.00  0.00    -0.078 A 
ATOM      4  C2  OXE d   1       0.790  -0.201   0.916  0.00  0.00    -0.078 A 
ATOM      5  C3  OXE d   1       1.800  -0.342  -0.031  0.00  0.00     0.003 A 
ATOM      6  C4  OXE d   1       1.848   0.504  -1.146  0.00  0.00    -0.002 A 
ATOM      7  C5  OXE d   1       0.822   1.425  -1.384  0.00  0.00    -0.002 A 
ATOM      8  C6  OXE d   1      -0.253   1.489  -0.504  0.00  0.00     0.003 A 
ENDROOT
TORSDOF 0
ENDMDL
