MODEL 1
REMARK minimizedAffinity -5.53582335
REMARK minimizedRMSD -1
REMARK  0 active torsions:
REMARK  status: ('A' for Active; 'I' for Inactive)
ROOT
ATOM      1  C2' OXE d   1      -0.711  -2.199  -0.335  0.00  0.00     0.078 C 
ATOM      2  C1' OXE d   1      -1.159   0.435   0.526  0.00  0.00     0.078 C 
ATOM      3  C1  OXE d   1       0.203   0.098  -0.027  0.00  0.00    -0.078 A 
ATOM      4  C2  OXE d   1       0.428  -1.205  -0.402  0.00  0.00    -0.078 A 
ATOM      5  C3  OXE d   1       1.649  -1.558  -0.969  0.00  0.00     0.003 A 
ATOM      6  C4  OXE d   1       2.701  -0.635  -1.018  0.00  0.00    -0.002 A 
ATOM      7  C5  OXE d   1       2.505   0.687  -0.604  0.00  0.00    -0.002 A 
ATOM      8  C6  OXE d   1       1.252   1.080  -0.147  0.00  0.00     0.003 A 
ENDROOT
TORSDOF 0
ENDMDL
