MODEL 1
REMARK minimizedAffinity 14.2706013
REMARK minimizedRMSD -1
REMARK  0 active torsions:
REMARK  status: ('A' for Active; 'I' for Inactive)
ROOT
ATOM      1  C2' OXE d   1      -0.977  -1.149   5.659  0.00  0.00     0.078 C 
ATOM      2  C1' OXE d   1      -2.245  -2.933   3.901  0.00  0.00     0.078 C 
ATOM      3  C1  OXE d   1      -1.164  -2.042   3.341  0.00  0.00    -0.078 A 
ATOM      4  C2  OXE d   1      -0.582  -1.140   4.198  0.00  0.00    -0.078 A 
ATOM      5  C3  OXE d   1       0.458  -0.333   3.746  0.00  0.00     0.003 A 
ATOM      6  C4  OXE d   1       0.811  -0.323   2.392  0.00  0.00    -0.002 A 
ATOM      7  C5  OXE d   1       0.203  -1.206   1.493  0.00  0.00    -0.002 A 
ATOM      8  C6  OXE d   1      -0.755  -2.100   1.959  0.00  0.00     0.003 A 
ENDROOT
TORSDOF 0
ENDMDL
