MODEL 1
REMARK minimizedAffinity 9.18473721
REMARK minimizedRMSD -1
REMARK  0 active torsions:
REMARK  status: ('A' for Active; 'I' for Inactive)
ROOT
ATOM      1  C2' OXE d   1      -1.913  -0.223   6.000  0.00  0.00     0.078 C 
ATOM      2  C1' OXE d   1      -2.863  -2.383   4.479  0.00  0.00     0.078 C 
ATOM      3  C1  OXE d   1      -1.572  -1.732   4.047  0.00  0.00    -0.078 A 
ATOM      4  C2  OXE d   1      -1.139  -0.647   4.770  0.00  0.00    -0.078 A 
ATOM      5  C3  OXE d   1       0.073  -0.044   4.448  0.00  0.00     0.003 A 
ATOM      6  C4  OXE d   1       0.778  -0.435   3.303  0.00  0.00    -0.002 A 
ATOM      7  C5  OXE d   1       0.333  -1.513   2.530  0.00  0.00    -0.002 A 
ATOM      8  C6  OXE d   1      -0.815  -2.198   2.912  0.00  0.00     0.003 A 
ENDROOT
TORSDOF 0
ENDMDL
