MODEL 1
REMARK minimizedAffinity 13.3175211
REMARK minimizedRMSD -1
REMARK  0 active torsions:
REMARK  status: ('A' for Active; 'I' for Inactive)
ROOT
ATOM      1  C2' OXE d   1       0.728  -0.327   4.261  0.00  0.00     0.078 C 
ATOM      2  C1' OXE d   1       0.323  -2.489   2.518  0.00  0.00     0.078 C 
ATOM      3  C1  OXE d   1       1.573  -1.665   2.337  0.00  0.00    -0.078 A 
ATOM      4  C2  OXE d   1       1.740  -0.581   3.164  0.00  0.00    -0.078 A 
ATOM      5  C3  OXE d   1       2.902   0.181   3.077  0.00  0.00     0.003 A 
ATOM      6  C4  OXE d   1       3.828  -0.055   2.053  0.00  0.00    -0.002 A 
ATOM      7  C5  OXE d   1       3.657  -1.130   1.174  0.00  0.00    -0.002 A 
ATOM      8  C6  OXE d   1       2.559  -1.968   1.329  0.00  0.00     0.003 A 
ENDROOT
TORSDOF 0
ENDMDL
