MODEL 1
REMARK minimizedAffinity 6.68699265
REMARK minimizedRMSD -1
REMARK  0 active torsions:
REMARK  status: ('A' for Active; 'I' for Inactive)
ROOT
ATOM      1  C2' OXE d   1      -2.518  -2.836   1.260  0.00  0.00     0.078 C 
ATOM      2  C1' OXE d   1      -5.246  -2.601   1.880  0.00  0.00     0.078 C 
ATOM      3  C1  OXE d   1      -4.803  -3.816   1.104  0.00  0.00    -0.078 A 
ATOM      4  C2  OXE d   1      -3.474  -3.900   0.764  0.00  0.00    -0.078 A 
ATOM      5  C3  OXE d   1      -3.003  -5.026   0.096  0.00  0.00     0.003 A 
ATOM      6  C4  OXE d   1      -3.896  -6.000  -0.368  0.00  0.00    -0.002 A 
ATOM      7  C5  OXE d   1      -5.259  -5.914  -0.068  0.00  0.00    -0.002 A 
ATOM      8  C6  OXE d   1      -5.722  -4.852   0.702  0.00  0.00     0.003 A 
ENDROOT
TORSDOF 0
ENDMDL
