MODEL 1
REMARK minimizedAffinity 4.50301933
REMARK minimizedRMSD -1
REMARK  0 active torsions:
REMARK  status: ('A' for Active; 'I' for Inactive)
ROOT
ATOM      1  C2' OXE d   1       0.162  -4.229  -2.708  0.00  0.00     0.078 C 
ATOM      2  C1' OXE d   1       0.047  -6.000  -4.882  0.00  0.00     0.078 C 
ATOM      3  C1  OXE d   1       1.092  -4.913  -4.915  0.00  0.00    -0.078 A 
ATOM      4  C2  OXE d   1       1.111  -4.022  -3.869  0.00  0.00    -0.078 A 
ATOM      5  C3  OXE d   1       2.089  -3.034  -3.822  0.00  0.00     0.003 A 
ATOM      6  C4  OXE d   1       2.957  -2.844  -4.905  0.00  0.00    -0.002 A 
ATOM      7  C5  OXE d   1       2.928  -3.715  -5.999  0.00  0.00    -0.002 A 
ATOM      8  C6  OXE d   1       2.032  -4.779  -6.000  0.00  0.00     0.003 A 
ENDROOT
TORSDOF 0
ENDMDL
