MODEL 1
REMARK minimizedAffinity 6.65493155
REMARK minimizedRMSD -1
REMARK  0 active torsions:
REMARK  status: ('A' for Active; 'I' for Inactive)
ROOT
ATOM      1  C2' OXE d   1      -1.196  -0.959   4.793  0.00  0.00     0.078 C 
ATOM      2  C1' OXE d   1      -2.467  -2.520   2.837  0.00  0.00     0.078 C 
ATOM      3  C1  OXE d   1      -1.115  -1.940   2.505  0.00  0.00    -0.078 A 
ATOM      4  C2  OXE d   1      -0.521  -1.139   3.451  0.00  0.00    -0.078 A 
ATOM      5  C3  OXE d   1       0.751  -0.624   3.217  0.00  0.00     0.003 A 
ATOM      6  C4  OXE d   1       1.364  -0.787   1.969  0.00  0.00    -0.002 A 
ATOM      7  C5  OXE d   1       0.758  -1.566   0.977  0.00  0.00    -0.002 A 
ATOM      8  C6  OXE d   1      -0.459  -2.184   1.244  0.00  0.00     0.003 A 
ENDROOT
TORSDOF 0
ENDMDL
