MODEL 1
REMARK minimizedAffinity 8.73994637
REMARK minimizedRMSD -1
REMARK  0 active torsions:
REMARK  status: ('A' for Active; 'I' for Inactive)
ROOT
ATOM      1  C2' OXE d   1      -4.126  -4.839  -0.341  0.00  0.00     0.078 C 
ATOM      2  C1' OXE d   1      -5.178  -2.637   1.047  0.00  0.00     0.078 C 
ATOM      3  C1  OXE d   1      -4.538  -3.738   1.855  0.00  0.00    -0.078 A 
ATOM      4  C2  OXE d   1      -4.068  -4.834   1.172  0.00  0.00    -0.078 A 
ATOM      5  C3  OXE d   1      -3.420  -5.852   1.864  0.00  0.00     0.003 A 
ATOM      6  C4  OXE d   1      -3.380  -5.844   3.263  0.00  0.00    -0.002 A 
ATOM      7  C5  OXE d   1      -3.888  -4.757   3.982  0.00  0.00    -0.002 A 
ATOM      8  C6  OXE d   1      -4.431  -3.679   3.292  0.00  0.00     0.003 A 
ENDROOT
TORSDOF 0
ENDMDL
