MODEL 1
REMARK minimizedAffinity 14.1497383
REMARK minimizedRMSD -1
REMARK  0 active torsions:
REMARK  status: ('A' for Active; 'I' for Inactive)
ROOT
ATOM      1  C2' OXE d   1      -1.841   3.942  -5.963  0.00  0.00     0.078 C 
ATOM      2  C1' OXE d   1      -1.628   2.950  -3.345  0.00  0.00     0.078 C 
ATOM      3  C1  OXE d   1      -2.964   2.833  -4.035  0.00  0.00    -0.078 A 
ATOM      4  C2  OXE d   1      -3.072   3.364  -5.298  0.00  0.00    -0.078 A 
ATOM      5  C3  OXE d   1      -4.267   3.235  -6.000  0.00  0.00     0.003 A 
ATOM      6  C4  OXE d   1      -5.403   2.708  -5.374  0.00  0.00    -0.002 A 
ATOM      7  C5  OXE d   1      -5.326   2.198  -4.074  0.00  0.00    -0.002 A 
ATOM      8  C6  OXE d   1      -4.105   2.215  -3.407  0.00  0.00     0.003 A 
ENDROOT
TORSDOF 0
ENDMDL
