MODEL 1
REMARK minimizedAffinity 18.8495064
REMARK minimizedRMSD -1
REMARK  0 active torsions:
REMARK  status: ('A' for Active; 'I' for Inactive)
ROOT
ATOM      1  C2' OXE d   1       1.565  -3.089   0.498  0.00  0.00     0.078 C 
ATOM      2  C1' OXE d   1       2.272  -0.628   1.649  0.00  0.00     0.078 C 
ATOM      3  C1  OXE d   1       0.894  -1.169   1.937  0.00  0.00    -0.078 A 
ATOM      4  C2  OXE d   1       0.540  -2.351   1.332  0.00  0.00    -0.078 A 
ATOM      5  C3  OXE d   1      -0.699  -2.922   1.607  0.00  0.00     0.003 A 
ATOM      6  C4  OXE d   1      -1.645  -2.228   2.371  0.00  0.00    -0.002 A 
ATOM      7  C5  OXE d   1      -1.319  -1.004   2.964  0.00  0.00    -0.002 A 
ATOM      8  C6  OXE d   1      -0.042  -0.482   2.792  0.00  0.00     0.003 A 
ENDROOT
TORSDOF 0
ENDMDL
