MODEL 1
REMARK minimizedAffinity 17.1527767
REMARK minimizedRMSD -1
REMARK  0 active torsions:
REMARK  status: ('A' for Active; 'I' for Inactive)
ROOT
ATOM      1  C2' OXE d   1      -1.925  -0.680   5.914  0.00  0.00     0.078 C 
ATOM      2  C1' OXE d   1       0.844  -0.228   5.996  0.00  0.00     0.078 C 
ATOM      3  C1  OXE d   1       0.218  -0.515   4.655  0.00  0.00    -0.078 A 
ATOM      4  C2  OXE d   1      -1.130  -0.781   4.630  0.00  0.00    -0.078 A 
ATOM      5  C3  OXE d   1      -1.767  -0.998   3.412  0.00  0.00     0.003 A 
ATOM      6  C4  OXE d   1      -1.023  -1.100   2.230  0.00  0.00    -0.002 A 
ATOM      7  C5  OXE d   1       0.357  -0.872   2.239  0.00  0.00    -0.002 A 
ATOM      8  C6  OXE d   1       0.985  -0.537   3.433  0.00  0.00     0.003 A 
ENDROOT
TORSDOF 0
ENDMDL
