MODEL 1
REMARK minimizedAffinity 11.3657341
REMARK minimizedRMSD -1
REMARK  0 active torsions:
REMARK  status: ('A' for Active; 'I' for Inactive)
ROOT
ATOM      1  C2' OXE d   1      -2.017  -2.881   2.729  0.00  0.00     0.078 C 
ATOM      2  C1' OXE d   1      -1.418  -0.365   3.820  0.00  0.00     0.078 C 
ATOM      3  C1  OXE d   1      -0.503  -0.903   2.748  0.00  0.00    -0.078 A 
ATOM      4  C2  OXE d   1      -0.778  -2.155   2.253  0.00  0.00    -0.078 A 
ATOM      5  C3  OXE d   1       0.002  -2.675   1.223  0.00  0.00     0.003 A 
ATOM      6  C4  OXE d   1       1.153  -2.002   0.796  0.00  0.00    -0.002 A 
ATOM      7  C5  OXE d   1       1.473  -0.743   1.315  0.00  0.00    -0.002 A 
ATOM      8  C6  OXE d   1       0.633  -0.162   2.259  0.00  0.00     0.003 A 
ENDROOT
TORSDOF 0
ENDMDL
