MODEL 1
REMARK minimizedAffinity 17.273016
REMARK minimizedRMSD -1
REMARK  0 active torsions:
REMARK  status: ('A' for Active; 'I' for Inactive)
ROOT
ATOM      1  C2' OXE d   1      -0.418  -2.234   1.427  0.00  0.00     0.078 C 
ATOM      2  C1' OXE d   1       1.920  -3.287   0.287  0.00  0.00     0.078 C 
ATOM      3  C1  OXE d   1       2.036  -2.004   1.070  0.00  0.00    -0.078 A 
ATOM      4  C2  OXE d   1       0.879  -1.471   1.586  0.00  0.00    -0.078 A 
ATOM      5  C3  OXE d   1       0.938  -0.318   2.363  0.00  0.00     0.003 A 
ATOM      6  C4  OXE d   1       2.140   0.387   2.497  0.00  0.00    -0.002 A 
ATOM      7  C5  OXE d   1       3.323  -0.117   1.946  0.00  0.00    -0.002 A 
ATOM      8  C6  OXE d   1       3.296  -1.331   1.268  0.00  0.00     0.003 A 
ENDROOT
TORSDOF 0
ENDMDL
