MODEL 1
REMARK minimizedAffinity 7.14488029
REMARK minimizedRMSD -1
REMARK  0 active torsions:
REMARK  status: ('A' for Active; 'I' for Inactive)
ROOT
ATOM      1  C2' OXE d   1       1.656  -0.385   4.627  0.00  0.00     0.078 C 
ATOM      2  C1' OXE d   1       3.730  -0.276   2.738  0.00  0.00     0.078 C 
ATOM      3  C1  OXE d   1       2.507  -1.089   2.394  0.00  0.00    -0.078 A 
ATOM      4  C2  OXE d   1       1.517  -1.175   3.343  0.00  0.00    -0.078 A 
ATOM      5  C3  OXE d   1       0.344  -1.867   3.055  0.00  0.00     0.003 A 
ATOM      6  C4  OXE d   1       0.228  -2.602   1.870  0.00  0.00    -0.002 A 
ATOM      7  C5  OXE d   1       1.242  -2.561   0.906  0.00  0.00    -0.002 A 
ATOM      8  C6  OXE d   1       2.367  -1.776   1.134  0.00  0.00     0.003 A 
ENDROOT
TORSDOF 0
ENDMDL
