MODEL 1
REMARK minimizedAffinity 12.6567793
REMARK minimizedRMSD -1
REMARK  0 active torsions:
REMARK  status: ('A' for Active; 'I' for Inactive)
ROOT
ATOM      1  C2' OXE d   1       1.025  -1.782   1.409  0.00  0.00     0.078 C 
ATOM      2  C1' OXE d   1       0.542   0.745   0.286  0.00  0.00     0.078 C 
ATOM      3  C1  OXE d   1       1.918   0.473   0.841  0.00  0.00    -0.078 A 
ATOM      4  C2  OXE d   1       2.131  -0.750   1.431  0.00  0.00    -0.078 A 
ATOM      5  C3  OXE d   1       3.398  -1.073   1.910  0.00  0.00     0.003 A 
ATOM      6  C4  OXE d   1       4.413  -0.109   1.935  0.00  0.00    -0.002 A 
ATOM      7  C5  OXE d   1       4.205   1.157   1.376  0.00  0.00    -0.002 A 
ATOM      8  C6  OXE d   1       2.979   1.448   0.788  0.00  0.00     0.003 A 
ENDROOT
TORSDOF 0
ENDMDL
