MODEL 1
REMARK minimizedAffinity 8.33346748
REMARK minimizedRMSD -1
REMARK  0 active torsions:
REMARK  status: ('A' for Active; 'I' for Inactive)
ROOT
ATOM      1  C2' OXE d   1      -2.627  -3.153   2.081  0.00  0.00     0.078 C 
ATOM      2  C1' OXE d   1      -4.302  -4.325   0.157  0.00  0.00     0.078 C 
ATOM      3  C1  OXE d   1      -4.636  -4.548   1.611  0.00  0.00    -0.078 A 
ATOM      4  C2  OXE d   1      -3.785  -4.010   2.545  0.00  0.00    -0.078 A 
ATOM      5  C3  OXE d   1      -4.076  -4.140   3.900  0.00  0.00     0.003 A 
ATOM      6  C4  OXE d   1      -5.143  -4.944   4.321  0.00  0.00    -0.002 A 
ATOM      7  C5  OXE d   1      -6.000  -5.534   3.386  0.00  0.00    -0.002 A 
ATOM      8  C6  OXE d   1      -5.786  -5.311   2.030  0.00  0.00     0.003 A 
ENDROOT
TORSDOF 0
ENDMDL
