MODEL 1
REMARK minimizedAffinity 1.87874806
REMARK minimizedRMSD -1
REMARK  0 active torsions:
REMARK  status: ('A' for Active; 'I' for Inactive)
ROOT
ATOM      1  C2' OXE d   1      -4.772  -3.195   3.796  0.00  0.00     0.078 C 
ATOM      2  C1' OXE d   1      -4.875  -6.000   3.751  0.00  0.00     0.078 C 
ATOM      3  C1  OXE d   1      -4.493  -5.289   2.477  0.00  0.00    -0.078 A 
ATOM      4  C2  OXE d   1      -4.491  -3.915   2.495  0.00  0.00    -0.078 A 
ATOM      5  C3  OXE d   1      -4.093  -3.211   1.362  0.00  0.00     0.003 A 
ATOM      6  C4  OXE d   1      -3.845  -3.885   0.160  0.00  0.00    -0.002 A 
ATOM      7  C5  OXE d   1      -3.880  -5.282   0.109  0.00  0.00    -0.002 A 
ATOM      8  C6  OXE d   1      -4.160  -6.000   1.267  0.00  0.00     0.003 A 
ENDROOT
TORSDOF 0
ENDMDL
