MODEL 1
REMARK minimizedAffinity -0.672421455
REMARK minimizedRMSD -1
REMARK  0 active torsions:
REMARK  status: ('A' for Active; 'I' for Inactive)
ROOT
ATOM      1  C2' OXE d   1      -3.372  -3.209   2.935  0.00  0.00     0.078 C 
ATOM      2  C1' OXE d   1      -5.226  -4.932   1.720  0.00  0.00     0.078 C 
ATOM      3  C1  OXE d   1      -5.147  -4.933   3.226  0.00  0.00    -0.078 A 
ATOM      4  C2  OXE d   1      -4.204  -4.122   3.810  0.00  0.00    -0.078 A 
ATOM      5  C3  OXE d   1      -4.126  -4.044   5.198  0.00  0.00     0.003 A 
ATOM      6  C4  OXE d   1      -4.892  -4.898   6.000  0.00  0.00    -0.002 A 
ATOM      7  C5  OXE d   1      -5.830  -5.761   5.424  0.00  0.00    -0.002 A 
ATOM      8  C6  OXE d   1      -5.999  -5.760   4.043  0.00  0.00     0.003 A 
ENDROOT
TORSDOF 0
ENDMDL
