MODEL 1
REMARK minimizedAffinity 17.0362034
REMARK minimizedRMSD -1
REMARK  0 active torsions:
REMARK  status: ('A' for Active; 'I' for Inactive)
ROOT
ATOM      1  C2' OXE d   1      -2.177   2.559  -3.048  0.00  0.00     0.078 C 
ATOM      2  C1' OXE d   1      -1.235   5.195  -3.254  0.00  0.00     0.078 C 
ATOM      3  C1  OXE d   1      -0.513   4.261  -2.316  0.00  0.00    -0.078 A 
ATOM      4  C2  OXE d   1      -1.009   2.986  -2.186  0.00  0.00    -0.078 A 
ATOM      5  C3  OXE d   1      -0.348   2.068  -1.375  0.00  0.00     0.003 A 
ATOM      6  C4  OXE d   1       0.726   2.475  -0.574  0.00  0.00    -0.002 A 
ATOM      7  C5  OXE d   1       1.222   3.780  -0.661  0.00  0.00    -0.002 A 
ATOM      8  C6  OXE d   1       0.643   4.671  -1.556  0.00  0.00     0.003 A 
ENDROOT
TORSDOF 0
ENDMDL
