MODEL 1
REMARK minimizedAffinity 10.5341692
REMARK minimizedRMSD -1
REMARK  0 active torsions:
REMARK  status: ('A' for Active; 'I' for Inactive)
ROOT
ATOM      1  C2' OXE d   1       3.348  -3.028  -5.374  0.00  0.00     0.078 C 
ATOM      2  C1' OXE d   1       3.050  -5.748  -5.999  0.00  0.00     0.078 C 
ATOM      3  C1  OXE d   1       2.224  -5.192  -4.867  0.00  0.00    -0.078 A 
ATOM      4  C2  OXE d   1       2.410  -3.871  -4.537  0.00  0.00    -0.078 A 
ATOM      5  C3  OXE d   1       1.633  -3.294  -3.537  0.00  0.00     0.003 A 
ATOM      6  C4  OXE d   1       0.775  -4.084  -2.762  0.00  0.00    -0.002 A 
ATOM      7  C5  OXE d   1       0.600  -5.440  -3.055  0.00  0.00    -0.002 A 
ATOM      8  C6  OXE d   1       1.283  -5.999  -4.129  0.00  0.00     0.003 A 
ENDROOT
TORSDOF 0
ENDMDL
