MODEL 1
REMARK minimizedAffinity 19.0504799
REMARK minimizedRMSD -1
REMARK  0 active torsions:
REMARK  status: ('A' for Active; 'I' for Inactive)
ROOT
ATOM      1  C2' OXE d   1      -5.390   4.701  -0.864  0.00  0.00     0.078 C 
ATOM      2  C1' OXE d   1      -5.381   2.085  -1.882  0.00  0.00     0.078 C 
ATOM      3  C1  OXE d   1      -4.164   2.941  -2.131  0.00  0.00    -0.078 A 
ATOM      4  C2  OXE d   1      -4.196   4.235  -1.669  0.00  0.00    -0.078 A 
ATOM      5  C3  OXE d   1      -3.078   5.050  -1.824  0.00  0.00     0.003 A 
ATOM      6  C4  OXE d   1      -1.983   4.615  -2.579  0.00  0.00    -0.002 A 
ATOM      7  C5  OXE d   1      -1.946   3.314  -3.092  0.00  0.00    -0.002 A 
ATOM      8  C6  OXE d   1      -3.008   2.452  -2.841  0.00  0.00     0.003 A 
ENDROOT
TORSDOF 0
ENDMDL
