MODEL 1
REMARK minimizedAffinity 4.54548502
REMARK minimizedRMSD -1
REMARK  0 active torsions:
REMARK  status: ('A' for Active; 'I' for Inactive)
ROOT
ATOM      1  C   UNL d   1      -0.662   2.979   1.169  0.00  0.00     0.023 A 
ATOM      2  C1  UNL d   1      -1.852   2.530   1.742  0.00  0.00     0.003 A 
ATOM      3  C2  UNL d   1      -1.957   1.215   2.199  0.00  0.00     0.048 A 
ATOM      4  C3  UNL d   1      -0.866   0.354   2.081  0.00  0.00     0.023 A 
ATOM      5  C4  UNL d   1       0.327   0.798   1.509  0.00  0.00     0.048 A 
ATOM      6  C5  UNL d   1       0.426   2.114   1.053  0.00  0.00     0.003 A 
ATOM      7  I   UNL d   1      -1.019  -1.604   2.761  0.00  0.00    -0.146 I 
ENDROOT
TORSDOF 0
ENDMDL
