MODEL 1
REMARK minimizedAffinity -2.61976743
REMARK minimizedRMSD -1
REMARK  0 active torsions:
REMARK  status: ('A' for Active; 'I' for Inactive)
ROOT
ATOM      1  C   UNL d   1       0.214   0.071   0.941  0.00  0.00     0.023 A 
ATOM      2  C1  UNL d   1       0.094   1.458   1.038  0.00  0.00     0.003 A 
ATOM      3  C2  UNL d   1      -1.041   2.023   1.622  0.00  0.00     0.048 A 
ATOM      4  C3  UNL d   1      -2.053   1.196   2.108  0.00  0.00     0.023 A 
ATOM      5  C4  UNL d   1      -1.938  -0.192   2.015  0.00  0.00     0.048 A 
ATOM      6  C5  UNL d   1      -0.801  -0.752   1.429  0.00  0.00     0.003 A 
ATOM      7  I   UNL d   1      -3.744   2.035   2.978  0.00  0.00    -0.146 I 
ENDROOT
TORSDOF 0
ENDMDL
