MODEL 1
REMARK minimizedAffinity -2.44347692
REMARK minimizedRMSD -1
REMARK  0 active torsions:
REMARK  status: ('A' for Active; 'I' for Inactive)
ROOT
ATOM      1  C   UNL d   1       0.381   0.790   1.237  0.00  0.00     0.023 A 
ATOM      2  C1  UNL d   1      -0.275   2.015   1.111  0.00  0.00     0.003 A 
ATOM      3  C2  UNL d   1      -1.482   2.234   1.779  0.00  0.00     0.048 A 
ATOM      4  C3  UNL d   1      -2.027   1.224   2.570  0.00  0.00     0.023 A 
ATOM      5  C4  UNL d   1      -1.374  -0.003   2.700  0.00  0.00     0.048 A 
ATOM      6  C5  UNL d   1      -0.168  -0.217   2.030  0.00  0.00     0.003 A 
ATOM      7  I   UNL d   1      -3.823   1.547   3.565  0.00  0.00    -0.146 I 
ENDROOT
TORSDOF 0
ENDMDL
