MODEL 1
REMARK minimizedAffinity 1.74889195
REMARK minimizedRMSD -1
REMARK  0 active torsions:
REMARK  status: ('A' for Active; 'I' for Inactive)
ROOT
ATOM      1  C   UNL d   1      -0.233   2.879   1.315  0.00  0.00     0.023 A 
ATOM      2  C1  UNL d   1      -1.491   2.592   1.844  0.00  0.00     0.003 A 
ATOM      3  C2  UNL d   1      -1.821   1.280   2.191  0.00  0.00     0.048 A 
ATOM      4  C3  UNL d   1      -0.887   0.261   2.009  0.00  0.00     0.023 A 
ATOM      5  C4  UNL d   1       0.374   0.544   1.481  0.00  0.00     0.048 A 
ATOM      6  C5  UNL d   1       0.699   1.857   1.134  0.00  0.00     0.003 A 
ATOM      7  I   UNL d   1      -1.375  -1.692   2.525  0.00  0.00    -0.146 I 
ENDROOT
TORSDOF 0
ENDMDL
