MODEL 1
REMARK minimizedAffinity 7.02192307
REMARK minimizedRMSD -1
REMARK  0 active torsions:
REMARK  status: ('A' for Active; 'I' for Inactive)
ROOT
ATOM      1  C   UNL d   1       0.412   2.359   1.115  0.00  0.00     0.023 A 
ATOM      2  C1  UNL d   1       1.112   1.188   0.824  0.00  0.00     0.003 A 
ATOM      3  C2  UNL d   1       0.678  -0.033   1.345  0.00  0.00     0.048 A 
ATOM      4  C3  UNL d   1      -0.456  -0.076   2.155  0.00  0.00     0.023 A 
ATOM      5  C4  UNL d   1      -1.159   1.093   2.448  0.00  0.00     0.048 A 
ATOM      6  C5  UNL d   1      -0.722   2.312   1.926  0.00  0.00     0.003 A 
ATOM      7  I   UNL d   1      -1.103  -1.892   2.931  0.00  0.00    -0.146 I 
ENDROOT
TORSDOF 0
ENDMDL
