MODEL 1
REMARK minimizedAffinity 1.25879538
REMARK minimizedRMSD -1
REMARK  0 active torsions:
REMARK  status: ('A' for Active; 'I' for Inactive)
ROOT
ATOM      1  C   UNL d   1      -1.342  -0.355   1.413  0.00  0.00     0.023 A 
ATOM      2  C1  UNL d   1      -1.657   0.903   0.900  0.00  0.00     0.003 A 
ATOM      3  C2  UNL d   1      -0.639   1.799   0.568  0.00  0.00     0.048 A 
ATOM      4  C3  UNL d   1       0.693   1.429   0.751  0.00  0.00     0.023 A 
ATOM      5  C4  UNL d   1       1.014   0.171   1.263  0.00  0.00     0.048 A 
ATOM      6  C5  UNL d   1      -0.008  -0.721   1.594  0.00  0.00     0.003 A 
ATOM      7  I   UNL d   1       2.211   2.761   0.258  0.00  0.00    -0.146 I 
ENDROOT
TORSDOF 0
ENDMDL
