MODEL 1
REMARK minimizedAffinity 8.46752262
REMARK minimizedRMSD -1
REMARK  0 active torsions:
REMARK  status: ('A' for Active; 'I' for Inactive)
ROOT
ATOM      1  C   UNL d   1      -2.695   2.770   1.258  0.00  0.00     0.023 A 
ATOM      2  C1  UNL d   1      -1.726   3.407   0.481  0.00  0.00     0.003 A 
ATOM      3  C2  UNL d   1      -0.456   2.843   0.347  0.00  0.00     0.048 A 
ATOM      4  C3  UNL d   1      -0.162   1.641   0.991  0.00  0.00     0.023 A 
ATOM      5  C4  UNL d   1      -1.128   1.000   1.768  0.00  0.00     0.048 A 
ATOM      6  C5  UNL d   1      -2.396   1.569   1.900  0.00  0.00     0.003 A 
ATOM      7  I   UNL d   1       1.728   0.799   0.793  0.00  0.00    -0.146 I 
ENDROOT
TORSDOF 0
ENDMDL
