MODEL 1
REMARK minimizedAffinity 5.51115465
REMARK minimizedRMSD -1
REMARK  0 active torsions:
REMARK  status: ('A' for Active; 'I' for Inactive)
ROOT
ATOM      1  C   UNL d   1      -2.678  -3.488  -1.077  0.00  0.00     0.023 A 
ATOM      2  C1  UNL d   1      -3.166  -2.321  -0.489  0.00  0.00     0.003 A 
ATOM      3  C2  UNL d   1      -2.471  -1.727   0.567  0.00  0.00     0.048 A 
ATOM      4  C3  UNL d   1      -1.289  -2.304   1.028  0.00  0.00     0.023 A 
ATOM      5  C4  UNL d   1      -0.796  -3.471   0.441  0.00  0.00     0.048 A 
ATOM      6  C5  UNL d   1      -1.494  -4.062  -0.613  0.00  0.00     0.003 A 
ATOM      7  I   UNL d   1      -0.253  -1.421   2.599  0.00  0.00    -0.146 I 
ENDROOT
TORSDOF 0
ENDMDL
