MODEL 1
REMARK minimizedAffinity 4.78409719
REMARK minimizedRMSD -1
REMARK  0 active torsions:
REMARK  status: ('A' for Active; 'I' for Inactive)
ROOT
ATOM      1  C   UNL d   1      -4.782   0.450   4.864  0.00  0.00     0.023 A 
ATOM      2  C1  UNL d   1      -5.407   0.997   5.984  0.00  0.00     0.003 A 
ATOM      3  C2  UNL d   1      -5.757   2.349   6.000  0.00  0.00     0.048 A 
ATOM      4  C3  UNL d   1      -5.479   3.147   4.891  0.00  0.00     0.023 A 
ATOM      5  C4  UNL d   1      -4.855   2.604   3.767  0.00  0.00     0.048 A 
ATOM      6  C5  UNL d   1      -4.507   1.252   3.756  0.00  0.00     0.003 A 
ATOM      7  I   UNL d   1      -5.999   5.160   4.912  0.00  0.00    -0.146 I 
ENDROOT
TORSDOF 0
ENDMDL
