MODEL 1
REMARK minimizedAffinity 6.61070061
REMARK minimizedRMSD -1
REMARK  0 active torsions:
REMARK  status: ('A' for Active; 'I' for Inactive)
ROOT
ATOM      1  C   UNL d   1      -0.446   2.782   1.395  0.00  0.00     0.023 A 
ATOM      2  C1  UNL d   1       0.292   1.599   1.434  0.00  0.00     0.003 A 
ATOM      3  C2  UNL d   1      -0.320   0.405   1.821  0.00  0.00     0.048 A 
ATOM      4  C3  UNL d   1      -1.671   0.401   2.166  0.00  0.00     0.023 A 
ATOM      5  C4  UNL d   1      -2.414   1.582   2.128  0.00  0.00     0.048 A 
ATOM      6  C5  UNL d   1      -1.797   2.773   1.741  0.00  0.00     0.003 A 
ATOM      7  I   UNL d   1      -2.585  -1.375   2.742  0.00  0.00    -0.146 I 
ENDROOT
TORSDOF 0
ENDMDL
