MODEL 1
REMARK minimizedAffinity 5.66522789
REMARK minimizedRMSD -1
REMARK  0 active torsions:
REMARK  status: ('A' for Active; 'I' for Inactive)
ROOT
ATOM      1  C   UNL d   1      -2.658  -0.317   2.939  0.00  0.00     0.023 A 
ATOM      2  C1  UNL d   1      -3.002   1.035   2.936  0.00  0.00     0.003 A 
ATOM      3  C2  UNL d   1      -2.167   1.967   2.316  0.00  0.00     0.048 A 
ATOM      4  C3  UNL d   1      -0.990   1.541   1.701  0.00  0.00     0.023 A 
ATOM      5  C4  UNL d   1      -0.642   0.189   1.701  0.00  0.00     0.048 A 
ATOM      6  C5  UNL d   1      -1.480  -0.740   2.323  0.00  0.00     0.003 A 
ATOM      7  I   UNL d   1       0.254   2.927   0.779  0.00  0.00    -0.146 I 
ENDROOT
TORSDOF 0
ENDMDL
