MODEL 1
REMARK minimizedAffinity 4.94218636
REMARK minimizedRMSD -1
REMARK  0 active torsions:
REMARK  status: ('A' for Active; 'I' for Inactive)
ROOT
ATOM      1  C   UNL d   1       0.616   1.798   1.093  0.00  0.00     0.023 A 
ATOM      2  C1  UNL d   1       0.343   0.759   1.982  0.00  0.00     0.003 A 
ATOM      3  C2  UNL d   1      -0.892   0.700   2.630  0.00  0.00     0.048 A 
ATOM      4  C3  UNL d   1      -1.850   1.683   2.385  0.00  0.00     0.023 A 
ATOM      5  C4  UNL d   1      -1.581   2.725   1.496  0.00  0.00     0.048 A 
ATOM      6  C5  UNL d   1      -0.344   2.780   0.850  0.00  0.00     0.003 A 
ATOM      7  I   UNL d   1      -3.689   1.597   3.349  0.00  0.00    -0.146 I 
ENDROOT
TORSDOF 0
ENDMDL
