MODEL 1
REMARK minimizedAffinity 6.68631601
REMARK minimizedRMSD -1
REMARK  0 active torsions:
REMARK  status: ('A' for Active; 'I' for Inactive)
ROOT
ATOM      1  C   UNL d   1      -3.745  -1.297  -2.320  0.00  0.00     0.023 A 
ATOM      2  C1  UNL d   1      -4.230  -1.778  -1.103  0.00  0.00     0.003 A 
ATOM      3  C2  UNL d   1      -4.084  -3.128  -0.776  0.00  0.00     0.048 A 
ATOM      4  C3  UNL d   1      -3.451  -3.991  -1.670  0.00  0.00     0.023 A 
ATOM      5  C4  UNL d   1      -2.964  -3.514  -2.888  0.00  0.00     0.048 A 
ATOM      6  C5  UNL d   1      -3.113  -2.164  -3.211  0.00  0.00     0.003 A 
ATOM      7  I   UNL d   1      -3.232  -6.000  -1.186  0.00  0.00    -0.146 I 
ENDROOT
TORSDOF 0
ENDMDL
