MODEL 1
REMARK minimizedAffinity 5.22778654
REMARK minimizedRMSD -1
REMARK  0 active torsions:
REMARK  status: ('A' for Active; 'I' for Inactive)
ROOT
ATOM      1  C   UNL d   1      -3.556  -1.397  -2.266  0.00  0.00     0.023 A 
ATOM      2  C1  UNL d   1      -3.022  -2.403  -3.073  0.00  0.00     0.003 A 
ATOM      3  C2  UNL d   1      -2.727  -3.654  -2.528  0.00  0.00     0.048 A 
ATOM      4  C3  UNL d   1      -2.970  -3.894  -1.176  0.00  0.00     0.023 A 
ATOM      5  C4  UNL d   1      -3.505  -2.891  -0.365  0.00  0.00     0.048 A 
ATOM      6  C5  UNL d   1      -3.797  -1.641  -0.914  0.00  0.00     0.003 A 
ATOM      7  I   UNL d   1      -2.533  -5.756  -0.363  0.00  0.00    -0.146 I 
ENDROOT
TORSDOF 0
ENDMDL
