MODEL 1
REMARK minimizedAffinity 10.6268721
REMARK minimizedRMSD -1
REMARK  0 active torsions:
REMARK  status: ('A' for Active; 'I' for Inactive)
ROOT
ATOM      1  C   UNL d   1       4.887   6.000  -5.909  0.00  0.00     0.023 A 
ATOM      2  C1  UNL d   1       5.525   5.323  -4.870  0.00  0.00     0.003 A 
ATOM      3  C2  UNL d   1       4.772   4.632  -3.919  0.00  0.00     0.048 A 
ATOM      4  C3  UNL d   1       3.381   4.621  -4.013  0.00  0.00     0.023 A 
ATOM      5  C4  UNL d   1       2.738   5.296  -5.052  0.00  0.00     0.048 A 
ATOM      6  C5  UNL d   1       3.495   5.986  -6.000  0.00  0.00     0.003 A 
ATOM      7  I   UNL d   1       2.258   3.592  -2.598  0.00  0.00    -0.146 I 
ENDROOT
TORSDOF 0
ENDMDL
