MODEL 1
REMARK minimizedAffinity -2.0065496
REMARK minimizedRMSD -1
REMARK  1 active torsions:
REMARK  status: ('A' for Active; 'I' for Inactive)
REMARK    1  A    between atoms: C1_2  and  C2_3 
ROOT
ATOM      1  C2  UNL d   1       0.246  -1.324   1.074  0.00  0.00    -0.077 A 
ATOM      2  C3  UNL d   1       1.489  -0.703   0.890  0.00  0.00     0.002 A 
ATOM      3  C4  UNL d   1       1.582   0.492   0.174  0.00  0.00     0.002 A 
ATOM      4  C5  UNL d   1       0.436   1.078  -0.359  0.00  0.00    -0.004 A 
ATOM      5  C6  UNL d   1      -0.805   0.466  -0.183  0.00  0.00     0.002 A 
ATOM      6  C7  UNL d   1      -0.900  -0.729   0.531  0.00  0.00     0.002 A 
ENDROOT
BRANCH   1   7
ATOM      7  C1  UNL d   1       0.137  -2.588   1.888  0.00  0.00     0.055 C 
ATOM      8  C   UNL d   1       0.772  -2.419   3.260  0.00  0.00     0.019 C 
ENDBRANCH   1   7
TORSDOF 1
ENDMDL
