MODEL 1
REMARK minimizedAffinity -2.26544642
REMARK minimizedRMSD -1
REMARK  1 active torsions:
REMARK  status: ('A' for Active; 'I' for Inactive)
REMARK    1  A    between atoms: C1_2  and  C2_3 
ROOT
ATOM      1  C2  UNL d   1       0.402  -0.358   0.281  0.00  0.00    -0.077 A 
ATOM      2  C3  UNL d   1       1.163  -1.208  -0.533  0.00  0.00     0.002 A 
ATOM      3  C4  UNL d   1       1.262  -2.568  -0.237  0.00  0.00     0.002 A 
ATOM      4  C5  UNL d   1       0.599  -3.092   0.872  0.00  0.00    -0.004 A 
ATOM      5  C6  UNL d   1      -0.158  -2.254   1.689  0.00  0.00     0.002 A 
ATOM      6  C7  UNL d   1      -0.257  -0.893   1.395  0.00  0.00     0.002 A 
ENDROOT
BRANCH   1   7
ATOM      7  C1  UNL d   1       0.254   1.101  -0.065  0.00  0.00     0.055 C 
ATOM      8  C   UNL d   1       0.880   1.415  -1.416  0.00  0.00     0.019 C 
ENDBRANCH   1   7
TORSDOF 1
ENDMDL
