MODEL 1
REMARK minimizedAffinity -3.47348285
REMARK minimizedRMSD -1
REMARK  1 active torsions:
REMARK  status: ('A' for Active; 'I' for Inactive)
REMARK    1  A    between atoms: C1_2  and  C2_3 
ROOT
ATOM      1  C2  UNL d   1      -1.373  -0.982   1.654  0.00  0.00    -0.077 A 
ATOM      2  C3  UNL d   1      -0.755  -2.240   1.640  0.00  0.00     0.002 A 
ATOM      3  C4  UNL d   1       0.371  -2.465   0.847  0.00  0.00     0.002 A 
ATOM      4  C5  UNL d   1       0.893  -1.436   0.066  0.00  0.00    -0.004 A 
ATOM      5  C6  UNL d   1       0.285  -0.181   0.072  0.00  0.00     0.002 A 
ATOM      6  C7  UNL d   1      -0.842   0.045   0.863  0.00  0.00     0.002 A 
ENDROOT
BRANCH   1   7
ATOM      7  C1  UNL d   1      -2.558  -0.723   2.547  0.00  0.00     0.055 C 
ATOM      8  C   UNL d   1      -3.094   0.689   2.360  0.00  0.00     0.019 C 
ENDBRANCH   1   7
TORSDOF 1
ENDMDL
