MODEL 1
REMARK minimizedAffinity -3.22322798
REMARK minimizedRMSD -1
REMARK  1 active torsions:
REMARK  status: ('A' for Active; 'I' for Inactive)
REMARK    1  A    between atoms: C1_2  and  C2_3 
ROOT
ATOM      1  C2  UNL d   1       0.047   0.204   0.303  0.00  0.00    -0.077 A 
ATOM      2  C3  UNL d   1      -0.986   0.569   1.179  0.00  0.00     0.002 A 
ATOM      3  C4  UNL d   1      -1.615  -0.395   1.969  0.00  0.00     0.002 A 
ATOM      4  C5  UNL d   1      -1.217  -1.728   1.895  0.00  0.00    -0.004 A 
ATOM      5  C6  UNL d   1      -0.192  -2.101   1.025  0.00  0.00     0.002 A 
ATOM      6  C7  UNL d   1       0.437  -1.139   0.234  0.00  0.00     0.002 A 
ENDROOT
BRANCH   1   7
ATOM      7  C1  UNL d   1       0.760   1.250  -0.513  0.00  0.00     0.055 C 
ATOM      8  C   UNL d   1       0.173   1.355  -1.913  0.00  0.00     0.019 C 
ENDBRANCH   1   7
TORSDOF 1
ENDMDL
