MODEL 1
REMARK minimizedAffinity -3.6456883
REMARK minimizedRMSD -1
REMARK  1 active torsions:
REMARK  status: ('A' for Active; 'I' for Inactive)
REMARK    1  A    between atoms: C1_2  and  C2_3 
ROOT
ATOM      1  C2  UNL d   1      -1.254  -0.081   1.311  0.00  0.00    -0.077 A 
ATOM      2  C3  UNL d   1      -0.955  -1.437   1.509  0.00  0.00     0.002 A 
ATOM      3  C4  UNL d   1       0.203  -1.992   0.961  0.00  0.00     0.002 A 
ATOM      4  C5  UNL d   1       1.073  -1.199   0.215  0.00  0.00    -0.004 A 
ATOM      5  C6  UNL d   1       0.783   0.150   0.011  0.00  0.00     0.002 A 
ATOM      6  C7  UNL d   1      -0.374   0.706   0.557  0.00  0.00     0.002 A 
ENDROOT
BRANCH   1   7
ATOM      7  C1  UNL d   1      -2.476   0.531   1.943  0.00  0.00     0.055 C 
ATOM      8  C   UNL d   1      -3.093  -0.403   2.974  0.00  0.00     0.019 C 
ENDBRANCH   1   7
TORSDOF 1
ENDMDL
