MODEL 1
REMARK minimizedAffinity -2.44616318
REMARK minimizedRMSD -1
REMARK  1 active torsions:
REMARK  status: ('A' for Active; 'I' for Inactive)
REMARK    1  A    between atoms: C1_2  and  C2_3 
ROOT
ATOM      1  C2  UNL d   1       0.021  -0.080   0.236  0.00  0.00    -0.077 A 
ATOM      2  C3  UNL d   1      -1.099  -0.436   1.000  0.00  0.00     0.002 A 
ATOM      3  C4  UNL d   1      -1.162  -1.685   1.621  0.00  0.00     0.002 A 
ATOM      4  C5  UNL d   1      -0.107  -2.585   1.488  0.00  0.00    -0.004 A 
ATOM      5  C6  UNL d   1       1.010  -2.241   0.729  0.00  0.00     0.002 A 
ATOM      6  C7  UNL d   1       1.075  -0.993   0.106  0.00  0.00     0.002 A 
ENDROOT
BRANCH   1   7
ATOM      7  C1  UNL d   1       0.112   1.286  -0.394  0.00  0.00     0.055 C 
ATOM      8  C   UNL d   1       1.144   1.311  -1.513  0.00  0.00     0.019 C 
ENDBRANCH   1   7
TORSDOF 1
ENDMDL
