MODEL 1
REMARK minimizedAffinity -2.33014631
REMARK minimizedRMSD -1
REMARK  1 active torsions:
REMARK  status: ('A' for Active; 'I' for Inactive)
REMARK    1  A    between atoms: C1_2  and  C2_3 
ROOT
ATOM      1  C2  UNL d   1       0.234  -1.106   0.837  0.00  0.00    -0.077 A 
ATOM      2  C3  UNL d   1       1.496  -0.934   0.252  0.00  0.00     0.002 A 
ATOM      3  C4  UNL d   1       1.827   0.269  -0.374  0.00  0.00     0.002 A 
ATOM      4  C5  UNL d   1       0.903   1.311  -0.416  0.00  0.00    -0.004 A 
ATOM      5  C6  UNL d   1      -0.356   1.150   0.161  0.00  0.00     0.002 A 
ATOM      6  C7  UNL d   1      -0.689  -0.053   0.786  0.00  0.00     0.002 A 
ENDROOT
BRANCH   1   7
ATOM      7  C1  UNL d   1      -0.108  -2.385   1.555  0.00  0.00     0.055 C 
ATOM      8  C   UNL d   1      -1.370  -2.231   2.391  0.00  0.00     0.019 C 
ENDBRANCH   1   7
TORSDOF 1
ENDMDL
