MODEL 1
REMARK minimizedAffinity 4.43812466
REMARK minimizedRMSD -1
REMARK  1 active torsions:
REMARK  status: ('A' for Active; 'I' for Inactive)
REMARK    1  A    between atoms: C1_2  and  C2_3 
ROOT
ATOM      1  C2  UNL d   1       4.713   3.256  -0.463  0.00  0.00    -0.077 A 
ATOM      2  C3  UNL d   1       4.616   3.704   0.862  0.00  0.00     0.002 A 
ATOM      3  C4  UNL d   1       4.543   5.070   1.142  0.00  0.00     0.002 A 
ATOM      4  C5  UNL d   1       4.562   5.998   0.103  0.00  0.00    -0.004 A 
ATOM      5  C6  UNL d   1       4.660   5.562  -1.218  0.00  0.00     0.002 A 
ATOM      6  C7  UNL d   1       4.735   4.198  -1.500  0.00  0.00     0.002 A 
ENDROOT
BRANCH   1   7
ATOM      7  C1  UNL d   1       4.743   1.782  -0.771  0.00  0.00     0.055 C 
ATOM      8  C   UNL d   1       3.341   1.190  -0.779  0.00  0.00     0.019 C 
ENDBRANCH   1   7
TORSDOF 1
ENDMDL
