MODEL 1
REMARK minimizedAffinity -3.08080411
REMARK minimizedRMSD -1
REMARK  1 active torsions:
REMARK  status: ('A' for Active; 'I' for Inactive)
REMARK    1  A    between atoms: C1_2  and  C2_3 
ROOT
ATOM      1  C2  UNL d   1      -1.058   0.343   0.677  0.00  0.00    -0.077 A 
ATOM      2  C3  UNL d   1      -0.799  -1.029   0.806  0.00  0.00     0.002 A 
ATOM      3  C4  UNL d   1       0.476  -1.535   0.547  0.00  0.00     0.002 A 
ATOM      4  C5  UNL d   1       1.503  -0.676   0.161  0.00  0.00    -0.004 A 
ATOM      5  C6  UNL d   1       1.255   0.690   0.027  0.00  0.00     0.002 A 
ATOM      6  C7  UNL d   1      -0.019   1.197   0.285  0.00  0.00     0.002 A 
ENDROOT
BRANCH   1   7
ATOM      7  C1  UNL d   1      -2.420   0.897   1.003  0.00  0.00     0.055 C 
ATOM      8  C   UNL d   1      -3.011   0.224   2.234  0.00  0.00     0.019 C 
ENDBRANCH   1   7
TORSDOF 1
ENDMDL
