MODEL 1
REMARK minimizedAffinity -2.57101607
REMARK minimizedRMSD -1
REMARK  1 active torsions:
REMARK  status: ('A' for Active; 'I' for Inactive)
REMARK    1  A    between atoms: C1_2  and  C2_3 
ROOT
ATOM      1  C2  UNL d   1       1.037   1.500  -1.357  0.00  0.00    -0.077 A 
ATOM      2  C3  UNL d   1       0.070   1.506  -2.372  0.00  0.00     0.002 A 
ATOM      3  C4  UNL d   1       0.350   2.085  -3.612  0.00  0.00     0.002 A 
ATOM      4  C5  UNL d   1       1.597   2.659  -3.848  0.00  0.00    -0.004 A 
ATOM      5  C6  UNL d   1       2.565   2.660  -2.844  0.00  0.00     0.002 A 
ATOM      6  C7  UNL d   1       2.286   2.083  -1.605  0.00  0.00     0.002 A 
ENDROOT
BRANCH   1   7
ATOM      7  C1  UNL d   1       0.754   0.832  -0.037  0.00  0.00     0.055 C 
ATOM      8  C   UNL d   1      -0.564   0.072  -0.073  0.00  0.00     0.019 C 
ENDBRANCH   1   7
TORSDOF 1
ENDMDL
