MODEL 1
REMARK minimizedAffinity -0.607217133
REMARK minimizedRMSD -1
REMARK  1 active torsions:
REMARK  status: ('A' for Active; 'I' for Inactive)
REMARK    1  A    between atoms: C1_2  and  C2_3 
ROOT
ATOM      1  C2  UNL d   1      -2.201  -4.479  -5.343  0.00  0.00    -0.077 A 
ATOM      2  C3  UNL d   1      -1.816  -4.111  -4.046  0.00  0.00     0.002 A 
ATOM      3  C4  UNL d   1      -2.402  -3.009  -3.420  0.00  0.00     0.002 A 
ATOM      4  C5  UNL d   1      -3.380  -2.269  -4.082  0.00  0.00    -0.004 A 
ATOM      5  C6  UNL d   1      -3.769  -2.626  -5.373  0.00  0.00     0.002 A 
ATOM      6  C7  UNL d   1      -3.183  -3.726  -6.000  0.00  0.00     0.002 A 
ENDROOT
BRANCH   1   7
ATOM      7  C1  UNL d   1      -1.606  -5.696  -6.000  0.00  0.00     0.055 C 
ATOM      8  C   UNL d   1      -0.085  -5.645  -5.985  0.00  0.00     0.019 C 
ENDBRANCH   1   7
TORSDOF 1
ENDMDL
