MODEL 1
REMARK minimizedAffinity -3.04729033
REMARK minimizedRMSD -1
REMARK  1 active torsions:
REMARK  status: ('A' for Active; 'I' for Inactive)
REMARK    1  A    between atoms: C1_2  and  C2_3 
ROOT
ATOM      1  C2  UNL d   1       0.694   0.218  -0.056  0.00  0.00    -0.077 A 
ATOM      2  C3  UNL d   1      -0.421   0.147   0.791  0.00  0.00     0.002 A 
ATOM      3  C4  UNL d   1      -0.794  -1.070   1.366  0.00  0.00     0.002 A 
ATOM      4  C5  UNL d   1      -0.056  -2.222   1.103  0.00  0.00    -0.004 A 
ATOM      5  C6  UNL d   1       1.053  -2.162   0.260  0.00  0.00     0.002 A 
ATOM      6  C7  UNL d   1       1.427  -0.947  -0.316  0.00  0.00     0.002 A 
ENDROOT
BRANCH   1   7
ATOM      7  C1  UNL d   1       1.127   1.538  -0.638  0.00  0.00     0.055 C 
ATOM      8  C   UNL d   1       0.724   1.658  -2.100  0.00  0.00     0.019 C 
ENDBRANCH   1   7
TORSDOF 1
ENDMDL
