MODEL 1
REMARK minimizedAffinity -0.288729131
REMARK minimizedRMSD -1
REMARK  1 active torsions:
REMARK  status: ('A' for Active; 'I' for Inactive)
REMARK    1  A    between atoms: C3_4  and  O_7 
ROOT
ATOM      1  C   UNL d   1       4.847   2.844   0.535  0.00  0.00    -0.033 A 
ATOM      2  C1  UNL d   1       3.706   2.058   0.361  0.00  0.00     0.039 A 
ATOM      3  C2  UNL d   1       3.711   0.719   0.758  0.00  0.00    -0.080 A 
ATOM      4  C3  UNL d   1       4.861   0.180   1.327  0.00  0.00     0.150 A 
ATOM      5  C4  UNL d   1       6.000   0.958   1.508  0.00  0.00    -0.007 A 
ATOM      6  C5  UNL d   1       5.993   2.295   1.110  0.00  0.00     0.039 A 
ENDROOT
BRANCH   4   7
ATOM      7  O   UNL d   1       4.915  -1.123   1.726  0.00  0.00    -0.526 OA
ATOM      8  H5  UNL d   1       4.066  -1.545   1.513  0.00  0.00     0.418 HD
ENDBRANCH   4   7
TORSDOF 1
ENDMDL
