MODEL 1
REMARK minimizedAffinity -2.81382585
REMARK minimizedRMSD -1
REMARK  1 active torsions:
REMARK  status: ('A' for Active; 'I' for Inactive)
REMARK    1  A    between atoms: C3_4  and  O_7 
ROOT
ATOM      1  C   UNL d   1       4.537   1.857   0.469  0.00  0.00    -0.033 A 
ATOM      2  C1  UNL d   1       5.742   1.641   1.141  0.00  0.00     0.039 A 
ATOM      3  C2  UNL d   1       6.000   0.405   1.737  0.00  0.00    -0.080 A 
ATOM      4  C3  UNL d   1       5.046  -0.605   1.654  0.00  0.00     0.150 A 
ATOM      5  C4  UNL d   1       3.845  -0.398   0.984  0.00  0.00    -0.007 A 
ATOM      6  C5  UNL d   1       3.589   0.837   0.389  0.00  0.00     0.039 A 
ENDROOT
BRANCH   4   7
ATOM      7  O   UNL d   1       5.250  -1.826   2.225  0.00  0.00    -0.526 OA
ATOM      8  H5  UNL d   1       6.109  -1.815   2.678  0.00  0.00     0.418 HD
ENDBRANCH   4   7
TORSDOF 1
ENDMDL
