MODEL 1
REMARK minimizedAffinity -1.92846239
REMARK minimizedRMSD -1
REMARK  1 active torsions:
REMARK  status: ('A' for Active; 'I' for Inactive)
REMARK    1  A    between atoms: C3_4  and  O_7 
ROOT
ATOM      1  C   UNL d   1      -0.211   1.161   2.318  0.00  0.00    -0.033 A 
ATOM      2  C1  UNL d   1      -1.227   0.302   1.895  0.00  0.00     0.039 A 
ATOM      3  C2  UNL d   1      -2.543   0.517   2.310  0.00  0.00    -0.080 A 
ATOM      4  C3  UNL d   1      -2.828   1.593   3.146  0.00  0.00     0.150 A 
ATOM      5  C4  UNL d   1      -1.821   2.455   3.568  0.00  0.00    -0.007 A 
ATOM      6  C5  UNL d   1      -0.508   2.238   3.153  0.00  0.00     0.039 A 
ENDROOT
BRANCH   4   7
ATOM      7  O   UNL d   1      -4.096   1.841   3.582  0.00  0.00    -0.526 OA
ATOM      8  H5  UNL d   1      -4.682   1.148   3.234  0.00  0.00     0.418 HD
ENDBRANCH   4   7
TORSDOF 1
ENDMDL
