MODEL 1
REMARK minimizedAffinity 1.0652473
REMARK minimizedRMSD -1
REMARK  1 active torsions:
REMARK  status: ('A' for Active; 'I' for Inactive)
REMARK    1  A    between atoms: C3_4  and  O_7 
ROOT
ATOM      1  C   UNL d   1      -1.818  -4.976  -0.391  0.00  0.00    -0.033 A 
ATOM      2  C1  UNL d   1      -0.537  -4.998   0.162  0.00  0.00     0.039 A 
ATOM      3  C2  UNL d   1       0.577  -4.748  -0.641  0.00  0.00    -0.080 A 
ATOM      4  C3  UNL d   1       0.397  -4.477  -1.995  0.00  0.00     0.150 A 
ATOM      5  C4  UNL d   1      -0.877  -4.449  -2.552  0.00  0.00    -0.007 A 
ATOM      6  C5  UNL d   1      -1.989  -4.700  -1.748  0.00  0.00     0.039 A 
ENDROOT
BRANCH   4   7
ATOM      7  O   UNL d   1       1.454  -4.231  -2.820  0.00  0.00    -0.526 OA
ATOM      8  H5  UNL d   1       2.273  -4.312  -2.303  0.00  0.00     0.418 HD
ENDBRANCH   4   7
TORSDOF 1
ENDMDL
