MODEL 1
REMARK minimizedAffinity 1.26542699
REMARK minimizedRMSD -1
REMARK  1 active torsions:
REMARK  status: ('A' for Active; 'I' for Inactive)
REMARK    1  A    between atoms: C3_4  and  O_7 
ROOT
ATOM      1  C   UNL d   1      -4.353   0.371   4.186  0.00  0.00    -0.033 A 
ATOM      2  C1  UNL d   1      -3.387  -0.402   3.538  0.00  0.00     0.039 A 
ATOM      3  C2  UNL d   1      -2.248   0.204   3.004  0.00  0.00    -0.080 A 
ATOM      4  C3  UNL d   1      -2.086   1.581   3.126  0.00  0.00     0.150 A 
ATOM      5  C4  UNL d   1      -3.042   2.357   3.774  0.00  0.00    -0.007 A 
ATOM      6  C5  UNL d   1      -4.179   1.750   4.305  0.00  0.00     0.039 A 
ENDROOT
BRANCH   4   7
ATOM      7  O   UNL d   1      -0.993   2.218   2.617  0.00  0.00    -0.526 OA
ATOM      8  H5  UNL d   1      -0.433   1.560   2.173  0.00  0.00     0.418 HD
ENDBRANCH   4   7
TORSDOF 1
ENDMDL
