MODEL 1
REMARK minimizedAffinity 3.78736353
REMARK minimizedRMSD -1
REMARK  1 active torsions:
REMARK  status: ('A' for Active; 'I' for Inactive)
REMARK    1  A    between atoms: C3_4  and  O_7 
ROOT
ATOM      1  C   UNL d   1      -5.972   1.784   6.000  0.00  0.00    -0.033 A 
ATOM      2  C1  UNL d   1      -5.404   0.749   5.255  0.00  0.00     0.039 A 
ATOM      3  C2  UNL d   1      -4.249   0.979   4.504  0.00  0.00    -0.080 A 
ATOM      4  C3  UNL d   1      -3.672   2.246   4.508  0.00  0.00     0.150 A 
ATOM      5  C4  UNL d   1      -4.231   3.281   5.252  0.00  0.00    -0.007 A 
ATOM      6  C5  UNL d   1      -5.384   3.050   5.999  0.00  0.00     0.039 A 
ENDROOT
BRANCH   4   7
ATOM      7  O   UNL d   1      -2.548   2.519   3.788  0.00  0.00    -0.526 OA
ATOM      8  H5  UNL d   1      -2.291   1.718   3.302  0.00  0.00     0.418 HD
ENDBRANCH   4   7
TORSDOF 1
ENDMDL
