MODEL 1
REMARK minimizedAffinity 4.44929504
REMARK minimizedRMSD -1
REMARK  1 active torsions:
REMARK  status: ('A' for Active; 'I' for Inactive)
REMARK    1  A    between atoms: C3_4  and  O_7 
ROOT
ATOM      1  C   UNL d   1       0.777  -4.325  -3.519  0.00  0.00    -0.033 A 
ATOM      2  C1  UNL d   1       1.849  -3.726  -4.184  0.00  0.00     0.039 A 
ATOM      3  C2  UNL d   1       2.704  -2.862  -3.497  0.00  0.00    -0.080 A 
ATOM      4  C3  UNL d   1       2.478  -2.608  -2.147  0.00  0.00     0.150 A 
ATOM      5  C4  UNL d   1       1.415  -3.204  -1.477  0.00  0.00    -0.007 A 
ATOM      6  C5  UNL d   1       0.562  -4.066  -2.165  0.00  0.00     0.039 A 
ENDROOT
BRANCH   4   7
ATOM      7  O   UNL d   1       3.283  -1.768  -1.436  0.00  0.00    -0.526 OA
ATOM      8  H5  UNL d   1       3.958  -1.407  -2.035  0.00  0.00     0.418 HD
ENDBRANCH   4   7
TORSDOF 1
ENDMDL
