MODEL 1
REMARK minimizedAffinity 4.4502182
REMARK minimizedRMSD -1
REMARK  1 active torsions:
REMARK  status: ('A' for Active; 'I' for Inactive)
REMARK    1  A    between atoms: C3_4  and  O_7 
ROOT
ATOM      1  C   UNL d   1      -4.270   1.739   4.427  0.00  0.00    -0.033 A 
ATOM      2  C1  UNL d   1      -5.254   2.335   3.636  0.00  0.00     0.039 A 
ATOM      3  C2  UNL d   1      -5.827   3.547   4.028  0.00  0.00    -0.080 A 
ATOM      4  C3  UNL d   1      -5.407   4.151   5.209  0.00  0.00     0.150 A 
ATOM      5  C4  UNL d   1      -4.424   3.565   6.000  0.00  0.00    -0.007 A 
ATOM      6  C5  UNL d   1      -3.854   2.354   5.608  0.00  0.00     0.039 A 
ENDROOT
BRANCH   4   7
ATOM      7  O   UNL d   1      -5.940   5.332   5.635  0.00  0.00    -0.526 OA
ATOM      8  H5  UNL d   1      -6.627   5.604   5.003  0.00  0.00     0.418 HD
ENDBRANCH   4   7
TORSDOF 1
ENDMDL
