MODEL 1
REMARK minimizedAffinity -1.00928187
REMARK minimizedRMSD -1
REMARK  1 active torsions:
REMARK  status: ('A' for Active; 'I' for Inactive)
REMARK    1  A    between atoms: C3_4  and  O_7 
ROOT
ATOM      1  C   UNL d   1      -0.444   0.822   1.499  0.00  0.00    -0.033 A 
ATOM      2  C1  UNL d   1      -1.484  -0.038   1.859  0.00  0.00     0.039 A 
ATOM      3  C2  UNL d   1      -2.555   0.439   2.617  0.00  0.00    -0.080 A 
ATOM      4  C3  UNL d   1      -2.575   1.774   3.008  0.00  0.00     0.150 A 
ATOM      5  C4  UNL d   1      -1.544   2.637   2.650  0.00  0.00    -0.007 A 
ATOM      6  C5  UNL d   1      -0.475   2.160   1.894  0.00  0.00     0.039 A 
ENDROOT
BRANCH   4   7
ATOM      7  O   UNL d   1      -3.596   2.284   3.753  0.00  0.00    -0.526 OA
ATOM      8  H5  UNL d   1      -4.221   1.566   3.950  0.00  0.00     0.418 HD
ENDBRANCH   4   7
TORSDOF 1
ENDMDL
