MODEL 1
REMARK minimizedAffinity 2.00421977
REMARK minimizedRMSD -1
REMARK  1 active torsions:
REMARK  status: ('A' for Active; 'I' for Inactive)
REMARK    1  A    between atoms: C3_4  and  O_7 
ROOT
ATOM      1  C   UNL d   1      -1.244   1.114   2.304  0.00  0.00    -0.033 A 
ATOM      2  C1  UNL d   1      -2.422   0.370   2.401  0.00  0.00     0.039 A 
ATOM      3  C2  UNL d   1      -3.429   0.767   3.283  0.00  0.00    -0.080 A 
ATOM      4  C3  UNL d   1      -3.247   1.908   4.060  0.00  0.00     0.150 A 
ATOM      5  C4  UNL d   1      -2.078   2.655   3.965  0.00  0.00    -0.007 A 
ATOM      6  C5  UNL d   1      -1.073   2.257   3.085  0.00  0.00     0.039 A 
ENDROOT
BRANCH   4   7
ATOM      7  O   UNL d   1      -4.200   2.332   4.938  0.00  0.00    -0.526 OA
ATOM      8  H5  UNL d   1      -4.940   1.702   4.917  0.00  0.00     0.418 HD
ENDBRANCH   4   7
TORSDOF 1
ENDMDL
