MODEL 1
REMARK minimizedAffinity 3.2710402
REMARK minimizedRMSD -1
REMARK  1 active torsions:
REMARK  status: ('A' for Active; 'I' for Inactive)
REMARK    1  A    between atoms: C3_4  and  O_7 
ROOT
ATOM      1  C   UNL d   1      -6.000   2.198   5.986  0.00  0.00    -0.033 A 
ATOM      2  C1  UNL d   1      -5.867   1.124   5.103  0.00  0.00     0.039 A 
ATOM      3  C2  UNL d   1      -4.808   1.093   4.194  0.00  0.00    -0.080 A 
ATOM      4  C3  UNL d   1      -3.889   2.138   4.179  0.00  0.00     0.150 A 
ATOM      5  C4  UNL d   1      -4.013   3.209   5.058  0.00  0.00    -0.007 A 
ATOM      6  C5  UNL d   1      -5.072   3.240   5.964  0.00  0.00     0.039 A 
ENDROOT
BRANCH   4   7
ATOM      7  O   UNL d   1      -2.841   2.153   3.307  0.00  0.00    -0.526 OA
ATOM      8  H5  UNL d   1      -2.900   1.365   2.742  0.00  0.00     0.418 HD
ENDBRANCH   4   7
TORSDOF 1
ENDMDL
