MODEL 1
REMARK minimizedAffinity 5.15832663
REMARK minimizedRMSD -1
REMARK  1 active torsions:
REMARK  status: ('A' for Active; 'I' for Inactive)
REMARK    1  A    between atoms: C3_4  and  O_7 
ROOT
ATOM      1  C   UNL d   1      -6.000   2.507   6.000  0.00  0.00    -0.033 A 
ATOM      2  C1  UNL d   1      -5.247   3.680   5.932  0.00  0.00     0.039 A 
ATOM      3  C2  UNL d   1      -4.143   3.756   5.080  0.00  0.00    -0.080 A 
ATOM      4  C3  UNL d   1      -3.804   2.652   4.301  0.00  0.00     0.150 A 
ATOM      5  C4  UNL d   1      -4.553   1.481   4.361  0.00  0.00    -0.007 A 
ATOM      6  C5  UNL d   1      -5.653   1.407   5.214  0.00  0.00     0.039 A 
ENDROOT
BRANCH   4   7
ATOM      7  O   UNL d   1      -2.733   2.677   3.458  0.00  0.00    -0.526 OA
ATOM      8  H5  UNL d   1      -2.294   3.539   3.544  0.00  0.00     0.418 HD
ENDBRANCH   4   7
TORSDOF 1
ENDMDL
