MODEL 1
REMARK minimizedAffinity 1.00900292
REMARK minimizedRMSD -1
REMARK  1 active torsions:
REMARK  status: ('A' for Active; 'I' for Inactive)
REMARK    1  A    between atoms: C3_4  and  O_7 
ROOT
ATOM      1  C   UNL d   1      -3.283  -3.589  -1.167  0.00  0.00    -0.033 A 
ATOM      2  C1  UNL d   1      -2.745  -2.947  -2.284  0.00  0.00     0.039 A 
ATOM      3  C2  UNL d   1      -1.383  -3.063  -2.570  0.00  0.00    -0.080 A 
ATOM      4  C3  UNL d   1      -0.572  -3.825  -1.733  0.00  0.00     0.150 A 
ATOM      5  C4  UNL d   1      -1.102  -4.470  -0.620  0.00  0.00    -0.007 A 
ATOM      6  C5  UNL d   1      -2.462  -4.352  -0.336  0.00  0.00     0.039 A 
ENDROOT
BRANCH   4   7
ATOM      7  O   UNL d   1       0.763  -3.964  -1.968  0.00  0.00    -0.526 OA
ATOM      8  H5  UNL d   1       0.994  -3.440  -2.753  0.00  0.00     0.418 HD
ENDBRANCH   4   7
TORSDOF 1
ENDMDL
