MODEL 1
REMARK minimizedAffinity 2.55340576
REMARK minimizedRMSD -1
REMARK  1 active torsions:
REMARK  status: ('A' for Active; 'I' for Inactive)
REMARK    1  A    between atoms: C3_4  and  O_7 
ROOT
ATOM      1  C   UNL d   1      -4.026  -2.762  -1.062  0.00  0.00    -0.033 A 
ATOM      2  C1  UNL d   1      -3.554  -2.409  -2.328  0.00  0.00     0.039 A 
ATOM      3  C2  UNL d   1      -3.273  -1.074  -2.624  0.00  0.00    -0.080 A 
ATOM      4  C3  UNL d   1      -3.468  -0.102  -1.646  0.00  0.00     0.150 A 
ATOM      5  C4  UNL d   1      -3.934  -0.447  -0.381  0.00  0.00    -0.007 A 
ATOM      6  C5  UNL d   1      -4.214  -1.781  -0.088  0.00  0.00     0.039 A 
ENDROOT
BRANCH   4   7
ATOM      7  O   UNL d   1      -3.212   1.215  -1.889  0.00  0.00    -0.526 OA
ATOM      8  H5  UNL d   1      -2.924   1.307  -2.812  0.00  0.00     0.418 HD
ENDBRANCH   4   7
TORSDOF 1
ENDMDL
