MODEL 1
REMARK minimizedAffinity 15.6030455
REMARK minimizedRMSD -1
REMARK  1 active torsions:
REMARK  status: ('A' for Active; 'I' for Inactive)
REMARK    1  A    between atoms: C1_2  and  C2_3 
ROOT
ATOM      1  C2  UNL d   1      -1.261   2.585   2.573  0.00  0.00    -0.076 A 
ATOM      2  C3  UNL d   1      -0.966   2.187   3.888  0.00  0.00     0.004 A 
ATOM      3  C4  UNL d   1       0.334   1.848   4.261  0.00  0.00    -0.003 A 
ATOM      4  C5  UNL d   1       1.360   1.904   3.324  0.00  0.00     0.000 A 
ATOM      5  C6  UNL d   1       1.089   2.314   2.019  0.00  0.00     0.000 A 
ATOM      6  C7  UNL d   1      -0.213   2.674   1.632  0.00  0.00    -0.073 A 
ATOM      7  C8  UNL d   1      -0.450   3.103   0.209  0.00  0.00     0.078 C 
ENDROOT
BRANCH   1   8
ATOM      8  C1  UNL d   1      -2.694   2.914   2.220  0.00  0.00     0.053 C 
ATOM      9  C   UNL d   1      -3.144   4.248   2.794  0.00  0.00     0.018 C 
ENDBRANCH   1   8
TORSDOF 1
ENDMDL
