MODEL 1
REMARK minimizedAffinity 5.83980894
REMARK minimizedRMSD -1
REMARK  1 active torsions:
REMARK  status: ('A' for Active; 'I' for Inactive)
REMARK    1  A    between atoms: C1_2  and  C2_3 
ROOT
ATOM      1  C2  UNL d   1      -3.298   0.834  -3.274  0.00  0.00    -0.076 A 
ATOM      2  C3  UNL d   1      -4.000   1.299  -2.149  0.00  0.00     0.004 A 
ATOM      3  C4  UNL d   1      -5.284   1.827  -2.273  0.00  0.00    -0.003 A 
ATOM      4  C5  UNL d   1      -5.887   1.899  -3.523  0.00  0.00     0.000 A 
ATOM      5  C6  UNL d   1      -5.212   1.425  -4.648  0.00  0.00     0.000 A 
ATOM      6  C7  UNL d   1      -3.923   0.875  -4.539  0.00  0.00    -0.073 A 
ATOM      7  C8  UNL d   1      -3.239   0.385  -5.786  0.00  0.00     0.078 C 
ENDROOT
BRANCH   1   8
ATOM      8  C1  UNL d   1      -1.898   0.296  -3.083  0.00  0.00     0.053 C 
ATOM      9  C   UNL d   1      -1.141   1.020  -1.980  0.00  0.00     0.018 C 
ENDBRANCH   1   8
TORSDOF 1
ENDMDL
