MODEL 1
REMARK minimizedAffinity 11.1834259
REMARK minimizedRMSD -1
REMARK  1 active torsions:
REMARK  status: ('A' for Active; 'I' for Inactive)
REMARK    1  A    between atoms: C1_2  and  C2_3 
ROOT
ATOM      1  C2  UNL d   1       3.395   0.070   0.130  0.00  0.00    -0.076 A 
ATOM      2  C3  UNL d   1       4.533   0.895   0.167  0.00  0.00     0.004 A 
ATOM      3  C4  UNL d   1       5.000   1.525  -0.986  0.00  0.00    -0.003 A 
ATOM      4  C5  UNL d   1       4.336   1.342  -2.193  0.00  0.00     0.000 A 
ATOM      5  C6  UNL d   1       3.195   0.541  -2.245  0.00  0.00     0.000 A 
ATOM      6  C7  UNL d   1       2.702  -0.089  -1.089  0.00  0.00    -0.073 A 
ATOM      7  C8  UNL d   1       1.471  -0.946  -1.204  0.00  0.00     0.078 C 
ENDROOT
BRANCH   1   8
ATOM      8  C1  UNL d   1       2.952  -0.609   1.406  0.00  0.00     0.053 C 
ATOM      9  C   UNL d   1       4.043  -1.477   2.014  0.00  0.00     0.018 C 
ENDBRANCH   1   8
TORSDOF 1
ENDMDL
