MODEL 1
REMARK minimizedAffinity 8.80186176
REMARK minimizedRMSD -1
REMARK  1 active torsions:
REMARK  status: ('A' for Active; 'I' for Inactive)
REMARK    1  A    between atoms: C1_2  and  C2_3 
ROOT
ATOM      1  C2  UNL d   1       4.833   0.884  -2.167  0.00  0.00    -0.076 A 
ATOM      2  C3  UNL d   1       4.620   1.338  -0.854  0.00  0.00     0.004 A 
ATOM      3  C4  UNL d   1       3.546   0.872  -0.098  0.00  0.00    -0.003 A 
ATOM      4  C5  UNL d   1       2.666  -0.057  -0.644  0.00  0.00     0.000 A 
ATOM      5  C6  UNL d   1       2.872  -0.532  -1.939  0.00  0.00     0.000 A 
ATOM      6  C7  UNL d   1       3.960  -0.084  -2.708  0.00  0.00    -0.073 A 
ATOM      7  C8  UNL d   1       4.131  -0.625  -4.101  0.00  0.00     0.078 C 
ENDROOT
BRANCH   1   8
ATOM      8  C1  UNL d   1       6.000   1.446  -2.947  0.00  0.00     0.053 C 
ATOM      9  C   UNL d   1       5.965   2.964  -3.036  0.00  0.00     0.018 C 
ENDBRANCH   1   8
TORSDOF 1
ENDMDL
