MODEL 1
REMARK minimizedAffinity 1.28749835
REMARK minimizedRMSD -1
REMARK  1 active torsions:
REMARK  status: ('A' for Active; 'I' for Inactive)
REMARK    1  A    between atoms: C1_2  and  C2_3 
ROOT
ATOM      1  C2  UNL d   1      -2.458   2.765   1.879  0.00  0.00    -0.076 A 
ATOM      2  C3  UNL d   1      -3.718   2.330   2.326  0.00  0.00     0.004 A 
ATOM      3  C4  UNL d   1      -4.628   1.743   1.447  0.00  0.00    -0.003 A 
ATOM      4  C5  UNL d   1      -4.291   1.580   0.108  0.00  0.00     0.000 A 
ATOM      5  C6  UNL d   1      -3.039   1.990  -0.349  0.00  0.00     0.000 A 
ATOM      6  C7  UNL d   1      -2.105   2.569   0.527  0.00  0.00    -0.073 A 
ATOM      7  C8  UNL d   1      -0.771   2.998  -0.021  0.00  0.00     0.078 C 
ENDROOT
BRANCH   1   8
ATOM      8  C1  UNL d   1      -1.524   3.420   2.872  0.00  0.00     0.053 C 
ATOM      9  C   UNL d   1      -0.498   2.448   3.434  0.00  0.00     0.018 C 
ENDBRANCH   1   8
TORSDOF 1
ENDMDL
