MODEL 1
REMARK minimizedAffinity 3.21752787
REMARK minimizedRMSD -1
REMARK  1 active torsions:
REMARK  status: ('A' for Active; 'I' for Inactive)
REMARK    1  A    between atoms: C1_2  and  C2_3 
ROOT
ATOM      1  C2  UNL d   1       2.529   2.837   4.802  0.00  0.00    -0.076 A 
ATOM      2  C3  UNL d   1       3.025   3.382   6.000  0.00  0.00     0.004 A 
ATOM      3  C4  UNL d   1       4.131   4.229   5.998  0.00  0.00    -0.003 A 
ATOM      4  C5  UNL d   1       4.759   4.548   4.799  0.00  0.00     0.000 A 
ATOM      5  C6  UNL d   1       4.269   4.031   3.600  0.00  0.00     0.000 A 
ATOM      6  C7  UNL d   1       3.145   3.188   3.582  0.00  0.00    -0.073 A 
ATOM      7  C8  UNL d   1       2.664   2.654   2.261  0.00  0.00     0.078 C 
ENDROOT
BRANCH   1   8
ATOM      8  C1  UNL d   1       1.342   1.902   4.868  0.00  0.00     0.053 C 
ATOM      9  C   UNL d   1       0.388   2.250   6.000  0.00  0.00     0.018 C 
ENDBRANCH   1   8
TORSDOF 1
ENDMDL
