MODEL 1
REMARK minimizedAffinity 6.72093344
REMARK minimizedRMSD -1
REMARK  1 active torsions:
REMARK  status: ('A' for Active; 'I' for Inactive)
REMARK    1  A    between atoms: C1_2  and  C2_3 
ROOT
ATOM      1  C2  UNL d   1       3.334   0.021  -0.921  0.00  0.00    -0.076 A 
ATOM      2  C3  UNL d   1       2.494  -0.855  -1.631  0.00  0.00     0.004 A 
ATOM      3  C4  UNL d   1       2.833  -1.297  -2.909  0.00  0.00    -0.003 A 
ATOM      4  C5  UNL d   1       4.019  -0.871  -3.497  0.00  0.00     0.000 A 
ATOM      5  C6  UNL d   1       4.873  -0.016  -2.801  0.00  0.00     0.000 A 
ATOM      6  C7  UNL d   1       4.553   0.426  -1.505  0.00  0.00    -0.073 A 
ATOM      7  C8  UNL d   1       5.508   1.351  -0.803  0.00  0.00     0.078 C 
ENDROOT
BRANCH   1   8
ATOM      8  C1  UNL d   1       2.901   0.488   0.450  0.00  0.00     0.053 C 
ATOM      9  C   UNL d   1       2.858  -0.644   1.465  0.00  0.00     0.018 C 
ENDBRANCH   1   8
TORSDOF 1
ENDMDL
