MODEL 1
REMARK minimizedAffinity 20.4880219
REMARK minimizedRMSD -1
REMARK  0 active torsions:
REMARK  status: ('A' for Active; 'I' for Inactive)
ROOT
ATOM      1  N1  IND d   1       2.144  -0.998  -4.028  0.00  0.00    -0.196 N 
ATOM      2  C2  IND d   1       2.287  -1.902  -3.013  0.00  0.00     0.054 A 
ATOM      3  C3  IND d   1       3.577  -2.295  -2.911  0.00  0.00    -0.031 A 
ATOM      4  C4  IND d   1       5.636  -1.506  -4.241  0.00  0.00     0.051 A 
ATOM      5  C5  IND d   1       5.999  -0.718  -5.296  0.00  0.00    -0.031 A 
ATOM      6  C6  IND d   1       5.078   0.035  -5.995  0.00  0.00     0.015 A 
ATOM      7  C7  IND d   1       3.755   0.036  -5.656  0.00  0.00    -0.016 A 
ATOM      8  C8  IND d   1       3.381  -0.769  -4.589  0.00  0.00    -0.047 A 
ATOM      9  C9  IND d   1       4.305  -1.568  -3.903  0.00  0.00    -0.096 A 
ATOM     10  HN1 IND d   1       1.405  -0.634  -4.275  0.00  0.00     0.298 HD
ENDROOT
TORSDOF 0
ENDMDL
