MODEL 1
REMARK minimizedAffinity 11.7886734
REMARK minimizedRMSD -1
REMARK  0 active torsions:
REMARK  status: ('A' for Active; 'I' for Inactive)
ROOT
ATOM      1  N1  IND d   1       0.365  -5.905  -2.141  0.00  0.00    -0.196 N 
ATOM      2  C2  IND d   1       0.601  -5.923  -0.795  0.00  0.00     0.054 A 
ATOM      3  C3  IND d   1       1.929  -5.988  -0.551  0.00  0.00    -0.031 A 
ATOM      4  C4  IND d   1       3.899  -5.970  -2.207  0.00  0.00     0.051 A 
ATOM      5  C5  IND d   1       4.183  -5.999  -3.544  0.00  0.00    -0.031 A 
ATOM      6  C6  IND d   1       3.188  -5.994  -4.501  0.00  0.00     0.015 A 
ATOM      7  C7  IND d   1       1.867  -5.950  -4.155  0.00  0.00    -0.016 A 
ATOM      8  C8  IND d   1       1.575  -5.928  -2.798  0.00  0.00    -0.047 A 
ATOM      9  C9  IND d   1       2.579  -5.975  -1.822  0.00  0.00    -0.096 A 
ATOM     10  HN1 IND d   1      -0.409  -5.883  -2.515  0.00  0.00     0.298 HD
ENDROOT
TORSDOF 0
ENDMDL
