MODEL 1
REMARK minimizedAffinity 13.8413963
REMARK minimizedRMSD -1
REMARK  0 active torsions:
REMARK  status: ('A' for Active; 'I' for Inactive)
ROOT
ATOM      1  N1  IND d   1      -5.152   4.128   2.421  0.00  0.00    -0.196 N 
ATOM      2  C2  IND d   1      -5.999   4.656   1.487  0.00  0.00     0.054 A 
ATOM      3  C3  IND d   1      -5.509   4.459   0.243  0.00  0.00    -0.031 A 
ATOM      4  C4  IND d   1      -3.385   3.208  -0.499  0.00  0.00     0.051 A 
ATOM      5  C5  IND d   1      -2.273   2.585  -0.005  0.00  0.00    -0.031 A 
ATOM      6  C6  IND d   1      -2.062   2.440   1.351  0.00  0.00     0.015 A 
ATOM      7  C7  IND d   1      -2.963   2.904   2.267  0.00  0.00    -0.016 A 
ATOM      8  C8  IND d   1      -4.090   3.543   1.768  0.00  0.00    -0.047 A 
ATOM      9  C9  IND d   1      -4.290   3.731   0.395  0.00  0.00    -0.096 A 
ATOM     10  HN1 IND d   1      -5.264   4.157   3.273  0.00  0.00     0.298 HD
ENDROOT
TORSDOF 0
ENDMDL
