MODEL 1
REMARK minimizedAffinity 3.70025754
REMARK minimizedRMSD -1
REMARK  0 active torsions:
REMARK  status: ('A' for Active; 'I' for Inactive)
ROOT
ATOM      1  N1  IND d   1      -3.753  -5.999  -4.744  0.00  0.00    -0.196 N 
ATOM      2  C2  IND d   1      -4.261  -5.816  -6.000  0.00  0.00     0.054 A 
ATOM      3  C3  IND d   1      -5.181  -4.825  -5.995  0.00  0.00    -0.031 A 
ATOM      4  C4  IND d   1      -5.935  -3.303  -4.060  0.00  0.00     0.051 A 
ATOM      5  C5  IND d   1      -5.780  -3.113  -2.716  0.00  0.00    -0.031 A 
ATOM      6  C6  IND d   1      -4.922  -3.890  -1.964  0.00  0.00     0.015 A 
ATOM      7  C7  IND d   1      -4.175  -4.882  -2.533  0.00  0.00    -0.016 A 
ATOM      8  C8  IND d   1      -4.335  -5.082  -3.897  0.00  0.00    -0.047 A 
ATOM      9  C9  IND d   1      -5.236  -4.325  -4.658  0.00  0.00    -0.096 A 
ATOM     10  HN1 IND d   1      -3.167  -6.588  -4.521  0.00  0.00     0.298 HD
ENDROOT
TORSDOF 0
ENDMDL
