MODEL 1
REMARK minimizedAffinity 7.63865376
REMARK minimizedRMSD -1
REMARK  0 active torsions:
REMARK  status: ('A' for Active; 'I' for Inactive)
ROOT
ATOM      1  N1  IND d   1       0.525  -2.131   2.417  0.00  0.00    -0.196 N 
ATOM      2  C2  IND d   1       0.844  -2.818   1.279  0.00  0.00     0.054 A 
ATOM      3  C3  IND d   1       1.825  -2.179   0.604  0.00  0.00    -0.031 A 
ATOM      4  C4  IND d   1       3.123  -0.047   1.233  0.00  0.00     0.051 A 
ATOM      5  C5  IND d   1       3.164   0.954   2.162  0.00  0.00    -0.031 A 
ATOM      6  C6  IND d   1       2.312   0.977   3.247  0.00  0.00     0.015 A 
ATOM      7  C7  IND d   1       1.390  -0.011   3.450  0.00  0.00    -0.016 A 
ATOM      8  C8  IND d   1       1.341  -1.025   2.505  0.00  0.00    -0.047 A 
ATOM      9  C9  IND d   1       2.175  -1.032   1.379  0.00  0.00    -0.096 A 
ATOM     10  HN1 IND d   1      -0.084  -2.353   2.983  0.00  0.00     0.298 HD
ENDROOT
TORSDOF 0
ENDMDL
