MODEL 1
REMARK minimizedAffinity 15.1283684
REMARK minimizedRMSD -1
REMARK  0 active torsions:
REMARK  status: ('A' for Active; 'I' for Inactive)
ROOT
ATOM      1  N1  IND d   1       0.907  -2.490   3.859  0.00  0.00    -0.196 N 
ATOM      2  C2  IND d   1       2.096  -2.673   4.509  0.00  0.00     0.054 A 
ATOM      3  C3  IND d   1       3.066  -1.928   3.932  0.00  0.00    -0.031 A 
ATOM      4  C4  IND d   1       2.904  -0.261   1.977  0.00  0.00     0.051 A 
ATOM      5  C5  IND d   1       2.033   0.217   1.039  0.00  0.00    -0.031 A 
ATOM      6  C6  IND d   1       0.715  -0.188   0.993  0.00  0.00     0.015 A 
ATOM      7  C7  IND d   1       0.214  -1.083   1.896  0.00  0.00    -0.016 A 
ATOM      8  C8  IND d   1       1.097  -1.577   2.846  0.00  0.00    -0.047 A 
ATOM      9  C9  IND d   1       2.446  -1.201   2.870  0.00  0.00    -0.096 A 
ATOM     10  HN1 IND d   1       0.166  -2.880   4.051  0.00  0.00     0.298 HD
ENDROOT
TORSDOF 0
ENDMDL
