MODEL 1
REMARK minimizedAffinity 3.53278399
REMARK minimizedRMSD -1
REMARK  0 active torsions:
REMARK  status: ('A' for Active; 'I' for Inactive)
ROOT
ATOM      1  N1  IND d   1       3.840  -3.364  -5.125  0.00  0.00    -0.196 N 
ATOM      2  C2  IND d   1       4.994  -3.797  -5.716  0.00  0.00     0.054 A 
ATOM      3  C3  IND d   1       5.997  -2.918  -5.489  0.00  0.00    -0.031 A 
ATOM      4  C4  IND d   1       5.992  -0.757  -4.091  0.00  0.00     0.051 A 
ATOM      5  C5  IND d   1       5.161   0.070  -3.388  0.00  0.00    -0.031 A 
ATOM      6  C6  IND d   1       3.821  -0.213  -3.223  0.00  0.00     0.015 A 
ATOM      7  C7  IND d   1       3.261  -1.344  -3.747  0.00  0.00    -0.016 A 
ATOM      8  C8  IND d   1       4.101  -2.182  -4.467  0.00  0.00    -0.047 A 
ATOM      9  C9  IND d   1       5.453  -1.879  -4.674  0.00  0.00    -0.096 A 
ATOM     10  HN1 IND d   1       3.079  -3.763  -5.159  0.00  0.00     0.298 HD
ENDROOT
TORSDOF 0
ENDMDL
