MODEL 1
REMARK minimizedAffinity 10.7696972
REMARK minimizedRMSD -1
REMARK  0 active torsions:
REMARK  status: ('A' for Active; 'I' for Inactive)
ROOT
ATOM      1  N1  IND d   1      -5.881  -5.244  -3.841  0.00  0.00    -0.196 N 
ATOM      2  C2  IND d   1      -5.899  -6.000  -4.980  0.00  0.00     0.054 A 
ATOM      3  C3  IND d   1      -5.321  -5.326  -6.000  0.00  0.00    -0.031 A 
ATOM      4  C4  IND d   1      -4.189  -3.014  -6.000  0.00  0.00     0.051 A 
ATOM      5  C5  IND d   1      -3.956  -1.929  -5.203  0.00  0.00    -0.031 A 
ATOM      6  C6  IND d   1      -4.359  -1.893  -3.883  0.00  0.00     0.015 A 
ATOM      7  C7  IND d   1      -5.003  -2.951  -3.306  0.00  0.00    -0.016 A 
ATOM      8  C8  IND d   1      -5.247  -4.053  -4.115  0.00  0.00    -0.047 A 
ATOM      9  C9  IND d   1      -4.878  -4.078  -5.466  0.00  0.00    -0.096 A 
ATOM     10  HN1 IND d   1      -6.211  -5.475  -3.081  0.00  0.00     0.298 HD
ENDROOT
TORSDOF 0
ENDMDL
