MODEL 1
REMARK minimizedAffinity 15.9258909
REMARK minimizedRMSD -1
REMARK  0 active torsions:
REMARK  status: ('A' for Active; 'I' for Inactive)
ROOT
ATOM      1  N1  IND d   1       1.065   1.742   3.534  0.00  0.00    -0.196 N 
ATOM      2  C2  IND d   1       1.869   2.845   3.459  0.00  0.00     0.054 A 
ATOM      3  C3  IND d   1       2.981   2.569   2.742  0.00  0.00    -0.031 A 
ATOM      4  C4  IND d   1       3.639   0.404   1.514  0.00  0.00     0.051 A 
ATOM      5  C5  IND d   1       3.241  -0.890   1.323  0.00  0.00    -0.031 A 
ATOM      6  C6  IND d   1       2.072  -1.381   1.868  0.00  0.00     0.015 A 
ATOM      7  C7  IND d   1       1.249  -0.590   2.618  0.00  0.00    -0.016 A 
ATOM      8  C8  IND d   1       1.653   0.722   2.820  0.00  0.00    -0.047 A 
ATOM      9  C9  IND d   1       2.859   1.214   2.305  0.00  0.00    -0.096 A 
ATOM     10  HN1 IND d   1       0.317   1.694   3.956  0.00  0.00     0.298 HD
ENDROOT
TORSDOF 0
ENDMDL
