MODEL 1
REMARK minimizedAffinity -1.58906806
REMARK minimizedRMSD -1
REMARK  0 active torsions:
REMARK  status: ('A' for Active; 'I' for Inactive)
ROOT
ATOM      1  N1  IND d   1      -3.179  -0.992  -3.386  0.00  0.00    -0.196 N 
ATOM      2  C2  IND d   1      -2.536  -0.471  -2.298  0.00  0.00     0.054 A 
ATOM      3  C3  IND d   1      -3.084   0.715  -1.952  0.00  0.00    -0.031 A 
ATOM      4  C4  IND d   1      -5.107   1.942  -2.967  0.00  0.00     0.051 A 
ATOM      5  C5  IND d   1      -5.999   1.876  -4.000  0.00  0.00    -0.031 A 
ATOM      6  C6  IND d   1      -5.999   0.828  -4.898  0.00  0.00     0.015 A 
ATOM      7  C7  IND d   1      -5.110  -0.204  -4.789  0.00  0.00    -0.016 A 
ATOM      8  C8  IND d   1      -4.197  -0.136  -3.745  0.00  0.00    -0.047 A 
ATOM      9  C9  IND d   1      -4.165   0.946  -2.856  0.00  0.00    -0.096 A 
ATOM     10  HN1 IND d   1      -2.981  -1.730  -3.780  0.00  0.00     0.298 HD
ENDROOT
TORSDOF 0
ENDMDL
