MODEL 1
REMARK minimizedAffinity 1.28178263
REMARK minimizedRMSD -1
REMARK  0 active torsions:
REMARK  status: ('A' for Active; 'I' for Inactive)
ROOT
ATOM      1  N1  IND d   1       3.964   6.000   4.516  0.00  0.00    -0.196 N 
ATOM      2  C2  IND d   1       3.696   5.647   5.809  0.00  0.00     0.054 A 
ATOM      3  C3  IND d   1       2.420   5.218   5.925  0.00  0.00    -0.031 A 
ATOM      4  C4  IND d   1       0.625   4.916   4.104  0.00  0.00     0.051 A 
ATOM      5  C5  IND d   1       0.389   5.140   2.777  0.00  0.00    -0.031 A 
ATOM      6  C6  IND d   1       1.353   5.670   1.944  0.00  0.00     0.015 A 
ATOM      7  C7  IND d   1       2.598   5.987   2.407  0.00  0.00    -0.016 A 
ATOM      8  C8  IND d   1       2.839   5.768   3.756  0.00  0.00    -0.047 A 
ATOM      9  C9  IND d   1       1.851   5.269   4.615  0.00  0.00    -0.096 A 
ATOM     10  HN1 IND d   1       4.710   6.315   4.226  0.00  0.00     0.298 HD
ENDROOT
TORSDOF 0
ENDMDL
