MODEL 1
REMARK minimizedAffinity 9.97755051
REMARK minimizedRMSD -1
REMARK  0 active torsions:
REMARK  status: ('A' for Active; 'I' for Inactive)
ROOT
ATOM      1  N1  IND d   1       0.603  -3.157   1.096  0.00  0.00    -0.196 N 
ATOM      2  C2  IND d   1       0.786  -2.065   1.898  0.00  0.00     0.054 A 
ATOM      3  C3  IND d   1       2.096  -1.917   2.199  0.00  0.00    -0.031 A 
ATOM      4  C4  IND d   1       4.123  -3.290   1.404  0.00  0.00     0.051 A 
ATOM      5  C5  IND d   1       4.454  -4.406   0.689  0.00  0.00    -0.031 A 
ATOM      6  C6  IND d   1       3.499  -5.178   0.058  0.00  0.00     0.015 A 
ATOM      7  C7  IND d   1       2.173  -4.853   0.109  0.00  0.00    -0.016 A 
ATOM      8  C8  IND d   1       1.833  -3.724   0.840  0.00  0.00    -0.047 A 
ATOM      9  C9  IND d   1       2.793  -2.961   1.518  0.00  0.00    -0.096 A 
ATOM     10  HN1 IND d   1      -0.152  -3.442   0.801  0.00  0.00     0.298 HD
ENDROOT
TORSDOF 0
ENDMDL
