MODEL 1
REMARK minimizedAffinity 10.0044432
REMARK minimizedRMSD -1
REMARK  0 active torsions:
REMARK  status: ('A' for Active; 'I' for Inactive)
ROOT
ATOM      1  N1  IND d   1       2.194  -2.617  -0.773  0.00  0.00    -0.196 N 
ATOM      2  C2  IND d   1       1.439  -1.984   0.175  0.00  0.00     0.054 A 
ATOM      3  C3  IND d   1       1.706  -2.487   1.401  0.00  0.00    -0.031 A 
ATOM      4  C4  IND d   1       3.419  -4.278   2.097  0.00  0.00     0.051 A 
ATOM      5  C5  IND d   1       4.316  -5.170   1.579  0.00  0.00    -0.031 A 
ATOM      6  C6  IND d   1       4.558  -5.256   0.223  0.00  0.00     0.015 A 
ATOM      7  C7  IND d   1       3.918  -4.442  -0.668  0.00  0.00    -0.016 A 
ATOM      8  C8  IND d   1       3.001  -3.540  -0.146  0.00  0.00    -0.047 A 
ATOM      9  C9  IND d   1       2.720  -3.478   1.225  0.00  0.00    -0.096 A 
ATOM     10  HN1 IND d   1       2.169  -2.463  -1.619  0.00  0.00     0.298 HD
ENDROOT
TORSDOF 0
ENDMDL
