MODEL 1
REMARK minimizedAffinity 8.9776907
REMARK minimizedRMSD -1
REMARK  0 active torsions:
REMARK  status: ('A' for Active; 'I' for Inactive)
ROOT
ATOM      1  N1  IND d   1       5.189   5.518   4.736  0.00  0.00    -0.196 N 
ATOM      2  C2  IND d   1       4.456   5.970   5.798  0.00  0.00     0.054 A 
ATOM      3  C3  IND d   1       3.382   5.174   6.000  0.00  0.00    -0.031 A 
ATOM      4  C4  IND d   1       2.688   3.020   4.773  0.00  0.00     0.051 A 
ATOM      5  C5  IND d   1       3.024   2.230   3.709  0.00  0.00    -0.031 A 
ATOM      6  C6  IND d   1       4.123   2.500   2.919  0.00  0.00     0.015 A 
ATOM      7  C7  IND d   1       4.937   3.568   3.171  0.00  0.00    -0.016 A 
ATOM      8  C8  IND d   1       4.595   4.376   4.246  0.00  0.00    -0.047 A 
ATOM      9  C9  IND d   1       3.457   4.132   5.026  0.00  0.00    -0.096 A 
ATOM     10  HN1 IND d   1       5.902   5.886   4.426  0.00  0.00     0.298 HD
ENDROOT
TORSDOF 0
ENDMDL
