MODEL 1
REMARK minimizedAffinity 10.8734884
REMARK minimizedRMSD -1
REMARK  0 active torsions:
REMARK  status: ('A' for Active; 'I' for Inactive)
ROOT
ATOM      1  N1  IND d   1       1.579   6.000   4.926  0.00  0.00    -0.196 N 
ATOM      2  C2  IND d   1       2.425   5.997   6.000  0.00  0.00     0.054 A 
ATOM      3  C3  IND d   1       3.290   4.962   5.914  0.00  0.00    -0.031 A 
ATOM      4  C4  IND d   1       3.564   3.210   4.048  0.00  0.00     0.051 A 
ATOM      5  C5  IND d   1       2.998   2.783   2.879  0.00  0.00    -0.031 A 
ATOM      6  C6  IND d   1       1.909   3.421   2.321  0.00  0.00     0.015 A 
ATOM      7  C7  IND d   1       1.351   4.522   2.907  0.00  0.00    -0.016 A 
ATOM      8  C8  IND d   1       1.919   4.954   4.097  0.00  0.00    -0.047 A 
ATOM      9  C9  IND d   1       2.997   4.285   4.690  0.00  0.00    -0.096 A 
ATOM     10  HN1 IND d   1       0.941   6.561   4.791  0.00  0.00     0.298 HD
ENDROOT
TORSDOF 0
ENDMDL
