MODEL 1
REMARK minimizedAffinity 11.0438166
REMARK minimizedRMSD -1
REMARK  0 active torsions:
REMARK  status: ('A' for Active; 'I' for Inactive)
ROOT
ATOM      1  N1  IND d   1       4.711  -2.927  -0.361  0.00  0.00    -0.196 N 
ATOM      2  C2  IND d   1       5.326  -1.759  -0.006  0.00  0.00     0.054 A 
ATOM      3  C3  IND d   1       4.437  -0.914   0.562  0.00  0.00    -0.031 A 
ATOM      4  C4  IND d   1       1.947  -1.281   1.104  0.00  0.00     0.051 A 
ATOM      5  C5  IND d   1       0.929  -2.177   0.936  0.00  0.00    -0.031 A 
ATOM      6  C6  IND d   1       1.124  -3.395   0.317  0.00  0.00     0.015 A 
ATOM      7  C7  IND d   1       2.353  -3.768  -0.149  0.00  0.00    -0.016 A 
ATOM      8  C8  IND d   1       3.388  -2.858   0.014  0.00  0.00    -0.047 A 
ATOM      9  C9  IND d   1       3.186  -1.603   0.603  0.00  0.00    -0.096 A 
ATOM     10  HN1 IND d   1       5.088  -3.594  -0.752  0.00  0.00     0.298 HD
ENDROOT
TORSDOF 0
ENDMDL
