MODEL 1
REMARK minimizedAffinity 2.78227496
REMARK minimizedRMSD -1
REMARK  0 active torsions:
REMARK  status: ('A' for Active; 'I' for Inactive)
ROOT
ATOM      1  N1  IND d   1       2.354   5.539   3.382  0.00  0.00    -0.196 N 
ATOM      2  C2  IND d   1       1.551   5.538   4.489  0.00  0.00     0.054 A 
ATOM      3  C3  IND d   1       2.296   5.659   5.610  0.00  0.00    -0.031 A 
ATOM      4  C4  IND d   1       4.839   5.973   5.859  0.00  0.00     0.051 A 
ATOM      5  C5  IND d   1       5.997   6.000   5.133  0.00  0.00    -0.031 A 
ATOM      6  C6  IND d   1       6.000   5.875   3.759  0.00  0.00     0.015 A 
ATOM      7  C7  IND d   1       4.838   5.729   3.055  0.00  0.00    -0.016 A 
ATOM      8  C8  IND d   1       3.661   5.694   3.789  0.00  0.00    -0.047 A 
ATOM      9  C9  IND d   1       3.656   5.778   5.187  0.00  0.00    -0.096 A 
ATOM     10  HN1 IND d   1       2.087   5.456   2.569  0.00  0.00     0.298 HD
ENDROOT
TORSDOF 0
ENDMDL
