MODEL 1
REMARK minimizedAffinity 7.196877
REMARK minimizedRMSD -1
REMARK  0 active torsions:
REMARK  status: ('A' for Active; 'I' for Inactive)
ROOT
ATOM      1  C   UNL d   1       5.170  -4.002   5.999  0.00  0.00     0.023 A 
ATOM      2  C1  UNL d   1       4.880  -5.136   5.239  0.00  0.00     0.003 A 
ATOM      3  C2  UNL d   1       4.294  -5.002   3.979  0.00  0.00     0.048 A 
ATOM      4  C3  UNL d   1       4.001  -3.732   3.484  0.00  0.00     0.023 A 
ATOM      5  C4  UNL d   1       4.290  -2.594   4.241  0.00  0.00     0.048 A 
ATOM      6  C5  UNL d   1       4.875  -2.733   5.500  0.00  0.00     0.003 A 
ATOM      7  I   UNL d   1       3.128  -3.530   1.609  0.00  0.00    -0.146 I 
ENDROOT
TORSDOF 0
ENDMDL
