MODEL 1
REMARK minimizedAffinity 5.62475348
REMARK minimizedRMSD -1
REMARK  0 active torsions:
REMARK  status: ('A' for Active; 'I' for Inactive)
ROOT
ATOM      1  C   UNL d   1       3.272   1.088  -1.052  0.00  0.00     0.023 A 
ATOM      2  C1  UNL d   1       4.561   0.666  -0.726  0.00  0.00     0.003 A 
ATOM      3  C2  UNL d   1       4.799  -0.671  -0.402  0.00  0.00     0.048 A 
ATOM      4  C3  UNL d   1       3.743  -1.582  -0.408  0.00  0.00     0.023 A 
ATOM      5  C4  UNL d   1       2.451  -1.165  -0.735  0.00  0.00     0.048 A 
ATOM      6  C5  UNL d   1       2.218   0.173  -1.057  0.00  0.00     0.003 A 
ATOM      7  I   UNL d   1       4.094  -3.574   0.072  0.00  0.00    -0.146 I 
ENDROOT
TORSDOF 0
ENDMDL
