MODEL 1
REMARK minimizedAffinity 11.8589468
REMARK minimizedRMSD -1
REMARK  0 active torsions:
REMARK  status: ('A' for Active; 'I' for Inactive)
ROOT
ATOM      1  C   UNL d   1       2.165   1.318  -1.065  0.00  0.00     0.023 A 
ATOM      2  C1  UNL d   1       1.596   0.063  -1.281  0.00  0.00     0.003 A 
ATOM      3  C2  UNL d   1       2.351  -1.093  -1.075  0.00  0.00     0.048 A 
ATOM      4  C3  UNL d   1       3.676  -0.987  -0.653  0.00  0.00     0.023 A 
ATOM      5  C4  UNL d   1       4.250   0.266  -0.435  0.00  0.00     0.048 A 
ATOM      6  C5  UNL d   1       3.491   1.420  -0.643  0.00  0.00     0.003 A 
ATOM      7  I   UNL d   1       4.803  -2.706  -0.347  0.00  0.00    -0.146 I 
ENDROOT
TORSDOF 0
ENDMDL
