MODEL 1
REMARK minimizedAffinity 5.24898767
REMARK minimizedRMSD -1
REMARK  0 active torsions:
REMARK  status: ('A' for Active; 'I' for Inactive)
ROOT
ATOM      1  C   UNL d   1       3.956  -3.691   0.684  0.00  0.00     0.023 A 
ATOM      2  C1  UNL d   1       3.104  -3.020   1.562  0.00  0.00     0.003 A 
ATOM      3  C2  UNL d   1       3.501  -2.783   2.879  0.00  0.00     0.048 A 
ATOM      4  C3  UNL d   1       4.753  -3.219   3.312  0.00  0.00     0.023 A 
ATOM      5  C4  UNL d   1       5.610  -3.889   2.438  0.00  0.00     0.048 A 
ATOM      6  C5  UNL d   1       5.208  -4.124   1.122  0.00  0.00     0.003 A 
ATOM      7  I   UNL d   1       5.347  -2.867   5.273  0.00  0.00    -0.146 I 
ENDROOT
TORSDOF 0
ENDMDL
