MODEL 1
REMARK minimizedAffinity -1.86516786
REMARK minimizedRMSD -1
REMARK  0 active torsions:
REMARK  status: ('A' for Active; 'I' for Inactive)
ROOT
ATOM      1  C   UNL d   1       2.917  -4.107   1.129  0.00  0.00     0.023 A 
ATOM      2  C1  UNL d   1       1.919  -3.158   1.355  0.00  0.00     0.003 A 
ATOM      3  C2  UNL d   1       1.937  -1.946   0.663  0.00  0.00     0.048 A 
ATOM      4  C3  UNL d   1       2.954  -1.689  -0.256  0.00  0.00     0.023 A 
ATOM      5  C4  UNL d   1       3.954  -2.636  -0.487  0.00  0.00     0.048 A 
ATOM      6  C5  UNL d   1       3.932  -3.846   0.209  0.00  0.00     0.003 A 
ATOM      7  I   UNL d   1       2.982   0.115  -1.288  0.00  0.00    -0.146 I 
ENDROOT
TORSDOF 0
ENDMDL
