MODEL 1
REMARK minimizedAffinity 0.475841641
REMARK minimizedRMSD -1
REMARK  0 active torsions:
REMARK  status: ('A' for Active; 'I' for Inactive)
ROOT
ATOM      1  C   UNL d   1       5.317  -3.086   0.567  0.00  0.00     0.023 A 
ATOM      2  C1  UNL d   1       3.948  -3.186   0.318  0.00  0.00     0.003 A 
ATOM      3  C2  UNL d   1       3.248  -2.092  -0.194  0.00  0.00     0.048 A 
ATOM      4  C3  UNL d   1       3.923  -0.901  -0.457  0.00  0.00     0.023 A 
ATOM      5  C4  UNL d   1       5.293  -0.796  -0.211  0.00  0.00     0.048 A 
ATOM      6  C5  UNL d   1       5.989  -1.893   0.302  0.00  0.00     0.003 A 
ATOM      7  I   UNL d   1       2.884   0.729  -1.220  0.00  0.00    -0.146 I 
ENDROOT
TORSDOF 0
ENDMDL
