MODEL 1
REMARK minimizedAffinity 4.3101778
REMARK minimizedRMSD -1
REMARK  0 active torsions:
REMARK  status: ('A' for Active; 'I' for Inactive)
ROOT
ATOM      1  C   UNL d   1       1.833   0.473  -1.341  0.00  0.00     0.023 A 
ATOM      2  C1  UNL d   1       1.889  -0.881  -1.010  0.00  0.00     0.003 A 
ATOM      3  C2  UNL d   1       3.081  -1.437  -0.540  0.00  0.00     0.048 A 
ATOM      4  C3  UNL d   1       4.212  -0.633  -0.402  0.00  0.00     0.023 A 
ATOM      5  C4  UNL d   1       4.160   0.723  -0.731  0.00  0.00     0.048 A 
ATOM      6  C5  UNL d   1       2.966   1.274  -1.202  0.00  0.00     0.003 A 
ATOM      7  I   UNL d   1       5.986  -1.457   0.298  0.00  0.00    -0.146 I 
ENDROOT
TORSDOF 0
ENDMDL
