MODEL 1
REMARK minimizedAffinity 2.21137285
REMARK minimizedRMSD -1
REMARK  0 active torsions:
REMARK  status: ('A' for Active; 'I' for Inactive)
ROOT
ATOM      1  C   UNL d   1      -2.348  -0.470   1.386  0.00  0.00     0.023 A 
ATOM      2  C1  UNL d   1      -1.152  -0.510   2.103  0.00  0.00     0.003 A 
ATOM      3  C2  UNL d   1       0.070  -0.445   1.429  0.00  0.00     0.048 A 
ATOM      4  C3  UNL d   1       0.088  -0.339   0.039  0.00  0.00     0.023 A 
ATOM      5  C4  UNL d   1      -1.107  -0.297  -0.682  0.00  0.00     0.048 A 
ATOM      6  C5  UNL d   1      -2.325  -0.363  -0.004  0.00  0.00     0.003 A 
ATOM      7  I   UNL d   1       1.905  -0.241  -0.965  0.00  0.00    -0.146 I 
ENDROOT
TORSDOF 0
ENDMDL
