MODEL 1
REMARK minimizedAffinity 2.09962845
REMARK minimizedRMSD -1
REMARK  0 active torsions:
REMARK  status: ('A' for Active; 'I' for Inactive)
ROOT
ATOM      1  C   UNL d   1      -2.196  -0.118   1.577  0.00  0.00     0.023 A 
ATOM      2  C1  UNL d   1      -1.030  -0.261   2.329  0.00  0.00     0.003 A 
ATOM      3  C2  UNL d   1       0.210  -0.335   1.690  0.00  0.00     0.048 A 
ATOM      4  C3  UNL d   1       0.276  -0.263   0.299  0.00  0.00     0.023 A 
ATOM      5  C4  UNL d   1      -0.888  -0.119  -0.458  0.00  0.00     0.048 A 
ATOM      6  C5  UNL d   1      -2.125  -0.047   0.185  0.00  0.00     0.003 A 
ATOM      7  I   UNL d   1       2.120  -0.371  -0.654  0.00  0.00    -0.146 I 
ENDROOT
TORSDOF 0
ENDMDL
