MODEL 1
REMARK minimizedAffinity -3.84990573
REMARK minimizedRMSD -1
REMARK  3 active torsions:
REMARK  status: ('A' for Active; 'I' for Inactive)
REMARK    1  A    between atoms: C3'_2  and  C2'_3 
REMARK    2  A    between atoms: C2'_3  and  C1'_4 
REMARK    3  A    between atoms: C1'_4  and  C1_5 
ROOT
ATOM      1  C1  N4B d   1      -0.134   0.083   0.510  0.00  0.00    -0.075 A 
ATOM      2  C2  N4B d   1       1.000  -0.292   1.264  0.00  0.00     0.002 A 
ATOM      3  C3  N4B d   1       0.879  -1.218   2.271  0.00  0.00     0.002 A 
ATOM      4  C4  N4B d   1      -0.363  -1.767   2.553  0.00  0.00    -0.004 A 
ATOM      5  C5  N4B d   1      -1.448  -1.419   1.803  0.00  0.00     0.002 A 
ATOM      6  C6  N4B d   1      -1.341  -0.492   0.785  0.00  0.00     0.002 A 
ENDROOT
BRANCH   1   7
ATOM      7  C1' N4B d   1      -0.068   1.154  -0.544  0.00  0.00     0.057 C 
BRANCH   7   8
ATOM      8  C2' N4B d   1      -0.675   0.622  -1.838  0.00  0.00     0.009 C 
BRANCH   8   9
ATOM      9  C3' N4B d   1      -1.027   1.741  -2.803  0.00  0.00     0.004 C 
ATOM     10  C4' N4B d   1      -0.297   3.017  -2.504  0.00  0.00     0.003 C 
ENDBRANCH   8   9
ENDBRANCH   7   8
ENDBRANCH   1   7
TORSDOF 3
ENDMDL
