MODEL 1
REMARK minimizedAffinity -0.214040801
REMARK minimizedRMSD -1
REMARK  3 active torsions:
REMARK  status: ('A' for Active; 'I' for Inactive)
REMARK    1  A    between atoms: C3'_2  and  C2'_3 
REMARK    2  A    between atoms: C2'_3  and  C1'_4 
REMARK    3  A    between atoms: C1'_4  and  C1_5 
ROOT
ATOM      1  C1  N4B d   1      -0.712   1.410  -0.515  0.00  0.00    -0.075 A 
ATOM      2  C2  N4B d   1      -1.298   0.148  -0.761  0.00  0.00     0.002 A 
ATOM      3  C3  N4B d   1      -0.634  -0.999  -0.401  0.00  0.00     0.002 A 
ATOM      4  C4  N4B d   1       0.620  -0.910   0.185  0.00  0.00    -0.004 A 
ATOM      5  C5  N4B d   1       1.167   0.312   0.443  0.00  0.00     0.002 A 
ATOM      6  C6  N4B d   1       0.509   1.474   0.090  0.00  0.00     0.002 A 
ENDROOT
BRANCH   1   7
ATOM      7  C1' N4B d   1      -1.362   2.689  -0.968  0.00  0.00     0.057 C 
BRANCH   7   8
ATOM      8  C2' N4B d   1      -1.716   2.574  -2.447  0.00  0.00     0.009 C 
BRANCH   8   9
ATOM      9  C3' N4B d   1      -0.832   3.455  -3.313  0.00  0.00     0.004 C 
ATOM     10  C4' N4B d   1       0.630   3.237  -3.060  0.00  0.00     0.003 C 
ENDBRANCH   8   9
ENDBRANCH   7   8
ENDBRANCH   1   7
TORSDOF 3
ENDMDL
