MODEL 1
REMARK minimizedAffinity -5.36815929
REMARK minimizedRMSD -1
REMARK  3 active torsions:
REMARK  status: ('A' for Active; 'I' for Inactive)
REMARK    1  A    between atoms: C3'_2  and  C2'_3 
REMARK    2  A    between atoms: C2'_3  and  C1'_4 
REMARK    3  A    between atoms: C1'_4  and  C1_5 
ROOT
ATOM      1  C1  N4B d   1       0.526  -0.326   0.923  0.00  0.00    -0.075 A 
ATOM      2  C2  N4B d   1       0.478  -0.696   2.285  0.00  0.00     0.002 A 
ATOM      3  C3  N4B d   1       1.441  -1.525   2.806  0.00  0.00     0.002 A 
ATOM      4  C4  N4B d   1       2.447  -2.009   1.983  0.00  0.00    -0.004 A 
ATOM      5  C5  N4B d   1       2.501  -1.626   0.675  0.00  0.00     0.002 A 
ATOM      6  C6  N4B d   1       1.542  -0.790   0.139  0.00  0.00     0.002 A 
ENDROOT
BRANCH   1   7
ATOM      7  C1' N4B d   1      -0.552   0.509   0.289  0.00  0.00     0.057 C 
BRANCH   7   8
ATOM      8  C2' N4B d   1      -0.079   0.981  -1.083  0.00  0.00     0.009 C 
BRANCH   8   9
ATOM      9  C3' N4B d   1      -1.087   1.904  -1.745  0.00  0.00     0.004 C 
ATOM     10  C4' N4B d   1      -0.441   2.940  -2.617  0.00  0.00     0.003 C 
ENDBRANCH   8   9
ENDBRANCH   7   8
ENDBRANCH   1   7
TORSDOF 3
ENDMDL
