MODEL 1
REMARK minimizedAffinity -4.53553343
REMARK minimizedRMSD -1
REMARK  3 active torsions:
REMARK  status: ('A' for Active; 'I' for Inactive)
REMARK    1  A    between atoms: C3'_2  and  C2'_3 
REMARK    2  A    between atoms: C2'_3  and  C1'_4 
REMARK    3  A    between atoms: C1'_4  and  C1_5 
ROOT
ATOM      1  C1  N4B d   1      -0.824   0.225  -0.795  0.00  0.00    -0.075 A 
ATOM      2  C2  N4B d   1       0.392  -0.045  -0.129  0.00  0.00     0.002 A 
ATOM      3  C3  N4B d   1       0.391  -0.321   1.217  0.00  0.00     0.002 A 
ATOM      4  C4  N4B d   1      -0.806  -0.314   1.917  0.00  0.00    -0.004 A 
ATOM      5  C5  N4B d   1      -1.978  -0.077   1.261  0.00  0.00     0.002 A 
ATOM      6  C6  N4B d   1      -1.993   0.197  -0.091  0.00  0.00     0.002 A 
ENDROOT
BRANCH   1   7
ATOM      7  C1' N4B d   1      -0.864   0.616  -2.247  0.00  0.00     0.057 C 
BRANCH   7   8
ATOM      8  C2' N4B d   1      -1.823   1.789  -2.424  0.00  0.00     0.009 C 
BRANCH   8   9
ATOM      9  C3' N4B d   1      -1.177   3.112  -2.050  0.00  0.00     0.004 C 
ATOM     10  C4' N4B d   1       0.230   3.234  -2.554  0.00  0.00     0.003 C 
ENDBRANCH   8   9
ENDBRANCH   7   8
ENDBRANCH   1   7
TORSDOF 3
ENDMDL
