MODEL 1
REMARK minimizedAffinity -2.12080312
REMARK minimizedRMSD -1
REMARK  0 active torsions:
REMARK  status: ('A' for Active; 'I' for Inactive)
ROOT
ATOM      1  C   UNL d   1      -0.819  -1.161  -1.311  0.00  0.00     0.078 C 
ATOM      2  C1  UNL d   1       0.470  -0.782  -0.644  0.00  0.00    -0.077 A 
ATOM      3  C2  UNL d   1       0.486  -0.286   0.665  0.00  0.00    -0.001 A 
ATOM      4  C3  UNL d   1       1.692   0.072   1.270  0.00  0.00     0.003 A 
ATOM      5  C4  UNL d   1       2.891  -0.061   0.573  0.00  0.00    -0.005 A 
ATOM      6  C5  UNL d   1       2.885  -0.551  -0.731  0.00  0.00     0.003 A 
ATOM      7  C6  UNL d   1       1.680  -0.910  -1.338  0.00  0.00    -0.001 A 
ENDROOT
TORSDOF 0
ENDMDL
