MODEL 1
REMARK minimizedAffinity -3.65506029
REMARK minimizedRMSD -1
REMARK  0 active torsions:
REMARK  status: ('A' for Active; 'I' for Inactive)
ROOT
ATOM      1  C   UNL d   1      -1.017   1.787   2.247  0.00  0.00     0.078 C 
ATOM      2  C1  UNL d   1      -1.353   0.611   3.114  0.00  0.00    -0.077 A 
ATOM      3  C2  UNL d   1      -2.606  -0.010   3.034  0.00  0.00    -0.001 A 
ATOM      4  C3  UNL d   1      -2.908  -1.098   3.855  0.00  0.00     0.003 A 
ATOM      5  C4  UNL d   1      -1.964  -1.574   4.762  0.00  0.00    -0.005 A 
ATOM      6  C5  UNL d   1      -0.716  -0.961   4.850  0.00  0.00     0.003 A 
ATOM      7  C6  UNL d   1      -0.411   0.127   4.031  0.00  0.00    -0.001 A 
ENDROOT
TORSDOF 0
ENDMDL
