MODEL 1
REMARK minimizedAffinity -0.664648712
REMARK minimizedRMSD -1
REMARK  0 active torsions:
REMARK  status: ('A' for Active; 'I' for Inactive)
ROOT
ATOM      1  C   UNL d   1      -1.935   0.990   4.395  0.00  0.00     0.078 C 
ATOM      2  C1  UNL d   1      -1.970   0.768   2.913  0.00  0.00    -0.077 A 
ATOM      3  C2  UNL d   1      -1.087  -0.126   2.296  0.00  0.00    -0.001 A 
ATOM      4  C3  UNL d   1      -1.125  -0.316   0.913  0.00  0.00     0.003 A 
ATOM      5  C4  UNL d   1      -2.044   0.387   0.136  0.00  0.00    -0.005 A 
ATOM      6  C5  UNL d   1      -2.925   1.281   0.741  0.00  0.00     0.003 A 
ATOM      7  C6  UNL d   1      -2.889   1.471   2.123  0.00  0.00    -0.001 A 
ENDROOT
TORSDOF 0
ENDMDL
