MODEL 1
REMARK minimizedAffinity 2.75018787
REMARK minimizedRMSD -1
REMARK  0 active torsions:
REMARK  status: ('A' for Active; 'I' for Inactive)
ROOT
ATOM      1  C   UNL d   1      -3.374  -0.001  -0.254  0.00  0.00     0.078 C 
ATOM      2  C1  UNL d   1      -2.643   0.232   1.034  0.00  0.00    -0.077 A 
ATOM      3  C2  UNL d   1      -2.697  -0.704   2.074  0.00  0.00    -0.001 A 
ATOM      4  C3  UNL d   1      -2.019  -0.470   3.271  0.00  0.00     0.003 A 
ATOM      5  C4  UNL d   1      -1.283   0.702   3.441  0.00  0.00    -0.005 A 
ATOM      6  C5  UNL d   1      -1.225   1.640   2.413  0.00  0.00     0.003 A 
ATOM      7  C6  UNL d   1      -1.903   1.408   1.215  0.00  0.00    -0.001 A 
ENDROOT
TORSDOF 0
ENDMDL
