MODEL 1
REMARK minimizedAffinity 0.257490933
REMARK minimizedRMSD -1
REMARK  0 active torsions:
REMARK  status: ('A' for Active; 'I' for Inactive)
ROOT
ATOM      1  C   UNL d   1       1.868  -0.778   1.282  0.00  0.00     0.078 C 
ATOM      2  C1  UNL d   1       0.430  -0.397   1.476  0.00  0.00    -0.077 A 
ATOM      3  C2  UNL d   1      -0.528  -0.673   0.494  0.00  0.00    -0.001 A 
ATOM      4  C3  UNL d   1      -1.861  -0.305   0.684  0.00  0.00     0.003 A 
ATOM      5  C4  UNL d   1      -2.247   0.344   1.856  0.00  0.00    -0.005 A 
ATOM      6  C5  UNL d   1      -1.300   0.625   2.838  0.00  0.00     0.003 A 
ATOM      7  C6  UNL d   1       0.033   0.257   2.650  0.00  0.00    -0.001 A 
ENDROOT
TORSDOF 0
ENDMDL
