MODEL 1
REMARK minimizedAffinity 3.18540168
REMARK minimizedRMSD -1
REMARK  0 active torsions:
REMARK  status: ('A' for Active; 'I' for Inactive)
ROOT
ATOM      1  C   UNL d   1      -4.057   0.783  -0.037  0.00  0.00     0.078 C 
ATOM      2  C1  UNL d   1      -3.014   0.580   1.022  0.00  0.00    -0.077 A 
ATOM      3  C2  UNL d   1      -1.953   1.481   1.172  0.00  0.00    -0.001 A 
ATOM      4  C3  UNL d   1      -0.984   1.274   2.155  0.00  0.00     0.003 A 
ATOM      5  C4  UNL d   1      -1.066   0.165   2.995  0.00  0.00    -0.005 A 
ATOM      6  C5  UNL d   1      -2.117  -0.738   2.852  0.00  0.00     0.003 A 
ATOM      7  C6  UNL d   1      -3.087  -0.533   1.869  0.00  0.00    -0.001 A 
ENDROOT
TORSDOF 0
ENDMDL
