MODEL 1
REMARK minimizedAffinity 3.94246864
REMARK minimizedRMSD -1
REMARK  0 active torsions:
REMARK  status: ('A' for Active; 'I' for Inactive)
ROOT
ATOM      1  C   UNL d   1      -3.650  -4.508  -6.000  0.00  0.00     0.078 C 
ATOM      2  C1  UNL d   1      -2.260  -4.636  -5.451  0.00  0.00    -0.077 A 
ATOM      3  C2  UNL d   1      -1.244  -3.758  -5.848  0.00  0.00    -0.001 A 
ATOM      4  C3  UNL d   1       0.047  -3.895  -5.336  0.00  0.00     0.003 A 
ATOM      5  C4  UNL d   1       0.335  -4.908  -4.425  0.00  0.00    -0.005 A 
ATOM      6  C5  UNL d   1      -0.669  -5.788  -4.025  0.00  0.00     0.003 A 
ATOM      7  C6  UNL d   1      -1.961  -5.653  -4.536  0.00  0.00    -0.001 A 
ENDROOT
TORSDOF 0
ENDMDL
