MODEL 1
REMARK minimizedAffinity -1.05668509
REMARK minimizedRMSD -1
REMARK  0 active torsions:
REMARK  status: ('A' for Active; 'I' for Inactive)
ROOT
ATOM      1  C   UNL d   1      -4.205   0.896  -0.891  0.00  0.00     0.078 C 
ATOM      2  C1  UNL d   1      -3.382   0.404   0.262  0.00  0.00    -0.077 A 
ATOM      3  C2  UNL d   1      -3.136  -0.963   0.441  0.00  0.00    -0.001 A 
ATOM      4  C3  UNL d   1      -2.376  -1.407   1.524  0.00  0.00     0.003 A 
ATOM      5  C4  UNL d   1      -1.858  -0.492   2.438  0.00  0.00    -0.005 A 
ATOM      6  C5  UNL d   1      -2.100   0.870   2.269  0.00  0.00     0.003 A 
ATOM      7  C6  UNL d   1      -2.859   1.316   1.187  0.00  0.00    -0.001 A 
ENDROOT
TORSDOF 0
ENDMDL
