MODEL 1
REMARK minimizedAffinity 0.683766484
REMARK minimizedRMSD -1
REMARK  0 active torsions:
REMARK  status: ('A' for Active; 'I' for Inactive)
ROOT
ATOM      1  C   UNL d   1      -1.849  -2.614  -1.988  0.00  0.00     0.078 C 
ATOM      2  C1  UNL d   1      -1.507  -3.474  -3.167  0.00  0.00    -0.077 A 
ATOM      3  C2  UNL d   1      -2.509  -4.085  -3.930  0.00  0.00    -0.001 A 
ATOM      4  C3  UNL d   1      -2.176  -4.892  -5.019  0.00  0.00     0.003 A 
ATOM      5  C4  UNL d   1      -0.839  -5.096  -5.354  0.00  0.00    -0.005 A 
ATOM      6  C5  UNL d   1       0.166  -4.494  -4.600  0.00  0.00     0.003 A 
ATOM      7  C6  UNL d   1      -0.166  -3.687  -3.511  0.00  0.00    -0.001 A 
ENDROOT
TORSDOF 0
ENDMDL
