MODEL 1
REMARK minimizedAffinity -2.07196665
REMARK minimizedRMSD -1
REMARK  0 active torsions:
REMARK  status: ('A' for Active; 'I' for Inactive)
ROOT
ATOM      1  C   UNL d   1      -3.735   3.406   4.046  0.00  0.00     0.172 C 
ATOM      2  N   UNL d   1      -3.617   2.152   3.340  0.00  0.00    -0.070 N 
ATOM      3  C1  UNL d   1      -4.357   1.778   2.250  0.00  0.00    -0.004 A 
ATOM      4  C2  UNL d   1      -3.945   0.518   1.873  0.00  0.00    -0.047 A 
ATOM      5  C3  UNL d   1      -2.923   0.121   2.768  0.00  0.00    -0.047 A 
ATOM      6  C4  UNL d   1      -2.740   1.152   3.666  0.00  0.00    -0.004 A 
ENDROOT
TORSDOF 0
ENDMDL
