MODEL 1
REMARK minimizedAffinity -2.86826158
REMARK minimizedRMSD -1
REMARK  0 active torsions:
REMARK  status: ('A' for Active; 'I' for Inactive)
ROOT
ATOM      1  C   UNL d   1       0.955  -1.122  -2.326  0.00  0.00     0.172 C 
ATOM      2  N   UNL d   1       0.730  -0.275  -1.178  0.00  0.00    -0.070 N 
ATOM      3  C1  UNL d   1       1.340   0.928  -0.943  0.00  0.00    -0.004 A 
ATOM      4  C2  UNL d   1       0.858   1.419   0.251  0.00  0.00    -0.047 A 
ATOM      5  C3  UNL d   1      -0.074   0.478   0.751  0.00  0.00    -0.047 A 
ATOM      6  C4  UNL d   1      -0.133  -0.561  -0.154  0.00  0.00    -0.004 A 
ENDROOT
TORSDOF 0
ENDMDL
