MODEL 1
REMARK minimizedAffinity -3.71808505
REMARK minimizedRMSD -1
REMARK  0 active torsions:
REMARK  status: ('A' for Active; 'I' for Inactive)
ROOT
ATOM      1  C   UNL d   1       1.726   2.262  -0.148  0.00  0.00     0.172 C 
ATOM      2  N   UNL d   1       1.150   1.248  -1.000  0.00  0.00    -0.070 N 
ATOM      3  C1  UNL d   1       0.155   0.378  -0.644  0.00  0.00    -0.004 A 
ATOM      4  C2  UNL d   1      -0.112  -0.425  -1.732  0.00  0.00    -0.047 A 
ATOM      5  C3  UNL d   1       0.753  -0.023  -2.778  0.00  0.00    -0.047 A 
ATOM      6  C4  UNL d   1       1.523   1.014  -2.297  0.00  0.00    -0.004 A 
ENDROOT
TORSDOF 0
ENDMDL
