MODEL 1
REMARK minimizedAffinity -3.81495595
REMARK minimizedRMSD -1
REMARK  0 active torsions:
REMARK  status: ('A' for Active; 'I' for Inactive)
ROOT
ATOM      1  C   UNL d   1      -0.094  -0.090   1.323  0.00  0.00     0.172 C 
ATOM      2  N   UNL d   1       0.060  -0.191  -0.110  0.00  0.00    -0.070 N 
ATOM      3  C1  UNL d   1       0.593  -1.259  -0.782  0.00  0.00    -0.004 A 
ATOM      4  C2  UNL d   1       0.562  -0.967  -2.129  0.00  0.00    -0.047 A 
ATOM      5  C3  UNL d   1      -0.009   0.320  -2.271  0.00  0.00    -0.047 A 
ATOM      6  C4  UNL d   1      -0.311   0.777  -1.005  0.00  0.00    -0.004 A 
ENDROOT
TORSDOF 0
ENDMDL
