MODEL 1
REMARK minimizedAffinity -1.75677276
REMARK minimizedRMSD -1
REMARK  0 active torsions:
REMARK  status: ('A' for Active; 'I' for Inactive)
ROOT
ATOM      1  C   UNL d   1      -4.037   2.442  -5.985  0.00  0.00     0.172 C 
ATOM      2  N   UNL d   1      -4.562   3.785  -5.909  0.00  0.00    -0.070 N 
ATOM      3  C1  UNL d   1      -3.817   4.928  -5.798  0.00  0.00    -0.004 A 
ATOM      4  C2  UNL d   1      -4.686   5.997  -5.756  0.00  0.00    -0.047 A 
ATOM      5  C3  UNL d   1      -6.000   5.477  -5.844  0.00  0.00    -0.047 A 
ATOM      6  C4  UNL d   1      -5.893   4.106  -5.938  0.00  0.00    -0.004 A 
ENDROOT
TORSDOF 0
ENDMDL
