MODEL 1
REMARK minimizedAffinity -3.07477307
REMARK minimizedRMSD -1
REMARK  0 active torsions:
REMARK  status: ('A' for Active; 'I' for Inactive)
ROOT
ATOM      1  C   UNL d   1       0.229  -0.690  -2.259  0.00  0.00     0.172 C 
ATOM      2  N   UNL d   1       0.097  -0.708  -0.821  0.00  0.00    -0.070 N 
ATOM      3  C1  UNL d   1      -0.113   0.386  -0.025  0.00  0.00    -0.004 A 
ATOM      4  C2  UNL d   1      -0.182  -0.049   1.281  0.00  0.00    -0.047 A 
ATOM      5  C3  UNL d   1      -0.007  -1.453   1.269  0.00  0.00    -0.047 A 
ATOM      6  C4  UNL d   1       0.164  -1.835  -0.045  0.00  0.00    -0.004 A 
ENDROOT
TORSDOF 0
ENDMDL
