MODEL 1
REMARK minimizedAffinity -4.24359226
REMARK minimizedRMSD -1
REMARK  0 active torsions:
REMARK  status: ('A' for Active; 'I' for Inactive)
ROOT
ATOM      1  C   UNL d   1      -0.010   0.393   0.017  0.00  0.00     0.172 C 
ATOM      2  N   UNL d   1       0.720  -0.304  -1.016  0.00  0.00    -0.070 N 
ATOM      3  C1  UNL d   1       0.963  -1.652  -1.051  0.00  0.00    -0.004 A 
ATOM      4  C2  UNL d   1       1.687  -1.920  -2.192  0.00  0.00    -0.047 A 
ATOM      5  C3  UNL d   1       1.887  -0.692  -2.866  0.00  0.00    -0.047 A 
ATOM      6  C4  UNL d   1       1.278   0.292  -2.115  0.00  0.00    -0.004 A 
ENDROOT
TORSDOF 0
ENDMDL
