MODEL 1
REMARK minimizedAffinity -1.34327579
REMARK minimizedRMSD -1
REMARK  0 active torsions:
REMARK  status: ('A' for Active; 'I' for Inactive)
ROOT
ATOM      1  C   UNL d   1       0.721  -1.748  -0.096  0.00  0.00     0.172 C 
ATOM      2  N   UNL d   1       1.214  -0.420  -0.375  0.00  0.00    -0.070 N 
ATOM      3  C1  UNL d   1       2.176  -0.102  -1.297  0.00  0.00    -0.004 A 
ATOM      4  C2  UNL d   1       2.361   1.263  -1.259  0.00  0.00    -0.047 A 
ATOM      5  C3  UNL d   1       1.481   1.784  -0.281  0.00  0.00    -0.047 A 
ATOM      6  C4  UNL d   1       0.783   0.720   0.251  0.00  0.00    -0.004 A 
ENDROOT
TORSDOF 0
ENDMDL
