MODEL 1
REMARK minimizedAffinity -2.50835991
REMARK minimizedRMSD -1
REMARK  0 active torsions:
REMARK  status: ('A' for Active; 'I' for Inactive)
ROOT
ATOM      1  C   UNL d   1      -1.376   0.057   1.057  0.00  0.00     0.172 C 
ATOM      2  N   UNL d   1      -0.269   0.249   0.150  0.00  0.00    -0.070 N 
ATOM      3  C1  UNL d   1       0.486  -0.746  -0.412  0.00  0.00    -0.004 A 
ATOM      4  C2  UNL d   1       1.437  -0.154  -1.213  0.00  0.00    -0.047 A 
ATOM      5  C3  UNL d   1       1.250   1.246  -1.129  0.00  0.00    -0.047 A 
ATOM      6  C4  UNL d   1       0.187   1.468  -0.278  0.00  0.00    -0.004 A 
ENDROOT
TORSDOF 0
ENDMDL
