MODEL 1
REMARK minimizedAffinity -3.32629824
REMARK minimizedRMSD -1
REMARK  0 active torsions:
REMARK  status: ('A' for Active; 'I' for Inactive)
ROOT
ATOM      1  C   UNL d   1      -0.443   0.220   0.964  0.00  0.00     0.172 C 
ATOM      2  N   UNL d   1       0.604   0.253  -0.031  0.00  0.00    -0.070 N 
ATOM      3  C1  UNL d   1       1.128  -0.835  -0.675  0.00  0.00    -0.004 A 
ATOM      4  C2  UNL d   1       2.099  -0.384  -1.543  0.00  0.00    -0.047 A 
ATOM      5  C3  UNL d   1       2.162   1.023  -1.415  0.00  0.00    -0.047 A 
ATOM      6  C4  UNL d   1       1.225   1.392  -0.472  0.00  0.00    -0.004 A 
ENDROOT
TORSDOF 0
ENDMDL
