MODEL 1
REMARK minimizedAffinity -3.25075531
REMARK minimizedRMSD -1
REMARK  0 active torsions:
REMARK  status: ('A' for Active; 'I' for Inactive)
ROOT
ATOM      1  C   UNL d   1      -0.621   0.137   0.518  0.00  0.00     0.172 C 
ATOM      2  N   UNL d   1       0.474   0.307  -0.407  0.00  0.00    -0.070 N 
ATOM      3  C1  UNL d   1       1.200  -0.703  -0.980  0.00  0.00    -0.004 A 
ATOM      4  C2  UNL d   1       2.149  -0.130  -1.798  0.00  0.00    -0.047 A 
ATOM      5  C3  UNL d   1       1.990   1.273  -1.713  0.00  0.00    -0.047 A 
ATOM      6  C4  UNL d   1       0.946   1.516  -0.846  0.00  0.00    -0.004 A 
ENDROOT
TORSDOF 0
ENDMDL
