MODEL 1
REMARK minimizedAffinity -3.617342
REMARK minimizedRMSD -1
REMARK  0 active torsions:
REMARK  status: ('A' for Active; 'I' for Inactive)
ROOT
ATOM      1  C   UNL d   1      -0.201  -0.367   1.037  0.00  0.00     0.172 C 
ATOM      2  N   UNL d   1       0.694  -0.079  -0.059  0.00  0.00    -0.070 N 
ATOM      3  C1  UNL d   1       1.037   1.170  -0.503  0.00  0.00    -0.004 A 
ATOM      4  C2  UNL d   1       1.907   1.018  -1.561  0.00  0.00    -0.047 A 
ATOM      5  C3  UNL d   1       2.093  -0.371  -1.760  0.00  0.00    -0.047 A 
ATOM      6  C4  UNL d   1       1.330  -1.027  -0.817  0.00  0.00    -0.004 A 
ENDROOT
TORSDOF 0
ENDMDL
