MODEL 1
REMARK minimizedAffinity -2.65687704
REMARK minimizedRMSD -1
REMARK  0 active torsions:
REMARK  status: ('A' for Active; 'I' for Inactive)
ROOT
ATOM      1  C   UNL d   1       0.357  -0.072  -0.046  0.00  0.00     0.172 C 
ATOM      2  N   UNL d   1      -0.886   0.078   0.674  0.00  0.00    -0.070 N 
ATOM      3  C1  UNL d   1      -2.100   0.378   0.116  0.00  0.00    -0.004 A 
ATOM      4  C2  UNL d   1      -3.030   0.431   1.132  0.00  0.00    -0.047 A 
ATOM      5  C3  UNL d   1      -2.351   0.155   2.342  0.00  0.00    -0.047 A 
ATOM      6  C4  UNL d   1      -1.025  -0.059   2.029  0.00  0.00    -0.004 A 
ENDROOT
TORSDOF 0
ENDMDL
