MODEL 1
REMARK minimizedAffinity -1.56138945
REMARK minimizedRMSD -1
REMARK  0 active torsions:
REMARK  status: ('A' for Active; 'I' for Inactive)
ROOT
ATOM      1  C   UNL d   1      -0.395  -0.097   1.398  0.00  0.00     0.172 C 
ATOM      2  N   UNL d   1       0.614  -0.071   0.365  0.00  0.00    -0.070 N 
ATOM      3  C1  UNL d   1       1.365   1.017   0.009  0.00  0.00    -0.004 A 
ATOM      4  C2  UNL d   1       2.208   0.633  -1.011  0.00  0.00    -0.047 A 
ATOM      5  C3  UNL d   1       1.954  -0.733  -1.279  0.00  0.00    -0.047 A 
ATOM      6  C4  UNL d   1       0.963  -1.144  -0.413  0.00  0.00    -0.004 A 
ENDROOT
TORSDOF 0
ENDMDL
