MODEL 1
REMARK minimizedAffinity -2.01985431
REMARK minimizedRMSD -1
REMARK  0 active torsions:
REMARK  status: ('A' for Active; 'I' for Inactive)
ROOT
ATOM      1  C   UNL d   1      -0.151   0.043   0.147  0.00  0.00     0.172 C 
ATOM      2  N   UNL d   1       0.865   0.474  -0.785  0.00  0.00    -0.070 N 
ATOM      3  C1  UNL d   1       0.884   1.672  -1.446  0.00  0.00    -0.004 A 
ATOM      4  C2  UNL d   1       2.013   1.700  -2.237  0.00  0.00    -0.047 A 
ATOM      5  C3  UNL d   1       2.694   0.474  -2.045  0.00  0.00    -0.047 A 
ATOM      6  C4  UNL d   1       1.962  -0.266  -1.141  0.00  0.00    -0.004 A 
ENDROOT
TORSDOF 0
ENDMDL
