MODEL 1
REMARK minimizedAffinity -2.28056073
REMARK minimizedRMSD -1
REMARK  0 active torsions:
REMARK  status: ('A' for Active; 'I' for Inactive)
ROOT
ATOM      1  C   UNL d   1      -0.796  -0.659   1.896  0.00  0.00     0.172 C 
ATOM      2  N   UNL d   1      -2.023   0.101   1.845  0.00  0.00    -0.070 N 
ATOM      3  C1  UNL d   1      -3.251  -0.391   1.493  0.00  0.00    -0.004 A 
ATOM      4  C2  UNL d   1      -4.158   0.645   1.570  0.00  0.00    -0.047 A 
ATOM      5  C3  UNL d   1      -3.449   1.798   1.982  0.00  0.00    -0.047 A 
ATOM      6  C4  UNL d   1      -2.130   1.433   2.145  0.00  0.00    -0.004 A 
ENDROOT
TORSDOF 0
ENDMDL
