MODEL 1
REMARK minimizedAffinity -3.2467742
REMARK minimizedRMSD -1
REMARK  0 active torsions:
REMARK  status: ('A' for Active; 'I' for Inactive)
ROOT
ATOM      1  C   UNL d   1      -0.239  -0.034   0.013  0.00  0.00     0.172 C 
ATOM      2  N   UNL d   1      -1.481   0.088   0.738  0.00  0.00    -0.070 N 
ATOM      3  C1  UNL d   1      -2.733  -0.088   0.211  0.00  0.00    -0.004 A 
ATOM      4  C2  UNL d   1      -3.648   0.115   1.222  0.00  0.00    -0.047 A 
ATOM      5  C3  UNL d   1      -2.921   0.423   2.396  0.00  0.00    -0.047 A 
ATOM      6  C4  UNL d   1      -1.582   0.400   2.068  0.00  0.00    -0.004 A 
ENDROOT
TORSDOF 0
ENDMDL
