MODEL 1
REMARK minimizedAffinity 4.52147722
REMARK minimizedRMSD -1
REMARK  2 active torsions:
REMARK  status: ('A' for Active; 'I' for Inactive)
REMARK    1  A    between atoms: C1_2  and  C2_3 
REMARK    2  A    between atoms: C2_3  and  C3_4 
ROOT
ATOM      1  C3  UNL d   1       0.052   2.704   0.775  0.00  0.00    -0.075 A 
ATOM      2  C4  UNL d   1       0.349   4.026   0.411  0.00  0.00     0.002 A 
ATOM      3  C5  UNL d   1      -0.046   4.524  -0.831  0.00  0.00     0.002 A 
ATOM      4  C6  UNL d   1      -0.732   3.707  -1.727  0.00  0.00    -0.004 A 
ATOM      5  C7  UNL d   1      -1.018   2.388  -1.383  0.00  0.00     0.002 A 
ATOM      6  C8  UNL d   1      -0.628   1.888  -0.139  0.00  0.00     0.002 A 
ENDROOT
BRANCH   1   7
ATOM      7  C2  UNL d   1       0.450   2.168   2.129  0.00  0.00     0.056 C 
BRANCH   7   8
ATOM      8  C1  UNL d   1      -0.277   0.879   2.528  0.00  0.00     0.007 C 
ATOM      9  C   UNL d   1       0.525  -0.380   2.227  0.00  0.00     0.009 C 
ENDBRANCH   7   8
ENDBRANCH   1   7
TORSDOF 2
ENDMDL
