MODEL 1
REMARK minimizedAffinity 4.27669477
REMARK minimizedRMSD -1
REMARK  2 active torsions:
REMARK  status: ('A' for Active; 'I' for Inactive)
REMARK    1  A    between atoms: C1_2  and  C2_3 
REMARK    2  A    between atoms: C2_3  and  C3_4 
ROOT
ATOM      1  C3  UNL d   1       0.941   0.866   2.272  0.00  0.00    -0.075 A 
ATOM      2  C4  UNL d   1      -0.136   0.527   1.439  0.00  0.00     0.002 A 
ATOM      3  C5  UNL d   1      -1.041   1.502   1.020  0.00  0.00     0.002 A 
ATOM      4  C6  UNL d   1      -0.888   2.824   1.434  0.00  0.00    -0.004 A 
ATOM      5  C7  UNL d   1       0.168   3.168   2.275  0.00  0.00     0.002 A 
ATOM      6  C8  UNL d   1       1.078   2.196   2.692  0.00  0.00     0.002 A 
ENDROOT
BRANCH   1   7
ATOM      7  C2  UNL d   1       1.941  -0.179   2.705  0.00  0.00     0.056 C 
BRANCH   7   8
ATOM      8  C1  UNL d   1       1.322  -1.357   3.465  0.00  0.00     0.007 C 
ATOM      9  C   UNL d   1       2.334  -2.134   4.296  0.00  0.00     0.009 C 
ENDBRANCH   7   8
ENDBRANCH   1   7
TORSDOF 2
ENDMDL
