MODEL 1
REMARK minimizedAffinity 4.90223885
REMARK minimizedRMSD -1
REMARK  2 active torsions:
REMARK  status: ('A' for Active; 'I' for Inactive)
REMARK    1  A    between atoms: C1_2  and  C2_3 
REMARK    2  A    between atoms: C2_3  and  C3_4 
ROOT
ATOM      1  C3  UNL d   1      -0.149   2.234   0.652  0.00  0.00    -0.075 A 
ATOM      2  C4  UNL d   1      -0.005   1.079  -0.130  0.00  0.00     0.002 A 
ATOM      3  C5  UNL d   1      -0.116   1.145  -1.519  0.00  0.00     0.002 A 
ATOM      4  C6  UNL d   1      -0.383   2.363  -2.142  0.00  0.00    -0.004 A 
ATOM      5  C7  UNL d   1      -0.545   3.513  -1.373  0.00  0.00     0.002 A 
ATOM      6  C8  UNL d   1      -0.429   3.450   0.016  0.00  0.00     0.002 A 
ENDROOT
BRANCH   1   7
ATOM      7  C2  UNL d   1      -0.000   2.173   2.154  0.00  0.00     0.056 C 
BRANCH   7   8
ATOM      8  C1  UNL d   1      -0.945   1.177   2.835  0.00  0.00     0.007 C 
ATOM      9  C   UNL d   1      -0.224   0.196   3.750  0.00  0.00     0.009 C 
ENDBRANCH   7   8
ENDBRANCH   1   7
TORSDOF 2
ENDMDL
