MODEL 1
REMARK minimizedAffinity 5.66883469
REMARK minimizedRMSD -1
REMARK  2 active torsions:
REMARK  status: ('A' for Active; 'I' for Inactive)
REMARK    1  A    between atoms: C1_2  and  C2_3 
REMARK    2  A    between atoms: C2_3  and  C3_4 
ROOT
ATOM      1  C3  UNL d   1      -0.929  -1.463  -2.388  0.00  0.00    -0.075 A 
ATOM      2  C4  UNL d   1      -1.166  -1.062  -3.710  0.00  0.00     0.002 A 
ATOM      3  C5  UNL d   1      -0.560   0.086  -4.222  0.00  0.00     0.002 A 
ATOM      4  C6  UNL d   1       0.280   0.852  -3.416  0.00  0.00    -0.004 A 
ATOM      5  C7  UNL d   1       0.509   0.471  -2.096  0.00  0.00     0.002 A 
ATOM      6  C8  UNL d   1      -0.092  -0.679  -1.583  0.00  0.00     0.002 A 
ENDROOT
BRANCH   1   7
ATOM      7  C2  UNL d   1      -1.558  -2.721  -1.838  0.00  0.00     0.056 C 
BRANCH   7   8
ATOM      8  C1  UNL d   1      -0.930  -4.015  -2.365  0.00  0.00     0.007 C 
ATOM      9  C   UNL d   1      -0.465  -4.952  -1.258  0.00  0.00     0.009 C 
ENDBRANCH   7   8
ENDBRANCH   1   7
TORSDOF 2
ENDMDL
