MODEL 1
REMARK minimizedAffinity 1.069911
REMARK minimizedRMSD -1
REMARK  2 active torsions:
REMARK  status: ('A' for Active; 'I' for Inactive)
REMARK    1  A    between atoms: C1_2  and  C2_3 
REMARK    2  A    between atoms: C2_3  and  C3_4 
ROOT
ATOM      1  C3  UNL d   1       0.686   1.737   0.676  0.00  0.00    -0.075 A 
ATOM      2  C4  UNL d   1       0.542   0.374   0.380  0.00  0.00     0.002 A 
ATOM      3  C5  UNL d   1       0.347  -0.556   1.402  0.00  0.00     0.002 A 
ATOM      4  C6  UNL d   1       0.303  -0.137   2.730  0.00  0.00    -0.004 A 
ATOM      5  C7  UNL d   1       0.462   1.212   3.037  0.00  0.00     0.002 A 
ATOM      6  C8  UNL d   1       0.653   2.146   2.016  0.00  0.00     0.002 A 
ENDROOT
BRANCH   1   7
ATOM      7  C2  UNL d   1       0.868   2.753  -0.427  0.00  0.00     0.056 C 
BRANCH   7   8
ATOM      8  C1  UNL d   1       1.101   4.182   0.073  0.00  0.00     0.007 C 
ATOM      9  C   UNL d   1       1.056   5.222  -1.038  0.00  0.00     0.009 C 
ENDBRANCH   7   8
ENDBRANCH   1   7
TORSDOF 2
ENDMDL
