MODEL 1
REMARK minimizedAffinity 4.11257505
REMARK minimizedRMSD -1
REMARK  2 active torsions:
REMARK  status: ('A' for Active; 'I' for Inactive)
REMARK    1  A    between atoms: C1_2  and  C2_3 
REMARK    2  A    between atoms: C2_3  and  C3_4 
ROOT
ATOM      1  C3  UNL d   1       0.488   1.336   1.906  0.00  0.00    -0.075 A 
ATOM      2  C4  UNL d   1       1.335   0.376   2.479  0.00  0.00     0.002 A 
ATOM      3  C5  UNL d   1       1.716  -0.755   1.756  0.00  0.00     0.002 A 
ATOM      4  C6  UNL d   1       1.248  -0.945   0.458  0.00  0.00    -0.004 A 
ATOM      5  C7  UNL d   1       0.392  -0.007  -0.115  0.00  0.00     0.002 A 
ATOM      6  C8  UNL d   1       0.013   1.128   0.604  0.00  0.00     0.002 A 
ENDROOT
BRANCH   1   7
ATOM      7  C2  UNL d   1       0.096   2.577   2.672  0.00  0.00     0.056 C 
BRANCH   7   8
ATOM      8  C1  UNL d   1       1.075   3.744   2.512  0.00  0.00     0.007 C 
ATOM      9  C   UNL d   1       1.108   4.310   1.098  0.00  0.00     0.009 C 
ENDBRANCH   7   8
ENDBRANCH   1   7
TORSDOF 2
ENDMDL
