MODEL 1
REMARK minimizedAffinity -1.24023032
REMARK minimizedRMSD -1
REMARK  2 active torsions:
REMARK  status: ('A' for Active; 'I' for Inactive)
REMARK    1  A    between atoms: C1_2  and  C2_3 
REMARK    2  A    between atoms: C2_3  and  C3_4 
ROOT
ATOM      1  C3  UNL d   1       0.532   1.615   1.304  0.00  0.00    -0.075 A 
ATOM      2  C4  UNL d   1       0.978   0.683   2.252  0.00  0.00     0.002 A 
ATOM      3  C5  UNL d   1       1.597  -0.500   1.846  0.00  0.00     0.002 A 
ATOM      4  C6  UNL d   1       1.769  -0.769   0.490  0.00  0.00    -0.004 A 
ATOM      5  C7  UNL d   1       1.315   0.142  -0.461  0.00  0.00     0.002 A 
ATOM      6  C8  UNL d   1       0.699   1.328  -0.057  0.00  0.00     0.002 A 
ENDROOT
BRANCH   1   7
ATOM      7  C2  UNL d   1      -0.113   2.910   1.738  0.00  0.00     0.056 C 
BRANCH   7   8
ATOM      8  C1  UNL d   1      -0.178   3.974   0.637  0.00  0.00     0.007 C 
ATOM      9  C   UNL d   1       1.153   4.675   0.401  0.00  0.00     0.009 C 
ENDBRANCH   7   8
ENDBRANCH   1   7
TORSDOF 2
ENDMDL
