MODEL 1
REMARK minimizedAffinity 1.03068507
REMARK minimizedRMSD -1
REMARK  0 active torsions:
REMARK  status: ('A' for Active; 'I' for Inactive)
ROOT
ATOM      1  C   UNL d   1      -1.730   2.229   0.868  0.00  0.00     0.023 A 
ATOM      2  C1  UNL d   1      -1.346   2.338   2.205  0.00  0.00     0.003 A 
ATOM      3  C2  UNL d   1      -0.579   1.332   2.797  0.00  0.00     0.048 A 
ATOM      4  C3  UNL d   1      -0.199   0.220   2.046  0.00  0.00     0.023 A 
ATOM      5  C4  UNL d   1      -0.579   0.107   0.708  0.00  0.00     0.048 A 
ATOM      6  C5  UNL d   1      -1.347   1.115   0.120  0.00  0.00     0.003 A 
ATOM      7  I   UNL d   1       0.943  -1.278   2.924  0.00  0.00    -0.146 I 
ENDROOT
TORSDOF 0
ENDMDL
