MODEL 1
REMARK minimizedAffinity 5.19801426
REMARK minimizedRMSD -1
REMARK  0 active torsions:
REMARK  status: ('A' for Active; 'I' for Inactive)
ROOT
ATOM      1  C   UNL d   1      -1.409   1.364  -1.457  0.00  0.00     0.023 A 
ATOM      2  C1  UNL d   1      -0.071   1.722  -1.289  0.00  0.00     0.003 A 
ATOM      3  C2  UNL d   1       0.356   2.283  -0.084  0.00  0.00     0.048 A 
ATOM      4  C3  UNL d   1      -0.559   2.482   0.950  0.00  0.00     0.023 A 
ATOM      5  C4  UNL d   1      -1.898   2.124   0.786  0.00  0.00     0.048 A 
ATOM      6  C5  UNL d   1      -2.321   1.564  -0.421  0.00  0.00     0.003 A 
ATOM      7  I   UNL d   1       0.076   3.317   2.744  0.00  0.00    -0.146 I 
ENDROOT
TORSDOF 0
ENDMDL
