MODEL 1
REMARK minimizedAffinity -2.34176874
REMARK minimizedRMSD -1
REMARK  0 active torsions:
REMARK  status: ('A' for Active; 'I' for Inactive)
ROOT
ATOM      1  C   UNL d   1      -1.777   3.289   1.346  0.00  0.00     0.023 A 
ATOM      2  C1  UNL d   1      -1.785   2.944  -0.005  0.00  0.00     0.003 A 
ATOM      3  C2  UNL d   1      -1.107   1.804  -0.440  0.00  0.00     0.048 A 
ATOM      4  C3  UNL d   1      -0.424   1.012   0.482  0.00  0.00     0.023 A 
ATOM      5  C4  UNL d   1      -0.414   1.352   1.836  0.00  0.00     0.048 A 
ATOM      6  C5  UNL d   1      -1.092   2.494   2.266  0.00  0.00     0.003 A 
ATOM      7  I   UNL d   1       0.585  -0.687  -0.163  0.00  0.00    -0.146 I 
ENDROOT
TORSDOF 0
ENDMDL
