MODEL 1
REMARK minimizedAffinity -2.98130584
REMARK minimizedRMSD -1
REMARK  0 active torsions:
REMARK  status: ('A' for Active; 'I' for Inactive)
ROOT
ATOM      1  C   UNL d   1       1.265  -1.088  -1.039  0.00  0.00     0.023 A 
ATOM      2  C1  UNL d   1       0.836   0.080  -1.670  0.00  0.00     0.003 A 
ATOM      3  C2  UNL d   1      -0.006   0.969  -0.999  0.00  0.00     0.048 A 
ATOM      4  C3  UNL d   1      -0.416   0.684   0.303  0.00  0.00     0.023 A 
ATOM      5  C4  UNL d   1       0.011  -0.483   0.939  0.00  0.00     0.048 A 
ATOM      6  C5  UNL d   1       0.853  -1.369   0.263  0.00  0.00     0.003 A 
ATOM      7  I   UNL d   1      -1.669   2.006   1.304  0.00  0.00    -0.146 I 
ENDROOT
TORSDOF 0
ENDMDL
