MODEL 1
REMARK minimizedAffinity -2.12442875
REMARK minimizedRMSD -1
REMARK  0 active torsions:
REMARK  status: ('A' for Active; 'I' for Inactive)
ROOT
ATOM      1  C   UNL d   1      -1.519   1.847   1.596  0.00  0.00     0.023 A 
ATOM      2  C1  UNL d   1      -1.354   2.049   0.225  0.00  0.00     0.003 A 
ATOM      3  C2  UNL d   1      -0.657   1.112  -0.540  0.00  0.00     0.048 A 
ATOM      4  C3  UNL d   1      -0.128  -0.024   0.070  0.00  0.00     0.023 A 
ATOM      5  C4  UNL d   1      -0.292  -0.231   1.441  0.00  0.00     0.048 A 
ATOM      6  C5  UNL d   1      -0.989   0.709   2.203  0.00  0.00     0.003 A 
ATOM      7  I   UNL d   1       0.910  -1.420  -1.067  0.00  0.00    -0.146 I 
ENDROOT
TORSDOF 0
ENDMDL
