MODEL 1
REMARK minimizedAffinity -2.43535161
REMARK minimizedRMSD -1
REMARK  0 active torsions:
REMARK  status: ('A' for Active; 'I' for Inactive)
ROOT
ATOM      1  C   UNL d   1      -1.709   2.267   1.844  0.00  0.00     0.023 A 
ATOM      2  C1  UNL d   1      -1.768   2.161   0.454  0.00  0.00     0.003 A 
ATOM      3  C2  UNL d   1      -1.094   1.127  -0.198  0.00  0.00     0.048 A 
ATOM      4  C3  UNL d   1      -0.363   0.201   0.546  0.00  0.00     0.023 A 
ATOM      5  C4  UNL d   1      -0.302   0.302   1.937  0.00  0.00     0.048 A 
ATOM      6  C5  UNL d   1      -0.977   1.339   2.584  0.00  0.00     0.003 A 
ATOM      7  I   UNL d   1       0.642  -1.340  -0.422  0.00  0.00    -0.146 I 
ENDROOT
TORSDOF 0
ENDMDL
