MODEL 1
REMARK minimizedAffinity -2.26501989
REMARK minimizedRMSD -1
REMARK  0 active torsions:
REMARK  status: ('A' for Active; 'I' for Inactive)
ROOT
ATOM      1  C   UNL d   1      -1.001   1.493   2.096  0.00  0.00     0.023 A 
ATOM      2  C1  UNL d   1      -0.254   0.377   2.473  0.00  0.00     0.003 A 
ATOM      3  C2  UNL d   1       0.217  -0.510   1.503  0.00  0.00     0.048 A 
ATOM      4  C3  UNL d   1      -0.061  -0.274   0.157  0.00  0.00     0.023 A 
ATOM      5  C4  UNL d   1      -0.807   0.842  -0.225  0.00  0.00     0.048 A 
ATOM      6  C5  UNL d   1      -1.277   1.726   0.748  0.00  0.00     0.003 A 
ATOM      7  I   UNL d   1       0.639  -1.593  -1.288  0.00  0.00    -0.146 I 
ENDROOT
TORSDOF 0
ENDMDL
