MODEL 1
REMARK minimizedAffinity -3.60131788
REMARK minimizedRMSD -1
REMARK  0 active torsions:
REMARK  status: ('A' for Active; 'I' for Inactive)
ROOT
ATOM      1  C   UNL d   1      -1.628   1.109   2.112  0.00  0.00     0.023 A 
ATOM      2  C1  UNL d   1      -0.919  -0.053   2.415  0.00  0.00     0.003 A 
ATOM      3  C2  UNL d   1      -0.091  -0.638   1.455  0.00  0.00     0.048 A 
ATOM      4  C3  UNL d   1       0.025  -0.054   0.194  0.00  0.00     0.023 A 
ATOM      5  C4  UNL d   1      -0.682   1.109  -0.114  0.00  0.00     0.048 A 
ATOM      6  C5  UNL d   1      -1.510   1.690   0.849  0.00  0.00     0.003 A 
ATOM      7  I   UNL d   1       1.257  -0.923  -1.237  0.00  0.00    -0.146 I 
ENDROOT
TORSDOF 0
ENDMDL
