MODEL 1
REMARK minimizedAffinity -3.73081231
REMARK minimizedRMSD -1
REMARK  0 active torsions:
REMARK  status: ('A' for Active; 'I' for Inactive)
ROOT
ATOM      1  C   UNL d   1      -2.045   2.043   1.533  0.00  0.00     0.023 A 
ATOM      2  C1  UNL d   1      -1.672   0.895   2.232  0.00  0.00     0.003 A 
ATOM      3  C2  UNL d   1      -0.773  -0.010   1.663  0.00  0.00     0.048 A 
ATOM      4  C3  UNL d   1      -0.252   0.239   0.394  0.00  0.00     0.023 A 
ATOM      5  C4  UNL d   1      -0.622   1.387  -0.309  0.00  0.00     0.048 A 
ATOM      6  C5  UNL d   1      -1.521   2.288   0.263  0.00  0.00     0.003 A 
ATOM      7  I   UNL d   1       1.086  -1.106  -0.455  0.00  0.00    -0.146 I 
ENDROOT
TORSDOF 0
ENDMDL
