MODEL 1
REMARK minimizedAffinity -4.4505806
REMARK minimizedRMSD -1
REMARK  0 active torsions:
REMARK  status: ('A' for Active; 'I' for Inactive)
ROOT
ATOM      1  C   UNL d   1      -1.768   1.814   1.662  0.00  0.00     0.023 A 
ATOM      2  C1  UNL d   1      -1.572   2.167   0.327  0.00  0.00     0.003 A 
ATOM      3  C2  UNL d   1      -0.747   1.390  -0.488  0.00  0.00     0.048 A 
ATOM      4  C3  UNL d   1      -0.122   0.260   0.038  0.00  0.00     0.023 A 
ATOM      5  C4  UNL d   1      -0.316  -0.098   1.373  0.00  0.00     0.048 A 
ATOM      6  C5  UNL d   1      -1.141   0.683   2.184  0.00  0.00     0.003 A 
ATOM      7  I   UNL d   1       1.107  -0.898  -1.174  0.00  0.00    -0.146 I 
ENDROOT
TORSDOF 0
ENDMDL
