MODEL 1
REMARK minimizedAffinity -4.57945633
REMARK minimizedRMSD -1
REMARK  0 active torsions:
REMARK  status: ('A' for Active; 'I' for Inactive)
ROOT
ATOM      1  C   UNL d   1      -1.734   1.781   1.946  0.00  0.00     0.023 A 
ATOM      2  C1  UNL d   1      -1.430   2.101   0.622  0.00  0.00     0.003 A 
ATOM      3  C2  UNL d   1      -0.663   1.226  -0.150  0.00  0.00     0.048 A 
ATOM      4  C3  UNL d   1      -0.205   0.033   0.407  0.00  0.00     0.023 A 
ATOM      5  C4  UNL d   1      -0.507  -0.292   1.730  0.00  0.00     0.048 A 
ATOM      6  C5  UNL d   1      -1.274   0.587   2.499  0.00  0.00     0.003 A 
ATOM      7  I   UNL d   1       0.936  -1.271  -0.741  0.00  0.00    -0.146 I 
ENDROOT
TORSDOF 0
ENDMDL
