MODEL 1
REMARK minimizedAffinity 1.06283283
REMARK minimizedRMSD -1
REMARK  1 active torsions:
REMARK  status: ('A' for Active; 'I' for Inactive)
REMARK    1  A    between atoms: C1_2  and  C2_3 
ROOT
ATOM      1  C2  UNL d   1       3.744   5.188  -0.025  0.00  0.00    -0.077 A 
ATOM      2  C3  UNL d   1       4.855   5.996  -0.308  0.00  0.00     0.002 A 
ATOM      3  C4  UNL d   1       5.974   5.976   0.527  0.00  0.00     0.002 A 
ATOM      4  C5  UNL d   1       5.995   5.148   1.647  0.00  0.00    -0.004 A 
ATOM      5  C6  UNL d   1       4.895   4.343   1.938  0.00  0.00     0.002 A 
ATOM      6  C7  UNL d   1       3.775   4.362   1.106  0.00  0.00     0.002 A 
ENDROOT
BRANCH   1   7
ATOM      7  C1  UNL d   1       2.556   5.172  -0.951  0.00  0.00     0.055 C 
ATOM      8  C   UNL d   1       2.904   5.767  -2.307  0.00  0.00     0.019 C 
ENDBRANCH   1   7
TORSDOF 1
ENDMDL
