MODEL 1
REMARK minimizedAffinity 3.01382518
REMARK minimizedRMSD -1
REMARK  1 active torsions:
REMARK  status: ('A' for Active; 'I' for Inactive)
REMARK    1  A    between atoms: C1_2  and  C2_3 
ROOT
ATOM      1  C2  UNL d   1       5.048  -2.982   4.918  0.00  0.00    -0.077 A 
ATOM      2  C3  UNL d   1       6.000  -3.700   5.656  0.00  0.00     0.002 A 
ATOM      3  C4  UNL d   1       5.768  -5.034   6.000  0.00  0.00     0.002 A 
ATOM      4  C5  UNL d   1       4.589  -5.661   5.606  0.00  0.00    -0.004 A 
ATOM      5  C6  UNL d   1       3.635  -4.955   4.873  0.00  0.00     0.002 A 
ATOM      6  C7  UNL d   1       3.864  -3.622   4.530  0.00  0.00     0.002 A 
ENDROOT
BRANCH   1   7
ATOM      7  C1  UNL d   1       5.318  -1.559   4.505  0.00  0.00     0.055 C 
ATOM      8  C   UNL d   1       4.145  -0.977   3.728  0.00  0.00     0.019 C 
ENDBRANCH   1   7
TORSDOF 1
ENDMDL
