MODEL 1
REMARK minimizedAffinity 12.0302782
REMARK minimizedRMSD -1
REMARK  1 active torsions:
REMARK  status: ('A' for Active; 'I' for Inactive)
REMARK    1  A    between atoms: C1_2  and  C2_3 
ROOT
ATOM      1  C2  UNL d   1      -4.547   4.832   4.148  0.00  0.00    -0.077 A 
ATOM      2  C3  UNL d   1      -4.633   5.700   5.245  0.00  0.00     0.002 A 
ATOM      3  C4  UNL d   1      -3.497   6.000   6.000  0.00  0.00     0.002 A 
ATOM      4  C5  UNL d   1      -2.267   5.439   5.663  0.00  0.00    -0.004 A 
ATOM      5  C6  UNL d   1      -2.171   4.572   4.575  0.00  0.00     0.002 A 
ATOM      6  C7  UNL d   1      -3.306   4.271   3.820  0.00  0.00     0.002 A 
ENDROOT
BRANCH   1   7
ATOM      7  C1  UNL d   1      -5.761   4.546   3.304  0.00  0.00     0.055 C 
ATOM      8  C   UNL d   1      -5.506   4.873   1.839  0.00  0.00     0.019 C 
ENDBRANCH   1   7
TORSDOF 1
ENDMDL
