MODEL 1
REMARK minimizedAffinity 14.0946102
REMARK minimizedRMSD -1
REMARK  1 active torsions:
REMARK  status: ('A' for Active; 'I' for Inactive)
REMARK    1  A    between atoms: C1_2  and  C2_3 
ROOT
ATOM      1  C2  UNL d   1      -0.989   0.525  -1.127  0.00  0.00    -0.077 A 
ATOM      2  C3  UNL d   1      -1.142   1.667  -1.926  0.00  0.00     0.002 A 
ATOM      3  C4  UNL d   1      -0.075   2.141  -2.691  0.00  0.00     0.002 A 
ATOM      4  C5  UNL d   1       1.150   1.477  -2.669  0.00  0.00    -0.004 A 
ATOM      5  C6  UNL d   1       1.312   0.341  -1.876  0.00  0.00     0.002 A 
ATOM      6  C7  UNL d   1       0.248  -0.133  -1.109  0.00  0.00     0.002 A 
ENDROOT
BRANCH   1   7
ATOM      7  C1  UNL d   1      -2.153  -0.016  -0.338  0.00  0.00     0.055 C 
ATOM      8  C   UNL d   1      -2.021   0.315   1.141  0.00  0.00     0.019 C 
ENDBRANCH   1   7
TORSDOF 1
ENDMDL
