MODEL 1
REMARK minimizedAffinity 12.3506279
REMARK minimizedRMSD -1
REMARK  1 active torsions:
REMARK  status: ('A' for Active; 'I' for Inactive)
REMARK    1  A    between atoms: C1_2  and  C2_3 
ROOT
ATOM      1  C2  UNL d   1      -3.812   0.442   3.535  0.00  0.00    -0.077 A 
ATOM      2  C3  UNL d   1      -2.633   1.198   3.591  0.00  0.00     0.002 A 
ATOM      3  C4  UNL d   1      -2.587   2.479   3.038  0.00  0.00     0.002 A 
ATOM      4  C5  UNL d   1      -3.719   3.016   2.429  0.00  0.00    -0.004 A 
ATOM      5  C6  UNL d   1      -4.896   2.272   2.366  0.00  0.00     0.002 A 
ATOM      6  C7  UNL d   1      -4.943   0.991   2.918  0.00  0.00     0.002 A 
ENDROOT
BRANCH   1   7
ATOM      7  C1  UNL d   1      -3.877  -0.920   4.175  0.00  0.00     0.055 C 
ATOM      8  C   UNL d   1      -4.297  -0.827   5.635  0.00  0.00     0.019 C 
ENDBRANCH   1   7
TORSDOF 1
ENDMDL
