MODEL 1
REMARK minimizedAffinity 16.2157745
REMARK minimizedRMSD -1
REMARK  1 active torsions:
REMARK  status: ('A' for Active; 'I' for Inactive)
REMARK    1  A    between atoms: C1_2  and  C2_3 
ROOT
ATOM      1  C2  UNL d   1       1.673  -2.088  -1.958  0.00  0.00    -0.077 A 
ATOM      2  C3  UNL d   1       0.942  -2.835  -2.892  0.00  0.00     0.002 A 
ATOM      3  C4  UNL d   1       0.347  -2.207  -3.988  0.00  0.00     0.002 A 
ATOM      4  C5  UNL d   1       0.481  -0.832  -4.163  0.00  0.00    -0.004 A 
ATOM      5  C6  UNL d   1       1.205  -0.080  -3.239  0.00  0.00     0.002 A 
ATOM      6  C7  UNL d   1       1.799  -0.705  -2.142  0.00  0.00     0.002 A 
ENDROOT
BRANCH   1   7
ATOM      7  C1  UNL d   1       2.357  -2.770  -0.802  0.00  0.00     0.055 C 
ATOM      8  C   UNL d   1       3.367  -1.848  -0.134  0.00  0.00     0.019 C 
ENDBRANCH   1   7
TORSDOF 1
ENDMDL
