MODEL 1
REMARK minimizedAffinity 12.0720387
REMARK minimizedRMSD -1
REMARK  1 active torsions:
REMARK  status: ('A' for Active; 'I' for Inactive)
REMARK    1  A    between atoms: C1_2  and  C2_3 
ROOT
ATOM      1  C2  UNL d   1      -3.233   3.981   4.057  0.00  0.00    -0.077 A 
ATOM      2  C3  UNL d   1      -4.274   4.011   4.997  0.00  0.00     0.002 A 
ATOM      3  C4  UNL d   1      -4.322   5.016   5.965  0.00  0.00     0.002 A 
ATOM      4  C5  UNL d   1      -3.335   6.000   6.000  0.00  0.00    -0.004 A 
ATOM      5  C6  UNL d   1      -2.295   5.977   5.071  0.00  0.00     0.002 A 
ATOM      6  C7  UNL d   1      -2.245   4.972   4.104  0.00  0.00     0.002 A 
ENDROOT
BRANCH   1   7
ATOM      7  C1  UNL d   1      -3.207   2.926   2.982  0.00  0.00     0.055 C 
ATOM      8  C   UNL d   1      -2.302   1.765   3.367  0.00  0.00     0.019 C 
ENDBRANCH   1   7
TORSDOF 1
ENDMDL
