MODEL 1
REMARK minimizedAffinity 9.93923187
REMARK minimizedRMSD -1
REMARK  1 active torsions:
REMARK  status: ('A' for Active; 'I' for Inactive)
REMARK    1  A    between atoms: C1_2  and  C2_3 
ROOT
ATOM      1  C2  UNL d   1       2.197   0.068  -1.870  0.00  0.00    -0.077 A 
ATOM      2  C3  UNL d   1       3.060   0.757  -2.734  0.00  0.00     0.002 A 
ATOM      3  C4  UNL d   1       4.439   0.552  -2.665  0.00  0.00     0.002 A 
ATOM      4  C5  UNL d   1       4.967  -0.342  -1.737  0.00  0.00    -0.004 A 
ATOM      5  C6  UNL d   1       4.117  -1.030  -0.871  0.00  0.00     0.002 A 
ATOM      6  C7  UNL d   1       2.738  -0.826  -0.938  0.00  0.00     0.002 A 
ENDROOT
BRANCH   1   7
ATOM      7  C1  UNL d   1       0.705   0.250  -1.976  0.00  0.00     0.055 C 
ATOM      8  C   UNL d   1       0.337   1.113  -3.175  0.00  0.00     0.019 C 
ENDBRANCH   1   7
TORSDOF 1
ENDMDL
