MODEL 1
REMARK minimizedAffinity -1.74450231
REMARK minimizedRMSD -1
REMARK  1 active torsions:
REMARK  status: ('A' for Active; 'I' for Inactive)
REMARK    1  A    between atoms: C1_2  and  C2_3 
ROOT
ATOM      1  C2  UNL d   1       1.303   1.168  -1.850  0.00  0.00    -0.077 A 
ATOM      2  C3  UNL d   1       0.017   1.325  -1.315  0.00  0.00     0.002 A 
ATOM      3  C4  UNL d   1      -0.200   2.187  -0.239  0.00  0.00     0.002 A 
ATOM      4  C5  UNL d   1       0.863   2.902   0.309  0.00  0.00    -0.004 A 
ATOM      5  C6  UNL d   1       2.147   2.752  -0.215  0.00  0.00     0.002 A 
ATOM      6  C7  UNL d   1       2.365   1.889  -1.290  0.00  0.00     0.002 A 
ENDROOT
BRANCH   1   7
ATOM      7  C1  UNL d   1       1.530   0.275  -3.042  0.00  0.00     0.055 C 
ATOM      8  C   UNL d   1       1.384   1.046  -4.346  0.00  0.00     0.019 C 
ENDBRANCH   1   7
TORSDOF 1
ENDMDL
