MODEL 1
REMARK minimizedAffinity 1.51088393
REMARK minimizedRMSD -1
REMARK  1 active torsions:
REMARK  status: ('A' for Active; 'I' for Inactive)
REMARK    1  A    between atoms: C1_2  and  C2_3 
ROOT
ATOM      1  C2  UNL d   1       1.926   1.961  -2.383  0.00  0.00    -0.077 A 
ATOM      2  C3  UNL d   1       0.618   1.504  -2.600  0.00  0.00     0.002 A 
ATOM      3  C4  UNL d   1       0.231   0.237  -2.158  0.00  0.00     0.002 A 
ATOM      4  C5  UNL d   1       1.143  -0.580  -1.494  0.00  0.00    -0.004 A 
ATOM      5  C6  UNL d   1       2.447  -0.135  -1.276  0.00  0.00     0.002 A 
ATOM      6  C7  UNL d   1       2.836   1.130  -1.717  0.00  0.00     0.002 A 
ENDROOT
BRANCH   1   7
ATOM      7  C1  UNL d   1       2.331   3.346  -2.814  0.00  0.00     0.055 C 
ATOM      8  C   UNL d   1       2.416   4.294  -1.626  0.00  0.00     0.019 C 
ENDBRANCH   1   7
TORSDOF 1
ENDMDL
