MODEL 1
REMARK minimizedAffinity 2.00501943
REMARK minimizedRMSD -1
REMARK  1 active torsions:
REMARK  status: ('A' for Active; 'I' for Inactive)
REMARK    1  A    between atoms: C1_2  and  C2_3 
ROOT
ATOM      1  C2  UNL d   1       1.754   1.886  -3.793  0.00  0.00    -0.077 A 
ATOM      2  C3  UNL d   1       2.501   1.467  -4.903  0.00  0.00     0.002 A 
ATOM      3  C4  UNL d   1       3.255   2.387  -5.635  0.00  0.00     0.002 A 
ATOM      4  C5  UNL d   1       3.272   3.729  -5.263  0.00  0.00    -0.004 A 
ATOM      5  C6  UNL d   1       2.530   4.156  -4.161  0.00  0.00     0.002 A 
ATOM      6  C7  UNL d   1       1.776   3.238  -3.429  0.00  0.00     0.002 A 
ENDROOT
BRANCH   1   7
ATOM      7  C1  UNL d   1       0.980   0.887  -2.973  0.00  0.00     0.055 C 
ATOM      8  C   UNL d   1       0.312   1.551  -1.778  0.00  0.00     0.019 C 
ENDBRANCH   1   7
TORSDOF 1
ENDMDL
