MODEL 1
REMARK minimizedAffinity 6.97212696
REMARK minimizedRMSD -1
REMARK  1 active torsions:
REMARK  status: ('A' for Active; 'I' for Inactive)
REMARK    1  A    between atoms: C1_2  and  C2_3 
ROOT
ATOM      1  C2  UNL d   1      -3.417   0.515   4.244  0.00  0.00    -0.077 A 
ATOM      2  C3  UNL d   1      -4.485   0.899   3.421  0.00  0.00     0.002 A 
ATOM      3  C4  UNL d   1      -5.117  -0.038   2.602  0.00  0.00     0.002 A 
ATOM      4  C5  UNL d   1      -4.691  -1.365   2.600  0.00  0.00    -0.004 A 
ATOM      5  C6  UNL d   1      -3.629  -1.756   3.414  0.00  0.00     0.002 A 
ATOM      6  C7  UNL d   1      -2.995  -0.821   4.233  0.00  0.00     0.002 A 
ENDROOT
BRANCH   1   7
ATOM      7  C1  UNL d   1      -2.766   1.513   5.166  0.00  0.00     0.055 C 
ATOM      8  C   UNL d   1      -3.801   2.254   6.000  0.00  0.00     0.019 C 
ENDBRANCH   1   7
TORSDOF 1
ENDMDL
