MODEL 1
REMARK minimizedAffinity 0.831930816
REMARK minimizedRMSD -1
REMARK  1 active torsions:
REMARK  status: ('A' for Active; 'I' for Inactive)
REMARK    1  A    between atoms: C1_2  and  C2_3 
ROOT
ATOM      1  C2  UNL d   1       1.384   1.709  -3.263  0.00  0.00    -0.077 A 
ATOM      2  C3  UNL d   1       0.619   0.622  -2.819  0.00  0.00     0.002 A 
ATOM      3  C4  UNL d   1       0.059   0.627  -1.540  0.00  0.00     0.002 A 
ATOM      4  C5  UNL d   1       0.256   1.718  -0.696  0.00  0.00    -0.004 A 
ATOM      5  C6  UNL d   1       1.017   2.804  -1.127  0.00  0.00     0.002 A 
ATOM      6  C7  UNL d   1       1.577   2.800  -2.405  0.00  0.00     0.002 A 
ENDROOT
BRANCH   1   7
ATOM      7  C1  UNL d   1       1.946   1.727  -4.660  0.00  0.00     0.055 C 
ATOM      8  C   UNL d   1       2.204   3.150  -5.135  0.00  0.00     0.019 C 
ENDBRANCH   1   7
TORSDOF 1
ENDMDL
