MODEL 1
REMARK minimizedAffinity 0.612059891
REMARK minimizedRMSD -1
REMARK  1 active torsions:
REMARK  status: ('A' for Active; 'I' for Inactive)
REMARK    1  A    between atoms: C1_2  and  C2_3 
ROOT
ATOM      1  C2  UNL d   1       2.019   0.022  -1.943  0.00  0.00    -0.077 A 
ATOM      2  C3  UNL d   1       2.909   0.451  -2.937  0.00  0.00     0.002 A 
ATOM      3  C4  UNL d   1       2.564   1.506  -3.785  0.00  0.00     0.002 A 
ATOM      4  C5  UNL d   1       1.332   2.141  -3.644  0.00  0.00    -0.004 A 
ATOM      5  C6  UNL d   1       0.440   1.720  -2.660  0.00  0.00     0.002 A 
ATOM      6  C7  UNL d   1       0.782   0.665  -1.812  0.00  0.00     0.002 A 
ENDROOT
BRANCH   1   7
ATOM      7  C1  UNL d   1       2.409  -1.083  -0.995  0.00  0.00     0.055 C 
ATOM      8  C   UNL d   1       1.460  -2.267  -1.105  0.00  0.00     0.019 C 
ENDBRANCH   1   7
TORSDOF 1
ENDMDL
