MODEL 1
REMARK minimizedAffinity 2.88595152
REMARK minimizedRMSD -1
REMARK  1 active torsions:
REMARK  status: ('A' for Active; 'I' for Inactive)
REMARK    1  A    between atoms: C1_2  and  C2_3 
ROOT
ATOM      1  C2  UNL d   1       3.069   3.368  -2.945  0.00  0.00    -0.077 A 
ATOM      2  C3  UNL d   1       1.934   2.883  -2.281  0.00  0.00     0.002 A 
ATOM      3  C4  UNL d   1       1.351   1.675  -2.670  0.00  0.00     0.002 A 
ATOM      4  C5  UNL d   1       1.898   0.941  -3.721  0.00  0.00    -0.004 A 
ATOM      5  C6  UNL d   1       3.026   1.417  -4.389  0.00  0.00     0.002 A 
ATOM      6  C7  UNL d   1       3.609   2.624  -4.002  0.00  0.00     0.002 A 
ENDROOT
BRANCH   1   7
ATOM      7  C1  UNL d   1       3.729   4.646  -2.496  0.00  0.00     0.055 C 
ATOM      8  C   UNL d   1       5.185   4.414  -2.119  0.00  0.00     0.019 C 
ENDBRANCH   1   7
TORSDOF 1
ENDMDL
