MODEL 1
REMARK minimizedAffinity 14.8809242
REMARK minimizedRMSD -1
REMARK  0 active torsions:
REMARK  status: ('A' for Active; 'I' for Inactive)
ROOT
ATOM      1  C   UNL d   1       1.390  -1.199   3.182  0.00  0.00    -0.002 A 
ATOM      2  C1  UNL d   1       1.791  -0.173   2.338  0.00  0.00     0.010 A 
ATOM      3  C2  UNL d   1       1.728  -0.328   0.952  0.00  0.00     0.041 A 
ATOM      4  C3  UNL d   1       1.249  -1.543   0.423  0.00  0.00    -0.075 A 
ATOM      5  S   UNL d   1       1.083  -1.958  -1.242  0.00  0.00     0.015 SA
ATOM      6  C4  UNL d   1       0.475  -3.507  -0.872  0.00  0.00     0.022 A 
ATOM      7  C5  UNL d   1       0.395  -3.719   0.484  0.00  0.00     0.026 A 
ATOM      8  C6  UNL d   1       0.839  -2.590   1.253  0.00  0.00    -0.082 A 
ATOM      9  C7  UNL d   1       0.916  -2.402   2.654  0.00  0.00     0.045 A 
ENDROOT
TORSDOF 0
ENDMDL
