MODEL 1
REMARK minimizedAffinity 8.71959209
REMARK minimizedRMSD -1
REMARK  0 active torsions:
REMARK  status: ('A' for Active; 'I' for Inactive)
ROOT
ATOM      1  C   UNL d   1       2.748  -4.244   5.243  0.00  0.00    -0.002 A 
ATOM      2  C1  UNL d   1       2.579  -5.044   4.122  0.00  0.00     0.010 A 
ATOM      3  C2  UNL d   1       2.201  -4.483   2.900  0.00  0.00     0.041 A 
ATOM      4  C3  UNL d   1       1.995  -3.091   2.824  0.00  0.00    -0.075 A 
ATOM      5  S   UNL d   1       1.530  -2.184   1.433  0.00  0.00     0.015 SA
ATOM      6  C4  UNL d   1       1.545  -0.714   2.295  0.00  0.00     0.022 A 
ATOM      7  C5  UNL d   1       1.894  -0.892   3.613  0.00  0.00     0.026 A 
ATOM      8  C6  UNL d   1       2.160  -2.265   3.939  0.00  0.00    -0.082 A 
ATOM      9  C7  UNL d   1       2.543  -2.864   5.164  0.00  0.00     0.045 A 
ENDROOT
TORSDOF 0
ENDMDL
