MODEL 1
REMARK minimizedAffinity 14.5471611
REMARK minimizedRMSD -1
REMARK  0 active torsions:
REMARK  status: ('A' for Active; 'I' for Inactive)
ROOT
ATOM      1  C   UNL d   1       1.460  -2.520   2.042  0.00  0.00    -0.002 A 
ATOM      2  C1  UNL d   1       0.934  -2.685   3.316  0.00  0.00     0.010 A 
ATOM      3  C2  UNL d   1       0.645  -1.577   4.114  0.00  0.00     0.041 A 
ATOM      4  C3  UNL d   1       0.894  -0.287   3.605  0.00  0.00    -0.075 A 
ATOM      5  S   UNL d   1       0.617   1.216   4.403  0.00  0.00     0.015 SA
ATOM      6  C4  UNL d   1       1.189   2.113   3.071  0.00  0.00     0.022 A 
ATOM      7  C5  UNL d   1       1.586   1.302   2.035  0.00  0.00     0.026 A 
ATOM      8  C6  UNL d   1       1.422  -0.095   2.325  0.00  0.00    -0.082 A 
ATOM      9  C7  UNL d   1       1.705  -1.239   1.541  0.00  0.00     0.045 A 
ENDROOT
TORSDOF 0
ENDMDL
