MODEL 1
REMARK minimizedAffinity 7.27826071
REMARK minimizedRMSD -1
REMARK  0 active torsions:
REMARK  status: ('A' for Active; 'I' for Inactive)
ROOT
ATOM      1  C   UNL d   1       1.261  -2.860   2.959  0.00  0.00    -0.002 A 
ATOM      2  C1  UNL d   1       1.352  -2.776   4.341  0.00  0.00     0.010 A 
ATOM      3  C2  UNL d   1       2.593  -2.843   4.977  0.00  0.00     0.041 A 
ATOM      4  C3  UNL d   1       3.753  -2.996   4.192  0.00  0.00    -0.075 A 
ATOM      5  S   UNL d   1       5.380  -3.100   4.752  0.00  0.00     0.015 SA
ATOM      6  C4  UNL d   1       5.993  -3.258   3.170  0.00  0.00     0.022 A 
ATOM      7  C5  UNL d   1       4.995  -3.234   2.225  0.00  0.00     0.026 A 
ATOM      8  C6  UNL d   1       3.687  -3.082   2.799  0.00  0.00    -0.082 A 
ATOM      9  C7  UNL d   1       2.414  -3.011   2.184  0.00  0.00     0.045 A 
ENDROOT
TORSDOF 0
ENDMDL
