MODEL 1
REMARK minimizedAffinity 4.5291357
REMARK minimizedRMSD -1
REMARK  0 active torsions:
REMARK  status: ('A' for Active; 'I' for Inactive)
ROOT
ATOM      1  C   UNL d   1      -5.246   3.777   1.763  0.00  0.00    -0.002 A 
ATOM      2  C1  UNL d   1      -5.659   4.158   0.494  0.00  0.00     0.010 A 
ATOM      3  C2  UNL d   1      -4.957   3.738  -0.637  0.00  0.00     0.041 A 
ATOM      4  C3  UNL d   1      -3.823   2.919  -0.471  0.00  0.00    -0.075 A 
ATOM      5  S   UNL d   1      -2.809   2.283  -1.712  0.00  0.00     0.015 SA
ATOM      6  C4  UNL d   1      -1.804   1.489  -0.587  0.00  0.00     0.022 A 
ATOM      7  C5  UNL d   1      -2.218   1.694   0.708  0.00  0.00     0.026 A 
ATOM      8  C6  UNL d   1      -3.388   2.521   0.796  0.00  0.00    -0.082 A 
ATOM      9  C7  UNL d   1      -4.121   2.964   1.924  0.00  0.00     0.045 A 
ENDROOT
TORSDOF 0
ENDMDL
