MODEL 1
REMARK minimizedAffinity 15.4710932
REMARK minimizedRMSD -1
REMARK  0 active torsions:
REMARK  status: ('A' for Active; 'I' for Inactive)
ROOT
ATOM      1  C   UNL d   1       3.706  -6.000  -6.000  0.00  0.00    -0.002 A 
ATOM      2  C1  UNL d   1       5.021  -5.945  -5.560  0.00  0.00     0.010 A 
ATOM      3  C2  UNL d   1       5.311  -5.740  -4.210  0.00  0.00     0.041 A 
ATOM      4  C3  UNL d   1       4.246  -5.592  -3.299  0.00  0.00    -0.075 A 
ATOM      5  S   UNL d   1       4.361  -5.332  -1.599  0.00  0.00     0.015 SA
ATOM      6  C4  UNL d   1       2.667  -5.289  -1.416  0.00  0.00     0.022 A 
ATOM      7  C5  UNL d   1       2.014  -5.466  -2.613  0.00  0.00     0.026 A 
ATOM      8  C6  UNL d   1       2.913  -5.644  -3.718  0.00  0.00    -0.082 A 
ATOM      9  C7  UNL d   1       2.653  -5.852  -5.094  0.00  0.00     0.045 A 
ENDROOT
TORSDOF 0
ENDMDL
