MODEL 1
REMARK minimizedAffinity 4.48458624
REMARK minimizedRMSD -1
REMARK  0 active torsions:
REMARK  status: ('A' for Active; 'I' for Inactive)
ROOT
ATOM      1  N1  IND d   1       0.567  -2.062   1.745  0.00  0.00    -0.196 N 
ATOM      2  C2  IND d   1       1.496  -1.065   1.653  0.00  0.00     0.054 A 
ATOM      3  C3  IND d   1       1.546  -0.360   2.806  0.00  0.00    -0.031 A 
ATOM      4  C4  IND d   1       0.264  -0.733   5.007  0.00  0.00     0.051 A 
ATOM      5  C5  IND d   1      -0.723  -1.499   5.563  0.00  0.00    -0.031 A 
ATOM      6  C6  IND d   1      -1.340  -2.514   4.861  0.00  0.00     0.015 A 
ATOM      7  C7  IND d   1      -0.985  -2.809   3.575  0.00  0.00    -0.016 A 
ATOM      8  C8  IND d   1       0.011  -2.029   3.006  0.00  0.00    -0.047 A 
ATOM      9  C9  IND d   1       0.612  -0.971   3.698  0.00  0.00    -0.096 A 
ATOM     10  HN1 IND d   1       0.363  -2.617   1.121  0.00  0.00     0.298 HD
ENDROOT
TORSDOF 0
ENDMDL
