MODEL 1
REMARK minimizedAffinity 12.6957388
REMARK minimizedRMSD -1
REMARK  0 active torsions:
REMARK  status: ('A' for Active; 'I' for Inactive)
ROOT
ATOM      1  N1  IND d   1       4.118  -2.945  -5.213  0.00  0.00    -0.196 N 
ATOM      2  C2  IND d   1       4.917  -3.738  -5.989  0.00  0.00     0.054 A 
ATOM      3  C3  IND d   1       4.458  -5.009  -5.992  0.00  0.00    -0.031 A 
ATOM      4  C4  IND d   1       2.356  -5.992  -4.876  0.00  0.00     0.051 A 
ATOM      5  C5  IND d   1       1.332  -5.666  -4.033  0.00  0.00    -0.031 A 
ATOM      6  C6  IND d   1       1.179  -4.389  -3.531  0.00  0.00     0.015 A 
ATOM      7  C7  IND d   1       2.042  -3.384  -3.865  0.00  0.00    -0.016 A 
ATOM      8  C8  IND d   1       3.088  -3.714  -4.716  0.00  0.00    -0.047 A 
ATOM      9  C9  IND d   1       3.273  -5.018  -5.194  0.00  0.00    -0.096 A 
ATOM     10  HN1 IND d   1       4.238  -2.108  -5.060  0.00  0.00     0.298 HD
ENDROOT
TORSDOF 0
ENDMDL
