MODEL 1
REMARK minimizedAffinity 17.4419918
REMARK minimizedRMSD -1
REMARK  0 active torsions:
REMARK  status: ('A' for Active; 'I' for Inactive)
ROOT
ATOM      1  N1  IND d   1      -0.224   5.363   0.650  0.00  0.00    -0.196 N 
ATOM      2  C2  IND d   1       0.986   5.998   0.691  0.00  0.00     0.054 A 
ATOM      3  C3  IND d   1       1.907   5.301  -0.011  0.00  0.00    -0.031 A 
ATOM      4  C4  IND d   1       1.626   3.147  -1.391  0.00  0.00     0.051 A 
ATOM      5  C5  IND d   1       0.714   2.177  -1.700  0.00  0.00    -0.031 A 
ATOM      6  C6  IND d   1      -0.584   2.222  -1.234  0.00  0.00     0.015 A 
ATOM      7  C7  IND d   1      -1.024   3.249  -0.448  0.00  0.00    -0.016 A 
ATOM      8  C8  IND d   1      -0.098   4.232  -0.126  0.00  0.00    -0.047 A 
ATOM      9  C9  IND d   1       1.232   4.169  -0.561  0.00  0.00    -0.096 A 
ATOM     10  HN1 IND d   1      -0.942   5.625   1.044  0.00  0.00     0.298 HD
ENDROOT
TORSDOF 0
ENDMDL
