MODEL 1
REMARK minimizedAffinity 13.9387217
REMARK minimizedRMSD -1
REMARK  0 active torsions:
REMARK  status: ('A' for Active; 'I' for Inactive)
ROOT
ATOM      1  N1  IND d   1      -4.431  -4.785  -0.147  0.00  0.00    -0.196 N 
ATOM      2  C2  IND d   1      -3.662  -5.892  -0.376  0.00  0.00     0.054 A 
ATOM      3  C3  IND d   1      -2.699  -6.000   0.567  0.00  0.00    -0.031 A 
ATOM      4  C4  IND d   1      -2.264  -4.530   2.635  0.00  0.00     0.051 A 
ATOM      5  C5  IND d   1      -2.681  -3.382   3.248  0.00  0.00    -0.031 A 
ATOM      6  C6  IND d   1      -3.726  -2.629   2.752  0.00  0.00     0.015 A 
ATOM      7  C7  IND d   1      -4.402  -3.004   1.626  0.00  0.00    -0.016 A 
ATOM      8  C8  IND d   1      -3.977  -4.166   0.997  0.00  0.00    -0.047 A 
ATOM      9  C9  IND d   1      -2.890  -4.911   1.472  0.00  0.00    -0.096 A 
ATOM     10  HN1 IND d   1      -5.087  -4.520  -0.635  0.00  0.00     0.298 HD
ENDROOT
TORSDOF 0
ENDMDL
