MODEL 1
REMARK minimizedAffinity 14.1885271
REMARK minimizedRMSD -1
REMARK  0 active torsions:
REMARK  status: ('A' for Active; 'I' for Inactive)
ROOT
ATOM      1  N1  IND d   1       1.812  -0.096   3.044  0.00  0.00    -0.196 N 
ATOM      2  C2  IND d   1       1.458  -0.675   1.858  0.00  0.00     0.054 A 
ATOM      3  C3  IND d   1       0.297  -1.355   1.994  0.00  0.00    -0.031 A 
ATOM      4  C4  IND d   1      -1.244  -1.566   4.045  0.00  0.00     0.051 A 
ATOM      5  C5  IND d   1      -1.324  -1.241   5.370  0.00  0.00    -0.031 A 
ATOM      6  C6  IND d   1      -0.344  -0.500   6.000  0.00  0.00     0.015 A 
ATOM      7  C7  IND d   1       0.751  -0.045   5.322  0.00  0.00    -0.016 A 
ATOM      8  C8  IND d   1       0.839  -0.379   3.978  0.00  0.00    -0.047 A 
ATOM      9  C9  IND d   1      -0.131  -1.167   3.344  0.00  0.00    -0.096 A 
ATOM     10  HN1 IND d   1       2.522   0.368   3.184  0.00  0.00     0.298 HD
ENDROOT
TORSDOF 0
ENDMDL
