MODEL 1
REMARK minimizedAffinity 8.48129177
REMARK minimizedRMSD -1
REMARK  0 active torsions:
REMARK  status: ('A' for Active; 'I' for Inactive)
ROOT
ATOM      1  N1  IND d   1       1.385  -2.412   1.419  0.00  0.00    -0.196 N 
ATOM      2  C2  IND d   1       0.588  -1.481   2.024  0.00  0.00     0.054 A 
ATOM      3  C3  IND d   1       1.122  -0.246   1.890  0.00  0.00    -0.031 A 
ATOM      4  C4  IND d   1       3.241   0.491   0.628  0.00  0.00     0.051 A 
ATOM      5  C5  IND d   1       4.317  -0.005  -0.052  0.00  0.00    -0.031 A 
ATOM      6  C6  IND d   1       4.472  -1.357  -0.285  0.00  0.00     0.015 A 
ATOM      7  C7  IND d   1       3.548  -2.265   0.148  0.00  0.00    -0.016 A 
ATOM      8  C8  IND d   1       2.457  -1.765   0.845  0.00  0.00    -0.047 A 
ATOM      9  C9  IND d   1       2.316  -0.399   1.121  0.00  0.00    -0.096 A 
ATOM     10  HN1 IND d   1       1.241  -3.260   1.400  0.00  0.00     0.298 HD
ENDROOT
TORSDOF 0
ENDMDL
