MODEL 1
REMARK minimizedAffinity 6.28402472
REMARK minimizedRMSD -1
REMARK  0 active torsions:
REMARK  status: ('A' for Active; 'I' for Inactive)
ROOT
ATOM      1  N1  IND d   1       0.149  -5.982  -3.912  0.00  0.00    -0.196 N 
ATOM      2  C2  IND d   1      -0.268  -5.079  -2.974  0.00  0.00     0.054 A 
ATOM      3  C3  IND d   1       0.541  -3.996  -2.972  0.00  0.00    -0.031 A 
ATOM      4  C4  IND d   1       2.546  -3.449  -4.490  0.00  0.00     0.051 A 
ATOM      5  C5  IND d   1       3.331  -3.984  -5.474  0.00  0.00    -0.031 A 
ATOM      6  C6  IND d   1       3.088  -5.236  -5.999  0.00  0.00     0.015 A 
ATOM      7  C7  IND d   1       2.040  -6.000  -5.567  0.00  0.00    -0.016 A 
ATOM      8  C8  IND d   1       1.246  -5.463  -4.563  0.00  0.00    -0.047 A 
ATOM      9  C9  IND d   1       1.513  -4.210  -3.997  0.00  0.00    -0.096 A 
ATOM     10  HN1 IND d   1      -0.212  -6.747  -4.068  0.00  0.00     0.298 HD
ENDROOT
TORSDOF 0
ENDMDL
