MODEL 1
REMARK minimizedAffinity 7.30203485
REMARK minimizedRMSD -1
REMARK  0 active torsions:
REMARK  status: ('A' for Active; 'I' for Inactive)
ROOT
ATOM      1  N1  IND d   1       1.021  -4.541  -2.246  0.00  0.00    -0.196 N 
ATOM      2  C2  IND d   1      -0.227  -4.028  -2.463  0.00  0.00     0.054 A 
ATOM      3  C3  IND d   1      -0.565  -4.146  -3.767  0.00  0.00    -0.031 A 
ATOM      4  C4  IND d   1       0.737  -5.239  -5.700  0.00  0.00     0.051 A 
ATOM      5  C5  IND d   1       1.940  -5.813  -6.000  0.00  0.00    -0.031 A 
ATOM      6  C6  IND d   1       2.917  -5.999  -5.043  0.00  0.00     0.015 A 
ATOM      7  C7  IND d   1       2.722  -5.627  -3.744  0.00  0.00    -0.016 A 
ATOM      8  C8  IND d   1       1.504  -5.036  -3.437  0.00  0.00    -0.047 A 
ATOM      9  C9  IND d   1       0.525  -4.806  -4.412  0.00  0.00    -0.096 A 
ATOM     10  HN1 IND d   1       1.435  -4.553  -1.492  0.00  0.00     0.298 HD
ENDROOT
TORSDOF 0
ENDMDL
