MODEL 1
REMARK minimizedAffinity 16.1697025
REMARK minimizedRMSD -1
REMARK  0 active torsions:
REMARK  status: ('A' for Active; 'I' for Inactive)
ROOT
ATOM      1  N1  IND d   1       1.684  -0.238   2.320  0.00  0.00    -0.196 N 
ATOM      2  C2  IND d   1       0.442  -0.591   2.769  0.00  0.00     0.054 A 
ATOM      3  C3  IND d   1       0.086  -1.796   2.270  0.00  0.00    -0.031 A 
ATOM      4  C4  IND d   1       1.428  -3.408   0.778  0.00  0.00     0.051 A 
ATOM      5  C5  IND d   1       2.598  -3.508   0.080  0.00  0.00    -0.031 A 
ATOM      6  C6  IND d   1       3.544  -2.504   0.095  0.00  0.00     0.015 A 
ATOM      7  C7  IND d   1       3.359  -1.362   0.822  0.00  0.00    -0.016 A 
ATOM      8  C8  IND d   1       2.168  -1.254   1.526  0.00  0.00    -0.047 A 
ATOM      9  C9  IND d   1       1.186  -2.252   1.480  0.00  0.00    -0.096 A 
ATOM     10  HN1 IND d   1       2.093   0.496   2.502  0.00  0.00     0.298 HD
ENDROOT
TORSDOF 0
ENDMDL
