MODEL 1
REMARK minimizedAffinity 14.2270441
REMARK minimizedRMSD -1
REMARK  0 active torsions:
REMARK  status: ('A' for Active; 'I' for Inactive)
ROOT
ATOM      1  N1  IND d   1      -0.122   2.618  -2.592  0.00  0.00    -0.196 N 
ATOM      2  C2  IND d   1       0.661   2.649  -1.473  0.00  0.00     0.054 A 
ATOM      3  C3  IND d   1      -0.108   2.697  -0.362  0.00  0.00    -0.031 A 
ATOM      4  C4  IND d   1      -2.672   2.629  -0.143  0.00  0.00     0.051 A 
ATOM      5  C5  IND d   1      -3.817   2.637  -0.889  0.00  0.00    -0.031 A 
ATOM      6  C6  IND d   1      -3.789   2.636  -2.269  0.00  0.00     0.015 A 
ATOM      7  C7  IND d   1      -2.608   2.616  -2.957  0.00  0.00    -0.016 A 
ATOM      8  C8  IND d   1      -1.444   2.615  -2.203  0.00  0.00    -0.047 A 
ATOM      9  C9  IND d   1      -1.466   2.659  -0.803  0.00  0.00    -0.096 A 
ATOM     10  HN1 IND d   1       0.162   2.603  -3.404  0.00  0.00     0.298 HD
ENDROOT
TORSDOF 0
ENDMDL
