MODEL 1
REMARK minimizedAffinity 4.23411226
REMARK minimizedRMSD -1
REMARK  0 active torsions:
REMARK  status: ('A' for Active; 'I' for Inactive)
ROOT
ATOM      1  N1  IND d   1      -4.908  -3.894   4.038  0.00  0.00    -0.196 N 
ATOM      2  C2  IND d   1      -5.332  -5.022   4.683  0.00  0.00     0.054 A 
ATOM      3  C3  IND d   1      -5.604  -6.000   3.789  0.00  0.00    -0.031 A 
ATOM      4  C4  IND d   1      -5.327  -5.999   1.230  0.00  0.00     0.051 A 
ATOM      5  C5  IND d   1      -5.006  -5.184   0.181  0.00  0.00    -0.031 A 
ATOM      6  C6  IND d   1      -4.625  -3.871   0.369  0.00  0.00     0.015 A 
ATOM      7  C7  IND d   1      -4.540  -3.325   1.618  0.00  0.00    -0.016 A 
ATOM      8  C8  IND d   1      -4.873  -4.148   2.685  0.00  0.00    -0.047 A 
ATOM      9  C9  IND d   1      -5.301  -5.469   2.498  0.00  0.00    -0.096 A 
ATOM     10  HN1 IND d   1      -4.698  -3.150   4.415  0.00  0.00     0.298 HD
ENDROOT
TORSDOF 0
ENDMDL
