MODEL 1
REMARK minimizedAffinity 18.7655048
REMARK minimizedRMSD -1
REMARK  0 active torsions:
REMARK  status: ('A' for Active; 'I' for Inactive)
ROOT
ATOM      1  N1  IND d   1       3.695   0.622  -1.728  0.00  0.00    -0.196 N 
ATOM      2  C2  IND d   1       4.340  -0.146  -2.657  0.00  0.00     0.054 A 
ATOM      3  C3  IND d   1       4.213  -1.457  -2.353  0.00  0.00    -0.031 A 
ATOM      4  C4  IND d   1       2.903  -2.573  -0.438  0.00  0.00     0.051 A 
ATOM      5  C5  IND d   1       2.182  -2.283   0.686  0.00  0.00    -0.031 A 
ATOM      6  C6  IND d   1       1.921  -0.983   1.069  0.00  0.00     0.015 A 
ATOM      7  C7  IND d   1       2.364   0.079   0.333  0.00  0.00    -0.016 A 
ATOM      8  C8  IND d   1       3.102  -0.212  -0.805  0.00  0.00    -0.047 A 
ATOM      9  C9  IND d   1       3.406  -1.528  -1.176  0.00  0.00    -0.096 A 
ATOM     10  HN1 IND d   1       3.664   1.481  -1.721  0.00  0.00     0.298 HD
ENDROOT
TORSDOF 0
ENDMDL
