MODEL 1
REMARK minimizedAffinity -3.46339893
REMARK minimizedRMSD -1
REMARK  0 active torsions:
REMARK  status: ('A' for Active; 'I' for Inactive)
ROOT
ATOM      1  N1  IND d   1       2.336  -0.248   2.980  0.00  0.00    -0.196 N 
ATOM      2  C2  IND d   1       1.199   0.063   3.672  0.00  0.00     0.054 A 
ATOM      3  C3  IND d   1       0.208  -0.802   3.361  0.00  0.00    -0.031 A 
ATOM      4  C4  IND d   1       0.259  -2.863   1.820  0.00  0.00     0.051 A 
ATOM      5  C5  IND d   1       1.065  -3.531   0.940  0.00  0.00    -0.031 A 
ATOM      6  C6  IND d   1       2.362  -3.132   0.693  0.00  0.00     0.015 A 
ATOM      7  C7  IND d   1       2.909  -2.052   1.327  0.00  0.00    -0.016 A 
ATOM      8  C8  IND d   1       2.092  -1.368   2.216  0.00  0.00    -0.047 A 
ATOM      9  C9  IND d   1       0.761  -1.742   2.439  0.00  0.00    -0.096 A 
ATOM     10  HN1 IND d   1       3.080   0.183   3.016  0.00  0.00     0.298 HD
ENDROOT
TORSDOF 0
ENDMDL
