MODEL 1
REMARK minimizedAffinity 18.4511261
REMARK minimizedRMSD -1
REMARK  0 active torsions:
REMARK  status: ('A' for Active; 'I' for Inactive)
ROOT
ATOM      1  N1  IND d   1       0.834   3.967  -0.763  0.00  0.00    -0.196 N 
ATOM      2  C2  IND d   1       1.069   2.733  -0.222  0.00  0.00     0.054 A 
ATOM      3  C3  IND d   1       0.342   1.792  -0.864  0.00  0.00    -0.031 A 
ATOM      4  C4  IND d   1      -1.222   2.036  -2.894  0.00  0.00     0.051 A 
ATOM      5  C5  IND d   1      -1.783   2.973  -3.715  0.00  0.00    -0.031 A 
ATOM      6  C6  IND d   1      -1.492   4.317  -3.593  0.00  0.00     0.015 A 
ATOM      7  C7  IND d   1      -0.617   4.773  -2.649  0.00  0.00    -0.016 A 
ATOM      8  C8  IND d   1      -0.051   3.825  -1.809  0.00  0.00    -0.047 A 
ATOM      9  C9  IND d   1      -0.375   2.465  -1.900  0.00  0.00    -0.096 A 
ATOM     10  HN1 IND d   1       1.181   4.706  -0.494  0.00  0.00     0.298 HD
ENDROOT
TORSDOF 0
ENDMDL
