MODEL 1
REMARK minimizedAffinity 14.3847485
REMARK minimizedRMSD -1
REMARK  0 active torsions:
REMARK  status: ('A' for Active; 'I' for Inactive)
ROOT
ATOM      1  N1  IND d   1       1.752   4.718   1.145  0.00  0.00    -0.196 N 
ATOM      2  C2  IND d   1       1.483   6.000   0.753  0.00  0.00     0.054 A 
ATOM      3  C3  IND d   1       0.733   6.000  -0.372  0.00  0.00    -0.031 A 
ATOM      4  C4  IND d   1      -0.250   4.014  -1.682  0.00  0.00     0.051 A 
ATOM      5  C5  IND d   1      -0.248   2.648  -1.730  0.00  0.00    -0.031 A 
ATOM      6  C6  IND d   1       0.433   1.887  -0.802  0.00  0.00     0.015 A 
ATOM      7  C7  IND d   1       1.131   2.466   0.220  0.00  0.00    -0.016 A 
ATOM      8  C8  IND d   1       1.136   3.853   0.268  0.00  0.00    -0.047 A 
ATOM      9  C9  IND d   1       0.482   4.631  -0.696  0.00  0.00    -0.096 A 
ATOM     10  HN1 IND d   1       2.227   4.491   1.825  0.00  0.00     0.298 HD
ENDROOT
TORSDOF 0
ENDMDL
