MODEL 1
REMARK minimizedAffinity 1.02529657
REMARK minimizedRMSD -1
REMARK  3 active torsions:
REMARK  status: ('A' for Active; 'I' for Inactive)
REMARK    1  A    between atoms: C3'_2  and  C2'_3 
REMARK    2  A    between atoms: C2'_3  and  C1'_4 
REMARK    3  A    between atoms: C1'_4  and  C1_5 
ROOT
ATOM      1  C1  N4B d   1       4.113  -5.935  -3.641  0.00  0.00    -0.075 A 
ATOM      2  C2  N4B d   1       4.232  -5.921  -5.048  0.00  0.00     0.002 A 
ATOM      3  C3  N4B d   1       3.104  -5.944  -5.832  0.00  0.00     0.002 A 
ATOM      4  C4  N4B d   1       1.854  -6.000  -5.235  0.00  0.00    -0.004 A 
ATOM      5  C5  N4B d   1       1.747  -5.988  -3.875  0.00  0.00     0.002 A 
ATOM      6  C6  N4B d   1       2.871  -5.961  -3.074  0.00  0.00     0.002 A 
ENDROOT
BRANCH   1   7
ATOM      7  C1' N4B d   1       5.318  -5.998  -2.743  0.00  0.00     0.057 C 
BRANCH   7   8
ATOM      8  C2' N4B d   1       5.074  -5.125  -1.515  0.00  0.00     0.009 C 
BRANCH   8   9
ATOM      9  C3' N4B d   1       4.189  -5.816  -0.493  0.00  0.00     0.004 C 
ATOM     10  C4' N4B d   1       2.941  -5.043  -0.187  0.00  0.00     0.003 C 
ENDBRANCH   8   9
ENDBRANCH   7   8
ENDBRANCH   1   7
TORSDOF 3
ENDMDL
