MODEL 1
REMARK minimizedAffinity 8.60669708
REMARK minimizedRMSD -1
REMARK  3 active torsions:
REMARK  status: ('A' for Active; 'I' for Inactive)
REMARK    1  A    between atoms: C3'_2  and  C2'_3 
REMARK    2  A    between atoms: C2'_3  and  C1'_4 
REMARK    3  A    between atoms: C1'_4  and  C1_5 
ROOT
ATOM      1  C1  N4B d   1       2.225   1.124   2.014  0.00  0.00    -0.075 A 
ATOM      2  C2  N4B d   1       1.281   2.080   1.579  0.00  0.00     0.002 A 
ATOM      3  C3  N4B d   1       1.567   2.889   0.507  0.00  0.00     0.002 A 
ATOM      4  C4  N4B d   1       2.793   2.773  -0.132  0.00  0.00    -0.004 A 
ATOM      5  C5  N4B d   1       3.689   1.830   0.279  0.00  0.00     0.002 A 
ATOM      6  C6  N4B d   1       3.413   1.008   1.352  0.00  0.00     0.002 A 
ENDROOT
BRANCH   1   7
ATOM      7  C1' N4B d   1       1.992   0.276   3.234  0.00  0.00     0.057 C 
BRANCH   7   8
ATOM      8  C2' N4B d   1       2.447  -1.152   2.947  0.00  0.00     0.009 C 
BRANCH   8   9
ATOM      9  C3' N4B d   1       1.391  -1.944   2.196  0.00  0.00     0.004 C 
ATOM     10  C4' N4B d   1       1.229  -3.340   2.720  0.00  0.00     0.003 C 
ENDBRANCH   8   9
ENDBRANCH   7   8
ENDBRANCH   1   7
TORSDOF 3
ENDMDL
