MODEL 1
REMARK minimizedAffinity 1.49721539
REMARK minimizedRMSD -1
REMARK  0 active torsions:
REMARK  status: ('A' for Active; 'I' for Inactive)
ROOT
ATOM      1  C   UNL d   1       2.236  -5.993  -4.752  0.00  0.00     0.078 C 
ATOM      2  C1  UNL d   1       3.273  -5.998  -3.668  0.00  0.00    -0.077 A 
ATOM      3  C2  UNL d   1       2.905  -5.989  -2.317  0.00  0.00    -0.001 A 
ATOM      4  C3  UNL d   1       3.881  -5.984  -1.320  0.00  0.00     0.003 A 
ATOM      5  C4  UNL d   1       5.232  -5.988  -1.663  0.00  0.00    -0.005 A 
ATOM      6  C5  UNL d   1       5.608  -5.995  -3.004  0.00  0.00     0.003 A 
ATOM      7  C6  UNL d   1       4.633  -6.000  -4.003  0.00  0.00    -0.001 A 
ENDROOT
TORSDOF 0
ENDMDL
