MODEL 1
REMARK minimizedAffinity -0.3512384
REMARK minimizedRMSD -1
REMARK  0 active torsions:
REMARK  status: ('A' for Active; 'I' for Inactive)
ROOT
ATOM      1  C   UNL d   1       4.067  -6.000  -1.747  0.00  0.00     0.078 C 
ATOM      2  C1  UNL d   1       3.832  -5.999  -3.228  0.00  0.00    -0.077 A 
ATOM      3  C2  UNL d   1       4.904  -5.984  -4.128  0.00  0.00    -0.001 A 
ATOM      4  C3  UNL d   1       4.670  -5.974  -5.504  0.00  0.00     0.003 A 
ATOM      5  C4  UNL d   1       3.365  -5.977  -5.992  0.00  0.00    -0.005 A 
ATOM      6  C5  UNL d   1       2.292  -5.989  -5.104  0.00  0.00     0.003 A 
ATOM      7  C6  UNL d   1       2.524  -6.000  -3.728  0.00  0.00    -0.001 A 
ENDROOT
TORSDOF 0
ENDMDL
