MODEL 1
REMARK minimizedAffinity 4.87085867
REMARK minimizedRMSD -1
REMARK  0 active torsions:
REMARK  status: ('A' for Active; 'I' for Inactive)
ROOT
ATOM      1  C   UNL d   1       0.379  -5.495   5.999  0.00  0.00     0.078 C 
ATOM      2  C1  UNL d   1       1.004  -4.544   5.022  0.00  0.00    -0.077 A 
ATOM      3  C2  UNL d   1       2.011  -4.968   4.146  0.00  0.00    -0.001 A 
ATOM      4  C3  UNL d   1       2.590  -4.070   3.248  0.00  0.00     0.003 A 
ATOM      5  C4  UNL d   1       2.169  -2.742   3.218  0.00  0.00    -0.005 A 
ATOM      6  C5  UNL d   1       1.169  -2.310   4.086  0.00  0.00     0.003 A 
ATOM      7  C6  UNL d   1       0.589  -3.207   4.985  0.00  0.00    -0.001 A 
ENDROOT
TORSDOF 0
ENDMDL
