MODEL 1
REMARK minimizedAffinity -3.03700352
REMARK minimizedRMSD -1
REMARK  0 active torsions:
REMARK  status: ('A' for Active; 'I' for Inactive)
ROOT
ATOM      1  C   UNL d   1       1.829  -5.998  -5.986  0.00  0.00     0.078 C 
ATOM      2  C1  UNL d   1       2.829  -5.991  -4.869  0.00  0.00    -0.077 A 
ATOM      3  C2  UNL d   1       4.204  -5.994  -5.131  0.00  0.00    -0.001 A 
ATOM      4  C3  UNL d   1       5.123  -5.997  -4.081  0.00  0.00     0.003 A 
ATOM      5  C4  UNL d   1       4.677  -6.000  -2.761  0.00  0.00    -0.005 A 
ATOM      6  C5  UNL d   1       3.311  -6.000  -2.490  0.00  0.00     0.003 A 
ATOM      7  C6  UNL d   1       2.390  -5.996  -3.539  0.00  0.00    -0.001 A 
ENDROOT
TORSDOF 0
ENDMDL
