MODEL 1
REMARK minimizedAffinity 2.94749784
REMARK minimizedRMSD -1
REMARK  0 active torsions:
REMARK  status: ('A' for Active; 'I' for Inactive)
ROOT
ATOM      1  C   UNL d   1       3.270  -2.155  -1.209  0.00  0.00     0.078 C 
ATOM      2  C1  UNL d   1       3.962  -3.456  -0.934  0.00  0.00    -0.077 A 
ATOM      3  C2  UNL d   1       5.048  -3.874  -1.712  0.00  0.00    -0.001 A 
ATOM      4  C3  UNL d   1       5.676  -5.093  -1.451  0.00  0.00     0.003 A 
ATOM      5  C4  UNL d   1       5.225  -5.904  -0.412  0.00  0.00    -0.005 A 
ATOM      6  C5  UNL d   1       4.143  -5.498   0.367  0.00  0.00     0.003 A 
ATOM      7  C6  UNL d   1       3.514  -4.280   0.107  0.00  0.00    -0.001 A 
ENDROOT
TORSDOF 0
ENDMDL
