MODEL 1
REMARK minimizedAffinity 5.37557602
REMARK minimizedRMSD -1
REMARK  0 active torsions:
REMARK  status: ('A' for Active; 'I' for Inactive)
ROOT
ATOM      1  C   UNL d   1       0.505  -4.983   5.502  0.00  0.00     0.078 C 
ATOM      2  C1  UNL d   1       1.180  -4.016   4.576  0.00  0.00    -0.077 A 
ATOM      3  C2  UNL d   1       2.214  -4.431   3.728  0.00  0.00    -0.001 A 
ATOM      4  C3  UNL d   1       2.840  -3.517   2.879  0.00  0.00     0.003 A 
ATOM      5  C4  UNL d   1       2.439  -2.183   2.869  0.00  0.00    -0.005 A 
ATOM      6  C5  UNL d   1       1.412  -1.760   3.711  0.00  0.00     0.003 A 
ATOM      7  C6  UNL d   1       0.785  -2.672   4.561  0.00  0.00    -0.001 A 
ENDROOT
TORSDOF 0
ENDMDL
