MODEL 1
REMARK minimizedAffinity 2.13311577
REMARK minimizedRMSD -1
REMARK  0 active torsions:
REMARK  status: ('A' for Active; 'I' for Inactive)
ROOT
ATOM      1  C   UNL d   1       5.455  -2.413   4.616  0.00  0.00     0.078 C 
ATOM      2  C1  UNL d   1       4.067  -2.849   4.254  0.00  0.00    -0.077 A 
ATOM      3  C2  UNL d   1       3.571  -4.092   4.665  0.00  0.00    -0.001 A 
ATOM      4  C3  UNL d   1       2.280  -4.489   4.312  0.00  0.00     0.003 A 
ATOM      5  C4  UNL d   1       1.475  -3.650   3.546  0.00  0.00    -0.005 A 
ATOM      6  C5  UNL d   1       1.960  -2.412   3.130  0.00  0.00     0.003 A 
ATOM      7  C6  UNL d   1       3.251  -2.013   3.481  0.00  0.00    -0.001 A 
ENDROOT
TORSDOF 0
ENDMDL
