MODEL 1
REMARK minimizedAffinity 5.59731722
REMARK minimizedRMSD -1
REMARK  0 active torsions:
REMARK  status: ('A' for Active; 'I' for Inactive)
ROOT
ATOM      1  C   UNL d   1      -0.384  -1.898  -0.787  0.00  0.00     0.078 C 
ATOM      2  C1  UNL d   1       0.333  -1.769   0.524  0.00  0.00    -0.077 A 
ATOM      3  C2  UNL d   1       0.930  -0.560   0.903  0.00  0.00    -0.001 A 
ATOM      4  C3  UNL d   1       1.603  -0.457   2.121  0.00  0.00     0.003 A 
ATOM      5  C4  UNL d   1       1.686  -1.558   2.970  0.00  0.00    -0.005 A 
ATOM      6  C5  UNL d   1       1.097  -2.766   2.601  0.00  0.00     0.003 A 
ATOM      7  C6  UNL d   1       0.424  -2.871   1.383  0.00  0.00    -0.001 A 
ENDROOT
TORSDOF 0
ENDMDL
