MODEL 1
REMARK minimizedAffinity -0.62793225
REMARK minimizedRMSD -1
REMARK  0 active torsions:
REMARK  status: ('A' for Active; 'I' for Inactive)
ROOT
ATOM      1  C   UNL d   1       2.083  -0.175   3.408  0.00  0.00     0.078 C 
ATOM      2  C1  UNL d   1       2.155  -1.647   3.686  0.00  0.00    -0.077 A 
ATOM      3  C2  UNL d   1       1.357  -2.554   2.979  0.00  0.00    -0.001 A 
ATOM      4  C3  UNL d   1       1.428  -3.920   3.254  0.00  0.00     0.003 A 
ATOM      5  C4  UNL d   1       2.295  -4.392   4.238  0.00  0.00    -0.005 A 
ATOM      6  C5  UNL d   1       3.092  -3.496   4.948  0.00  0.00     0.003 A 
ATOM      7  C6  UNL d   1       3.022  -2.129   4.674  0.00  0.00    -0.001 A 
ENDROOT
TORSDOF 0
ENDMDL
