MODEL 1
REMARK minimizedAffinity 4.83231258
REMARK minimizedRMSD -1
REMARK  0 active torsions:
REMARK  status: ('A' for Active; 'I' for Inactive)
ROOT
ATOM      1  C   UNL d   1      -5.191   1.818  -3.422  0.00  0.00     0.078 C 
ATOM      2  C1  UNL d   1      -4.805   1.874  -1.975  0.00  0.00    -0.077 A 
ATOM      3  C2  UNL d   1      -5.777   1.838  -0.967  0.00  0.00    -0.001 A 
ATOM      4  C3  UNL d   1      -5.403   1.901   0.376  0.00  0.00     0.003 A 
ATOM      5  C4  UNL d   1      -4.058   2.001   0.725  0.00  0.00    -0.005 A 
ATOM      6  C5  UNL d   1      -3.084   2.040  -0.271  0.00  0.00     0.003 A 
ATOM      7  C6  UNL d   1      -3.455   1.977  -1.615  0.00  0.00    -0.001 A 
ENDROOT
TORSDOF 0
ENDMDL
