MODEL 1
REMARK minimizedAffinity 6.12059641
REMARK minimizedRMSD -1
REMARK  0 active torsions:
REMARK  status: ('A' for Active; 'I' for Inactive)
ROOT
ATOM      1  C   UNL d   1       0.176   2.850   2.644  0.00  0.00     0.078 C 
ATOM      2  C1  UNL d   1      -0.856   1.865   2.183  0.00  0.00    -0.077 A 
ATOM      3  C2  UNL d   1      -2.148   2.283   1.839  0.00  0.00    -0.001 A 
ATOM      4  C3  UNL d   1      -3.102   1.354   1.421  0.00  0.00     0.003 A 
ATOM      5  C4  UNL d   1      -2.775   0.002   1.343  0.00  0.00    -0.005 A 
ATOM      6  C5  UNL d   1      -1.493  -0.423   1.685  0.00  0.00     0.003 A 
ATOM      7  C6  UNL d   1      -0.538   0.504   2.103  0.00  0.00    -0.001 A 
ENDROOT
TORSDOF 0
ENDMDL
