MODEL 1
REMARK minimizedAffinity 2.59739327
REMARK minimizedRMSD -1
REMARK  0 active torsions:
REMARK  status: ('A' for Active; 'I' for Inactive)
ROOT
ATOM      1  C   UNL d   1      -4.814  -6.000  -1.682  0.00  0.00     0.078 C 
ATOM      2  C1  UNL d   1      -4.813  -4.846  -0.724  0.00  0.00    -0.077 A 
ATOM      3  C2  UNL d   1      -3.658  -4.500  -0.013  0.00  0.00    -0.001 A 
ATOM      4  C3  UNL d   1      -3.674  -3.429   0.882  0.00  0.00     0.003 A 
ATOM      5  C4  UNL d   1      -4.844  -2.697   1.076  0.00  0.00    -0.005 A 
ATOM      6  C5  UNL d   1      -5.999  -3.036   0.375  0.00  0.00     0.003 A 
ATOM      7  C6  UNL d   1      -5.985  -4.106  -0.521  0.00  0.00    -0.001 A 
ENDROOT
TORSDOF 0
ENDMDL
