MODEL 1
REMARK minimizedAffinity 6.43455315
REMARK minimizedRMSD -1
REMARK  0 active torsions:
REMARK  status: ('A' for Active; 'I' for Inactive)
ROOT
ATOM      1  C   UNL d   1      -4.621  -5.999  -2.256  0.00  0.00     0.078 C 
ATOM      2  C1  UNL d   1      -5.096  -5.270  -1.035  0.00  0.00    -0.077 A 
ATOM      3  C2  UNL d   1      -5.525  -5.968   0.101  0.00  0.00    -0.001 A 
ATOM      4  C3  UNL d   1      -5.973  -5.277   1.227  0.00  0.00     0.003 A 
ATOM      5  C4  UNL d   1      -5.999  -3.883   1.229  0.00  0.00    -0.005 A 
ATOM      6  C5  UNL d   1      -5.576  -3.180   0.103  0.00  0.00     0.003 A 
ATOM      7  C6  UNL d   1      -5.128  -3.870  -1.025  0.00  0.00    -0.001 A 
ENDROOT
TORSDOF 0
ENDMDL
