MODEL 1
REMARK minimizedAffinity 10.9332771
REMARK minimizedRMSD -1
REMARK  0 active torsions:
REMARK  status: ('A' for Active; 'I' for Inactive)
ROOT
ATOM      1  C   UNL d   1       2.505   5.212  -4.992  0.00  0.00     0.078 C 
ATOM      2  C1  UNL d   1       3.632   4.252  -5.229  0.00  0.00    -0.077 A 
ATOM      3  C2  UNL d   1       3.399   2.990  -5.791  0.00  0.00    -0.001 A 
ATOM      4  C3  UNL d   1       4.456   2.103  -5.998  0.00  0.00     0.003 A 
ATOM      5  C4  UNL d   1       5.754   2.467  -5.644  0.00  0.00    -0.005 A 
ATOM      6  C5  UNL d   1       5.996   3.720  -5.083  0.00  0.00     0.003 A 
ATOM      7  C6  UNL d   1       4.939   4.608  -4.876  0.00  0.00    -0.001 A 
ENDROOT
TORSDOF 0
ENDMDL
