MODEL 1
REMARK minimizedAffinity 1.44358027
REMARK minimizedRMSD -1
REMARK  0 active torsions:
REMARK  status: ('A' for Active; 'I' for Inactive)
ROOT
ATOM      1  C   UNL d   1       0.338   0.483  -0.563  0.00  0.00     0.078 C 
ATOM      2  C1  UNL d   1       0.985  -0.212  -1.723  0.00  0.00    -0.077 A 
ATOM      3  C2  UNL d   1       0.630  -1.521  -2.069  0.00  0.00    -0.001 A 
ATOM      4  C3  UNL d   1       1.247  -2.160  -3.146  0.00  0.00     0.003 A 
ATOM      5  C4  UNL d   1       2.225  -1.497  -3.885  0.00  0.00    -0.005 A 
ATOM      6  C5  UNL d   1       2.587  -0.194  -3.547  0.00  0.00     0.003 A 
ATOM      7  C6  UNL d   1       1.971   0.445  -2.470  0.00  0.00    -0.001 A 
ENDROOT
TORSDOF 0
ENDMDL
