MODEL 1
REMARK minimizedAffinity -1.81180251
REMARK minimizedRMSD -1
REMARK  0 active torsions:
REMARK  status: ('A' for Active; 'I' for Inactive)
ROOT
ATOM      1  C   UNL d   1      -2.771   0.107  -1.507  0.00  0.00     0.078 C 
ATOM      2  C1  UNL d   1      -1.366   0.272  -1.011  0.00  0.00    -0.077 A 
ATOM      3  C2  UNL d   1      -0.330   0.629  -1.883  0.00  0.00    -0.001 A 
ATOM      4  C3  UNL d   1       0.975   0.769  -1.409  0.00  0.00     0.003 A 
ATOM      5  C4  UNL d   1       1.258   0.553  -0.062  0.00  0.00    -0.005 A 
ATOM      6  C5  UNL d   1       0.234   0.195   0.813  0.00  0.00     0.003 A 
ATOM      7  C6  UNL d   1      -1.072   0.054   0.341  0.00  0.00    -0.001 A 
ENDROOT
TORSDOF 0
ENDMDL
