MODEL 1
REMARK minimizedAffinity -4.45935774
REMARK minimizedRMSD -1
REMARK  0 active torsions:
REMARK  status: ('A' for Active; 'I' for Inactive)
ROOT
ATOM      1  C   UNL d   1      -1.646  -4.935  -3.126  0.00  0.00     0.078 C 
ATOM      2  C1  UNL d   1      -1.493  -3.466  -2.868  0.00  0.00    -0.077 A 
ATOM      3  C2  UNL d   1      -0.617  -2.686  -3.632  0.00  0.00    -0.001 A 
ATOM      4  C3  UNL d   1      -0.478  -1.321  -3.374  0.00  0.00     0.003 A 
ATOM      5  C4  UNL d   1      -1.211  -0.725  -2.350  0.00  0.00    -0.005 A 
ATOM      6  C5  UNL d   1      -2.083  -1.493  -1.582  0.00  0.00     0.003 A 
ATOM      7  C6  UNL d   1      -2.224  -2.858  -1.839  0.00  0.00    -0.001 A 
ENDROOT
TORSDOF 0
ENDMDL
