MODEL 1
REMARK minimizedAffinity -5.60917616
REMARK minimizedRMSD -1
REMARK  0 active torsions:
REMARK  status: ('A' for Active; 'I' for Inactive)
ROOT
ATOM      1  C   UNL d   1      -0.315  -1.062   2.590  0.00  0.00     0.078 C 
ATOM      2  C1  UNL d   1      -0.436  -0.588   1.173  0.00  0.00    -0.077 A 
ATOM      3  C2  UNL d   1       0.682  -0.121   0.471  0.00  0.00    -0.001 A 
ATOM      4  C3  UNL d   1       0.552   0.327  -0.845  0.00  0.00     0.003 A 
ATOM      5  C4  UNL d   1      -0.693   0.313  -1.470  0.00  0.00    -0.005 A 
ATOM      6  C5  UNL d   1      -1.811  -0.148  -0.778  0.00  0.00     0.003 A 
ATOM      7  C6  UNL d   1      -1.684  -0.596   0.538  0.00  0.00    -0.001 A 
ENDROOT
TORSDOF 0
ENDMDL
