MODEL 1
REMARK minimizedAffinity -4.81763506
REMARK minimizedRMSD -1
REMARK  0 active torsions:
REMARK  status: ('A' for Active; 'I' for Inactive)
ROOT
ATOM      1  C   UNL d   1      -2.208   0.548  -1.176  0.00  0.00     0.078 C 
ATOM      2  C1  UNL d   1      -1.310  -0.199  -2.116  0.00  0.00    -0.077 A 
ATOM      3  C2  UNL d   1      -1.836  -1.063  -3.084  0.00  0.00    -0.001 A 
ATOM      4  C3  UNL d   1      -0.987  -1.760  -3.945  0.00  0.00     0.003 A 
ATOM      5  C4  UNL d   1       0.394  -1.601  -3.846  0.00  0.00    -0.005 A 
ATOM      6  C5  UNL d   1       0.927  -0.745  -2.885  0.00  0.00     0.003 A 
ATOM      7  C6  UNL d   1       0.080  -0.047  -2.023  0.00  0.00    -0.001 A 
ENDROOT
TORSDOF 0
ENDMDL
