MODEL 1
REMARK minimizedAffinity -4.99728537
REMARK minimizedRMSD -1
REMARK  0 active torsions:
REMARK  status: ('A' for Active; 'I' for Inactive)
ROOT
ATOM      1  C   UNL d   1       1.905   0.326   0.733  0.00  0.00     0.078 C 
ATOM      2  C1  UNL d   1       0.436   0.095   0.925  0.00  0.00    -0.077 A 
ATOM      3  C2  UNL d   1      -0.436   0.051  -0.170  0.00  0.00    -0.001 A 
ATOM      4  C3  UNL d   1      -1.803  -0.155   0.024  0.00  0.00     0.003 A 
ATOM      5  C4  UNL d   1      -2.310  -0.318   1.312  0.00  0.00    -0.005 A 
ATOM      6  C5  UNL d   1      -1.450  -0.274   2.408  0.00  0.00     0.003 A 
ATOM      7  C6  UNL d   1      -0.083  -0.068   2.215  0.00  0.00    -0.001 A 
ENDROOT
TORSDOF 0
ENDMDL
