MODEL 1
REMARK minimizedAffinity -4.62599134
REMARK minimizedRMSD -1
REMARK  0 active torsions:
REMARK  status: ('A' for Active; 'I' for Inactive)
ROOT
ATOM      1  C   UNL d   1       1.869  -0.069  -3.031  0.00  0.00     0.078 C 
ATOM      2  C1  UNL d   1       0.454  -0.322  -2.602  0.00  0.00    -0.077 A 
ATOM      3  C2  UNL d   1      -0.184   0.524  -1.687  0.00  0.00    -0.001 A 
ATOM      4  C3  UNL d   1      -1.498   0.270  -1.290  0.00  0.00     0.003 A 
ATOM      5  C4  UNL d   1      -2.184  -0.830  -1.801  0.00  0.00    -0.005 A 
ATOM      6  C5  UNL d   1      -1.556  -1.679  -2.710  0.00  0.00     0.003 A 
ATOM      7  C6  UNL d   1      -0.242  -1.427  -3.108  0.00  0.00    -0.001 A 
ENDROOT
TORSDOF 0
ENDMDL
