MODEL 1
REMARK minimizedAffinity -3.06419086
REMARK minimizedRMSD -1
REMARK  0 active torsions:
REMARK  status: ('A' for Active; 'I' for Inactive)
ROOT
ATOM      1  C   UNL d   1      -1.120  -2.368  -2.269  0.00  0.00     0.078 C 
ATOM      2  C1  UNL d   1      -1.823  -3.639  -1.899  0.00  0.00    -0.077 A 
ATOM      3  C2  UNL d   1      -1.643  -4.807  -2.650  0.00  0.00    -0.001 A 
ATOM      4  C3  UNL d   1      -2.312  -5.982  -2.300  0.00  0.00     0.003 A 
ATOM      5  C4  UNL d   1      -3.165  -5.999  -1.199  0.00  0.00    -0.005 A 
ATOM      6  C5  UNL d   1      -3.352  -4.841  -0.447  0.00  0.00     0.003 A 
ATOM      7  C6  UNL d   1      -2.685  -3.666  -0.795  0.00  0.00    -0.001 A 
ENDROOT
TORSDOF 0
ENDMDL
