MODEL 1
REMARK minimizedAffinity -5.6671977
REMARK minimizedRMSD -1
REMARK  0 active torsions:
REMARK  status: ('A' for Active; 'I' for Inactive)
ROOT
ATOM      1  C   UNL d   1      -0.931  -0.395   2.976  0.00  0.00     0.078 C 
ATOM      2  C1  UNL d   1      -0.786  -0.015   1.533  0.00  0.00    -0.077 A 
ATOM      3  C2  UNL d   1       0.469   0.278   0.986  0.00  0.00    -0.001 A 
ATOM      4  C3  UNL d   1       0.588   0.640  -0.357  0.00  0.00     0.003 A 
ATOM      5  C4  UNL d   1      -0.546   0.712  -1.164  0.00  0.00    -0.005 A 
ATOM      6  C5  UNL d   1      -1.799   0.424  -0.629  0.00  0.00     0.003 A 
ATOM      7  C6  UNL d   1      -1.920   0.063   0.714  0.00  0.00    -0.001 A 
ENDROOT
TORSDOF 0
ENDMDL
