MODEL 1
REMARK minimizedAffinity -3.30891776
REMARK minimizedRMSD -1
REMARK  0 active torsions:
REMARK  status: ('A' for Active; 'I' for Inactive)
ROOT
ATOM      1  C   UNL d   1       0.697   0.277  -0.758  0.00  0.00     0.078 C 
ATOM      2  C1  UNL d   1      -0.566  -0.347  -1.272  0.00  0.00    -0.077 A 
ATOM      3  C2  UNL d   1      -1.816   0.217  -0.991  0.00  0.00    -0.001 A 
ATOM      4  C3  UNL d   1      -2.984  -0.380  -1.468  0.00  0.00     0.003 A 
ATOM      5  C4  UNL d   1      -2.913  -1.546  -2.228  0.00  0.00    -0.005 A 
ATOM      6  C5  UNL d   1      -1.674  -2.116  -2.511  0.00  0.00     0.003 A 
ATOM      7  C6  UNL d   1      -0.505  -1.520  -2.035  0.00  0.00    -0.001 A 
ENDROOT
TORSDOF 0
ENDMDL
