MODEL 1
REMARK minimizedAffinity -5.59213591
REMARK minimizedRMSD -1
REMARK  0 active torsions:
REMARK  status: ('A' for Active; 'I' for Inactive)
ROOT
ATOM      1  C   UNL d   1       0.591  -0.009   1.570  0.00  0.00     0.078 C 
ATOM      2  C1  UNL d   1      -0.734  -0.153   0.883  0.00  0.00    -0.077 A 
ATOM      3  C2  UNL d   1      -0.910   0.271  -0.440  0.00  0.00    -0.001 A 
ATOM      4  C3  UNL d   1      -2.151   0.140  -1.064  0.00  0.00     0.003 A 
ATOM      5  C4  UNL d   1      -3.228  -0.412  -0.372  0.00  0.00    -0.005 A 
ATOM      6  C5  UNL d   1      -3.063  -0.834   0.946  0.00  0.00     0.003 A 
ATOM      7  C6  UNL d   1      -1.822  -0.704   1.571  0.00  0.00    -0.001 A 
ENDROOT
TORSDOF 0
ENDMDL
