MODEL 1
REMARK minimizedAffinity -2.09483576
REMARK minimizedRMSD -1
REMARK  0 active torsions:
REMARK  status: ('A' for Active; 'I' for Inactive)
ROOT
ATOM      1  O1  BZF d   1      -0.357  -0.107   2.036  0.00  0.00    -0.204 OA
ATOM      2  C2  BZF d   1       0.406   0.478   3.028  0.00  0.00     0.174 A 
ATOM      3  C3  BZF d   1      -0.350   1.286   3.799  0.00  0.00    -0.012 A 
ATOM      4  C3A BZF d   1      -1.686   1.129   3.312  0.00  0.00    -0.107 A 
ATOM      5  C4  BZF d   1      -2.889   1.661   3.681  0.00  0.00     0.055 A 
ATOM      6  C5  BZF d   1      -3.996   1.359   2.953  0.00  0.00    -0.016 A 
ATOM      7  C6  BZF d   1      -3.936   0.535   1.849  0.00  0.00     0.022 A 
ATOM      8  C7  BZF d   1      -2.766  -0.020   1.446  0.00  0.00     0.029 A 
ATOM      9  C7A BZF d   1      -1.652   0.257   2.200  0.00  0.00     0.058 A 
ENDROOT
TORSDOF 0
ENDMDL
