MODEL 1
REMARK minimizedAffinity 2.17425537
REMARK minimizedRMSD -1
REMARK  0 active torsions:
REMARK  status: ('A' for Active; 'I' for Inactive)
ROOT
ATOM      1  O1  BZF d   1      -0.483   0.152   1.757  0.00  0.00    -0.204 OA
ATOM      2  C2  BZF d   1      -0.010   1.439   1.586  0.00  0.00     0.174 A 
ATOM      3  C3  BZF d   1       0.696   1.541   0.441  0.00  0.00    -0.012 A 
ATOM      4  C3A BZF d   1       0.584   0.260  -0.185  0.00  0.00    -0.107 A 
ATOM      5  C4  BZF d   1       1.057  -0.257  -1.358  0.00  0.00     0.055 A 
ATOM      6  C5  BZF d   1       0.831  -1.567  -1.641  0.00  0.00    -0.016 A 
ATOM      7  C6  BZF d   1       0.141  -2.389  -0.775  0.00  0.00     0.022 A 
ATOM      8  C7  BZF d   1      -0.352  -1.920   0.398  0.00  0.00     0.029 A 
ATOM      9  C7A BZF d   1      -0.154  -0.589   0.672  0.00  0.00     0.058 A 
ENDROOT
TORSDOF 0
ENDMDL
