MODEL 1
REMARK minimizedAffinity -0.133710817
REMARK minimizedRMSD -1
REMARK  0 active torsions:
REMARK  status: ('A' for Active; 'I' for Inactive)
ROOT
ATOM      1  O1  BZF d   1      -5.990   3.541  -5.749  0.00  0.00    -0.204 OA
ATOM      2  C2  BZF d   1      -6.000   4.900  -6.000  0.00  0.00     0.174 A 
ATOM      3  C3  BZF d   1      -4.750   5.404  -5.954  0.00  0.00    -0.012 A 
ATOM      4  C3A BZF d   1      -3.896   4.274  -5.748  0.00  0.00    -0.107 A 
ATOM      5  C4  BZF d   1      -2.543   4.129  -5.631  0.00  0.00     0.055 A 
ATOM      6  C5  BZF d   1      -2.032   2.899  -5.362  0.00  0.00    -0.016 A 
ATOM      7  C6  BZF d   1      -2.843   1.796  -5.198  0.00  0.00     0.022 A 
ATOM      8  C7  BZF d   1      -4.191   1.889  -5.309  0.00  0.00     0.029 A 
ATOM      9  C7A BZF d   1      -4.708   3.125  -5.614  0.00  0.00     0.058 A 
ENDROOT
TORSDOF 0
ENDMDL
