MODEL 1
REMARK minimizedAffinity -0.477548033
REMARK minimizedRMSD -1
REMARK  0 active torsions:
REMARK  status: ('A' for Active; 'I' for Inactive)
ROOT
ATOM      1  O1  BZF d   1      -0.730  -0.822   1.520  0.00  0.00    -0.204 OA
ATOM      2  C2  BZF d   1      -0.740   0.537   1.270  0.00  0.00     0.174 A 
ATOM      3  C3  BZF d   1      -0.374   0.791  -0.003  0.00  0.00    -0.012 A 
ATOM      4  C3A BZF d   1      -0.209  -0.493  -0.611  0.00  0.00    -0.107 A 
ATOM      5  C4  BZF d   1       0.132  -0.899  -1.870  0.00  0.00     0.055 A 
ATOM      6  C5  BZF d   1       0.277  -2.227  -2.119  0.00  0.00    -0.016 A 
ATOM      7  C6  BZF d   1       0.094  -3.175  -1.133  0.00  0.00     0.022 A 
ATOM      8  C7  BZF d   1      -0.251  -2.821   0.129  0.00  0.00     0.029 A 
ATOM      9  C7A BZF d   1      -0.430  -1.481   0.375  0.00  0.00     0.058 A 
ENDROOT
TORSDOF 0
ENDMDL
