MODEL 1
REMARK minimizedAffinity -1.10445726
REMARK minimizedRMSD -1
REMARK  0 active torsions:
REMARK  status: ('A' for Active; 'I' for Inactive)
ROOT
ATOM      1  O1  BZF d   1      -4.664   2.259   3.478  0.00  0.00    -0.204 OA
ATOM      2  C2  BZF d   1      -3.591   2.734   4.205  0.00  0.00     0.174 A 
ATOM      3  C3  BZF d   1      -2.447   2.132   3.820  0.00  0.00    -0.012 A 
ATOM      4  C3A BZF d   1      -2.816   1.290   2.724  0.00  0.00    -0.107 A 
ATOM      5  C4  BZF d   1      -2.115   0.449   1.908  0.00  0.00     0.055 A 
ATOM      6  C5  BZF d   1      -2.785  -0.283   0.980  0.00  0.00    -0.016 A 
ATOM      7  C6  BZF d   1      -4.156  -0.203   0.844  0.00  0.00     0.022 A 
ATOM      8  C7  BZF d   1      -4.894   0.621   1.627  0.00  0.00     0.029 A 
ATOM      9  C7A BZF d   1      -4.215   1.387   2.543  0.00  0.00     0.058 A 
ENDROOT
TORSDOF 0
ENDMDL
