MODEL 1
REMARK minimizedAffinity -3.29120302
REMARK minimizedRMSD -1
REMARK  0 active torsions:
REMARK  status: ('A' for Active; 'I' for Inactive)
ROOT
ATOM      1  O1  BZF d   1      -0.343   0.888   3.112  0.00  0.00    -0.204 OA
ATOM      2  C2  BZF d   1       0.186  -0.003   2.200  0.00  0.00     0.174 A 
ATOM      3  C3  BZF d   1      -0.794  -0.600   1.491  0.00  0.00    -0.012 A 
ATOM      4  C3A BZF d   1      -2.006   0.020   1.928  0.00  0.00    -0.107 A 
ATOM      5  C4  BZF d   1      -3.318  -0.134   1.582  0.00  0.00     0.055 A 
ATOM      6  C5  BZF d   1      -4.266   0.574   2.251  0.00  0.00    -0.016 A 
ATOM      7  C6  BZF d   1      -3.938   1.441   3.273  0.00  0.00     0.022 A 
ATOM      8  C7  BZF d   1      -2.650   1.631   3.649  0.00  0.00     0.029 A 
ATOM      9  C7A BZF d   1      -1.687   0.942   2.953  0.00  0.00     0.058 A 
ENDROOT
TORSDOF 0
ENDMDL
