MODEL 1
REMARK minimizedAffinity 0.83097291
REMARK minimizedRMSD -1
REMARK  0 active torsions:
REMARK  status: ('A' for Active; 'I' for Inactive)
ROOT
ATOM      1  O1  BZF d   1       2.752   2.204   2.137  0.00  0.00    -0.204 OA
ATOM      2  C2  BZF d   1       2.262   1.834   3.375  0.00  0.00     0.174 A 
ATOM      3  C3  BZF d   1       1.115   1.137   3.247  0.00  0.00    -0.012 A 
ATOM      4  C3A BZF d   1       0.921   0.987   1.837  0.00  0.00    -0.107 A 
ATOM      5  C4  BZF d   1      -0.036   0.373   1.081  0.00  0.00     0.055 A 
ATOM      6  C5  BZF d   1       0.027   0.473  -0.273  0.00  0.00    -0.016 A 
ATOM      7  C6  BZF d   1       1.029   1.182  -0.903  0.00  0.00     0.022 A 
ATOM      8  C7  BZF d   1       2.004   1.803  -0.195  0.00  0.00     0.029 A 
ATOM      9  C7A BZF d   1       1.961   1.677   1.172  0.00  0.00     0.058 A 
ENDROOT
TORSDOF 0
ENDMDL
