MODEL 1
REMARK minimizedAffinity -1.71086538
REMARK minimizedRMSD -1
REMARK  0 active torsions:
REMARK  status: ('A' for Active; 'I' for Inactive)
ROOT
ATOM      1  O1  BZF d   1      -0.826  -0.901  -0.307  0.00  0.00    -0.204 OA
ATOM      2  C2  BZF d   1      -0.920  -0.357   0.959  0.00  0.00     0.174 A 
ATOM      3  C3  BZF d   1       0.082   0.518   1.180  0.00  0.00    -0.012 A 
ATOM      4  C3A BZF d   1       0.797   0.590  -0.057  0.00  0.00    -0.107 A 
ATOM      5  C4  BZF d   1       1.887   1.301  -0.472  0.00  0.00     0.055 A 
ATOM      6  C5  BZF d   1       2.379   1.088  -1.721  0.00  0.00    -0.016 A 
ATOM      7  C6  BZF d   1       1.811   0.168  -2.577  0.00  0.00     0.022 A 
ATOM      8  C7  BZF d   1       0.726  -0.558  -2.213  0.00  0.00     0.029 A 
ATOM      9  C7A BZF d   1       0.206  -0.321  -0.964  0.00  0.00     0.058 A 
ENDROOT
TORSDOF 0
ENDMDL
