MODEL 1
REMARK minimizedAffinity -4.70024347
REMARK minimizedRMSD -1
REMARK  0 active torsions:
REMARK  status: ('A' for Active; 'I' for Inactive)
ROOT
ATOM      1  O1  BZF d   1      -1.186  -1.350  -0.116  0.00  0.00    -0.204 OA
ATOM      2  C2  BZF d   1      -1.472  -0.594   1.005  0.00  0.00     0.174 A 
ATOM      3  C3  BZF d   1      -0.591   0.419   1.136  0.00  0.00    -0.012 A 
ATOM      4  C3A BZF d   1       0.245   0.343  -0.023  0.00  0.00    -0.107 A 
ATOM      5  C4  BZF d   1       1.297   1.088  -0.472  0.00  0.00     0.055 A 
ATOM      6  C5  BZF d   1       1.942   0.705  -1.605  0.00  0.00    -0.016 A 
ATOM      7  C6  BZF d   1       1.565  -0.419  -2.310  0.00  0.00     0.022 A 
ATOM      8  C7  BZF d   1       0.524  -1.187  -1.907  0.00  0.00     0.029 A 
ATOM      9  C7A BZF d   1      -0.151  -0.784  -0.780  0.00  0.00     0.058 A 
ENDROOT
TORSDOF 0
ENDMDL
