MODEL 1
REMARK minimizedAffinity -1.54928517
REMARK minimizedRMSD -1
REMARK  0 active torsions:
REMARK  status: ('A' for Active; 'I' for Inactive)
ROOT
ATOM      1  O1  BZF d   1      -3.102   0.121   1.370  0.00  0.00    -0.204 OA
ATOM      2  C2  BZF d   1      -4.320   0.043   0.723  0.00  0.00     0.174 A 
ATOM      3  C3  BZF d   1      -5.229   0.844   1.315  0.00  0.00    -0.012 A 
ATOM      4  C3A BZF d   1      -4.511   1.532   2.344  0.00  0.00    -0.107 A 
ATOM      5  C4  BZF d   1      -4.864   2.474   3.266  0.00  0.00     0.055 A 
ATOM      6  C5  BZF d   1      -3.943   2.886   4.176  0.00  0.00    -0.016 A 
ATOM      7  C6  BZF d   1      -2.662   2.373   4.196  0.00  0.00     0.022 A 
ATOM      8  C7  BZF d   1      -2.264   1.440   3.298  0.00  0.00     0.029 A 
ATOM      9  C7A BZF d   1      -3.183   1.046   2.356  0.00  0.00     0.058 A 
ENDROOT
TORSDOF 0
ENDMDL
