MODEL 1
REMARK minimizedAffinity -1.12436867
REMARK minimizedRMSD -1
REMARK  0 active torsions:
REMARK  status: ('A' for Active; 'I' for Inactive)
ROOT
ATOM      1  O1  BZF d   1       0.800   0.755   3.175  0.00  0.00    -0.204 OA
ATOM      2  C2  BZF d   1       1.670   1.768   3.531  0.00  0.00     0.174 A 
ATOM      3  C3  BZF d   1       2.226   2.327   2.437  0.00  0.00    -0.012 A 
ATOM      4  C3A BZF d   1       1.599   1.683   1.325  0.00  0.00    -0.107 A 
ATOM      5  C4  BZF d   1       1.719   1.818  -0.029  0.00  0.00     0.055 A 
ATOM      6  C5  BZF d   1       1.017   0.985  -0.841  0.00  0.00    -0.016 A 
ATOM      7  C6  BZF d   1       0.191   0.003  -0.334  0.00  0.00     0.022 A 
ATOM      8  C7  BZF d   1       0.035  -0.166   1.002  0.00  0.00     0.029 A 
ATOM      9  C7A BZF d   1       0.718   0.696   1.825  0.00  0.00     0.058 A 
ENDROOT
TORSDOF 0
ENDMDL
