MODEL 1
REMARK minimizedAffinity -4.01048994
REMARK minimizedRMSD -1
REMARK  0 active torsions:
REMARK  status: ('A' for Active; 'I' for Inactive)
ROOT
ATOM      1  O1  BZF d   1       0.843  -2.077  -0.162  0.00  0.00    -0.204 OA
ATOM      2  C2  BZF d   1      -0.076  -1.646   0.775  0.00  0.00     0.174 A 
ATOM      3  C3  BZF d   1      -0.551  -0.426   0.453  0.00  0.00    -0.012 A 
ATOM      4  C3A BZF d   1       0.044  -0.112  -0.810  0.00  0.00    -0.107 A 
ATOM      5  C4  BZF d   1      -0.051   0.959  -1.653  0.00  0.00     0.055 A 
ATOM      6  C5  BZF d   1       0.716   0.987  -2.774  0.00  0.00    -0.016 A 
ATOM      7  C6  BZF d   1       1.593  -0.033  -3.080  0.00  0.00     0.022 A 
ATOM      8  C7  BZF d   1       1.719  -1.118  -2.277  0.00  0.00     0.029 A 
ATOM      9  C7A BZF d   1       0.920  -1.165  -1.161  0.00  0.00     0.058 A 
ENDROOT
TORSDOF 0
ENDMDL
