MODEL 1
REMARK minimizedAffinity -3.76801038
REMARK minimizedRMSD -1
REMARK  0 active torsions:
REMARK  status: ('A' for Active; 'I' for Inactive)
ROOT
ATOM      1  O1  BZF d   1       0.989   1.558   0.557  0.00  0.00    -0.204 OA
ATOM      2  C2  BZF d   1       0.087   0.986   1.432  0.00  0.00     0.174 A 
ATOM      3  C3  BZF d   1      -0.491  -0.101   0.881  0.00  0.00    -0.012 A 
ATOM      4  C3A BZF d   1       0.153  -0.267  -0.386  0.00  0.00    -0.107 A 
ATOM      5  C4  BZF d   1       0.024  -1.182  -1.392  0.00  0.00     0.055 A 
ATOM      6  C5  BZF d   1       0.751  -1.020  -2.529  0.00  0.00    -0.016 A 
ATOM      7  C6  BZF d   1       1.611   0.045  -2.696  0.00  0.00     0.022 A 
ATOM      8  C7  BZF d   1       1.777   0.975  -1.724  0.00  0.00     0.029 A 
ATOM      9  C7A BZF d   1       1.068   0.796  -0.560  0.00  0.00     0.058 A 
ENDROOT
TORSDOF 0
ENDMDL
