MODEL 1
REMARK minimizedAffinity -4.54013824
REMARK minimizedRMSD -1
REMARK  0 active torsions:
REMARK  status: ('A' for Active; 'I' for Inactive)
ROOT
ATOM      1  O1  BZF d   1       1.209   1.368  -1.062  0.00  0.00    -0.204 OA
ATOM      2  C2  BZF d   1       1.863   1.034  -2.232  0.00  0.00     0.174 A 
ATOM      3  C3  BZF d   1       1.840  -0.300  -2.428  0.00  0.00    -0.012 A 
ATOM      4  C3A BZF d   1       1.047  -0.825  -1.359  0.00  0.00    -0.107 A 
ATOM      5  C4  BZF d   1       0.648  -2.085  -1.017  0.00  0.00     0.055 A 
ATOM      6  C5  BZF d   1      -0.060  -2.265   0.129  0.00  0.00    -0.016 A 
ATOM      7  C6  BZF d   1      -0.380  -1.210   0.959  0.00  0.00     0.022 A 
ATOM      8  C7  BZF d   1      -0.009   0.058   0.659  0.00  0.00     0.029 A 
ATOM      9  C7A BZF d   1       0.677   0.248  -0.515  0.00  0.00     0.058 A 
ENDROOT
TORSDOF 0
ENDMDL
