MODEL 1
REMARK minimizedAffinity -0.938286424
REMARK minimizedRMSD -1
REMARK  0 active torsions:
REMARK  status: ('A' for Active; 'I' for Inactive)
ROOT
ATOM      1  O1  BZF d   1       2.518  -0.405  -0.776  0.00  0.00    -0.204 OA
ATOM      2  C2  BZF d   1       3.046   0.624  -1.532  0.00  0.00     0.174 A 
ATOM      3  C3  BZF d   1       2.074   1.468  -1.935  0.00  0.00    -0.012 A 
ATOM      4  C3A BZF d   1       0.876   0.984  -1.320  0.00  0.00    -0.107 A 
ATOM      5  C4  BZF d   1      -0.421   1.410  -1.328  0.00  0.00     0.055 A 
ATOM      6  C5  BZF d   1      -1.363   0.671  -0.684  0.00  0.00    -0.016 A 
ATOM      7  C6  BZF d   1      -1.043  -0.499  -0.027  0.00  0.00     0.022 A 
ATOM      8  C7  BZF d   1       0.231  -0.959   0.013  0.00  0.00     0.029 A 
ATOM      9  C7A BZF d   1       1.190  -0.197  -0.609  0.00  0.00     0.058 A 
ENDROOT
TORSDOF 0
ENDMDL
