MODEL 1
REMARK minimizedAffinity 1.64069366
REMARK minimizedRMSD -1
REMARK  0 active torsions:
REMARK  status: ('A' for Active; 'I' for Inactive)
ROOT
ATOM      1  O1  BZF d   1      -5.103  -0.731   1.298  0.00  0.00    -0.204 OA
ATOM      2  C2  BZF d   1      -4.378   0.040   2.186  0.00  0.00     0.174 A 
ATOM      3  C3  BZF d   1      -3.055  -0.068   1.943  0.00  0.00    -0.012 A 
ATOM      4  C3A BZF d   1      -2.953  -0.889   0.775  0.00  0.00    -0.107 A 
ATOM      5  C4  BZF d   1      -1.898  -1.342   0.036  0.00  0.00     0.055 A 
ATOM      6  C5  BZF d   1      -2.134  -2.186  -1.003  0.00  0.00    -0.016 A 
ATOM      7  C6  BZF d   1      -3.409  -2.600  -1.327  0.00  0.00     0.022 A 
ATOM      8  C7  BZF d   1      -4.488  -2.173  -0.626  0.00  0.00     0.029 A 
ATOM      9  C7A BZF d   1      -4.256  -1.295   0.404  0.00  0.00     0.058 A 
ENDROOT
TORSDOF 0
ENDMDL
