MODEL 1
REMARK minimizedAffinity 0.280156076
REMARK minimizedRMSD -1
REMARK  0 active torsions:
REMARK  status: ('A' for Active; 'I' for Inactive)
ROOT
ATOM      1  O1  BZF d   1      -3.080   2.552   2.258  0.00  0.00    -0.204 OA
ATOM      2  C2  BZF d   1      -3.720   2.577   3.482  0.00  0.00     0.174 A 
ATOM      3  C3  BZF d   1      -3.069   1.807   4.378  0.00  0.00    -0.012 A 
ATOM      4  C3A BZF d   1      -1.901   1.342   3.696  0.00  0.00    -0.107 A 
ATOM      5  C4  BZF d   1      -0.852   0.549   4.065  0.00  0.00     0.055 A 
ATOM      6  C5  BZF d   1       0.089   0.225   3.139  0.00  0.00    -0.016 A 
ATOM      7  C6  BZF d   1       0.008   0.671   1.835  0.00  0.00     0.022 A 
ATOM      8  C7  BZF d   1      -1.012   1.463   1.424  0.00  0.00     0.029 A 
ATOM      9  C7A BZF d   1      -1.946   1.819   2.366  0.00  0.00     0.058 A 
ENDROOT
TORSDOF 0
ENDMDL
