MODEL 1
REMARK minimizedAffinity 5.84824944
REMARK minimizedRMSD -1
REMARK  0 active torsions:
REMARK  status: ('A' for Active; 'I' for Inactive)
ROOT
ATOM      1  O1  BZF d   1      -3.624   1.950  -5.212  0.00  0.00    -0.204 OA
ATOM      2  C2  BZF d   1      -4.904   1.442  -5.321  0.00  0.00     0.174 A 
ATOM      3  C3  BZF d   1      -5.790   2.426  -5.576  0.00  0.00    -0.012 A 
ATOM      4  C3A BZF d   1      -5.002   3.612  -5.722  0.00  0.00    -0.107 A 
ATOM      5  C4  BZF d   1      -5.308   4.914  -6.000  0.00  0.00     0.055 A 
ATOM      6  C5  BZF d   1      -4.313   5.840  -5.999  0.00  0.00    -0.016 A 
ATOM      7  C6  BZF d   1      -3.005   5.501  -5.721  0.00  0.00     0.022 A 
ATOM      8  C7  BZF d   1      -2.653   4.222  -5.445  0.00  0.00     0.029 A 
ATOM      9  C7A BZF d   1      -3.650   3.278  -5.477  0.00  0.00     0.058 A 
ENDROOT
TORSDOF 0
ENDMDL
