MODEL 1
REMARK minimizedAffinity -2.1076746
REMARK minimizedRMSD -1
REMARK  3 active torsions:
REMARK  status: ('A' for Active; 'I' for Inactive)
REMARK    1  A    between atoms: C3'_2  and  C2'_3 
REMARK    2  A    between atoms: C2'_3  and  C1'_4 
REMARK    3  A    between atoms: C1'_4  and  C1_5 
ROOT
ATOM      1  C1  N4B d   1       0.565  -0.363  -1.344  0.00  0.00    -0.075 A 
ATOM      2  C2  N4B d   1       1.743  -1.118  -1.538  0.00  0.00     0.002 A 
ATOM      3  C3  N4B d   1       2.007  -1.676  -2.765  0.00  0.00     0.002 A 
ATOM      4  C4  N4B d   1       1.103  -1.509  -3.803  0.00  0.00    -0.004 A 
ATOM      5  C5  N4B d   1      -0.020  -0.757  -3.615  0.00  0.00     0.002 A 
ATOM      6  C6  N4B d   1      -0.296  -0.187  -2.389  0.00  0.00     0.002 A 
ENDROOT
BRANCH   1   7
ATOM      7  C1' N4B d   1       0.191   0.194   0.002  0.00  0.00     0.057 C 
BRANCH   7   8
ATOM      8  C2' N4B d   1       1.428   0.222   0.894  0.00  0.00     0.009 C 
BRANCH   8   9
ATOM      9  C3' N4B d   1       1.066   0.206   2.369  0.00  0.00     0.004 C 
ATOM     10  C4' N4B d   1      -0.414   0.258   2.604  0.00  0.00     0.003 C 
ENDBRANCH   8   9
ENDBRANCH   7   8
ENDBRANCH   1   7
TORSDOF 3
ENDMDL
