MODEL 1
REMARK minimizedAffinity -3.55308676
REMARK minimizedRMSD -1
REMARK  3 active torsions:
REMARK  status: ('A' for Active; 'I' for Inactive)
REMARK    1  A    between atoms: C3'_2  and  C2'_3 
REMARK    2  A    between atoms: C2'_3  and  C1'_4 
REMARK    3  A    between atoms: C1'_4  and  C1_5 
ROOT
ATOM      1  C1  N4B d   1       0.451   0.367  -0.724  0.00  0.00    -0.075 A 
ATOM      2  C2  N4B d   1       1.001   1.241   0.239  0.00  0.00     0.002 A 
ATOM      3  C3  N4B d   1       1.277   0.782   1.504  0.00  0.00     0.002 A 
ATOM      4  C4  N4B d   1       0.994  -0.536   1.833  0.00  0.00    -0.004 A 
ATOM      5  C5  N4B d   1       0.487  -1.380   0.889  0.00  0.00     0.002 A 
ATOM      6  C6  N4B d   1       0.208  -0.933  -0.388  0.00  0.00     0.002 A 
ENDROOT
BRANCH   1   7
ATOM      7  C1' N4B d   1       0.052   0.845  -2.094  0.00  0.00     0.057 C 
BRANCH   7   8
ATOM      8  C2' N4B d   1       1.117   0.421  -3.101  0.00  0.00     0.009 C 
BRANCH   8   9
ATOM      9  C3' N4B d   1       0.819  -0.940  -3.705  0.00  0.00     0.004 C 
ATOM     10  C4' N4B d   1       1.890  -1.950  -3.420  0.00  0.00     0.003 C 
ENDBRANCH   8   9
ENDBRANCH   7   8
ENDBRANCH   1   7
TORSDOF 3
ENDMDL
