MODEL 1
REMARK minimizedAffinity -2.36659098
REMARK minimizedRMSD -1
REMARK  3 active torsions:
REMARK  status: ('A' for Active; 'I' for Inactive)
REMARK    1  A    between atoms: C3'_2  and  C2'_3 
REMARK    2  A    between atoms: C2'_3  and  C1'_4 
REMARK    3  A    between atoms: C1'_4  and  C1_5 
ROOT
ATOM      1  C1  N4B d   1      -0.266   0.107   1.220  0.00  0.00    -0.075 A 
ATOM      2  C2  N4B d   1      -1.563   0.406   0.746  0.00  0.00     0.002 A 
ATOM      3  C3  N4B d   1      -2.566   0.708   1.634  0.00  0.00     0.002 A 
ATOM      4  C4  N4B d   1      -2.302   0.699   2.996  0.00  0.00    -0.004 A 
ATOM      5  C5  N4B d   1      -1.041   0.434   3.444  0.00  0.00     0.002 A 
ATOM      6  C6  N4B d   1      -0.022   0.133   2.563  0.00  0.00     0.002 A 
ENDROOT
BRANCH   1   7
ATOM      7  C1' N4B d   1       0.841  -0.313   0.293  0.00  0.00     0.057 C 
BRANCH   7   8
ATOM      8  C2' N4B d   1       0.614   0.320  -1.077  0.00  0.00     0.009 C 
BRANCH   8   9
ATOM      9  C3' N4B d   1       0.418  -0.726  -2.161  0.00  0.00     0.004 C 
ATOM     10  C4' N4B d   1       1.427  -0.616  -3.264  0.00  0.00     0.003 C 
ENDBRANCH   8   9
ENDBRANCH   7   8
ENDBRANCH   1   7
TORSDOF 3
ENDMDL
