MODEL 1
REMARK minimizedAffinity -3.97837234
REMARK minimizedRMSD -1
REMARK  3 active torsions:
REMARK  status: ('A' for Active; 'I' for Inactive)
REMARK    1  A    between atoms: C3'_2  and  C2'_3 
REMARK    2  A    between atoms: C2'_3  and  C1'_4 
REMARK    3  A    between atoms: C1'_4  and  C1_5 
ROOT
ATOM      1  C1  N4B d   1       0.543   0.022  -1.856  0.00  0.00    -0.075 A 
ATOM      2  C2  N4B d   1       1.259   0.748  -2.834  0.00  0.00     0.002 A 
ATOM      3  C3  N4B d   1       1.824   0.092  -3.900  0.00  0.00     0.002 A 
ATOM      4  C4  N4B d   1       1.703  -1.286  -3.999  0.00  0.00    -0.004 A 
ATOM      5  C5  N4B d   1       0.989  -1.977  -3.064  0.00  0.00     0.002 A 
ATOM      6  C6  N4B d   1       0.413  -1.330  -1.989  0.00  0.00     0.002 A 
ENDROOT
BRANCH   1   7
ATOM      7  C1' N4B d   1      -0.019   0.685  -0.628  0.00  0.00     0.057 C 
BRANCH   7   8
ATOM      8  C2' N4B d   1       1.110   0.931   0.369  0.00  0.00     0.009 C 
BRANCH   8   9
ATOM      9  C3' N4B d   1       1.116  -0.099   1.486  0.00  0.00     0.004 C 
ATOM     10  C4' N4B d   1       0.406   0.376   2.718  0.00  0.00     0.003 C 
ENDBRANCH   8   9
ENDBRANCH   7   8
ENDBRANCH   1   7
TORSDOF 3
ENDMDL
