MODEL 1
REMARK minimizedAffinity -4.62686062
REMARK minimizedRMSD -1
REMARK  3 active torsions:
REMARK  status: ('A' for Active; 'I' for Inactive)
REMARK    1  A    between atoms: C3'_2  and  C2'_3 
REMARK    2  A    between atoms: C2'_3  and  C1'_4 
REMARK    3  A    between atoms: C1'_4  and  C1_5 
ROOT
ATOM      1  C1  N4B d   1       1.008  -0.934  -1.088  0.00  0.00    -0.075 A 
ATOM      2  C2  N4B d   1       1.663  -1.852  -1.938  0.00  0.00     0.002 A 
ATOM      3  C3  N4B d   1       1.452  -1.803  -3.294  0.00  0.00     0.002 A 
ATOM      4  C4  N4B d   1       0.580  -0.861  -3.819  0.00  0.00    -0.004 A 
ATOM      5  C5  N4B d   1      -0.030   0.038  -2.994  0.00  0.00     0.002 A 
ATOM      6  C6  N4B d   1       0.176   0.003  -1.629  0.00  0.00     0.002 A 
ENDROOT
BRANCH   1   7
ATOM      7  C1' N4B d   1       1.141  -1.004   0.409  0.00  0.00     0.057 C 
BRANCH   7   8
ATOM      8  C2' N4B d   1       1.423   0.393   0.952  0.00  0.00     0.009 C 
BRANCH   8   9
ATOM      9  C3' N4B d   1       0.669   0.664   2.243  0.00  0.00     0.004 C 
ATOM     10  C4' N4B d   1       0.722   2.105   2.656  0.00  0.00     0.003 C 
ENDBRANCH   8   9
ENDBRANCH   7   8
ENDBRANCH   1   7
TORSDOF 3
ENDMDL
