MODEL 1
REMARK minimizedAffinity -0.416306674
REMARK minimizedRMSD -1
REMARK  3 active torsions:
REMARK  status: ('A' for Active; 'I' for Inactive)
REMARK    1  A    between atoms: C3'_2  and  C2'_3 
REMARK    2  A    between atoms: C2'_3  and  C1'_4 
REMARK    3  A    between atoms: C1'_4  and  C1_5 
ROOT
ATOM      1  C1  N4B d   1       0.403  -0.108  -0.012  0.00  0.00    -0.075 A 
ATOM      2  C2  N4B d   1       1.687  -0.386   0.506  0.00  0.00     0.002 A 
ATOM      3  C3  N4B d   1       1.975  -0.098   1.818  0.00  0.00     0.002 A 
ATOM      4  C4  N4B d   1       1.005   0.482   2.622  0.00  0.00    -0.004 A 
ATOM      5  C5  N4B d   1      -0.241   0.723   2.121  0.00  0.00     0.002 A 
ATOM      6  C6  N4B d   1      -0.545   0.435   0.806  0.00  0.00     0.002 A 
ENDROOT
BRANCH   1   7
ATOM      7  C1' N4B d   1       0.068  -0.326  -1.462  0.00  0.00     0.057 C 
BRANCH   7   8
ATOM      8  C2' N4B d   1       1.267   0.069  -2.318  0.00  0.00     0.009 C 
BRANCH   8   9
ATOM      9  C3' N4B d   1       1.563  -0.964  -3.392  0.00  0.00     0.004 C 
ATOM     10  C4' N4B d   1       0.448  -1.951  -3.572  0.00  0.00     0.003 C 
ENDBRANCH   8   9
ENDBRANCH   7   8
ENDBRANCH   1   7
TORSDOF 3
ENDMDL
