MODEL 1
REMARK minimizedAffinity -2.243752
REMARK minimizedRMSD -1
REMARK  3 active torsions:
REMARK  status: ('A' for Active; 'I' for Inactive)
REMARK    1  A    between atoms: C3'_2  and  C2'_3 
REMARK    2  A    between atoms: C2'_3  and  C1'_4 
REMARK    3  A    between atoms: C1'_4  and  C1_5 
ROOT
ATOM      1  C1  N4B d   1       0.328  -0.053  -0.748  0.00  0.00    -0.075 A 
ATOM      2  C2  N4B d   1       1.569  -0.313  -0.126  0.00  0.00     0.002 A 
ATOM      3  C3  N4B d   1       1.653  -0.359   1.244  0.00  0.00     0.002 A 
ATOM      4  C4  N4B d   1       0.520  -0.131   2.009  0.00  0.00    -0.004 A 
ATOM      5  C5  N4B d   1      -0.680   0.094   1.400  0.00  0.00     0.002 A 
ATOM      6  C6  N4B d   1      -0.781   0.140   0.024  0.00  0.00     0.002 A 
ENDROOT
BRANCH   1   7
ATOM      7  C1' N4B d   1       0.203   0.093  -2.240  0.00  0.00     0.057 C 
BRANCH   7   8
ATOM      8  C2' N4B d   1       1.546  -0.230  -2.889  0.00  0.00     0.009 C 
BRANCH   8   9
ATOM      9  C3' N4B d   1       1.446  -1.403  -3.849  0.00  0.00     0.004 C 
ATOM     10  C4' N4B d   1       0.036  -1.689  -4.272  0.00  0.00     0.003 C 
ENDBRANCH   8   9
ENDBRANCH   7   8
ENDBRANCH   1   7
TORSDOF 3
ENDMDL
