MODEL 1
REMARK minimizedAffinity -1.6273607
REMARK minimizedRMSD -1
REMARK  3 active torsions:
REMARK  status: ('A' for Active; 'I' for Inactive)
REMARK    1  A    between atoms: C3'_2  and  C2'_3 
REMARK    2  A    between atoms: C2'_3  and  C1'_4 
REMARK    3  A    between atoms: C1'_4  and  C1_5 
ROOT
ATOM      1  C1  N4B d   1      -0.128   0.108   1.168  0.00  0.00    -0.075 A 
ATOM      2  C2  N4B d   1       0.329   0.211   2.500  0.00  0.00     0.002 A 
ATOM      3  C3  N4B d   1      -0.544   0.561   3.500  0.00  0.00     0.002 A 
ATOM      4  C4  N4B d   1      -1.869   0.829   3.192  0.00  0.00    -0.004 A 
ATOM      5  C5  N4B d   1      -2.309   0.702   1.907  0.00  0.00     0.002 A 
ATOM      6  C6  N4B d   1      -1.443   0.348   0.891  0.00  0.00     0.002 A 
ENDROOT
BRANCH   1   7
ATOM      7  C1' N4B d   1       0.807  -0.187   0.027  0.00  0.00     0.057 C 
BRANCH   7   8
ATOM      8  C2' N4B d   1       0.294   0.503  -1.233  0.00  0.00     0.009 C 
BRANCH   8   9
ATOM      9  C3' N4B d   1       0.298  -0.428  -2.433  0.00  0.00     0.004 C 
ATOM     10  C4' N4B d   1       1.507  -0.251  -3.302  0.00  0.00     0.003 C 
ENDBRANCH   8   9
ENDBRANCH   7   8
ENDBRANCH   1   7
TORSDOF 3
ENDMDL
