MODEL 1
REMARK minimizedAffinity -4.05892563
REMARK minimizedRMSD -1
REMARK  3 active torsions:
REMARK  status: ('A' for Active; 'I' for Inactive)
REMARK    1  A    between atoms: C3'_2  and  C2'_3 
REMARK    2  A    between atoms: C2'_3  and  C1'_4 
REMARK    3  A    between atoms: C1'_4  and  C1_5 
ROOT
ATOM      1  C1  N4B d   1       0.323  -0.177   0.699  0.00  0.00    -0.075 A 
ATOM      2  C2  N4B d   1       0.357  -1.391  -0.022  0.00  0.00     0.002 A 
ATOM      3  C3  N4B d   1       0.318  -1.376  -1.394  0.00  0.00     0.002 A 
ATOM      4  C4  N4B d   1       0.227  -0.165  -2.065  0.00  0.00    -0.004 A 
ATOM      5  C5  N4B d   1       0.221   1.004  -1.362  0.00  0.00     0.002 A 
ATOM      6  C6  N4B d   1       0.263   1.004   0.017  0.00  0.00     0.002 A 
ENDROOT
BRANCH   1   7
ATOM      7  C1' N4B d   1       0.276  -0.147   2.202  0.00  0.00     0.057 C 
BRANCH   7   8
ATOM      8  C2' N4B d   1      -0.737   0.903   2.651  0.00  0.00     0.009 C 
BRANCH   8   9
ATOM      9  C3' N4B d   1      -2.133   0.321   2.792  0.00  0.00     0.004 C 
ATOM     10  C4' N4B d   1      -3.092   0.860   1.773  0.00  0.00     0.003 C 
ENDBRANCH   8   9
ENDBRANCH   7   8
ENDBRANCH   1   7
TORSDOF 3
ENDMDL
