MODEL 1
REMARK minimizedAffinity -1.50532615
REMARK minimizedRMSD -1
REMARK  3 active torsions:
REMARK  status: ('A' for Active; 'I' for Inactive)
REMARK    1  A    between atoms: C3'_2  and  C2'_3 
REMARK    2  A    between atoms: C2'_3  and  C1'_4 
REMARK    3  A    between atoms: C1'_4  and  C1_5 
ROOT
ATOM      1  C1  N4B d   1       0.025   0.027   0.137  0.00  0.00    -0.075 A 
ATOM      2  C2  N4B d   1      -1.079   0.515   0.872  0.00  0.00     0.002 A 
ATOM      3  C3  N4B d   1      -0.988   0.654   2.235  0.00  0.00     0.002 A 
ATOM      4  C4  N4B d   1       0.184   0.296   2.884  0.00  0.00    -0.004 A 
ATOM      5  C5  N4B d   1       1.253  -0.150   2.165  0.00  0.00     0.002 A 
ATOM      6  C6  N4B d   1       1.178  -0.292   0.794  0.00  0.00     0.002 A 
ENDROOT
BRANCH   1   7
ATOM      7  C1' N4B d   1      -0.056  -0.224  -1.344  0.00  0.00     0.057 C 
BRANCH   7   8
ATOM      8  C2' N4B d   1       1.273   0.156  -1.990  0.00  0.00     0.009 C 
BRANCH   8   9
ATOM      9  C3' N4B d   1       1.697  -0.846  -3.050  0.00  0.00     0.004 C 
ATOM     10  C4' N4B d   1       0.593  -1.783  -3.438  0.00  0.00     0.003 C 
ENDBRANCH   8   9
ENDBRANCH   7   8
ENDBRANCH   1   7
TORSDOF 3
ENDMDL
