MODEL 1
REMARK minimizedAffinity -1.43173409
REMARK minimizedRMSD -1
REMARK  3 active torsions:
REMARK  status: ('A' for Active; 'I' for Inactive)
REMARK    1  A    between atoms: C3'_2  and  C2'_3 
REMARK    2  A    between atoms: C2'_3  and  C1'_4 
REMARK    3  A    between atoms: C1'_4  and  C1_5 
ROOT
ATOM      1  C1  N4B d   1       0.332   0.269  -0.355  0.00  0.00    -0.075 A 
ATOM      2  C2  N4B d   1       1.470  -0.510  -0.052  0.00  0.00     0.002 A 
ATOM      3  C3  N4B d   1       1.910  -0.608   1.245  0.00  0.00     0.002 A 
ATOM      4  C4  N4B d   1       1.243   0.077   2.249  0.00  0.00    -0.004 A 
ATOM      5  C5  N4B d   1       0.129   0.806   1.953  0.00  0.00     0.002 A 
ATOM      6  C6  N4B d   1      -0.328   0.910   0.654  0.00  0.00     0.002 A 
ENDROOT
BRANCH   1   7
ATOM      7  C1' N4B d   1      -0.137   0.474  -1.769  0.00  0.00     0.057 C 
BRANCH   7   8
ATOM      8  C2' N4B d   1       0.902  -0.098  -2.729  0.00  0.00     0.009 C 
BRANCH   8   9
ATOM      9  C3' N4B d   1       0.420  -1.378  -3.390  0.00  0.00     0.004 C 
ATOM     10  C4' N4B d   1       1.480  -2.438  -3.443  0.00  0.00     0.003 C 
ENDBRANCH   8   9
ENDBRANCH   7   8
ENDBRANCH   1   7
TORSDOF 3
ENDMDL
