MODEL 1
REMARK minimizedAffinity 8.71187687
REMARK minimizedRMSD -1
REMARK  0 active torsions:
REMARK  status: ('A' for Active; 'I' for Inactive)
ROOT
ATOM      1  C1  DEN d   1       1.058   3.089  -0.559  0.00  0.00     0.130 A 
ATOM      2  C2  DEN d   1       0.311   4.073  -1.337  0.00  0.00    -0.031 A 
ATOM      3  C3  DEN d   1      -1.042   4.184  -0.755  0.00  0.00     0.027 A 
ATOM      4  C4  DEN d   1      -2.045   2.938   1.269  0.00  0.00     0.027 A 
ATOM      5  C5  DEN d   1      -1.796   1.996   2.243  0.00  0.00    -0.003 A 
ATOM      6  C6  DEN d   1      -0.601   1.334   2.330  0.00  0.00     0.001 A 
ATOM      7  C7  DEN d   1       0.408   1.636   1.454  0.00  0.00     0.017 A 
ATOM      8  C8  DEN d   1       0.163   2.579   0.465  0.00  0.00    -0.094 A 
ATOM      9  C9  DEN d   1      -1.048   3.247   0.401  0.00  0.00    -0.072 A 
ENDROOT
TORSDOF 0
ENDMDL
