MODEL 1
REMARK minimizedAffinity -2.24980664
REMARK minimizedRMSD -1
REMARK  0 active torsions:
REMARK  status: ('A' for Active; 'I' for Inactive)
ROOT
ATOM      1  C1  DEN d   1       0.509   4.397  -1.029  0.00  0.00     0.130 A 
ATOM      2  C2  DEN d   1      -0.372   3.648  -1.922  0.00  0.00    -0.031 A 
ATOM      3  C3  DEN d   1      -1.023   2.583  -1.132  0.00  0.00     0.027 A 
ATOM      4  C4  DEN d   1      -0.759   2.028   1.373  0.00  0.00     0.027 A 
ATOM      5  C5  DEN d   1      -0.114   2.379   2.538  0.00  0.00    -0.003 A 
ATOM      6  C6  DEN d   1       0.802   3.396   2.588  0.00  0.00     0.001 A 
ATOM      7  C7  DEN d   1       1.065   4.129   1.461  0.00  0.00     0.017 A 
ATOM      8  C8  DEN d   1       0.424   3.777   0.280  0.00  0.00    -0.094 A 
ATOM      9  C9  DEN d   1      -0.508   2.753   0.253  0.00  0.00    -0.072 A 
ENDROOT
TORSDOF 0
ENDMDL
