MODEL 1
REMARK minimizedAffinity 18.2773933
REMARK minimizedRMSD -1
REMARK  0 active torsions:
REMARK  status: ('A' for Active; 'I' for Inactive)
ROOT
ATOM      1  C1  DEN d   1      -1.118   4.971  -2.581  0.00  0.00     0.130 A 
ATOM      2  C2  DEN d   1      -1.558   3.752  -3.253  0.00  0.00    -0.031 A 
ATOM      3  C3  DEN d   1      -1.007   2.599  -2.513  0.00  0.00     0.027 A 
ATOM      4  C4  DEN d   1       0.473   2.584  -0.400  0.00  0.00     0.027 A 
ATOM      5  C5  DEN d   1       1.117   3.376   0.525  0.00  0.00    -0.003 A 
ATOM      6  C6  DEN d   1       1.089   4.744   0.461  0.00  0.00     0.001 A 
ATOM      7  C7  DEN d   1       0.366   5.362  -0.524  0.00  0.00     0.017 A 
ATOM      8  C8  DEN d   1      -0.280   4.571  -1.466  0.00  0.00    -0.094 A 
ATOM      9  C9  DEN d   1      -0.250   3.189  -1.376  0.00  0.00    -0.072 A 
ENDROOT
TORSDOF 0
ENDMDL
