MODEL 1
REMARK minimizedAffinity 8.33438587
REMARK minimizedRMSD -1
REMARK  0 active torsions:
REMARK  status: ('A' for Active; 'I' for Inactive)
ROOT
ATOM      1  C1  DEN d   1      -3.773  -2.858   6.000  0.00  0.00     0.130 A 
ATOM      2  C2  DEN d   1      -3.448  -1.908   4.940  0.00  0.00    -0.031 A 
ATOM      3  C3  DEN d   1      -4.056  -2.396   3.686  0.00  0.00     0.027 A 
ATOM      4  C4  DEN d   1      -5.467  -4.519   3.287  0.00  0.00     0.027 A 
ATOM      5  C5  DEN d   1      -5.999  -5.641   3.882  0.00  0.00    -0.003 A 
ATOM      6  C6  DEN d   1      -5.800  -5.930   5.206  0.00  0.00     0.001 A 
ATOM      7  C7  DEN d   1      -5.087  -5.062   5.990  0.00  0.00     0.017 A 
ATOM      8  C8  DEN d   1      -4.541  -3.932   5.396  0.00  0.00    -0.094 A 
ATOM      9  C9  DEN d   1      -4.764  -3.651   4.058  0.00  0.00    -0.072 A 
ENDROOT
TORSDOF 0
ENDMDL
