MODEL 1
REMARK minimizedAffinity 13.6523342
REMARK minimizedRMSD -1
REMARK  0 active torsions:
REMARK  status: ('A' for Active; 'I' for Inactive)
ROOT
ATOM      1  C1  DEN d   1       2.613  -2.620  -4.552  0.00  0.00     0.130 A 
ATOM      2  C2  DEN d   1       3.092  -2.246  -5.880  0.00  0.00    -0.031 A 
ATOM      3  C3  DEN d   1       4.496  -2.689  -6.000  0.00  0.00     0.027 A 
ATOM      4  C4  DEN d   1       5.964  -3.914  -4.270  0.00  0.00     0.027 A 
ATOM      5  C5  DEN d   1       6.000  -4.435  -2.995  0.00  0.00    -0.003 A 
ATOM      6  C6  DEN d   1       4.929  -4.357  -2.145  0.00  0.00     0.001 A 
ATOM      7  C7  DEN d   1       3.761  -3.786  -2.575  0.00  0.00     0.017 A 
ATOM      8  C8  DEN d   1       3.720  -3.252  -3.856  0.00  0.00    -0.094 A 
ATOM      9  C9  DEN d   1       4.809  -3.351  -4.705  0.00  0.00    -0.072 A 
ENDROOT
TORSDOF 0
ENDMDL
