MODEL 1
REMARK minimizedAffinity 3.62380481
REMARK minimizedRMSD -1
REMARK  0 active torsions:
REMARK  status: ('A' for Active; 'I' for Inactive)
ROOT
ATOM      1  C1  DEN d   1      -5.602  -4.968   5.999  0.00  0.00     0.130 A 
ATOM      2  C2  DEN d   1      -6.000  -5.866   4.918  0.00  0.00    -0.031 A 
ATOM      3  C3  DEN d   1      -5.538  -5.279   3.644  0.00  0.00     0.027 A 
ATOM      4  C4  DEN d   1      -4.249  -3.081   3.244  0.00  0.00     0.027 A 
ATOM      5  C5  DEN d   1      -3.698  -1.976   3.853  0.00  0.00    -0.003 A 
ATOM      6  C6  DEN d   1      -3.773  -1.775   5.206  0.00  0.00     0.001 A 
ATOM      7  C7  DEN d   1      -4.373  -2.716   6.000  0.00  0.00     0.017 A 
ATOM      8  C8  DEN d   1      -4.937  -3.830   5.392  0.00  0.00    -0.094 A 
ATOM      9  C9  DEN d   1      -4.840  -4.021   4.024  0.00  0.00    -0.072 A 
ENDROOT
TORSDOF 0
ENDMDL
