MODEL 1
REMARK minimizedAffinity 1.27677226
REMARK minimizedRMSD -1
REMARK  0 active torsions:
REMARK  status: ('A' for Active; 'I' for Inactive)
ROOT
ATOM      1  C1  DEN d   1      -0.597   2.980  -1.168  0.00  0.00     0.130 A 
ATOM      2  C2  DEN d   1       0.294   4.018  -1.679  0.00  0.00    -0.031 A 
ATOM      3  C3  DEN d   1       1.143   4.482  -0.563  0.00  0.00     0.027 A 
ATOM      4  C4  DEN d   1       1.167   3.694   1.893  0.00  0.00     0.027 A 
ATOM      5  C5  DEN d   1       0.583   2.842   2.804  0.00  0.00    -0.003 A 
ATOM      6  C6  DEN d   1      -0.449   2.007   2.466  0.00  0.00     0.001 A 
ATOM      7  C7  DEN d   1      -0.899   1.974   1.173  0.00  0.00     0.017 A 
ATOM      8  C8  DEN d   1      -0.321   2.836   0.250  0.00  0.00    -0.094 A 
ATOM      9  C9  DEN d   1       0.729   3.663   0.608  0.00  0.00    -0.072 A 
ENDROOT
TORSDOF 0
ENDMDL
