MODEL 1
REMARK minimizedAffinity 12.6365404
REMARK minimizedRMSD -1
REMARK  0 active torsions:
REMARK  status: ('A' for Active; 'I' for Inactive)
ROOT
ATOM      1  C1  DEN d   1      -0.922   1.083   0.330  0.00  0.00     0.130 A 
ATOM      2  C2  DEN d   1      -0.408   1.077   1.697  0.00  0.00    -0.031 A 
ATOM      3  C3  DEN d   1       0.446   2.270   1.868  0.00  0.00     0.027 A 
ATOM      4  C4  DEN d   1       1.016   4.116   0.160  0.00  0.00     0.027 A 
ATOM      5  C5  DEN d   1       0.824   4.546  -1.135  0.00  0.00    -0.003 A 
ATOM      6  C6  DEN d   1       0.070   3.839  -2.034  0.00  0.00     0.001 A 
ATOM      7  C7  DEN d   1      -0.557   2.687  -1.638  0.00  0.00     0.017 A 
ATOM      8  C8  DEN d   1      -0.362   2.244  -0.336  0.00  0.00    -0.094 A 
ATOM      9  C9  DEN d   1       0.394   2.979   0.561  0.00  0.00    -0.072 A 
ENDROOT
TORSDOF 0
ENDMDL
