MODEL 1
REMARK minimizedAffinity 7.526052
REMARK minimizedRMSD -1
REMARK  0 active torsions:
REMARK  status: ('A' for Active; 'I' for Inactive)
ROOT
ATOM      1  C1  DEN d   1      -1.091   2.521  -1.725  0.00  0.00     0.130 A 
ATOM      2  C2  DEN d   1      -0.439   3.720  -2.244  0.00  0.00    -0.031 A 
ATOM      3  C3  DEN d   1       0.190   4.425  -1.110  0.00  0.00     0.027 A 
ATOM      4  C4  DEN d   1       0.223   3.778   1.387  0.00  0.00     0.027 A 
ATOM      5  C5  DEN d   1      -0.205   2.852   2.312  0.00  0.00    -0.003 A 
ATOM      6  C6  DEN d   1      -0.980   1.777   1.964  0.00  0.00     0.001 A 
ATOM      7  C7  DEN d   1      -1.314   1.577   0.651  0.00  0.00     0.017 A 
ATOM      8  C8  DEN d   1      -0.893   2.511  -0.287  0.00  0.00    -0.094 A 
ATOM      9  C9  DEN d   1      -0.100   3.584   0.083  0.00  0.00    -0.072 A 
ENDROOT
TORSDOF 0
ENDMDL
