MODEL 1
REMARK minimizedAffinity -2.90443158
REMARK minimizedRMSD -1
REMARK  0 active torsions:
REMARK  status: ('A' for Active; 'I' for Inactive)
ROOT
ATOM      1  C1  DEN d   1      -5.967  -3.744   4.855  0.00  0.00     0.130 A 
ATOM      2  C2  DEN d   1      -6.000  -4.523   3.620  0.00  0.00    -0.031 A 
ATOM      3  C3  DEN d   1      -4.651  -4.487   3.021  0.00  0.00     0.027 A 
ATOM      4  C4  DEN d   1      -2.524  -3.310   3.883  0.00  0.00     0.027 A 
ATOM      5  C5  DEN d   1      -2.007  -2.517   4.883  0.00  0.00    -0.003 A 
ATOM      6  C6  DEN d   1      -2.775  -2.053   5.918  0.00  0.00     0.001 A 
ATOM      7  C7  DEN d   1      -4.094  -2.416   6.000  0.00  0.00     0.017 A 
ATOM      8  C8  DEN d   1      -4.624  -3.209   4.991  0.00  0.00    -0.094 A 
ATOM      9  C9  DEN d   1      -3.828  -3.678   3.960  0.00  0.00    -0.072 A 
ENDROOT
TORSDOF 0
ENDMDL
