MODEL 1
REMARK minimizedAffinity -3.43218541
REMARK minimizedRMSD -1
REMARK  0 active torsions:
REMARK  status: ('A' for Active; 'I' for Inactive)
ROOT
ATOM      1  C1  DEN d   1      -6.000  -2.205  -0.967  0.00  0.00     0.130 A 
ATOM      2  C2  DEN d   1      -5.109  -2.309   0.185  0.00  0.00    -0.031 A 
ATOM      3  C3  DEN d   1      -4.070  -1.267   0.056  0.00  0.00     0.027 A 
ATOM      4  C4  DEN d   1      -3.761   0.492  -1.805  0.00  0.00     0.027 A 
ATOM      5  C5  DEN d   1      -4.263   0.965  -2.997  0.00  0.00    -0.003 A 
ATOM      6  C6  DEN d   1      -5.349   0.397  -3.609  0.00  0.00     0.001 A 
ATOM      7  C7  DEN d   1      -5.998  -0.648  -3.007  0.00  0.00     0.017 A 
ATOM      8  C8  DEN d   1      -5.493  -1.135  -1.808  0.00  0.00    -0.094 A 
ATOM      9  C9  DEN d   1      -4.401  -0.540  -1.199  0.00  0.00    -0.072 A 
ENDROOT
TORSDOF 0
ENDMDL
