MODEL 1
REMARK minimizedAffinity 15.0366058
REMARK minimizedRMSD -1
REMARK  0 active torsions:
REMARK  status: ('A' for Active; 'I' for Inactive)
ROOT
ATOM      1  C1  DEN d   1      -2.553   5.985   0.869  0.00  0.00     0.130 A 
ATOM      2  C2  DEN d   1      -3.690   5.145   1.234  0.00  0.00    -0.031 A 
ATOM      3  C3  DEN d   1      -3.295   3.734   1.047  0.00  0.00     0.027 A 
ATOM      4  C4  DEN d   1      -1.042   2.775   0.237  0.00  0.00     0.027 A 
ATOM      5  C5  DEN d   1       0.223   3.098  -0.202  0.00  0.00    -0.003 A 
ATOM      6  C6  DEN d   1       0.637   4.396  -0.346  0.00  0.00     0.001 A 
ATOM      7  C7  DEN d   1      -0.208   5.419  -0.006  0.00  0.00     0.017 A 
ATOM      8  C8  DEN d   1      -1.487   5.101   0.431  0.00  0.00    -0.094 A 
ATOM      9  C9  DEN d   1      -1.882   3.783   0.581  0.00  0.00    -0.072 A 
ENDROOT
TORSDOF 0
ENDMDL
