MODEL 1
REMARK minimizedAffinity 4.46189404
REMARK minimizedRMSD -1
REMARK  0 active torsions:
REMARK  status: ('A' for Active; 'I' for Inactive)
ROOT
ATOM      1  C1  DEN d   1      -1.465   0.146   1.827  0.00  0.00     0.130 A 
ATOM      2  C2  DEN d   1      -1.456   0.374   3.270  0.00  0.00    -0.031 A 
ATOM      3  C3  DEN d   1      -0.817   1.682   3.521  0.00  0.00     0.027 A 
ATOM      4  C4  DEN d   1       0.148   3.368   1.825  0.00  0.00     0.027 A 
ATOM      5  C5  DEN d   1       0.379   3.609   0.488  0.00  0.00    -0.003 A 
ATOM      6  C6  DEN d   1       0.045   2.705  -0.485  0.00  0.00     0.001 A 
ATOM      7  C7  DEN d   1      -0.580   1.536  -0.139  0.00  0.00     0.017 A 
ATOM      8  C8  DEN d   1      -0.810   1.283   1.207  0.00  0.00    -0.094 A 
ATOM      9  C9  DEN d   1      -0.475   2.215   2.174  0.00  0.00    -0.072 A 
ENDROOT
TORSDOF 0
ENDMDL
