MODEL 1
REMARK minimizedAffinity -4.64233446
REMARK minimizedRMSD -1
REMARK  1 active torsions:
REMARK  status: ('A' for Active; 'I' for Inactive)
REMARK    1  A    between atoms: C1_2  and  C2_3 
ROOT
ATOM      1  C2  UNL d   1       0.683   0.264  -0.868  0.00  0.00    -0.081 A 
ATOM      2  C3  UNL d   1       1.374   0.571   0.311  0.00  0.00     0.006 A 
ATOM      3  C4  UNL d   1       0.743   0.455   1.552  0.00  0.00     0.002 A 
ATOM      4  C5  UNL d   1      -0.585   0.022   1.635  0.00  0.00    -0.080 A 
ATOM      5  C6  UNL d   1      -1.264  -0.136   2.963  0.00  0.00     0.076 C 
ATOM      6  C7  UNL d   1      -1.280  -0.268   0.457  0.00  0.00     0.002 A 
ATOM      7  C8  UNL d   1      -0.650  -0.151  -0.784  0.00  0.00     0.006 A 
ENDROOT
BRANCH   1   8
ATOM      8  C1  UNL d   1       1.381   0.327  -2.203  0.00  0.00     0.054 C 
ATOM      9  C   UNL d   1       0.823  -0.710  -3.167  0.00  0.00     0.018 C 
ENDBRANCH   1   8
TORSDOF 1
ENDMDL
