MODEL 1
REMARK minimizedAffinity -5.01281548
REMARK minimizedRMSD -1
REMARK  1 active torsions:
REMARK  status: ('A' for Active; 'I' for Inactive)
REMARK    1  A    between atoms: C1_2  and  C2_3 
ROOT
ATOM      1  C2  UNL d   1      -0.003  -0.044  -0.662  0.00  0.00    -0.081 A 
ATOM      2  C3  UNL d   1      -1.313  -0.407  -0.325  0.00  0.00     0.006 A 
ATOM      3  C4  UNL d   1      -1.657  -0.662   1.005  0.00  0.00     0.002 A 
ATOM      4  C5  UNL d   1      -0.700  -0.552   2.019  0.00  0.00    -0.080 A 
ATOM      5  C6  UNL d   1      -1.063  -0.793   3.454  0.00  0.00     0.076 C 
ATOM      6  C7  UNL d   1       0.613  -0.206   1.680  0.00  0.00     0.002 A 
ATOM      7  C8  UNL d   1       0.958   0.048   0.351  0.00  0.00     0.006 A 
ENDROOT
BRANCH   1   8
ATOM      8  C1  UNL d   1       0.355   0.294  -2.087  0.00  0.00     0.054 C 
ATOM      9  C   UNL d   1       0.528  -0.962  -2.928  0.00  0.00     0.018 C 
ENDBRANCH   1   8
TORSDOF 1
ENDMDL
