MODEL 1
REMARK minimizedAffinity -4.98809767
REMARK minimizedRMSD -1
REMARK  1 active torsions:
REMARK  status: ('A' for Active; 'I' for Inactive)
REMARK    1  A    between atoms: C1_2  and  C2_3 
ROOT
ATOM      1  C2  UNL d   1       0.370   0.272  -0.726  0.00  0.00    -0.081 A 
ATOM      2  C3  UNL d   1       1.187   0.346   0.408  0.00  0.00     0.006 A 
ATOM      3  C4  UNL d   1       0.660   0.101   1.678  0.00  0.00     0.002 A 
ATOM      4  C5  UNL d   1      -0.690  -0.230   1.834  0.00  0.00    -0.080 A 
ATOM      5  C6  UNL d   1      -1.262  -0.525   3.189  0.00  0.00     0.076 C 
ATOM      6  C7  UNL d   1      -1.511  -0.287   0.703  0.00  0.00     0.002 A 
ATOM      7  C8  UNL d   1      -0.985  -0.041  -0.567  0.00  0.00     0.006 A 
ENDROOT
BRANCH   1   8
ATOM      8  C1  UNL d   1       0.950   0.472  -2.103  0.00  0.00     0.054 C 
ATOM      9  C   UNL d   1       1.081  -0.850  -2.846  0.00  0.00     0.018 C 
ENDBRANCH   1   8
TORSDOF 1
ENDMDL
