MODEL 1
REMARK minimizedAffinity -5.64861441
REMARK minimizedRMSD -1
REMARK  1 active torsions:
REMARK  status: ('A' for Active; 'I' for Inactive)
REMARK    1  A    between atoms: C1_2  and  C2_3 
ROOT
ATOM      1  C2  UNL d   1       0.584  -0.089  -0.670  0.00  0.00    -0.081 A 
ATOM      2  C3  UNL d   1       1.277  -0.194   0.542  0.00  0.00     0.006 A 
ATOM      3  C4  UNL d   1       0.582  -0.234   1.754  0.00  0.00     0.002 A 
ATOM      4  C5  UNL d   1      -0.816  -0.177   1.772  0.00  0.00    -0.080 A 
ATOM      5  C6  UNL d   1      -1.575  -0.250   3.064  0.00  0.00     0.076 C 
ATOM      6  C7  UNL d   1      -1.507  -0.055   0.562  0.00  0.00     0.002 A 
ATOM      7  C8  UNL d   1      -0.813  -0.015  -0.649  0.00  0.00     0.006 A 
ENDROOT
BRANCH   1   8
ATOM      8  C1  UNL d   1       1.327  -0.111  -1.981  0.00  0.00     0.054 C 
ATOM      9  C   UNL d   1       1.159  -1.447  -2.690  0.00  0.00     0.018 C 
ENDBRANCH   1   8
TORSDOF 1
ENDMDL
