MODEL 1
REMARK minimizedAffinity -6.18517637
REMARK minimizedRMSD -1
REMARK  1 active torsions:
REMARK  status: ('A' for Active; 'I' for Inactive)
REMARK    1  A    between atoms: C1_2  and  C2_3 
ROOT
ATOM      1  C2  UNL d   1       0.020   0.049  -0.256  0.00  0.00    -0.081 A 
ATOM      2  C3  UNL d   1      -1.365   0.046  -0.048  0.00  0.00     0.006 A 
ATOM      3  C4  UNL d   1      -1.887  -0.091   1.241  0.00  0.00     0.002 A 
ATOM      4  C5  UNL d   1      -1.034  -0.218   2.342  0.00  0.00    -0.080 A 
ATOM      5  C6  UNL d   1      -1.581  -0.335   3.734  0.00  0.00     0.076 C 
ATOM      6  C7  UNL d   1       0.349  -0.233   2.132  0.00  0.00     0.002 A 
ATOM      7  C8  UNL d   1       0.871  -0.097   0.844  0.00  0.00     0.006 A 
ENDROOT
BRANCH   1   8
ATOM      8  C1  UNL d   1       0.586   0.261  -1.637  0.00  0.00     0.054 C 
ATOM      9  C   UNL d   1       0.727  -1.057  -2.385  0.00  0.00     0.018 C 
ENDBRANCH   1   8
TORSDOF 1
ENDMDL
