MODEL 1
REMARK minimizedAffinity -1.34142828
REMARK minimizedRMSD -1
REMARK  1 active torsions:
REMARK  status: ('A' for Active; 'I' for Inactive)
REMARK    1  A    between atoms: C1_2  and  C2_3 
ROOT
ATOM      1  C2  UNL d   1       0.491  -0.117  -1.392  0.00  0.00    -0.081 A 
ATOM      2  C3  UNL d   1       1.663   0.351  -0.786  0.00  0.00     0.006 A 
ATOM      3  C4  UNL d   1       1.684   0.649   0.579  0.00  0.00     0.002 A 
ATOM      4  C5  UNL d   1       0.537   0.477   1.361  0.00  0.00    -0.080 A 
ATOM      5  C6  UNL d   1       0.555   0.764   2.833  0.00  0.00     0.076 C 
ATOM      6  C7  UNL d   1      -0.639   0.027   0.752  0.00  0.00     0.002 A 
ATOM      7  C8  UNL d   1      -0.661  -0.271  -0.613  0.00  0.00     0.006 A 
ENDROOT
BRANCH   1   8
ATOM      8  C1  UNL d   1       0.482  -0.500  -2.850  0.00  0.00     0.054 C 
ATOM      9  C   UNL d   1       1.408  -1.678  -3.117  0.00  0.00     0.018 C 
ENDBRANCH   1   8
TORSDOF 1
ENDMDL
