MODEL 1
REMARK minimizedAffinity -5.11823463
REMARK minimizedRMSD -1
REMARK  1 active torsions:
REMARK  status: ('A' for Active; 'I' for Inactive)
REMARK    1  A    between atoms: C1_2  and  C2_3 
ROOT
ATOM      1  C2  UNL d   1      -0.017   0.065  -0.532  0.00  0.00    -0.081 A 
ATOM      2  C3  UNL d   1       0.902   0.021   0.523  0.00  0.00     0.006 A 
ATOM      3  C4  UNL d   1       0.476  -0.267   1.822  0.00  0.00     0.002 A 
ATOM      4  C5  UNL d   1      -0.874  -0.523   2.086  0.00  0.00    -0.080 A 
ATOM      5  C6  UNL d   1      -1.340  -0.863   3.470  0.00  0.00     0.076 C 
ATOM      6  C7  UNL d   1      -1.795  -0.462   1.034  0.00  0.00     0.002 A 
ATOM      7  C8  UNL d   1      -1.369  -0.174  -0.264  0.00  0.00     0.006 A 
ENDROOT
BRANCH   1   8
ATOM      8  C1  UNL d   1       0.449   0.311  -1.945  0.00  0.00     0.054 C 
ATOM      9  C   UNL d   1       0.506  -0.984  -2.742  0.00  0.00     0.018 C 
ENDBRANCH   1   8
TORSDOF 1
ENDMDL
