MODEL 1
REMARK minimizedAffinity -0.755789697
REMARK minimizedRMSD -1
REMARK  1 active torsions:
REMARK  status: ('A' for Active; 'I' for Inactive)
REMARK    1  A    between atoms: C1_2  and  C2_3 
ROOT
ATOM      1  C2  UNL d   1       0.524  -0.062  -1.478  0.00  0.00    -0.081 A 
ATOM      2  C3  UNL d   1      -0.718  -0.051  -0.830  0.00  0.00     0.006 A 
ATOM      3  C4  UNL d   1      -0.790   0.066   0.560  0.00  0.00     0.002 A 
ATOM      4  C5  UNL d   1       0.376   0.182   1.324  0.00  0.00    -0.080 A 
ATOM      5  C6  UNL d   1       0.311   0.339   2.814  0.00  0.00     0.076 C 
ATOM      6  C7  UNL d   1       1.617   0.154   0.679  0.00  0.00     0.002 A 
ATOM      7  C8  UNL d   1       1.690   0.036  -0.711  0.00  0.00     0.006 A 
ENDROOT
BRANCH   1   8
ATOM      8  C1  UNL d   1       0.603  -0.123  -2.982  0.00  0.00     0.054 C 
ATOM      9  C   UNL d   1       0.375  -1.539  -3.491  0.00  0.00     0.018 C 
ENDBRANCH   1   8
TORSDOF 1
ENDMDL
