MODEL 1
REMARK minimizedAffinity -6.0362196
REMARK minimizedRMSD -1
REMARK  1 active torsions:
REMARK  status: ('A' for Active; 'I' for Inactive)
REMARK    1  A    between atoms: C1_2  and  C2_3 
ROOT
ATOM      1  C2  UNL d   1       0.161  -0.492  -0.795  0.00  0.00    -0.081 A 
ATOM      2  C3  UNL d   1      -1.051   0.085  -0.398  0.00  0.00     0.006 A 
ATOM      3  C4  UNL d   1      -1.472   0.005   0.931  0.00  0.00     0.002 A 
ATOM      4  C5  UNL d   1      -0.684  -0.646   1.887  0.00  0.00    -0.080 A 
ATOM      5  C6  UNL d   1      -1.110  -0.713   3.324  0.00  0.00     0.076 C 
ATOM      6  C7  UNL d   1       0.519  -1.237   1.487  0.00  0.00     0.002 A 
ATOM      7  C8  UNL d   1       0.940  -1.158   0.157  0.00  0.00     0.006 A 
ENDROOT
BRANCH   1   8
ATOM      8  C1  UNL d   1       0.649  -0.351  -2.215  0.00  0.00     0.054 C 
ATOM      9  C   UNL d   1       0.681  -1.697  -2.925  0.00  0.00     0.018 C 
ENDBRANCH   1   8
TORSDOF 1
ENDMDL
