MODEL 1
REMARK minimizedAffinity -1.65392482
REMARK minimizedRMSD -1
REMARK  1 active torsions:
REMARK  status: ('A' for Active; 'I' for Inactive)
REMARK    1  A    between atoms: C1_2  and  C2_3 
ROOT
ATOM      1  C2  UNL d   1       0.746  -0.609  -1.459  0.00  0.00    -0.081 A 
ATOM      2  C3  UNL d   1       1.370  -1.326  -0.431  0.00  0.00     0.006 A 
ATOM      3  C4  UNL d   1       1.307  -0.871   0.889  0.00  0.00     0.002 A 
ATOM      4  C5  UNL d   1       0.613   0.303   1.202  0.00  0.00    -0.080 A 
ATOM      5  C6  UNL d   1       0.512   0.786   2.618  0.00  0.00     0.076 C 
ATOM      6  C7  UNL d   1       0.005   1.029   0.172  0.00  0.00     0.002 A 
ATOM      7  C8  UNL d   1       0.068   0.575  -1.147  0.00  0.00     0.006 A 
ENDROOT
BRANCH   1   8
ATOM      8  C1  UNL d   1       0.758  -1.131  -2.873  0.00  0.00     0.054 C 
ATOM      9  C   UNL d   1       1.114  -2.610  -2.914  0.00  0.00     0.018 C 
ENDBRANCH   1   8
TORSDOF 1
ENDMDL
