MODEL 1
REMARK minimizedAffinity -4.02222347
REMARK minimizedRMSD -1
REMARK  1 active torsions:
REMARK  status: ('A' for Active; 'I' for Inactive)
REMARK    1  A    between atoms: C1_2  and  C2_3 
ROOT
ATOM      1  C2  UNL d   1       0.500   0.197  -1.475  0.00  0.00    -0.081 A 
ATOM      2  C3  UNL d   1       1.574   0.325  -0.585  0.00  0.00     0.006 A 
ATOM      3  C4  UNL d   1       1.378   0.166   0.789  0.00  0.00     0.002 A 
ATOM      4  C5  UNL d   1       0.108  -0.131   1.295  0.00  0.00    -0.080 A 
ATOM      5  C6  UNL d   1      -0.110  -0.333   2.765  0.00  0.00     0.076 C 
ATOM      6  C7  UNL d   1      -0.968  -0.241   0.408  0.00  0.00     0.002 A 
ATOM      7  C8  UNL d   1      -0.773  -0.082  -0.966  0.00  0.00     0.006 A 
ENDROOT
BRANCH   1   8
ATOM      8  C1  UNL d   1       0.720   0.303  -2.962  0.00  0.00     0.054 C 
ATOM      9  C   UNL d   1       0.366  -0.998  -3.668  0.00  0.00     0.018 C 
ENDBRANCH   1   8
TORSDOF 1
ENDMDL
