MODEL 1
REMARK minimizedAffinity -4.18067265
REMARK minimizedRMSD -1
REMARK  1 active torsions:
REMARK  status: ('A' for Active; 'I' for Inactive)
REMARK    1  A    between atoms: C1_2  and  C2_3 
ROOT
ATOM      1  C2  UNL d   1      -2.057  -0.038   1.633  0.00  0.00    -0.081 A 
ATOM      2  C3  UNL d   1      -1.167  -0.623   2.543  0.00  0.00     0.006 A 
ATOM      3  C4  UNL d   1       0.212  -0.545   2.334  0.00  0.00     0.002 A 
ATOM      4  C5  UNL d   1       0.724   0.125   1.218  0.00  0.00    -0.080 A 
ATOM      5  C6  UNL d   1       2.203   0.242   0.997  0.00  0.00     0.076 C 
ATOM      6  C7  UNL d   1      -0.165   0.694   0.300  0.00  0.00     0.002 A 
ATOM      7  C8  UNL d   1      -1.544   0.615   0.508  0.00  0.00     0.006 A 
ENDROOT
BRANCH   1   8
ATOM      8  C1  UNL d   1      -3.542  -0.065   1.890  0.00  0.00     0.054 C 
ATOM      9  C   UNL d   1      -4.314   0.558   0.735  0.00  0.00     0.018 C 
ENDBRANCH   1   8
TORSDOF 1
ENDMDL
