MODEL 1
REMARK minimizedAffinity -5.51760387
REMARK minimizedRMSD -1
REMARK  1 active torsions:
REMARK  status: ('A' for Active; 'I' for Inactive)
REMARK    1  A    between atoms: C1_2  and  C2_3 
ROOT
ATOM      1  C2  UNL d   1      -0.039  -0.011  -0.773  0.00  0.00    -0.081 A 
ATOM      2  C3  UNL d   1      -1.387  -0.158  -0.422  0.00  0.00     0.006 A 
ATOM      3  C4  UNL d   1      -1.757  -0.323   0.914  0.00  0.00     0.002 A 
ATOM      4  C5  UNL d   1      -0.788  -0.337   1.923  0.00  0.00    -0.080 A 
ATOM      5  C6  UNL d   1      -1.174  -0.483   3.365  0.00  0.00     0.076 C 
ATOM      6  C7  UNL d   1       0.560  -0.207   1.571  0.00  0.00     0.002 A 
ATOM      7  C8  UNL d   1       0.931  -0.042   0.235  0.00  0.00     0.006 A 
ENDROOT
BRANCH   1   8
ATOM      8  C1  UNL d   1       0.358   0.233  -2.206  0.00  0.00     0.054 C 
ATOM      9  C   UNL d   1       0.579  -1.077  -2.949  0.00  0.00     0.018 C 
ENDBRANCH   1   8
TORSDOF 1
ENDMDL
