MODEL 1
REMARK minimizedAffinity -5.21573448
REMARK minimizedRMSD -1
REMARK  0 active torsions:
REMARK  status: ('A' for Active; 'I' for Inactive)
ROOT
ATOM      1  C   UNL d   1      -0.132  -3.685  -0.239  0.00  0.00     0.023 A 
ATOM      2  C1  UNL d   1      -0.451  -2.974   0.917  0.00  0.00     0.003 A 
ATOM      3  C2  UNL d   1      -0.400  -1.578   0.916  0.00  0.00     0.048 A 
ATOM      4  C3  UNL d   1      -0.030  -0.901  -0.245  0.00  0.00     0.023 A 
ATOM      5  C4  UNL d   1       0.290  -1.608  -1.404  0.00  0.00     0.048 A 
ATOM      6  C5  UNL d   1       0.239  -3.003  -1.398  0.00  0.00     0.003 A 
ATOM      7  I   UNL d   1       0.047   1.176  -0.248  0.00  0.00    -0.146 I 
ENDROOT
TORSDOF 0
ENDMDL
