MODEL 1
REMARK minimizedAffinity -1.76250184
REMARK minimizedRMSD -1
REMARK  0 active torsions:
REMARK  status: ('A' for Active; 'I' for Inactive)
ROOT
ATOM      1  C   UNL d   1      -0.095   1.785  -0.658  0.00  0.00     0.023 A 
ATOM      2  C1  UNL d   1      -0.715   1.446   0.545  0.00  0.00     0.003 A 
ATOM      3  C2  UNL d   1      -0.837   0.106   0.916  0.00  0.00     0.048 A 
ATOM      4  C3  UNL d   1      -0.335  -0.891   0.080  0.00  0.00     0.023 A 
ATOM      5  C4  UNL d   1       0.288  -0.557  -1.124  0.00  0.00     0.048 A 
ATOM      6  C5  UNL d   1       0.406   0.785  -1.491  0.00  0.00     0.003 A 
ATOM      7  I   UNL d   1      -0.514  -2.887   0.630  0.00  0.00    -0.146 I 
ENDROOT
TORSDOF 0
ENDMDL
