MODEL 1
REMARK minimizedAffinity -2.0644505
REMARK minimizedRMSD -1
REMARK  0 active torsions:
REMARK  status: ('A' for Active; 'I' for Inactive)
ROOT
ATOM      1  C   UNL d   1       0.401   1.711  -0.505  0.00  0.00     0.023 A 
ATOM      2  C1  UNL d   1       0.772   0.731  -1.426  0.00  0.00     0.003 A 
ATOM      3  C2  UNL d   1       0.524  -0.615  -1.153  0.00  0.00     0.048 A 
ATOM      4  C3  UNL d   1      -0.096  -0.975   0.043  0.00  0.00     0.023 A 
ATOM      5  C4  UNL d   1      -0.470   0.001   0.967  0.00  0.00     0.048 A 
ATOM      6  C5  UNL d   1      -0.219   1.347   0.690  0.00  0.00     0.003 A 
ATOM      7  I   UNL d   1      -0.467  -2.979   0.452  0.00  0.00    -0.146 I 
ENDROOT
TORSDOF 0
ENDMDL
