MODEL 1
REMARK minimizedAffinity -1.93597925
REMARK minimizedRMSD -1
REMARK  0 active torsions:
REMARK  status: ('A' for Active; 'I' for Inactive)
ROOT
ATOM      1  C   UNL d   1      -0.003   1.581  -0.847  0.00  0.00     0.023 A 
ATOM      2  C1  UNL d   1       0.618   0.674  -1.705  0.00  0.00     0.003 A 
ATOM      3  C2  UNL d   1       0.747  -0.666  -1.332  0.00  0.00     0.048 A 
ATOM      4  C3  UNL d   1       0.252  -1.091  -0.100  0.00  0.00     0.023 A 
ATOM      5  C4  UNL d   1      -0.371  -0.186   0.762  0.00  0.00     0.048 A 
ATOM      6  C5  UNL d   1      -0.497   1.152   0.385  0.00  0.00     0.003 A 
ATOM      7  I   UNL d   1       0.442  -3.084   0.458  0.00  0.00    -0.146 I 
ENDROOT
TORSDOF 0
ENDMDL
