MODEL 1
REMARK minimizedAffinity -3.61206269
REMARK minimizedRMSD -1
REMARK  0 active torsions:
REMARK  status: ('A' for Active; 'I' for Inactive)
ROOT
ATOM      1  C   UNL d   1       0.052  -2.986   0.648  0.00  0.00     0.023 A 
ATOM      2  C1  UNL d   1      -0.640  -1.883   1.148  0.00  0.00     0.003 A 
ATOM      3  C2  UNL d   1      -0.427  -0.616   0.600  0.00  0.00     0.048 A 
ATOM      4  C3  UNL d   1       0.479  -0.460  -0.449  0.00  0.00     0.023 A 
ATOM      5  C4  UNL d   1       1.173  -1.561  -0.953  0.00  0.00     0.048 A 
ATOM      6  C5  UNL d   1       0.957  -2.826  -0.401  0.00  0.00     0.003 A 
ATOM      7  I   UNL d   1       0.797   1.424  -1.266  0.00  0.00    -0.146 I 
ENDROOT
TORSDOF 0
ENDMDL
