MODEL 1
REMARK minimizedAffinity 1.04262745
REMARK minimizedRMSD -1
REMARK  0 active torsions:
REMARK  status: ('A' for Active; 'I' for Inactive)
ROOT
ATOM      1  C   UNL d   1      -0.406  -0.799  -0.364  0.00  0.00     0.023 A 
ATOM      2  C1  UNL d   1      -0.967   0.136   0.506  0.00  0.00     0.003 A 
ATOM      3  C2  UNL d   1      -0.240   1.270   0.876  0.00  0.00     0.048 A 
ATOM      4  C3  UNL d   1       1.046   1.462   0.372  0.00  0.00     0.023 A 
ATOM      5  C4  UNL d   1       1.610   0.529  -0.499  0.00  0.00     0.048 A 
ATOM      6  C5  UNL d   1       0.880  -0.603  -0.866  0.00  0.00     0.003 A 
ATOM      7  I   UNL d   1       2.129   3.148   0.922  0.00  0.00    -0.146 I 
ENDROOT
TORSDOF 0
ENDMDL
