MODEL 1
REMARK minimizedAffinity -4.91875648
REMARK minimizedRMSD -1
REMARK  0 active torsions:
REMARK  status: ('A' for Active; 'I' for Inactive)
ROOT
ATOM      1  C   UNL d   1      -0.040  -3.673  -1.165  0.00  0.00     0.023 A 
ATOM      2  C1  UNL d   1      -0.023  -2.743  -2.204  0.00  0.00     0.003 A 
ATOM      3  C2  UNL d   1       0.036  -1.377  -1.920  0.00  0.00     0.048 A 
ATOM      4  C3  UNL d   1       0.078  -0.948  -0.593  0.00  0.00     0.023 A 
ATOM      5  C4  UNL d   1       0.062  -1.876   0.450  0.00  0.00     0.048 A 
ATOM      6  C5  UNL d   1       0.002  -3.240   0.160  0.00  0.00     0.003 A 
ATOM      7  I   UNL d   1       0.165   1.084  -0.167  0.00  0.00    -0.146 I 
ENDROOT
TORSDOF 0
ENDMDL
