MODEL 1
REMARK minimizedAffinity -2.93297076
REMARK minimizedRMSD -1
REMARK  0 active torsions:
REMARK  status: ('A' for Active; 'I' for Inactive)
ROOT
ATOM      1  C   UNL d   1      -0.033  -2.688  -2.336  0.00  0.00     0.023 A 
ATOM      2  C1  UNL d   1      -0.479  -3.471  -1.271  0.00  0.00     0.003 A 
ATOM      3  C2  UNL d   1      -0.743  -2.882  -0.032  0.00  0.00     0.048 A 
ATOM      4  C3  UNL d   1      -0.560  -1.510   0.134  0.00  0.00     0.023 A 
ATOM      5  C4  UNL d   1      -0.115  -0.723  -0.929  0.00  0.00     0.048 A 
ATOM      6  C5  UNL d   1       0.148  -1.316  -2.166  0.00  0.00     0.003 A 
ATOM      7  I   UNL d   1      -0.952  -0.631   1.976  0.00  0.00    -0.146 I 
ENDROOT
TORSDOF 0
ENDMDL
