MODEL 1
REMARK minimizedAffinity -3.88910317
REMARK minimizedRMSD -1
REMARK  0 active torsions:
REMARK  status: ('A' for Active; 'I' for Inactive)
ROOT
ATOM      1  C   UNL d   1       0.217  -3.413   0.323  0.00  0.00     0.023 A 
ATOM      2  C1  UNL d   1      -0.752  -2.699   1.027  0.00  0.00     0.003 A 
ATOM      3  C2  UNL d   1      -0.820  -1.309   0.911  0.00  0.00     0.048 A 
ATOM      4  C3  UNL d   1       0.085  -0.639   0.088  0.00  0.00     0.023 A 
ATOM      5  C4  UNL d   1       1.057  -1.350  -0.619  0.00  0.00     0.048 A 
ATOM      6  C5  UNL d   1       1.121  -2.739  -0.499  0.00  0.00     0.003 A 
ATOM      7  I   UNL d   1      -0.013   1.429  -0.087  0.00  0.00    -0.146 I 
ENDROOT
TORSDOF 0
ENDMDL
