MODEL 1
REMARK minimizedAffinity -2.83109093
REMARK minimizedRMSD -1
REMARK  0 active torsions:
REMARK  status: ('A' for Active; 'I' for Inactive)
ROOT
ATOM      1  C   UNL d   1      -0.042   1.496  -1.160  0.00  0.00     0.023 A 
ATOM      2  C1  UNL d   1      -0.522   1.317   0.137  0.00  0.00     0.003 A 
ATOM      3  C2  UNL d   1      -0.551   0.040   0.702  0.00  0.00     0.048 A 
ATOM      4  C3  UNL d   1      -0.096  -1.053  -0.035  0.00  0.00     0.023 A 
ATOM      5  C4  UNL d   1       0.386  -0.878  -1.334  0.00  0.00     0.048 A 
ATOM      6  C5  UNL d   1       0.411   0.400  -1.895  0.00  0.00     0.003 A 
ATOM      7  I   UNL d   1      -0.137  -2.954   0.803  0.00  0.00    -0.146 I 
ENDROOT
TORSDOF 0
ENDMDL
