MODEL 1
REMARK minimizedAffinity 1.86544251
REMARK minimizedRMSD -1
REMARK  0 active torsions:
REMARK  status: ('A' for Active; 'I' for Inactive)
ROOT
ATOM      1  C1  DEN d   1       0.630   1.036  -1.237  0.00  0.00     0.130 A 
ATOM      2  C2  DEN d   1       0.469   2.335  -1.884  0.00  0.00    -0.031 A 
ATOM      3  C3  DEN d   1       1.752   2.687  -2.525  0.00  0.00     0.027 A 
ATOM      4  C4  DEN d   1       3.958   1.352  -2.583  0.00  0.00     0.027 A 
ATOM      5  C5  DEN d   1       4.583   0.198  -2.164  0.00  0.00    -0.003 A 
ATOM      6  C6  DEN d   1       3.950  -0.734  -1.386  0.00  0.00     0.001 A 
ATOM      7  C7  DEN d   1       2.638  -0.549  -1.038  0.00  0.00     0.017 A 
ATOM      8  C8  DEN d   1       2.003   0.615  -1.450  0.00  0.00    -0.094 A 
ATOM      9  C9  DEN d   1       2.656   1.540  -2.247  0.00  0.00    -0.072 A 
ENDROOT
TORSDOF 0
ENDMDL
