MODEL 1
REMARK minimizedAffinity 12.9970617
REMARK minimizedRMSD -1
REMARK  0 active torsions:
REMARK  status: ('A' for Active; 'I' for Inactive)
ROOT
ATOM      1  C1  DEN d   1       2.465  -3.598   1.109  0.00  0.00     0.130 A 
ATOM      2  C2  DEN d   1       1.230  -4.169   1.639  0.00  0.00    -0.031 A 
ATOM      3  C3  DEN d   1       0.100  -3.593   0.884  0.00  0.00     0.027 A 
ATOM      4  C4  DEN d   1       0.142  -1.884  -1.048  0.00  0.00     0.027 A 
ATOM      5  C5  DEN d   1       0.956  -1.102  -1.837  0.00  0.00    -0.003 A 
ATOM      6  C6  DEN d   1       2.316  -1.072  -1.679  0.00  0.00     0.001 A 
ATOM      7  C7  DEN d   1       2.908  -1.873  -0.738  0.00  0.00     0.017 A 
ATOM      8  C8  DEN d   1       2.093  -2.658   0.067  0.00  0.00    -0.094 A 
ATOM      9  C9  DEN d   1       0.721  -2.684  -0.117  0.00  0.00    -0.072 A 
ENDROOT
TORSDOF 0
ENDMDL
