MODEL 1
REMARK minimizedAffinity 13.2217398
REMARK minimizedRMSD -1
REMARK  0 active torsions:
REMARK  status: ('A' for Active; 'I' for Inactive)
ROOT
ATOM      1  C1  DEN d   1       2.610   1.175  -2.648  0.00  0.00     0.130 A 
ATOM      2  C2  DEN d   1       1.770   2.368  -2.688  0.00  0.00    -0.031 A 
ATOM      3  C3  DEN d   1       0.488   2.046  -2.028  0.00  0.00     0.027 A 
ATOM      4  C4  DEN d   1      -0.269  -0.172  -0.951  0.00  0.00     0.027 A 
ATOM      5  C5  DEN d   1       0.097  -1.473  -0.684  0.00  0.00    -0.003 A 
ATOM      6  C6  DEN d   1       1.303  -1.988  -1.079  0.00  0.00     0.001 A 
ATOM      7  C7  DEN d   1       2.205  -1.184  -1.724  0.00  0.00     0.017 A 
ATOM      8  C8  DEN d   1       1.840   0.126  -2.004  0.00  0.00    -0.094 A 
ATOM      9  C9  DEN d   1       0.621   0.632  -1.585  0.00  0.00    -0.072 A 
ENDROOT
TORSDOF 0
ENDMDL
