MODEL 1
REMARK minimizedAffinity 4.37695789
REMARK minimizedRMSD -1
REMARK  0 active torsions:
REMARK  status: ('A' for Active; 'I' for Inactive)
ROOT
ATOM      1  C1  DEN d   1      -5.999   1.323   5.171  0.00  0.00     0.130 A 
ATOM      2  C2  DEN d   1      -5.999   2.191   3.997  0.00  0.00    -0.031 A 
ATOM      3  C3  DEN d   1      -4.947   1.716   3.077  0.00  0.00     0.027 A 
ATOM      4  C4  DEN d   1      -3.329  -0.274   3.352  0.00  0.00     0.027 A 
ATOM      5  C5  DEN d   1      -2.943  -1.300   4.187  0.00  0.00    -0.003 A 
ATOM      6  C6  DEN d   1      -3.520  -1.500   5.413  0.00  0.00     0.001 A 
ATOM      7  C7  DEN d   1      -4.547  -0.691   5.820  0.00  0.00     0.017 A 
ATOM      8  C8  DEN d   1      -4.938   0.350   4.987  0.00  0.00    -0.094 A 
ATOM      9  C9  DEN d   1      -4.350   0.528   3.746  0.00  0.00    -0.072 A 
ENDROOT
TORSDOF 0
ENDMDL
