MODEL 1
REMARK minimizedAffinity 7.36455393
REMARK minimizedRMSD -1
REMARK  0 active torsions:
REMARK  status: ('A' for Active; 'I' for Inactive)
ROOT
ATOM      1  C1  DEN d   1       1.042   0.117  -0.423  0.00  0.00     0.130 A 
ATOM      2  C2  DEN d   1       1.774  -1.113  -0.717  0.00  0.00    -0.031 A 
ATOM      3  C3  DEN d   1       2.438  -0.947  -2.025  0.00  0.00     0.027 A 
ATOM      4  C4  DEN d   1       2.408   1.085  -3.614  0.00  0.00     0.027 A 
ATOM      5  C5  DEN d   1       1.915   2.357  -3.800  0.00  0.00    -0.003 A 
ATOM      6  C6  DEN d   1       1.076   2.954  -2.897  0.00  0.00     0.001 A 
ATOM      7  C7  DEN d   1       0.741   2.296  -1.744  0.00  0.00     0.017 A 
ATOM      8  C8  DEN d   1       1.228   1.009  -1.553  0.00  0.00    -0.094 A 
ATOM      9  C9  DEN d   1       2.085   0.428  -2.472  0.00  0.00    -0.072 A 
ENDROOT
TORSDOF 0
ENDMDL
