MODEL 1
REMARK minimizedAffinity 2.70733595
REMARK minimizedRMSD -1
REMARK  0 active torsions:
REMARK  status: ('A' for Active; 'I' for Inactive)
ROOT
ATOM      1  C1  DEN d   1      -0.695  -0.367   3.781  0.00  0.00     0.130 A 
ATOM      2  C2  DEN d   1      -0.503  -1.382   2.748  0.00  0.00    -0.031 A 
ATOM      3  C3  DEN d   1      -1.832  -1.768   2.235  0.00  0.00     0.027 A 
ATOM      4  C4  DEN d   1      -4.157  -0.896   2.932  0.00  0.00     0.027 A 
ATOM      5  C5  DEN d   1      -4.828  -0.039   3.777  0.00  0.00    -0.003 A 
ATOM      6  C6  DEN d   1      -4.176   0.737   4.698  0.00  0.00     0.001 A 
ATOM      7  C7  DEN d   1      -2.808   0.705   4.765  0.00  0.00     0.017 A 
ATOM      8  C8  DEN d   1      -2.125  -0.162   3.922  0.00  0.00    -0.094 A 
ATOM      9  C9  DEN d   1      -2.802  -0.929   2.989  0.00  0.00    -0.072 A 
ENDROOT
TORSDOF 0
ENDMDL
