MODEL 1
REMARK minimizedAffinity 4.60671949
REMARK minimizedRMSD -1
REMARK  0 active torsions:
REMARK  status: ('A' for Active; 'I' for Inactive)
ROOT
ATOM      1  C1  DEN d   1       1.056   0.897  -3.731  0.00  0.00     0.130 A 
ATOM      2  C2  DEN d   1       1.084   1.541  -2.420  0.00  0.00    -0.031 A 
ATOM      3  C3  DEN d   1       1.008   0.484  -1.391  0.00  0.00     0.027 A 
ATOM      4  C4  DEN d   1       0.853  -2.072  -1.698  0.00  0.00     0.027 A 
ATOM      5  C5  DEN d   1       0.786  -3.089  -2.624  0.00  0.00    -0.003 A 
ATOM      6  C6  DEN d   1       0.770  -2.849  -3.973  0.00  0.00     0.001 A 
ATOM      7  C7  DEN d   1       0.868  -1.563  -4.434  0.00  0.00     0.017 A 
ATOM      8  C8  DEN d   1       0.928  -0.532  -3.507  0.00  0.00    -0.094 A 
ATOM      9  C9  DEN d   1       0.955  -0.796  -2.148  0.00  0.00    -0.072 A 
ENDROOT
TORSDOF 0
ENDMDL
