MODEL 1
REMARK minimizedAffinity 5.66158485
REMARK minimizedRMSD -1
REMARK  0 active torsions:
REMARK  status: ('A' for Active; 'I' for Inactive)
ROOT
ATOM      1  C1  DEN d   1       2.805   0.360  -1.512  0.00  0.00     0.130 A 
ATOM      2  C2  DEN d   1       2.615   1.500  -2.404  0.00  0.00    -0.031 A 
ATOM      3  C3  DEN d   1       1.675   1.096  -3.468  0.00  0.00     0.027 A 
ATOM      4  C4  DEN d   1       0.498  -1.173  -3.817  0.00  0.00     0.027 A 
ATOM      5  C5  DEN d   1       0.355  -2.451  -3.324  0.00  0.00    -0.003 A 
ATOM      6  C6  DEN d   1       1.040  -2.889  -2.222  0.00  0.00     0.001 A 
ATOM      7  C7  DEN d   1       1.865  -2.027  -1.548  0.00  0.00     0.017 A 
ATOM      8  C8  DEN d   1       2.019  -0.739  -2.043  0.00  0.00    -0.094 A 
ATOM      9  C9  DEN d   1       1.309  -0.312  -3.152  0.00  0.00    -0.072 A 
ENDROOT
TORSDOF 0
ENDMDL
