MODEL 1
REMARK minimizedAffinity 5.93841076
REMARK minimizedRMSD -1
REMARK  0 active torsions:
REMARK  status: ('A' for Active; 'I' for Inactive)
ROOT
ATOM      1  C1  DEN d   1       1.145  -0.562  -3.330  0.00  0.00     0.130 A 
ATOM      2  C2  DEN d   1       1.914   0.679  -3.290  0.00  0.00    -0.031 A 
ATOM      3  C3  DEN d   1       2.865   0.590  -2.164  0.00  0.00     0.027 A 
ATOM      4  C4  DEN d   1       3.223  -1.340  -0.490  0.00  0.00     0.027 A 
ATOM      5  C5  DEN d   1       2.797  -2.596  -0.117  0.00  0.00    -0.003 A 
ATOM      6  C6  DEN d   1       1.776  -3.242  -0.762  0.00  0.00     0.001 A 
ATOM      7  C7  DEN d   1       1.176  -2.654  -1.844  0.00  0.00     0.017 A 
ATOM      8  C8  DEN d   1       1.595  -1.385  -2.222  0.00  0.00    -0.094 A 
ATOM      9  C9  DEN d   1       2.637  -0.753  -1.564  0.00  0.00    -0.072 A 
ENDROOT
TORSDOF 0
ENDMDL
