MODEL 1
REMARK minimizedAffinity 4.47269535
REMARK minimizedRMSD -1
REMARK  0 active torsions:
REMARK  status: ('A' for Active; 'I' for Inactive)
ROOT
ATOM      1  C1  DEN d   1       2.370   4.862  -2.648  0.00  0.00     0.130 A 
ATOM      2  C2  DEN d   1       2.341   5.901  -3.674  0.00  0.00    -0.031 A 
ATOM      3  C3  DEN d   1       1.911   5.278  -4.942  0.00  0.00     0.027 A 
ATOM      4  C4  DEN d   1       1.287   2.820  -5.413  0.00  0.00     0.027 A 
ATOM      5  C5  DEN d   1       1.171   1.565  -4.858  0.00  0.00    -0.003 A 
ATOM      6  C6  DEN d   1       1.477   1.316  -3.546  0.00  0.00     0.001 A 
ATOM      7  C7  DEN d   1       1.871   2.347  -2.734  0.00  0.00     0.017 A 
ATOM      8  C8  DEN d   1       1.997   3.613  -3.288  0.00  0.00    -0.094 A 
ATOM      9  C9  DEN d   1       1.671   3.847  -4.614  0.00  0.00    -0.072 A 
ENDROOT
TORSDOF 0
ENDMDL
