MODEL 1
REMARK minimizedAffinity -2.38846159
REMARK minimizedRMSD -1
REMARK  0 active torsions:
REMARK  status: ('A' for Active; 'I' for Inactive)
ROOT
ATOM      1  C1  DEN d   1      -0.408   0.697  -0.848  0.00  0.00     0.130 A 
ATOM      2  C2  DEN d   1      -0.803  -0.596  -0.294  0.00  0.00    -0.031 A 
ATOM      3  C3  DEN d   1       0.281  -1.560  -0.567  0.00  0.00     0.027 A 
ATOM      4  C4  DEN d   1       2.524  -1.178  -1.783  0.00  0.00     0.027 A 
ATOM      5  C5  DEN d   1       3.301  -0.249  -2.439  0.00  0.00    -0.003 A 
ATOM      6  C6  DEN d   1       2.885   1.040  -2.639  0.00  0.00     0.001 A 
ATOM      7  C7  DEN d   1       1.678   1.449  -2.138  0.00  0.00     0.017 A 
ATOM      8  C8  DEN d   1       0.885   0.517  -1.482  0.00  0.00    -0.094 A 
ATOM      9  C9  DEN d   1       1.329  -0.779  -1.279  0.00  0.00    -0.072 A 
ENDROOT
TORSDOF 0
ENDMDL
