MODEL 1
REMARK minimizedAffinity -1.38738286
REMARK minimizedRMSD -1
REMARK  0 active torsions:
REMARK  status: ('A' for Active; 'I' for Inactive)
ROOT
ATOM      1  C1  DEN d   1       3.026   1.652  -2.012  0.00  0.00     0.130 A 
ATOM      2  C2  DEN d   1       2.400   1.617  -3.331  0.00  0.00    -0.031 A 
ATOM      3  C3  DEN d   1       0.953   1.854  -3.156  0.00  0.00     0.027 A 
ATOM      4  C4  DEN d   1      -0.372   2.274  -0.983  0.00  0.00     0.027 A 
ATOM      5  C5  DEN d   1      -0.276   2.383   0.387  0.00  0.00    -0.003 A 
ATOM      6  C6  DEN d   1       0.912   2.223   1.051  0.00  0.00     0.001 A 
ATOM      7  C7  DEN d   1       2.060   1.991   0.341  0.00  0.00     0.017 A 
ATOM      8  C8  DEN d   1       1.970   1.872  -1.040  0.00  0.00    -0.094 A 
ATOM      9  C9  DEN d   1       0.763   2.049  -1.693  0.00  0.00    -0.072 A 
ENDROOT
TORSDOF 0
ENDMDL
