MODEL 1
REMARK minimizedAffinity 4.29104853
REMARK minimizedRMSD -1
REMARK  0 active torsions:
REMARK  status: ('A' for Active; 'I' for Inactive)
ROOT
ATOM      1  C1  DEN d   1       2.900   0.994  -1.438  0.00  0.00     0.130 A 
ATOM      2  C2  DEN d   1       2.343   0.444  -2.671  0.00  0.00    -0.031 A 
ATOM      3  C3  DEN d   1       0.877   0.613  -2.624  0.00  0.00     0.027 A 
ATOM      4  C4  DEN d   1      -0.577   1.669  -0.773  0.00  0.00     0.027 A 
ATOM      5  C5  DEN d   1      -0.555   2.263   0.470  0.00  0.00    -0.003 A 
ATOM      6  C6  DEN d   1       0.607   2.444   1.172  0.00  0.00     0.001 A 
ATOM      7  C7  DEN d   1       1.801   2.066   0.618  0.00  0.00     0.017 A 
ATOM      8  C8  DEN d   1       1.787   1.460  -0.631  0.00  0.00    -0.094 A 
ATOM      9  C9  DEN d   1       0.603   1.297  -1.331  0.00  0.00    -0.072 A 
ENDROOT
TORSDOF 0
ENDMDL
