MODEL 1
REMARK minimizedAffinity 7.31305313
REMARK minimizedRMSD -1
REMARK  0 active torsions:
REMARK  status: ('A' for Active; 'I' for Inactive)
ROOT
ATOM      1  C1  DEN d   1       0.977   0.514  -3.712  0.00  0.00     0.130 A 
ATOM      2  C2  DEN d   1       1.859   1.670  -3.577  0.00  0.00    -0.031 A 
ATOM      3  C3  DEN d   1       2.847   1.370  -2.522  0.00  0.00     0.027 A 
ATOM      4  C4  DEN d   1       3.099  -0.764  -1.094  0.00  0.00     0.027 A 
ATOM      5  C5  DEN d   1       2.575  -2.012  -0.839  0.00  0.00    -0.003 A 
ATOM      6  C6  DEN d   1       1.471  -2.488  -1.495  0.00  0.00     0.001 A 
ATOM      7  C7  DEN d   1       0.881  -1.729  -2.470  0.00  0.00     0.017 A 
ATOM      8  C8  DEN d   1       1.398  -0.467  -2.728  0.00  0.00    -0.094 A 
ATOM      9  C9  DEN d   1       2.523  -0.008  -2.063  0.00  0.00    -0.072 A 
ENDROOT
TORSDOF 0
ENDMDL
