MODEL 1
REMARK minimizedAffinity 7.06849384
REMARK minimizedRMSD -1
REMARK  0 active torsions:
REMARK  status: ('A' for Active; 'I' for Inactive)
ROOT
ATOM      1  C1  DEN d   1       2.607   1.547  -2.598  0.00  0.00     0.130 A 
ATOM      2  C2  DEN d   1       1.563   2.548  -2.797  0.00  0.00    -0.031 A 
ATOM      3  C3  DEN d   1       0.287   1.978  -2.318  0.00  0.00     0.027 A 
ATOM      4  C4  DEN d   1      -0.169  -0.342  -1.288  0.00  0.00     0.027 A 
ATOM      5  C5  DEN d   1       0.403  -1.543  -0.929  0.00  0.00    -0.003 A 
ATOM      6  C6  DEN d   1       1.732  -1.808  -1.130  0.00  0.00     0.001 A 
ATOM      7  C7  DEN d   1       2.543  -0.843  -1.665  0.00  0.00     0.017 A 
ATOM      8  C8  DEN d   1       1.972   0.367  -2.037  0.00  0.00    -0.094 A 
ATOM      9  C9  DEN d   1       0.630   0.621  -1.814  0.00  0.00    -0.072 A 
ENDROOT
TORSDOF 0
ENDMDL
