MODEL 1
REMARK minimizedAffinity 4.96922922
REMARK minimizedRMSD -1
REMARK  0 active torsions:
REMARK  status: ('A' for Active; 'I' for Inactive)
ROOT
ATOM      1  C1  DEN d   1       0.263   2.038  -1.648  0.00  0.00     0.130 A 
ATOM      2  C2  DEN d   1       0.579   3.226  -2.437  0.00  0.00    -0.031 A 
ATOM      3  C3  DEN d   1       1.859   2.985  -3.132  0.00  0.00     0.027 A 
ATOM      4  C4  DEN d   1       3.373   0.897  -3.068  0.00  0.00     0.027 A 
ATOM      5  C5  DEN d   1       3.528  -0.361  -2.529  0.00  0.00    -0.003 A 
ATOM      6  C6  DEN d   1       2.630  -0.890  -1.640  0.00  0.00     0.001 A 
ATOM      7  C7  DEN d   1       1.513  -0.175  -1.297  0.00  0.00     0.017 A 
ATOM      8  C8  DEN d   1       1.353   1.097  -1.831  0.00  0.00    -0.094 A 
ATOM      9  C9  DEN d   1       2.266   1.609  -2.737  0.00  0.00    -0.072 A 
ENDROOT
TORSDOF 0
ENDMDL
