MODEL 1
REMARK minimizedAffinity 4.30560446
REMARK minimizedRMSD -1
REMARK  0 active torsions:
REMARK  status: ('A' for Active; 'I' for Inactive)
ROOT
ATOM      1  C1  DEN d   1       0.098   1.626   0.582  0.00  0.00     0.130 A 
ATOM      2  C2  DEN d   1      -0.680   2.863   0.580  0.00  0.00    -0.031 A 
ATOM      3  C3  DEN d   1      -0.577   3.463  -0.766  0.00  0.00     0.027 A 
ATOM      4  C4  DEN d   1       0.699   2.601  -2.835  0.00  0.00     0.027 A 
ATOM      5  C5  DEN d   1       1.514   1.599  -3.314  0.00  0.00    -0.003 A 
ATOM      6  C6  DEN d   1       1.938   0.563  -2.525  0.00  0.00     0.001 A 
ATOM      7  C7  DEN d   1       1.512   0.480  -1.226  0.00  0.00     0.017 A 
ATOM      8  C8  DEN d   1       0.696   1.490  -0.733  0.00  0.00    -0.094 A 
ATOM      9  C9  DEN d   1       0.268   2.523  -1.550  0.00  0.00    -0.072 A 
ENDROOT
TORSDOF 0
ENDMDL
