MODEL 1
REMARK minimizedAffinity 0.387129664
REMARK minimizedRMSD -1
REMARK  3 active torsions:
REMARK  status: ('A' for Active; 'I' for Inactive)
REMARK    1  A    between atoms: C3'_2  and  C2'_3 
REMARK    2  A    between atoms: C2'_3  and  C1'_4 
REMARK    3  A    between atoms: C1'_4  and  C1_5 
ROOT
ATOM      1  C1  N4B d   1       2.204   2.618   0.313  0.00  0.00    -0.075 A 
ATOM      2  C2  N4B d   1       2.905   3.693  -0.276  0.00  0.00     0.002 A 
ATOM      3  C3  N4B d   1       2.215   4.760  -0.796  0.00  0.00     0.002 A 
ATOM      4  C4  N4B d   1       0.829   4.766  -0.754  0.00  0.00    -0.004 A 
ATOM      5  C5  N4B d   1       0.160   3.736  -0.159  0.00  0.00     0.002 A 
ATOM      6  C6  N4B d   1       0.841   2.659   0.370  0.00  0.00     0.002 A 
ENDROOT
BRANCH   1   7
ATOM      7  C1' N4B d   1       2.912   1.390   0.817  0.00  0.00     0.057 C 
BRANCH   7   8
ATOM      8  C2' N4B d   1       2.135   0.814   1.998  0.00  0.00     0.009 C 
BRANCH   8   9
ATOM      9  C3' N4B d   1       1.964  -0.691   1.885  0.00  0.00     0.004 C 
ATOM     10  C4' N4B d   1       2.208  -1.403   3.182  0.00  0.00     0.003 C 
ENDBRANCH   8   9
ENDBRANCH   7   8
ENDBRANCH   1   7
TORSDOF 3
ENDMDL
