MODEL 1
REMARK minimizedAffinity 6.9664793
REMARK minimizedRMSD -1
REMARK  3 active torsions:
REMARK  status: ('A' for Active; 'I' for Inactive)
REMARK    1  A    between atoms: C3'_2  and  C2'_3 
REMARK    2  A    between atoms: C2'_3  and  C1'_4 
REMARK    3  A    between atoms: C1'_4  and  C1_5 
ROOT
ATOM      1  C1  N4B d   1       2.455  -1.573   3.775  0.00  0.00    -0.075 A 
ATOM      2  C2  N4B d   1       3.827  -1.535   4.109  0.00  0.00     0.002 A 
ATOM      3  C3  N4B d   1       4.284  -2.217   5.211  0.00  0.00     0.002 A 
ATOM      4  C4  N4B d   1       3.389  -2.924   6.000  0.00  0.00    -0.004 A 
ATOM      5  C5  N4B d   1       2.070  -2.976   5.656  0.00  0.00     0.002 A 
ATOM      6  C6  N4B d   1       1.597  -2.299   4.549  0.00  0.00     0.002 A 
ENDROOT
BRANCH   1   7
ATOM      7  C1' N4B d   1       1.895  -0.774   2.630  0.00  0.00     0.057 C 
BRANCH   7   8
ATOM      8  C2' N4B d   1       2.250   0.697   2.825  0.00  0.00     0.009 C 
BRANCH   8   9
ATOM      9  C3' N4B d   1       3.229   1.189   1.772  0.00  0.00     0.004 C 
ATOM     10  C4' N4B d   1       3.072   2.649   1.469  0.00  0.00     0.003 C 
ENDBRANCH   8   9
ENDBRANCH   7   8
ENDBRANCH   1   7
TORSDOF 3
ENDMDL
