MODEL 1
REMARK minimizedAffinity 8.78586674
REMARK minimizedRMSD -1
REMARK  3 active torsions:
REMARK  status: ('A' for Active; 'I' for Inactive)
REMARK    1  A    between atoms: C3'_2  and  C2'_3 
REMARK    2  A    between atoms: C2'_3  and  C1'_4 
REMARK    3  A    between atoms: C1'_4  and  C1_5 
ROOT
ATOM      1  C1  N4B d   1       2.219   2.036   1.425  0.00  0.00    -0.075 A 
ATOM      2  C2  N4B d   1       3.261   2.853   1.915  0.00  0.00     0.002 A 
ATOM      3  C3  N4B d   1       3.742   2.662   3.187  0.00  0.00     0.002 A 
ATOM      4  C4  N4B d   1       3.186   1.677   3.990  0.00  0.00    -0.004 A 
ATOM      5  C5  N4B d   1       2.197   0.875   3.500  0.00  0.00     0.002 A 
ATOM      6  C6  N4B d   1       1.707   1.053   2.222  0.00  0.00     0.002 A 
ENDROOT
BRANCH   1   7
ATOM      7  C1' N4B d   1       1.601   2.263   0.072  0.00  0.00     0.057 C 
BRANCH   7   8
ATOM      8  C2' N4B d   1       0.880   3.607   0.070  0.00  0.00     0.009 C 
BRANCH   8   9
ATOM      9  C3' N4B d   1      -0.211   3.668   1.125  0.00  0.00     0.004 C 
ATOM     10  C4' N4B d   1      -0.603   5.073   1.474  0.00  0.00     0.003 C 
ENDBRANCH   8   9
ENDBRANCH   7   8
ENDBRANCH   1   7
TORSDOF 3
ENDMDL
