MODEL 1
REMARK minimizedAffinity 6.37865591
REMARK minimizedRMSD -1
REMARK  2 active torsions:
REMARK  status: ('A' for Active; 'I' for Inactive)
REMARK    1  A    between atoms: C1_2  and  C2_3 
REMARK    2  A    between atoms: C2_3  and  C3_4 
ROOT
ATOM      1  C3  UNL d   1       0.952   3.137  -2.458  0.00  0.00    -0.075 A 
ATOM      2  C4  UNL d   1       1.011   4.307  -1.688  0.00  0.00     0.002 A 
ATOM      3  C5  UNL d   1       2.164   5.093  -1.680  0.00  0.00     0.002 A 
ATOM      4  C6  UNL d   1       3.274   4.714  -2.432  0.00  0.00    -0.004 A 
ATOM      5  C7  UNL d   1       3.232   3.544  -3.188  0.00  0.00     0.002 A 
ATOM      6  C8  UNL d   1       2.079   2.758  -3.201  0.00  0.00     0.002 A 
ENDROOT
BRANCH   1   7
ATOM      7  C2  UNL d   1      -0.303   2.298  -2.493  0.00  0.00     0.056 C 
BRANCH   7   8
ATOM      8  C1  UNL d   1      -0.222   1.095  -3.439  0.00  0.00     0.007 C 
ATOM      9  C   UNL d   1      -1.573   0.438  -3.691  0.00  0.00     0.009 C 
ENDBRANCH   7   8
ENDBRANCH   1   7
TORSDOF 2
ENDMDL
