MODEL 1
REMARK minimizedAffinity 10.201848
REMARK minimizedRMSD -1
REMARK  2 active torsions:
REMARK  status: ('A' for Active; 'I' for Inactive)
REMARK    1  A    between atoms: C1_2  and  C2_3 
REMARK    2  A    between atoms: C2_3  and  C3_4 
ROOT
ATOM      1  C3  UNL d   1      -2.798   2.215  -2.744  0.00  0.00    -0.075 A 
ATOM      2  C4  UNL d   1      -4.053   1.591  -2.718  0.00  0.00     0.002 A 
ATOM      3  C5  UNL d   1      -5.215   2.328  -2.948  0.00  0.00     0.002 A 
ATOM      4  C6  UNL d   1      -5.138   3.697  -3.197  0.00  0.00    -0.004 A 
ATOM      5  C7  UNL d   1      -3.897   4.330  -3.209  0.00  0.00     0.002 A 
ATOM      6  C8  UNL d   1      -2.732   3.594  -2.983  0.00  0.00     0.002 A 
ENDROOT
BRANCH   1   7
ATOM      7  C2  UNL d   1      -1.534   1.417  -2.524  0.00  0.00     0.056 C 
BRANCH   7   8
ATOM      8  C1  UNL d   1      -1.431   0.160  -3.394  0.00  0.00     0.007 C 
ATOM      9  C   UNL d   1      -0.262  -0.739  -3.014  0.00  0.00     0.009 C 
ENDBRANCH   7   8
ENDBRANCH   1   7
TORSDOF 2
ENDMDL
