MODEL 1
REMARK minimizedAffinity 12.6846256
REMARK minimizedRMSD -1
REMARK  2 active torsions:
REMARK  status: ('A' for Active; 'I' for Inactive)
REMARK    1  A    between atoms: C1_2  and  C2_3 
REMARK    2  A    between atoms: C2_3  and  C3_4 
ROOT
ATOM      1  C3  UNL d   1      -3.755   2.849  -3.456  0.00  0.00    -0.075 A 
ATOM      2  C4  UNL d   1      -4.135   2.220  -2.262  0.00  0.00     0.002 A 
ATOM      3  C5  UNL d   1      -3.473   1.072  -1.824  0.00  0.00     0.002 A 
ATOM      4  C6  UNL d   1      -2.432   0.535  -2.578  0.00  0.00    -0.004 A 
ATOM      5  C7  UNL d   1      -2.057   1.142  -3.775  0.00  0.00     0.002 A 
ATOM      6  C8  UNL d   1      -2.715   2.293  -4.213  0.00  0.00     0.002 A 
ENDROOT
BRANCH   1   7
ATOM      7  C2  UNL d   1      -4.448   4.108  -3.920  0.00  0.00     0.056 C 
BRANCH   7   8
ATOM      8  C1  UNL d   1      -5.654   4.508  -3.064  0.00  0.00     0.007 C 
ATOM      9  C   UNL d   1      -5.708   6.000  -2.763  0.00  0.00     0.009 C 
ENDBRANCH   7   8
ENDBRANCH   1   7
TORSDOF 2
ENDMDL
