MODEL 1
REMARK minimizedAffinity 0.855327487
REMARK minimizedRMSD -1
REMARK  2 active torsions:
REMARK  status: ('A' for Active; 'I' for Inactive)
REMARK    1  A    between atoms: C1_2  and  C2_3 
REMARK    2  A    between atoms: C2_3  and  C3_4 
ROOT
ATOM      1  C3  UNL d   1      -3.866   2.732  -3.172  0.00  0.00    -0.075 A 
ATOM      2  C4  UNL d   1      -3.393   2.712  -1.852  0.00  0.00     0.002 A 
ATOM      3  C5  UNL d   1      -2.598   1.658  -1.401  0.00  0.00     0.002 A 
ATOM      4  C6  UNL d   1      -2.275   0.609  -2.258  0.00  0.00    -0.004 A 
ATOM      5  C7  UNL d   1      -2.753   0.610  -3.566  0.00  0.00     0.002 A 
ATOM      6  C8  UNL d   1      -3.546   1.666  -4.022  0.00  0.00     0.002 A 
ENDROOT
BRANCH   1   7
ATOM      7  C2  UNL d   1      -4.703   3.885  -3.675  0.00  0.00     0.056 C 
BRANCH   7   8
ATOM      8  C1  UNL d   1      -5.700   4.428  -2.646  0.00  0.00     0.007 C 
ATOM      9  C   UNL d   1      -5.533   5.917  -2.377  0.00  0.00     0.009 C 
ENDBRANCH   7   8
ENDBRANCH   1   7
TORSDOF 2
ENDMDL
