MODEL 1
REMARK minimizedAffinity 12.5339365
REMARK minimizedRMSD -1
REMARK  2 active torsions:
REMARK  status: ('A' for Active; 'I' for Inactive)
REMARK    1  A    between atoms: C1_2  and  C2_3 
REMARK    2  A    between atoms: C2_3  and  C3_4 
ROOT
ATOM      1  C3  UNL d   1      -3.335   2.269  -2.409  0.00  0.00    -0.075 A 
ATOM      2  C4  UNL d   1      -2.409   2.425  -1.367  0.00  0.00     0.002 A 
ATOM      3  C5  UNL d   1      -1.505   1.407  -1.064  0.00  0.00     0.002 A 
ATOM      4  C6  UNL d   1      -1.522   0.218  -1.790  0.00  0.00    -0.004 A 
ATOM      5  C7  UNL d   1      -2.448   0.045  -2.816  0.00  0.00     0.002 A 
ATOM      6  C8  UNL d   1      -3.351   1.064  -3.124  0.00  0.00     0.002 A 
ENDROOT
BRANCH   1   7
ATOM      7  C2  UNL d   1      -4.296   3.379  -2.761  0.00  0.00     0.056 C 
BRANCH   7   8
ATOM      8  C1  UNL d   1      -4.368   3.690  -4.260  0.00  0.00     0.007 C 
ATOM      9  C   UNL d   1      -3.146   4.437  -4.777  0.00  0.00     0.009 C 
ENDBRANCH   7   8
ENDBRANCH   1   7
TORSDOF 2
ENDMDL
