MODEL 1
REMARK minimizedAffinity 12.5963211
REMARK minimizedRMSD -1
REMARK  2 active torsions:
REMARK  status: ('A' for Active; 'I' for Inactive)
REMARK    1  A    between atoms: C1_2  and  C2_3 
REMARK    2  A    between atoms: C2_3  and  C3_4 
ROOT
ATOM      1  C3  UNL d   1      -2.991   2.958  -3.312  0.00  0.00    -0.075 A 
ATOM      2  C4  UNL d   1      -3.372   2.302  -2.132  0.00  0.00     0.002 A 
ATOM      3  C5  UNL d   1      -2.750   1.114  -1.750  0.00  0.00     0.002 A 
ATOM      4  C6  UNL d   1      -1.748   0.561  -2.545  0.00  0.00    -0.004 A 
ATOM      5  C7  UNL d   1      -1.373   1.195  -3.728  0.00  0.00     0.002 A 
ATOM      6  C8  UNL d   1      -1.991   2.387  -4.111  0.00  0.00     0.002 A 
ENDROOT
BRANCH   1   7
ATOM      7  C2  UNL d   1      -3.640   4.260  -3.717  0.00  0.00     0.056 C 
BRANCH   7   8
ATOM      8  C1  UNL d   1      -4.981   4.530  -3.025  0.00  0.00     0.007 C 
ATOM      9  C   UNL d   1      -5.196   5.999  -2.686  0.00  0.00     0.009 C 
ENDBRANCH   7   8
ENDBRANCH   1   7
TORSDOF 2
ENDMDL
