MODEL 1
REMARK minimizedAffinity 3.99366188
REMARK minimizedRMSD -1
REMARK  2 active torsions:
REMARK  status: ('A' for Active; 'I' for Inactive)
REMARK    1  A    between atoms: C1_2  and  C2_3 
REMARK    2  A    between atoms: C2_3  and  C3_4 
ROOT
ATOM      1  C3  UNL d   1       3.754  -3.716  -5.060  0.00  0.00    -0.075 A 
ATOM      2  C4  UNL d   1       3.545  -4.982  -4.494  0.00  0.00     0.002 A 
ATOM      3  C5  UNL d   1       4.484  -6.000  -4.670  0.00  0.00     0.002 A 
ATOM      4  C6  UNL d   1       5.635  -5.768  -5.420  0.00  0.00    -0.004 A 
ATOM      5  C7  UNL d   1       5.844  -4.519  -6.000  0.00  0.00     0.002 A 
ATOM      6  C8  UNL d   1       4.909  -3.498  -5.822  0.00  0.00     0.002 A 
ENDROOT
BRANCH   1   7
ATOM      7  C2  UNL d   1       2.756  -2.602  -4.849  0.00  0.00     0.056 C 
BRANCH   7   8
ATOM      8  C1  UNL d   1       2.519  -2.248  -3.377  0.00  0.00     0.007 C 
ATOM      9  C   UNL d   1       1.140  -2.659  -2.876  0.00  0.00     0.009 C 
ENDBRANCH   7   8
ENDBRANCH   1   7
TORSDOF 2
ENDMDL
