MODEL 1
REMARK minimizedAffinity -2.39112115
REMARK minimizedRMSD -1
REMARK  0 active torsions:
REMARK  status: ('A' for Active; 'I' for Inactive)
ROOT
ATOM      1  C   UNL d   1       0.080   1.367  -0.204  0.00  0.00     0.020 A 
ATOM      2  C1  UNL d   1       1.336   1.912   0.058  0.00  0.00     0.020 A 
ATOM      3  C2  UNL d   1       2.370   1.093   0.518  0.00  0.00     0.034 A 
ATOM      4  C3  UNL d   1       2.150  -0.275   0.716  0.00  0.00     0.017 A 
ATOM      5  C4  UNL d   1       0.888  -0.821   0.452  0.00  0.00     0.017 A 
ATOM      6  C5  UNL d   1      -0.144   0.004  -0.007  0.00  0.00     0.034 A 
ATOM      7 Cl   UNL d   1       0.540  -2.499   0.673  0.00  0.00    -0.070 Cl
ATOM      8 Cl1  UNL d   1       3.473  -1.228   1.286  0.00  0.00    -0.070 Cl
ENDROOT
TORSDOF 0
ENDMDL
