MODEL 1
REMARK minimizedAffinity -4.50747538
REMARK minimizedRMSD -1
REMARK  0 active torsions:
REMARK  status: ('A' for Active; 'I' for Inactive)
ROOT
ATOM      1  C   UNL d   1       2.164  -1.004   1.983  0.00  0.00     0.020 A 
ATOM      2  C1  UNL d   1       1.132  -1.938   1.906  0.00  0.00     0.020 A 
ATOM      3  C2  UNL d   1      -0.004  -1.662   1.143  0.00  0.00     0.034 A 
ATOM      4  C3  UNL d   1      -0.112  -0.448   0.454  0.00  0.00     0.017 A 
ATOM      5  C4  UNL d   1       0.925   0.489   0.532  0.00  0.00     0.017 A 
ATOM      6  C5  UNL d   1       2.061   0.207   1.297  0.00  0.00     0.034 A 
ATOM      7 Cl   UNL d   1       0.865   2.008  -0.291  0.00  0.00    -0.070 Cl
ATOM      8 Cl1  UNL d   1      -1.545  -0.173  -0.471  0.00  0.00    -0.070 Cl
ENDROOT
TORSDOF 0
ENDMDL
