MODEL 1
REMARK minimizedAffinity -4.87017727
REMARK minimizedRMSD -1
REMARK  0 active torsions:
REMARK  status: ('A' for Active; 'I' for Inactive)
ROOT
ATOM      1  C   UNL d   1       0.374  -0.015  -0.446  0.00  0.00     0.020 A 
ATOM      2  C1  UNL d   1      -0.120   1.175   0.088  0.00  0.00     0.020 A 
ATOM      3  C2  UNL d   1       0.535   1.785   1.159  0.00  0.00     0.034 A 
ATOM      4  C3  UNL d   1       1.689   1.207   1.700  0.00  0.00     0.017 A 
ATOM      5  C4  UNL d   1       2.184   0.013   1.164  0.00  0.00     0.017 A 
ATOM      6  C5  UNL d   1       1.524  -0.594   0.091  0.00  0.00     0.034 A 
ATOM      7 Cl   UNL d   1       3.603  -0.761   1.779  0.00  0.00    -0.070 Cl
ATOM      8 Cl1  UNL d   1       2.448   2.016   3.025  0.00  0.00    -0.070 Cl
ENDROOT
TORSDOF 0
ENDMDL
