MODEL 1
REMARK minimizedAffinity -3.08291411
REMARK minimizedRMSD -1
REMARK  0 active torsions:
REMARK  status: ('A' for Active; 'I' for Inactive)
ROOT
ATOM      1  C   UNL d   1       2.491  -0.867  -0.082  0.00  0.00     0.020 A 
ATOM      2  C1  UNL d   1       3.046   0.181   0.652  0.00  0.00     0.020 A 
ATOM      3  C2  UNL d   1       2.249   1.260   1.041  0.00  0.00     0.034 A 
ATOM      4  C3  UNL d   1       0.892   1.293   0.696  0.00  0.00     0.017 A 
ATOM      5  C4  UNL d   1       0.337   0.241  -0.041  0.00  0.00     0.017 A 
ATOM      6  C5  UNL d   1       1.139  -0.837  -0.427  0.00  0.00     0.034 A 
ATOM      7 Cl   UNL d   1      -1.329   0.212  -0.503  0.00  0.00    -0.070 Cl
ATOM      8 Cl1  UNL d   1      -0.034   2.658   1.211  0.00  0.00    -0.070 Cl
ENDROOT
TORSDOF 0
ENDMDL
