MODEL 1
REMARK minimizedAffinity -2.78538966
REMARK minimizedRMSD -1
REMARK  0 active torsions:
REMARK  status: ('A' for Active; 'I' for Inactive)
ROOT
ATOM      1  C   UNL d   1       2.367   1.558   4.050  0.00  0.00     0.020 A 
ATOM      2  C1  UNL d   1       2.167   0.423   4.835  0.00  0.00     0.020 A 
ATOM      3  C2  UNL d   1       2.084  -0.835   4.235  0.00  0.00     0.034 A 
ATOM      4  C3  UNL d   1       2.202  -0.961   2.846  0.00  0.00     0.017 A 
ATOM      5  C4  UNL d   1       2.403   0.178   2.059  0.00  0.00     0.017 A 
ATOM      6  C5  UNL d   1       2.485   1.436   2.665  0.00  0.00     0.034 A 
ATOM      7 Cl   UNL d   1       2.558   0.102   0.339  0.00  0.00    -0.070 Cl
ATOM      8 Cl1  UNL d   1       2.090  -2.548   2.171  0.00  0.00    -0.070 Cl
ENDROOT
TORSDOF 0
ENDMDL
