MODEL 1
REMARK minimizedAffinity -4.554564
REMARK minimizedRMSD -1
REMARK  0 active torsions:
REMARK  status: ('A' for Active; 'I' for Inactive)
ROOT
ATOM      1  C   UNL d   1       3.326   0.387   1.221  0.00  0.00     0.020 A 
ATOM      2  C1  UNL d   1       3.724  -0.731   1.953  0.00  0.00     0.020 A 
ATOM      3  C2  UNL d   1       2.843  -1.801   2.128  0.00  0.00     0.034 A 
ATOM      4  C3  UNL d   1       1.560  -1.755   1.570  0.00  0.00     0.017 A 
ATOM      5  C4  UNL d   1       1.162  -0.632   0.835  0.00  0.00     0.017 A 
ATOM      6  C5  UNL d   1       2.048   0.436   0.663  0.00  0.00     0.034 A 
ATOM      7 Cl   UNL d   1      -0.404  -0.503   0.116  0.00  0.00    -0.070 Cl
ATOM      8 Cl1  UNL d   1       0.524  -3.114   1.825  0.00  0.00    -0.070 Cl
ENDROOT
TORSDOF 0
ENDMDL
