MODEL 1
REMARK minimizedAffinity -3.56725359
REMARK minimizedRMSD -1
REMARK  0 active torsions:
REMARK  status: ('A' for Active; 'I' for Inactive)
ROOT
ATOM      1  C   UNL d   1       2.826   0.810   1.088  0.00  0.00     0.020 A 
ATOM      2  C1  UNL d   1       2.201   1.798   0.328  0.00  0.00     0.020 A 
ATOM      3  C2  UNL d   1       0.918   1.582  -0.179  0.00  0.00     0.034 A 
ATOM      4  C3  UNL d   1       0.256   0.375   0.074  0.00  0.00     0.017 A 
ATOM      5  C4  UNL d   1       0.884  -0.616   0.837  0.00  0.00     0.017 A 
ATOM      6  C5  UNL d   1       2.169  -0.394   1.341  0.00  0.00     0.034 A 
ATOM      7 Cl   UNL d   1       0.130  -2.130   1.190  0.00  0.00    -0.070 Cl
ATOM      8 Cl1  UNL d   1      -1.330   0.176  -0.584  0.00  0.00    -0.070 Cl
ENDROOT
TORSDOF 0
ENDMDL
