MODEL 1
REMARK minimizedAffinity 0.44428274
REMARK minimizedRMSD -1
REMARK  0 active torsions:
REMARK  status: ('A' for Active; 'I' for Inactive)
ROOT
ATOM      1  C   UNL d   1      -1.711  -0.508  -0.262  0.00  0.00     0.020 A 
ATOM      2  C1  UNL d   1      -0.899  -1.529   0.228  0.00  0.00     0.020 A 
ATOM      3  C2  UNL d   1       0.390  -1.240   0.680  0.00  0.00     0.034 A 
ATOM      4  C3  UNL d   1       0.871   0.074   0.643  0.00  0.00     0.017 A 
ATOM      5  C4  UNL d   1       0.055   1.099   0.151  0.00  0.00     0.017 A 
ATOM      6  C5  UNL d   1      -1.235   0.804  -0.301  0.00  0.00     0.034 A 
ATOM      7 Cl   UNL d   1       0.578   2.744   0.074  0.00  0.00    -0.070 Cl
ATOM      8 Cl1  UNL d   1       2.475   0.360   1.218  0.00  0.00    -0.070 Cl
ENDROOT
TORSDOF 0
ENDMDL
