MODEL 1
REMARK minimizedAffinity -1.6978184
REMARK minimizedRMSD -1
REMARK  0 active torsions:
REMARK  status: ('A' for Active; 'I' for Inactive)
ROOT
ATOM      1  C   UNL d   1      -2.182  -0.682   0.436  0.00  0.00     0.020 A 
ATOM      2  C1  UNL d   1      -1.465  -1.809   0.835  0.00  0.00     0.020 A 
ATOM      3  C2  UNL d   1      -0.072  -1.758   0.917  0.00  0.00     0.034 A 
ATOM      4  C3  UNL d   1       0.609  -0.578   0.599  0.00  0.00     0.017 A 
ATOM      5  C4  UNL d   1      -0.111   0.553   0.198  0.00  0.00     0.017 A 
ATOM      6  C5  UNL d   1      -1.506   0.497   0.118  0.00  0.00     0.034 A 
ATOM      7 Cl   UNL d   1       0.660   2.046  -0.210  0.00  0.00    -0.070 Cl
ATOM      8 Cl1  UNL d   1       2.332  -0.586   0.723  0.00  0.00    -0.070 Cl
ENDROOT
TORSDOF 0
ENDMDL
