MODEL 1
REMARK minimizedAffinity 1.19465387
REMARK minimizedRMSD -1
REMARK  0 active torsions:
REMARK  status: ('A' for Active; 'I' for Inactive)
ROOT
ATOM      1  C   UNL d   1       1.717   0.067   1.150  0.00  0.00     0.020 A 
ATOM      2  C1  UNL d   1       1.692   0.761  -0.060  0.00  0.00     0.020 A 
ATOM      3  C2  UNL d   1       0.546   0.731  -0.858  0.00  0.00     0.034 A 
ATOM      4  C3  UNL d   1      -0.578   0.005  -0.449  0.00  0.00     0.017 A 
ATOM      5  C4  UNL d   1      -0.552  -0.691   0.765  0.00  0.00     0.017 A 
ATOM      6  C5  UNL d   1       0.597  -0.657   1.561  0.00  0.00     0.034 A 
ATOM      7 Cl   UNL d   1      -1.901  -1.608   1.337  0.00  0.00    -0.070 Cl
ATOM      8 Cl1  UNL d   1      -1.960   0.012  -1.486  0.00  0.00    -0.070 Cl
ENDROOT
TORSDOF 0
ENDMDL
