MODEL 1
REMARK minimizedAffinity -0.776048064
REMARK minimizedRMSD -1
REMARK  0 active torsions:
REMARK  status: ('A' for Active; 'I' for Inactive)
ROOT
ATOM      1  C   UNL d   1       2.230   1.584   0.369  0.00  0.00     0.023 A 
ATOM      2  C1  UNL d   1       0.859   1.598   0.109  0.00  0.00     0.003 A 
ATOM      3  C2  UNL d   1       0.134   0.404   0.116  0.00  0.00     0.048 A 
ATOM      4  C3  UNL d   1       0.786  -0.799   0.385  0.00  0.00     0.023 A 
ATOM      5  C4  UNL d   1       2.157  -0.817   0.646  0.00  0.00     0.048 A 
ATOM      6  C5  UNL d   1       2.878   0.379   0.637  0.00  0.00     0.003 A 
ATOM      7  I   UNL d   1      -0.291  -2.576   0.397  0.00  0.00    -0.146 I 
ENDROOT
TORSDOF 0
ENDMDL
