MODEL 1
REMARK minimizedAffinity -0.91732192
REMARK minimizedRMSD -1
REMARK  0 active torsions:
REMARK  status: ('A' for Active; 'I' for Inactive)
ROOT
ATOM      1  C   UNL d   1       0.753   1.764  -0.033  0.00  0.00     0.023 A 
ATOM      2  C1  UNL d   1      -0.077   0.643  -0.054  0.00  0.00     0.003 A 
ATOM      3  C2  UNL d   1       0.209  -0.454   0.761  0.00  0.00     0.048 A 
ATOM      4  C3  UNL d   1       1.325  -0.423   1.596  0.00  0.00     0.023 A 
ATOM      5  C4  UNL d   1       2.157   0.698   1.622  0.00  0.00     0.048 A 
ATOM      6  C5  UNL d   1       1.868   1.792   0.804  0.00  0.00     0.003 A 
ATOM      7  I   UNL d   1       1.752  -2.054   2.811  0.00  0.00    -0.146 I 
ENDROOT
TORSDOF 0
ENDMDL
