MODEL 1
REMARK minimizedAffinity -1.05664194
REMARK minimizedRMSD -1
REMARK  0 active torsions:
REMARK  status: ('A' for Active; 'I' for Inactive)
ROOT
ATOM      1  C   UNL d   1       1.221   0.841   0.686  0.00  0.00     0.023 A 
ATOM      2  C1  UNL d   1       1.080   1.611  -0.469  0.00  0.00     0.003 A 
ATOM      3  C2  UNL d   1      -0.010   1.407  -1.317  0.00  0.00     0.048 A 
ATOM      4  C3  UNL d   1      -0.956   0.431  -1.004  0.00  0.00     0.023 A 
ATOM      5  C4  UNL d   1      -0.820  -0.341   0.151  0.00  0.00     0.048 A 
ATOM      6  C5  UNL d   1       0.272  -0.133   0.995  0.00  0.00     0.003 A 
ATOM      7  I   UNL d   1      -2.580   0.125  -2.265  0.00  0.00    -0.146 I 
ENDROOT
TORSDOF 0
ENDMDL
