MODEL 1
REMARK minimizedAffinity -3.47926807
REMARK minimizedRMSD -1
REMARK  0 active torsions:
REMARK  status: ('A' for Active; 'I' for Inactive)
ROOT
ATOM      1  C   UNL d   1       2.723   1.223   0.617  0.00  0.00     0.023 A 
ATOM      2  C1  UNL d   1       1.824   2.233   0.272  0.00  0.00     0.003 A 
ATOM      3  C2  UNL d   1       0.500   1.915  -0.037  0.00  0.00     0.048 A 
ATOM      4  C3  UNL d   1       0.081   0.585   0.001  0.00  0.00     0.023 A 
ATOM      5  C4  UNL d   1       0.977  -0.428   0.346  0.00  0.00     0.048 A 
ATOM      6  C5  UNL d   1       2.300  -0.106   0.653  0.00  0.00     0.003 A 
ATOM      7  I   UNL d   1      -1.889   0.109  -0.459  0.00  0.00    -0.146 I 
ENDROOT
TORSDOF 0
ENDMDL
