MODEL 1
REMARK minimizedAffinity -2.02789712
REMARK minimizedRMSD -1
REMARK  0 active torsions:
REMARK  status: ('A' for Active; 'I' for Inactive)
ROOT
ATOM      1  C   UNL d   1       2.451  -0.797   4.339  0.00  0.00     0.023 A 
ATOM      2  C1  UNL d   1       2.239   0.576   4.462  0.00  0.00     0.003 A 
ATOM      3  C2  UNL d   1       2.081   1.364   3.321  0.00  0.00     0.048 A 
ATOM      4  C3  UNL d   1       2.136   0.773   2.059  0.00  0.00     0.023 A 
ATOM      5  C4  UNL d   1       2.347  -0.601   1.931  0.00  0.00     0.048 A 
ATOM      6  C5  UNL d   1       2.505  -1.385   3.075  0.00  0.00     0.003 A 
ATOM      7  I   UNL d   1       1.901   1.945   0.359  0.00  0.00    -0.146 I 
ENDROOT
TORSDOF 0
ENDMDL
