MODEL 1
REMARK minimizedAffinity -3.0122683
REMARK minimizedRMSD -1
REMARK  0 active torsions:
REMARK  status: ('A' for Active; 'I' for Inactive)
ROOT
ATOM      1  C   UNL d   1       1.367   2.026  -0.004  0.00  0.00     0.023 A 
ATOM      2  C1  UNL d   1       2.564   1.617   0.583  0.00  0.00     0.003 A 
ATOM      3  C2  UNL d   1       2.610   0.437   1.329  0.00  0.00     0.048 A 
ATOM      4  C3  UNL d   1       1.455  -0.329   1.482  0.00  0.00     0.023 A 
ATOM      5  C4  UNL d   1       0.255   0.076   0.896  0.00  0.00     0.048 A 
ATOM      6  C5  UNL d   1       0.214   1.257   0.152  0.00  0.00     0.003 A 
ATOM      7  I   UNL d   1       1.521  -2.085   2.592  0.00  0.00    -0.146 I 
ENDROOT
TORSDOF 0
ENDMDL
