MODEL 1
REMARK minimizedAffinity 0.424823403
REMARK minimizedRMSD -1
REMARK  0 active torsions:
REMARK  status: ('A' for Active; 'I' for Inactive)
ROOT
ATOM      1  C   UNL d   1       0.939  -0.053   1.176  0.00  0.00     0.023 A 
ATOM      2  C1  UNL d   1      -0.229  -0.786   1.384  0.00  0.00     0.003 A 
ATOM      3  C2  UNL d   1      -1.222  -0.815   0.403  0.00  0.00     0.048 A 
ATOM      4  C3  UNL d   1      -1.039  -0.109  -0.786  0.00  0.00     0.023 A 
ATOM      5  C4  UNL d   1       0.129   0.625  -1.000  0.00  0.00     0.048 A 
ATOM      6  C5  UNL d   1       1.118   0.652  -0.015  0.00  0.00     0.003 A 
ATOM      7  I   UNL d   1      -2.515  -0.151  -2.249  0.00  0.00    -0.146 I 
ENDROOT
TORSDOF 0
ENDMDL
