MODEL 1
REMARK minimizedAffinity -1.44812477
REMARK minimizedRMSD -1
REMARK  0 active torsions:
REMARK  status: ('A' for Active; 'I' for Inactive)
ROOT
ATOM      1  C   UNL d   1       3.614   0.235   0.626  0.00  0.00     0.023 A 
ATOM      2  C1  UNL d   1       3.068  -0.892   0.011  0.00  0.00     0.003 A 
ATOM      3  C2  UNL d   1       1.682  -1.047  -0.061  0.00  0.00     0.048 A 
ATOM      4  C3  UNL d   1       0.848  -0.071   0.482  0.00  0.00     0.023 A 
ATOM      5  C4  UNL d   1       1.389   1.059   1.097  0.00  0.00     0.048 A 
ATOM      6  C5  UNL d   1       2.775   1.209   1.168  0.00  0.00     0.003 A 
ATOM      7  I   UNL d   1      -1.215  -0.300   0.376  0.00  0.00    -0.146 I 
ENDROOT
TORSDOF 0
ENDMDL
