MODEL 1
REMARK minimizedAffinity -0.727038503
REMARK minimizedRMSD -1
REMARK  0 active torsions:
REMARK  status: ('A' for Active; 'I' for Inactive)
ROOT
ATOM      1  C   UNL d   1       2.149   1.897   1.889  0.00  0.00     0.023 A 
ATOM      2  C1  UNL d   1       1.870   0.577   1.534  0.00  0.00     0.003 A 
ATOM      3  C2  UNL d   1       0.660   0.261   0.914  0.00  0.00     0.048 A 
ATOM      4  C3  UNL d   1      -0.266   1.269   0.650  0.00  0.00     0.023 A 
ATOM      5  C4  UNL d   1       0.009   2.591   1.003  0.00  0.00     0.048 A 
ATOM      6  C5  UNL d   1       1.220   2.903   1.624  0.00  0.00     0.003 A 
ATOM      7  I   UNL d   1      -2.068   0.800  -0.274  0.00  0.00    -0.146 I 
ENDROOT
TORSDOF 0
ENDMDL
