MODEL 1
REMARK minimizedAffinity -4.48110199
REMARK minimizedRMSD -1
REMARK  1 active torsions:
REMARK  status: ('A' for Active; 'I' for Inactive)
REMARK    1  A    between atoms: C1_2  and  C2_3 
ROOT
ATOM      1  C2  UNL d   1       1.334  -0.430   0.300  0.00  0.00    -0.076 A 
ATOM      2  C3  UNL d   1       1.345   0.740   1.079  0.00  0.00     0.004 A 
ATOM      3  C4  UNL d   1       2.541   1.271   1.558  0.00  0.00    -0.003 A 
ATOM      4  C5  UNL d   1       3.746   0.642   1.266  0.00  0.00     0.000 A 
ATOM      5  C6  UNL d   1       3.755  -0.510   0.480  0.00  0.00     0.000 A 
ATOM      6  C7  UNL d   1       2.560  -1.050  -0.025  0.00  0.00    -0.073 A 
ATOM      7  C8  UNL d   1       2.629  -2.297  -0.863  0.00  0.00     0.078 C 
ENDROOT
BRANCH   1   8
ATOM      8  C1  UNL d   1       0.005  -0.976  -0.170  0.00  0.00     0.053 C 
ATOM      9  C   UNL d   1      -0.948   0.120  -0.622  0.00  0.00     0.018 C 
ENDBRANCH   1   8
TORSDOF 1
ENDMDL
