MODEL 1
REMARK minimizedAffinity 0.0105933091
REMARK minimizedRMSD -1
REMARK  1 active torsions:
REMARK  status: ('A' for Active; 'I' for Inactive)
REMARK    1  A    between atoms: C1_2  and  C2_3 
ROOT
ATOM      1  C2  UNL d   1       1.381  -1.102  -0.617  0.00  0.00    -0.076 A 
ATOM      2  C3  UNL d   1       0.019  -1.435  -0.714  0.00  0.00     0.004 A 
ATOM      3  C4  UNL d   1      -0.969  -0.535  -0.320  0.00  0.00    -0.003 A 
ATOM      4  C5  UNL d   1      -0.612   0.713   0.178  0.00  0.00     0.000 A 
ATOM      5  C6  UNL d   1       0.735   1.067   0.265  0.00  0.00     0.000 A 
ATOM      6  C7  UNL d   1       1.743   0.177  -0.144  0.00  0.00    -0.073 A 
ATOM      7  C8  UNL d   1       3.179   0.609  -0.022  0.00  0.00     0.078 C 
ENDROOT
BRANCH   1   8
ATOM      8  C1  UNL d   1       2.409  -2.129  -1.035  0.00  0.00     0.053 C 
ATOM      9  C   UNL d   1       2.730  -2.062  -2.520  0.00  0.00     0.018 C 
ENDBRANCH   1   8
TORSDOF 1
ENDMDL
