MODEL 1
REMARK minimizedAffinity -5.00243282
REMARK minimizedRMSD -1
REMARK  1 active torsions:
REMARK  status: ('A' for Active; 'I' for Inactive)
REMARK    1  A    between atoms: C1_2  and  C2_3 
ROOT
ATOM      1  C2  UNL d   1       0.048   0.074   0.093  0.00  0.00    -0.076 A 
ATOM      2  C3  UNL d   1      -0.502  -1.201  -0.127  0.00  0.00     0.004 A 
ATOM      3  C4  UNL d   1       0.293  -2.345  -0.074  0.00  0.00    -0.003 A 
ATOM      4  C5  UNL d   1       1.652  -2.232   0.200  0.00  0.00     0.000 A 
ATOM      5  C6  UNL d   1       2.211  -0.977   0.437  0.00  0.00     0.000 A 
ATOM      6  C7  UNL d   1       1.420   0.185   0.404  0.00  0.00    -0.073 A 
ATOM      7  C8  UNL d   1       2.076   1.513   0.662  0.00  0.00     0.078 C 
ENDROOT
BRANCH   1   8
ATOM      8  C1  UNL d   1      -0.859   1.280  -0.004  0.00  0.00     0.053 C 
ATOM      9  C   UNL d   1      -2.306   0.949   0.324  0.00  0.00     0.018 C 
ENDBRANCH   1   8
TORSDOF 1
ENDMDL
