MODEL 1
REMARK minimizedAffinity -6.20389032
REMARK minimizedRMSD -1
REMARK  1 active torsions:
REMARK  status: ('A' for Active; 'I' for Inactive)
REMARK    1  A    between atoms: C1_2  and  C2_3 
ROOT
ATOM      1  C2  UNL d   1       0.898   0.051  -0.318  0.00  0.00    -0.076 A 
ATOM      2  C3  UNL d   1       1.490  -1.157   0.088  0.00  0.00     0.004 A 
ATOM      3  C4  UNL d   1       2.734  -1.170   0.717  0.00  0.00    -0.003 A 
ATOM      4  C5  UNL d   1       3.405   0.025   0.951  0.00  0.00     0.000 A 
ATOM      5  C6  UNL d   1       2.824   1.234   0.571  0.00  0.00     0.000 A 
ATOM      6  C7  UNL d   1       1.563   1.266  -0.050  0.00  0.00    -0.073 A 
ATOM      7  C8  UNL d   1       0.987   2.598  -0.445  0.00  0.00     0.078 C 
ENDROOT
BRANCH   1   8
ATOM      8  C1  UNL d   1      -0.441   0.001  -1.021  0.00  0.00     0.053 C 
ATOM      9  C   UNL d   1      -1.603   0.285  -0.082  0.00  0.00     0.018 C 
ENDBRANCH   1   8
TORSDOF 1
ENDMDL
