MODEL 1
REMARK minimizedAffinity -4.05930805
REMARK minimizedRMSD -1
REMARK  1 active torsions:
REMARK  status: ('A' for Active; 'I' for Inactive)
REMARK    1  A    between atoms: C1_2  and  C2_3 
ROOT
ATOM      1  C2  UNL d   1       0.055   0.064  -0.357  0.00  0.00    -0.076 A 
ATOM      2  C3  UNL d   1      -0.469  -1.231  -0.511  0.00  0.00     0.004 A 
ATOM      3  C4  UNL d   1       0.371  -2.342  -0.569  0.00  0.00    -0.003 A 
ATOM      4  C5  UNL d   1       1.748  -2.176  -0.472  0.00  0.00     0.000 A 
ATOM      5  C6  UNL d   1       2.284  -0.900  -0.301  0.00  0.00     0.000 A 
ATOM      6  C7  UNL d   1       1.450   0.229  -0.225  0.00  0.00    -0.073 A 
ATOM      7  C8  UNL d   1       2.082   1.582  -0.046  0.00  0.00     0.078 C 
ENDROOT
BRANCH   1   8
ATOM      8  C1  UNL d   1      -0.903   1.234  -0.328  0.00  0.00     0.053 C 
ATOM      9  C   UNL d   1      -2.238   0.878   0.308  0.00  0.00     0.018 C 
ENDBRANCH   1   8
TORSDOF 1
ENDMDL
