MODEL 1
REMARK minimizedAffinity -5.31662273
REMARK minimizedRMSD -1
REMARK  1 active torsions:
REMARK  status: ('A' for Active; 'I' for Inactive)
REMARK    1  A    between atoms: C1_2  and  C2_3 
ROOT
ATOM      1  C2  UNL d   1       2.200   0.920   0.094  0.00  0.00    -0.076 A 
ATOM      2  C3  UNL d   1       1.129   1.646  -0.456  0.00  0.00     0.004 A 
ATOM      3  C4  UNL d   1      -0.097   1.034  -0.711  0.00  0.00    -0.003 A 
ATOM      4  C5  UNL d   1      -0.273  -0.314  -0.419  0.00  0.00     0.000 A 
ATOM      5  C6  UNL d   1       0.773  -1.046   0.143  0.00  0.00     0.000 A 
ATOM      6  C7  UNL d   1       2.010  -0.440   0.422  0.00  0.00    -0.073 A 
ATOM      7  C8  UNL d   1       3.105  -1.278   1.023  0.00  0.00     0.078 C 
ENDROOT
BRANCH   1   8
ATOM      8  C1  UNL d   1       3.515   1.630   0.324  0.00  0.00     0.053 C 
ATOM      9  C   UNL d   1       4.380   1.673  -0.926  0.00  0.00     0.018 C 
ENDBRANCH   1   8
TORSDOF 1
ENDMDL
