MODEL 1
REMARK minimizedAffinity 2.24360752
REMARK minimizedRMSD -1
REMARK  1 active torsions:
REMARK  status: ('A' for Active; 'I' for Inactive)
REMARK    1  A    between atoms: C1_2  and  C2_3 
ROOT
ATOM      1  C2  UNL d   1       2.957   0.311  -0.610  0.00  0.00    -0.076 A 
ATOM      2  C3  UNL d   1       3.619  -0.862  -1.012  0.00  0.00     0.004 A 
ATOM      3  C4  UNL d   1       2.983  -2.101  -0.953  0.00  0.00    -0.003 A 
ATOM      4  C5  UNL d   1       1.674  -2.187  -0.493  0.00  0.00     0.000 A 
ATOM      5  C6  UNL d   1       0.995  -1.031  -0.108  0.00  0.00     0.000 A 
ATOM      6  C7  UNL d   1       1.617   0.228  -0.176  0.00  0.00    -0.073 A 
ATOM      7  C8  UNL d   1       0.840   1.441   0.258  0.00  0.00     0.078 C 
ENDROOT
BRANCH   1   8
ATOM      8  C1  UNL d   1       3.707   1.623  -0.670  0.00  0.00     0.053 C 
ATOM      9  C   UNL d   1       5.215   1.435  -0.618  0.00  0.00     0.018 C 
ENDBRANCH   1   8
TORSDOF 1
ENDMDL
