MODEL 1
REMARK minimizedAffinity -5.81714582
REMARK minimizedRMSD -1
REMARK  3 active torsions:
REMARK  status: ('A' for Active; 'I' for Inactive)
REMARK    1  A    between atoms: C3'_2  and  C2'_3 
REMARK    2  A    between atoms: C2'_3  and  C1'_4 
REMARK    3  A    between atoms: C1'_4  and  C1_5 
ROOT
ATOM      1  C1  N4B d   1       0.142  -0.601  -0.201  0.00  0.00    -0.075 A 
ATOM      2  C2  N4B d   1       0.593  -0.274   1.097  0.00  0.00     0.002 A 
ATOM      3  C3  N4B d   1      -0.287   0.233   2.022  0.00  0.00     0.002 A 
ATOM      4  C4  N4B d   1      -1.611   0.439   1.667  0.00  0.00    -0.004 A 
ATOM      5  C5  N4B d   1      -2.044   0.097   0.419  0.00  0.00     0.002 A 
ATOM      6  C6  N4B d   1      -1.172  -0.418  -0.519  0.00  0.00     0.002 A 
ENDROOT
BRANCH   1   7
ATOM      7  C1' N4B d   1       1.085  -1.078  -1.272  0.00  0.00     0.057 C 
BRANCH   7   8
ATOM      8  C2' N4B d   1       0.372  -1.039  -2.620  0.00  0.00     0.009 C 
BRANCH   8   9
ATOM      9  C3' N4B d   1       0.976  -0.003  -3.553  0.00  0.00     0.004 C 
ATOM     10  C4' N4B d   1      -0.038   0.616  -4.468  0.00  0.00     0.003 C 
ENDBRANCH   8   9
ENDBRANCH   7   8
ENDBRANCH   1   7
TORSDOF 3
ENDMDL
