MODEL 1
REMARK minimizedAffinity -5.14812088
REMARK minimizedRMSD -1
REMARK  2 active torsions:
REMARK  status: ('A' for Active; 'I' for Inactive)
REMARK    1  A    between atoms: C1_2  and  C2_3 
REMARK    2  A    between atoms: C2_3  and  C3_4 
ROOT
ATOM      1  C3  UNL d   1      -0.038  -0.009  -0.312  0.00  0.00    -0.075 A 
ATOM      2  C4  UNL d   1      -0.735   0.060   0.903  0.00  0.00     0.002 A 
ATOM      3  C5  UNL d   1      -0.183  -0.475   2.067  0.00  0.00     0.002 A 
ATOM      4  C6  UNL d   1       1.065  -1.092   2.030  0.00  0.00    -0.004 A 
ATOM      5  C7  UNL d   1       1.759  -1.181   0.825  0.00  0.00     0.002 A 
ATOM      6  C8  UNL d   1       1.211  -0.644  -0.340  0.00  0.00     0.002 A 
ENDROOT
BRANCH   1   7
ATOM      7  C2  UNL d   1      -0.617   0.593  -1.570  0.00  0.00     0.056 C 
BRANCH   7   8
ATOM      8  C1  UNL d   1      -0.050   1.974  -1.918  0.00  0.00     0.007 C 
ATOM      9  C   UNL d   1      -0.963   2.784  -2.829  0.00  0.00     0.009 C 
ENDBRANCH   7   8
ENDBRANCH   1   7
TORSDOF 2
ENDMDL
