MODEL 1
REMARK minimizedAffinity -0.113897622
REMARK minimizedRMSD -1
REMARK  2 active torsions:
REMARK  status: ('A' for Active; 'I' for Inactive)
REMARK    1  A    between atoms: C1_2  and  C2_3 
REMARK    2  A    between atoms: C2_3  and  C3_4 
ROOT
ATOM      1  C3  UNL d   1      -0.767   0.898  -1.777  0.00  0.00    -0.075 A 
ATOM      2  C4  UNL d   1       0.150   1.957  -1.844  0.00  0.00     0.002 A 
ATOM      3  C5  UNL d   1      -0.120   3.079  -2.629  0.00  0.00     0.002 A 
ATOM      4  C6  UNL d   1      -1.302   3.150  -3.364  0.00  0.00    -0.004 A 
ATOM      5  C7  UNL d   1      -2.212   2.096  -3.318  0.00  0.00     0.002 A 
ATOM      6  C8  UNL d   1      -1.947   0.975  -2.529  0.00  0.00     0.002 A 
ENDROOT
BRANCH   1   7
ATOM      7  C2  UNL d   1      -0.495  -0.305  -0.906  0.00  0.00     0.056 C 
BRANCH   7   8
ATOM      8  C1  UNL d   1       0.191   0.030   0.423  0.00  0.00     0.007 C 
ATOM      9  C   UNL d   1       1.535  -0.664   0.597  0.00  0.00     0.009 C 
ENDBRANCH   7   8
ENDBRANCH   1   7
TORSDOF 2
ENDMDL
