MODEL 1
REMARK minimizedAffinity 1.79097664
REMARK minimizedRMSD -1
REMARK  2 active torsions:
REMARK  status: ('A' for Active; 'I' for Inactive)
REMARK    1  A    between atoms: C1_2  and  C2_3 
REMARK    2  A    between atoms: C2_3  and  C3_4 
ROOT
ATOM      1  C3  UNL d   1      -0.066  -0.806   2.107  0.00  0.00    -0.075 A 
ATOM      2  C4  UNL d   1       0.837   0.266   2.074  0.00  0.00     0.002 A 
ATOM      3  C5  UNL d   1       1.892   0.332   2.984  0.00  0.00     0.002 A 
ATOM      4  C6  UNL d   1       2.052  -0.665   3.943  0.00  0.00    -0.004 A 
ATOM      5  C7  UNL d   1       1.151  -1.727   3.996  0.00  0.00     0.002 A 
ATOM      6  C8  UNL d   1       0.097  -1.798   3.083  0.00  0.00     0.002 A 
ENDROOT
BRANCH   1   7
ATOM      7  C2  UNL d   1      -1.193  -0.898   1.105  0.00  0.00     0.056 C 
BRANCH   7   8
ATOM      8  C1  UNL d   1      -2.587  -0.730   1.718  0.00  0.00     0.007 C 
ATOM      9  C   UNL d   1      -2.797   0.632   2.368  0.00  0.00     0.009 C 
ENDBRANCH   7   8
ENDBRANCH   1   7
TORSDOF 2
ENDMDL
