MODEL 1
REMARK minimizedAffinity -4.35984993
REMARK minimizedRMSD -1
REMARK  2 active torsions:
REMARK  status: ('A' for Active; 'I' for Inactive)
REMARK    1  A    between atoms: C1_2  and  C2_3 
REMARK    2  A    between atoms: C2_3  and  C3_4 
ROOT
ATOM      1  C3  UNL d   1      -0.454   0.115  -0.184  0.00  0.00    -0.075 A 
ATOM      2  C4  UNL d   1      -1.478   0.317   0.752  0.00  0.00     0.002 A 
ATOM      3  C5  UNL d   1      -1.283  -0.004   2.096  0.00  0.00     0.002 A 
ATOM      4  C6  UNL d   1      -0.067  -0.539   2.518  0.00  0.00    -0.004 A 
ATOM      5  C7  UNL d   1       0.952  -0.758   1.593  0.00  0.00     0.002 A 
ATOM      6  C8  UNL d   1       0.760  -0.434   0.249  0.00  0.00     0.002 A 
ENDROOT
BRANCH   1   7
ATOM      7  C2  UNL d   1      -0.649   0.488  -1.635  0.00  0.00     0.056 C 
BRANCH   7   8
ATOM      8  C1  UNL d   1      -1.420   1.795  -1.845  0.00  0.00     0.007 C 
ATOM      9  C   UNL d   1      -0.566   2.907  -2.439  0.00  0.00     0.009 C 
ENDBRANCH   7   8
ENDBRANCH   1   7
TORSDOF 2
ENDMDL
