MODEL 1
REMARK minimizedAffinity -3.01704597
REMARK minimizedRMSD -1
REMARK  2 active torsions:
REMARK  status: ('A' for Active; 'I' for Inactive)
REMARK    1  A    between atoms: C1_2  and  C2_3 
REMARK    2  A    between atoms: C2_3  and  C3_4 
ROOT
ATOM      1  C3  UNL d   1      -0.137   0.117  -0.546  0.00  0.00    -0.075 A 
ATOM      2  C4  UNL d   1       1.086  -0.156   0.084  0.00  0.00     0.002 A 
ATOM      3  C5  UNL d   1       1.119  -0.592   1.409  0.00  0.00     0.002 A 
ATOM      4  C6  UNL d   1      -0.067  -0.750   2.123  0.00  0.00    -0.004 A 
ATOM      5  C7  UNL d   1      -1.287  -0.465   1.512  0.00  0.00     0.002 A 
ATOM      6  C8  UNL d   1      -1.322  -0.033   0.185  0.00  0.00     0.002 A 
ENDROOT
BRANCH   1   7
ATOM      7  C2  UNL d   1      -0.180   0.561  -1.989  0.00  0.00     0.056 C 
BRANCH   7   8
ATOM      8  C1  UNL d   1      -0.940   1.872  -2.215  0.00  0.00     0.007 C 
ATOM      9  C   UNL d   1      -0.838   2.385  -3.645  0.00  0.00     0.009 C 
ENDBRANCH   7   8
ENDBRANCH   1   7
TORSDOF 2
ENDMDL
