MODEL 1
REMARK minimizedAffinity -2.66576242
REMARK minimizedRMSD -1
REMARK  2 active torsions:
REMARK  status: ('A' for Active; 'I' for Inactive)
REMARK    1  A    between atoms: C1_2  and  C2_3 
REMARK    2  A    between atoms: C2_3  and  C3_4 
ROOT
ATOM      1  C3  UNL d   1      -0.312   0.296   0.099  0.00  0.00    -0.075 A 
ATOM      2  C4  UNL d   1      -1.050   1.436  -0.255  0.00  0.00     0.002 A 
ATOM      3  C5  UNL d   1      -1.007   2.582   0.539  0.00  0.00     0.002 A 
ATOM      4  C6  UNL d   1      -0.238   2.601   1.700  0.00  0.00    -0.004 A 
ATOM      5  C7  UNL d   1       0.486   1.469   2.070  0.00  0.00     0.002 A 
ATOM      6  C8  UNL d   1       0.449   0.322   1.275  0.00  0.00     0.002 A 
ENDROOT
BRANCH   1   7
ATOM      7  C2  UNL d   1      -0.330  -0.937  -0.772  0.00  0.00     0.056 C 
BRANCH   7   8
ATOM      8  C1  UNL d   1       0.788  -1.937  -0.460  0.00  0.00     0.007 C 
ATOM      9  C   UNL d   1       0.480  -3.350  -0.938  0.00  0.00     0.009 C 
ENDBRANCH   7   8
ENDBRANCH   1   7
TORSDOF 2
ENDMDL
