MODEL 1
REMARK minimizedAffinity -5.22712564
REMARK minimizedRMSD -1
REMARK  2 active torsions:
REMARK  status: ('A' for Active; 'I' for Inactive)
REMARK    1  A    between atoms: C1_2  and  C2_3 
REMARK    2  A    between atoms: C2_3  and  C3_4 
ROOT
ATOM      1  C3  UNL d   1      -0.099   0.117   0.057  0.00  0.00    -0.075 A 
ATOM      2  C4  UNL d   1      -0.905   1.191  -0.347  0.00  0.00     0.002 A 
ATOM      3  C5  UNL d   1      -1.296   2.167   0.570  0.00  0.00     0.002 A 
ATOM      4  C6  UNL d   1      -0.896   2.076   1.902  0.00  0.00    -0.004 A 
ATOM      5  C7  UNL d   1      -0.109   1.005   2.317  0.00  0.00     0.002 A 
ATOM      6  C8  UNL d   1       0.287   0.029   1.401  0.00  0.00     0.002 A 
ENDROOT
BRANCH   1   7
ATOM      7  C2  UNL d   1       0.352  -0.927  -0.937  0.00  0.00     0.056 C 
BRANCH   7   8
ATOM      8  C1  UNL d   1      -0.651  -2.067  -1.143  0.00  0.00     0.007 C 
ATOM      9  C   UNL d   1      -0.004  -3.445  -1.129  0.00  0.00     0.009 C 
ENDBRANCH   7   8
ENDBRANCH   1   7
TORSDOF 2
ENDMDL
