MODEL 1
REMARK minimizedAffinity -5.12198973
REMARK minimizedRMSD -1
REMARK  2 active torsions:
REMARK  status: ('A' for Active; 'I' for Inactive)
REMARK    1  A    between atoms: C1_2  and  C2_3 
REMARK    2  A    between atoms: C2_3  and  C3_4 
ROOT
ATOM      1  C3  UNL d   1      -0.079  -0.017  -0.283  0.00  0.00    -0.075 A 
ATOM      2  C4  UNL d   1       0.356   0.100   1.045  0.00  0.00     0.002 A 
ATOM      3  C5  UNL d   1      -0.065   1.169   1.837  0.00  0.00     0.002 A 
ATOM      4  C6  UNL d   1      -0.917   2.137   1.309  0.00  0.00    -0.004 A 
ATOM      5  C7  UNL d   1      -1.342   2.040  -0.014  0.00  0.00     0.002 A 
ATOM      6  C8  UNL d   1      -0.925   0.969  -0.807  0.00  0.00     0.002 A 
ENDROOT
BRANCH   1   7
ATOM      7  C2  UNL d   1       0.350  -1.187  -1.136  0.00  0.00     0.056 C 
BRANCH   7   8
ATOM      8  C1  UNL d   1      -0.807  -2.078  -1.600  0.00  0.00     0.007 C 
ATOM      9  C   UNL d   1      -0.468  -3.563  -1.575  0.00  0.00     0.009 C 
ENDBRANCH   7   8
ENDBRANCH   1   7
TORSDOF 2
ENDMDL
