MODEL 1
REMARK minimizedAffinity -5.31421185
REMARK minimizedRMSD -1
REMARK  2 active torsions:
REMARK  status: ('A' for Active; 'I' for Inactive)
REMARK    1  A    between atoms: C1_2  and  C2_3 
REMARK    2  A    between atoms: C2_3  and  C3_4 
ROOT
ATOM      1  C3  UNL d   1      -0.076  -0.727  -0.559  0.00  0.00    -0.075 A 
ATOM      2  C4  UNL d   1       1.025  -1.175  -1.303  0.00  0.00     0.002 A 
ATOM      3  C5  UNL d   1       0.994  -2.417  -1.937  0.00  0.00     0.002 A 
ATOM      4  C6  UNL d   1      -0.132  -3.230  -1.827  0.00  0.00    -0.004 A 
ATOM      5  C7  UNL d   1      -1.225  -2.803  -1.077  0.00  0.00     0.002 A 
ATOM      6  C8  UNL d   1      -1.198  -1.558  -0.445  0.00  0.00     0.002 A 
ENDROOT
BRANCH   1   7
ATOM      7  C2  UNL d   1      -0.060   0.629   0.105  0.00  0.00     0.056 C 
BRANCH   7   8
ATOM      8  C1  UNL d   1      -0.374   0.593   1.604  0.00  0.00     0.007 C 
ATOM      9  C   UNL d   1      -1.053   1.861   2.106  0.00  0.00     0.009 C 
ENDBRANCH   7   8
ENDBRANCH   1   7
TORSDOF 2
ENDMDL
