MODEL 1
REMARK minimizedAffinity -4.07867432
REMARK minimizedRMSD -1
REMARK  2 active torsions:
REMARK  status: ('A' for Active; 'I' for Inactive)
REMARK    1  A    between atoms: C1_2  and  C2_3 
REMARK    2  A    between atoms: C2_3  and  C3_4 
ROOT
ATOM      1  C3  UNL d   1       0.001  -0.254  -0.008  0.00  0.00    -0.075 A 
ATOM      2  C4  UNL d   1      -1.075   0.576  -0.357  0.00  0.00     0.002 A 
ATOM      3  C5  UNL d   1      -1.486   1.598   0.498  0.00  0.00     0.002 A 
ATOM      4  C6  UNL d   1      -0.836   1.798   1.714  0.00  0.00    -0.004 A 
ATOM      5  C7  UNL d   1       0.223   0.969   2.078  0.00  0.00     0.002 A 
ATOM      6  C8  UNL d   1       0.640  -0.052   1.223  0.00  0.00     0.002 A 
ENDROOT
BRANCH   1   7
ATOM      7  C2  UNL d   1       0.470  -1.344  -0.942  0.00  0.00     0.056 C 
BRANCH   7   8
ATOM      8  C1  UNL d   1      -0.665  -2.160  -1.569  0.00  0.00     0.007 C 
ATOM      9  C   UNL d   1      -0.425  -3.663  -1.515  0.00  0.00     0.009 C 
ENDBRANCH   7   8
ENDBRANCH   1   7
TORSDOF 2
ENDMDL
