MODEL 1
REMARK minimizedAffinity -4.45278788
REMARK minimizedRMSD -1
REMARK  2 active torsions:
REMARK  status: ('A' for Active; 'I' for Inactive)
REMARK    1  A    between atoms: C2'_3  and  C1'_4 
REMARK    2  A    between atoms: C1'_4  and  C1_5 
ROOT
ATOM      1  C1  I4B d   1       1.296   2.366  -1.279  0.00  0.00    -0.075 A 
ATOM      2  C2  I4B d   1       1.788   1.355  -2.067  0.00  0.00     0.003 A 
ATOM      3  C3  I4B d   1       1.819   0.025  -1.583  0.00  0.00     0.002 A 
ATOM      4  C4  I4B d   1       1.399  -0.240  -0.296  0.00  0.00    -0.004 A 
ATOM      5  C5  I4B d   1       0.879   0.782   0.493  0.00  0.00     0.002 A 
ATOM      6  C6  I4B d   1       0.815   2.091  -0.006  0.00  0.00     0.003 A 
ENDROOT
BRANCH   1   7
ATOM      7  C1' I4B d   1       1.308   3.764  -1.810  0.00  0.00     0.060 C 
BRANCH   7   8
ATOM      8  C2' I4B d   1       2.059   4.632  -0.821  0.00  0.00    -0.013 C 
ATOM      9  C4' I4B d   1       2.330   5.999  -1.391  0.00  0.00     0.013 C 
ATOM     10  C3' I4B d   1       1.240   4.721   0.432  0.00  0.00     0.013 C 
ENDBRANCH   7   8
ENDBRANCH   1   7
TORSDOF 2
ENDMDL
