MODEL 1
REMARK minimizedAffinity -0.211129054
REMARK minimizedRMSD -1
REMARK  2 active torsions:
REMARK  status: ('A' for Active; 'I' for Inactive)
REMARK    1  A    between atoms: C2'_3  and  C1'_4 
REMARK    2  A    between atoms: C1'_4  and  C1_5 
ROOT
ATOM      1  C1  I4B d   1       1.463   2.794  -1.276  0.00  0.00    -0.075 A 
ATOM      2  C2  I4B d   1       1.298   1.710  -2.103  0.00  0.00     0.003 A 
ATOM      3  C3  I4B d   1       1.179   0.409  -1.557  0.00  0.00     0.002 A 
ATOM      4  C4  I4B d   1       1.279   0.233  -0.192  0.00  0.00    -0.004 A 
ATOM      5  C5  I4B d   1       1.423   1.335   0.646  0.00  0.00     0.002 A 
ATOM      6  C6  I4B d   1       1.503   2.625   0.102  0.00  0.00     0.003 A 
ENDROOT
BRANCH   1   7
ATOM      7  C1' I4B d   1       1.618   4.150  -1.888  0.00  0.00     0.060 C 
BRANCH   7   8
ATOM      8  C2' I4B d   1       2.592   4.938  -1.035  0.00  0.00    -0.013 C 
ATOM      9  C4' I4B d   1       3.307   5.984  -1.849  0.00  0.00     0.013 C 
ATOM     10  C3' I4B d   1       1.822   5.560   0.091  0.00  0.00     0.013 C 
ENDBRANCH   7   8
ENDBRANCH   1   7
TORSDOF 2
ENDMDL
