MODEL 1
REMARK minimizedAffinity -0.306502104
REMARK minimizedRMSD -1
REMARK  2 active torsions:
REMARK  status: ('A' for Active; 'I' for Inactive)
REMARK    1  A    between atoms: C2'_3  and  C1'_4 
REMARK    2  A    between atoms: C1'_4  and  C1_5 
ROOT
ATOM      1  C1  I4B d   1       0.837  -1.996  -1.489  0.00  0.00    -0.075 A 
ATOM      2  C2  I4B d   1       1.378  -2.383  -0.288  0.00  0.00     0.003 A 
ATOM      3  C3  I4B d   1       0.877  -3.524   0.384  0.00  0.00     0.002 A 
ATOM      4  C4  I4B d   1      -0.191  -4.214  -0.151  0.00  0.00    -0.004 A 
ATOM      5  C5  I4B d   1      -0.723  -3.834  -1.380  0.00  0.00     0.002 A 
ATOM      6  C6  I4B d   1      -0.198  -2.725  -2.059  0.00  0.00     0.003 A 
ENDROOT
BRANCH   1   7
ATOM      7  C1' I4B d   1       1.368  -0.767  -2.156  0.00  0.00     0.060 C 
BRANCH   7   8
ATOM      8  C2' I4B d   1       1.236   0.386  -1.182  0.00  0.00    -0.013 C 
ATOM      9  C4' I4B d   1       2.524   0.620  -0.437  0.00  0.00     0.013 C 
ATOM     10  C3' I4B d   1       0.831   1.603  -1.959  0.00  0.00     0.013 C 
ENDBRANCH   7   8
ENDBRANCH   1   7
TORSDOF 2
ENDMDL
