MODEL 1
REMARK minimizedAffinity -2.35410643
REMARK minimizedRMSD -1
REMARK  2 active torsions:
REMARK  status: ('A' for Active; 'I' for Inactive)
REMARK    1  A    between atoms: C2'_3  and  C1'_4 
REMARK    2  A    between atoms: C1'_4  and  C1_5 
ROOT
ATOM      1  C1  I4B d   1       1.242   1.579  -0.964  0.00  0.00    -0.075 A 
ATOM      2  C2  I4B d   1       1.129   0.256  -1.314  0.00  0.00     0.003 A 
ATOM      3  C3  I4B d   1       0.871  -0.724  -0.325  0.00  0.00     0.002 A 
ATOM      4  C4  I4B d   1       0.785  -0.346   0.999  0.00  0.00    -0.004 A 
ATOM      5  C5  I4B d   1       0.877   0.998   1.350  0.00  0.00     0.002 A 
ATOM      6  C6  I4B d   1       1.095   1.968   0.361  0.00  0.00     0.003 A 
ENDROOT
BRANCH   1   7
ATOM      7  C1' I4B d   1       1.548   2.583  -2.029  0.00  0.00     0.060 C 
BRANCH   7   8
ATOM      8  C2' I4B d   1       0.748   3.835  -1.733  0.00  0.00    -0.013 C 
ATOM      9  C4' I4B d   1       1.649   4.983  -1.360  0.00  0.00     0.013 C 
ATOM     10  C3' I4B d   1      -0.069   4.161  -2.948  0.00  0.00     0.013 C 
ENDBRANCH   7   8
ENDBRANCH   1   7
TORSDOF 2
ENDMDL
