MODEL 1
REMARK minimizedAffinity 0.39624694
REMARK minimizedRMSD -1
REMARK  2 active torsions:
REMARK  status: ('A' for Active; 'I' for Inactive)
REMARK    1  A    between atoms: C2'_3  and  C1'_4 
REMARK    2  A    between atoms: C1'_4  and  C1_5 
ROOT
ATOM      1  C1  I4B d   1       1.368   1.018  -0.468  0.00  0.00    -0.075 A 
ATOM      2  C2  I4B d   1       2.508   0.635   0.194  0.00  0.00     0.003 A 
ATOM      3  C3  I4B d   1       2.526   0.582   1.609  0.00  0.00     0.002 A 
ATOM      4  C4  I4B d   1       1.406   0.965   2.318  0.00  0.00    -0.004 A 
ATOM      5  C5  I4B d   1       0.244   1.330   1.644  0.00  0.00     0.002 A 
ATOM      6  C6  I4B d   1       0.221   1.345   0.242  0.00  0.00     0.003 A 
ENDROOT
BRANCH   1   7
ATOM      7  C1' I4B d   1       1.395   1.095  -1.962  0.00  0.00     0.060 C 
BRANCH   7   8
ATOM      8  C2' I4B d   1       1.595   2.545  -2.351  0.00  0.00    -0.013 C 
ATOM      9  C4' I4B d   1       0.404   3.077  -3.104  0.00  0.00     0.013 C 
ATOM     10  C3' I4B d   1       1.838   3.332  -1.097  0.00  0.00     0.013 C 
ENDBRANCH   7   8
ENDBRANCH   1   7
TORSDOF 2
ENDMDL
