MODEL 1
REMARK minimizedAffinity -1.00346076
REMARK minimizedRMSD -1
REMARK  2 active torsions:
REMARK  status: ('A' for Active; 'I' for Inactive)
REMARK    1  A    between atoms: C2'_3  and  C1'_4 
REMARK    2  A    between atoms: C1'_4  and  C1_5 
ROOT
ATOM      1  C1  I4B d   1       1.101   2.464  -1.000  0.00  0.00    -0.075 A 
ATOM      2  C2  I4B d   1       0.748   2.132   0.284  0.00  0.00     0.003 A 
ATOM      3  C3  I4B d   1       0.823   0.787   0.720  0.00  0.00     0.002 A 
ATOM      4  C4  I4B d   1       1.207  -0.195  -0.171  0.00  0.00    -0.004 A 
ATOM      5  C5  I4B d   1       1.587   0.146  -1.466  0.00  0.00     0.002 A 
ATOM      6  C6  I4B d   1       1.546   1.485  -1.880  0.00  0.00     0.003 A 
ENDROOT
BRANCH   1   7
ATOM      7  C1' I4B d   1       0.978   3.889  -1.436  0.00  0.00     0.060 C 
BRANCH   7   8
ATOM      8  C2' I4B d   1       1.986   4.706  -0.653  0.00  0.00    -0.013 C 
ATOM      9  C4' I4B d   1       2.303   6.000  -1.356  0.00  0.00     0.013 C 
ATOM     10  C3' I4B d   1       1.418   4.956   0.712  0.00  0.00     0.013 C 
ENDBRANCH   7   8
ENDBRANCH   1   7
TORSDOF 2
ENDMDL
