MODEL 1
REMARK minimizedAffinity -2.56379008
REMARK minimizedRMSD -1
REMARK  2 active torsions:
REMARK  status: ('A' for Active; 'I' for Inactive)
REMARK    1  A    between atoms: C2'_3  and  C1'_4 
REMARK    2  A    between atoms: C1'_4  and  C1_5 
ROOT
ATOM      1  C1  I4B d   1       0.896   1.618   0.269  0.00  0.00    -0.075 A 
ATOM      2  C2  I4B d   1       1.015   2.671  -0.603  0.00  0.00     0.003 A 
ATOM      3  C3  I4B d   1       1.383   2.442  -1.951  0.00  0.00     0.002 A 
ATOM      4  C4  I4B d   1       1.669   1.159  -2.369  0.00  0.00    -0.004 A 
ATOM      5  C5  I4B d   1       1.525   0.090  -1.489  0.00  0.00     0.002 A 
ATOM      6  C6  I4B d   1       1.124   0.319  -0.165  0.00  0.00     0.003 A 
ENDROOT
BRANCH   1   7
ATOM      7  C1' I4B d   1       0.538   1.899   1.694  0.00  0.00     0.060 C 
BRANCH   7   8
ATOM      8  C2' I4B d   1       1.776   2.428   2.391  0.00  0.00    -0.013 C 
ATOM      9  C4' I4B d   1       1.499   3.742   3.072  0.00  0.00     0.013 C 
ATOM     10  C3' I4B d   1       2.230   1.392   3.376  0.00  0.00     0.013 C 
ENDBRANCH   7   8
ENDBRANCH   1   7
TORSDOF 2
ENDMDL
