MODEL 1
REMARK minimizedAffinity 0.685305893
REMARK minimizedRMSD -1
REMARK  2 active torsions:
REMARK  status: ('A' for Active; 'I' for Inactive)
REMARK    1  A    between atoms: C2'_3  and  C1'_4 
REMARK    2  A    between atoms: C1'_4  and  C1_5 
ROOT
ATOM      1  C1  I4B d   1       1.127   2.627  -1.122  0.00  0.00    -0.075 A 
ATOM      2  C2  I4B d   1       0.494   1.683  -1.891  0.00  0.00     0.003 A 
ATOM      3  C3  I4B d   1       0.513   0.320  -1.505  0.00  0.00     0.002 A 
ATOM      4  C4  I4B d   1       1.216  -0.057  -0.379  0.00  0.00    -0.004 A 
ATOM      5  C5  I4B d   1       1.838   0.905   0.411  0.00  0.00     0.002 A 
ATOM      6  C6  I4B d   1       1.784   2.257   0.044  0.00  0.00     0.003 A 
ENDROOT
BRANCH   1   7
ATOM      7  C1' I4B d   1       1.115   4.052  -1.577  0.00  0.00     0.060 C 
BRANCH   7   8
ATOM      8  C2' I4B d   1       2.108   4.821  -0.730  0.00  0.00    -0.013 C 
ATOM      9  C4' I4B d   1       2.671   5.998  -1.483  0.00  0.00     0.013 C 
ATOM     10  C3' I4B d   1       1.407   5.264   0.520  0.00  0.00     0.013 C 
ENDBRANCH   7   8
ENDBRANCH   1   7
TORSDOF 2
ENDMDL
