MODEL 1
REMARK minimizedAffinity 18.5849819
REMARK minimizedRMSD -1
REMARK  1 active torsions:
REMARK  status: ('A' for Active; 'I' for Inactive)
REMARK    1  A    between atoms: C1_2  and  C2_3 
ROOT
ATOM      1  C2  UNL d   1      -0.118  -4.783  -3.100  0.00  0.00    -0.076 A 
ATOM      2  C3  UNL d   1      -0.795  -4.583  -1.884  0.00  0.00     0.004 A 
ATOM      3  C4  UNL d   1      -0.148  -4.015  -0.788  0.00  0.00    -0.003 A 
ATOM      4  C5  UNL d   1       1.186  -3.637  -0.891  0.00  0.00     0.000 A 
ATOM      5  C6  UNL d   1       1.868  -3.811  -2.095  0.00  0.00     0.000 A 
ATOM      6  C7  UNL d   1       1.226  -4.368  -3.214  0.00  0.00    -0.073 A 
ATOM      7  C8  UNL d   1       2.011  -4.539  -4.486  0.00  0.00     0.078 C 
ENDROOT
BRANCH   1   8
ATOM      8  C1  UNL d   1      -0.864  -5.429  -4.246  0.00  0.00     0.053 C 
ATOM      9  C   UNL d   1      -2.352  -5.117  -4.223  0.00  0.00     0.018 C 
ENDBRANCH   1   8
TORSDOF 1
ENDMDL
