MODEL 1
REMARK minimizedAffinity 16.104847
REMARK minimizedRMSD -1
REMARK  1 active torsions:
REMARK  status: ('A' for Active; 'I' for Inactive)
REMARK    1  A    between atoms: C1_2  and  C2_3 
ROOT
ATOM      1  C2  UNL d   1      -4.796   1.883  -2.794  0.00  0.00    -0.076 A 
ATOM      2  C3  UNL d   1      -3.895   1.064  -3.497  0.00  0.00     0.004 A 
ATOM      3  C4  UNL d   1      -3.262   1.521  -4.652  0.00  0.00    -0.003 A 
ATOM      4  C5  UNL d   1      -3.519   2.804  -5.122  0.00  0.00     0.000 A 
ATOM      5  C6  UNL d   1      -4.396   3.636  -4.427  0.00  0.00     0.000 A 
ATOM      6  C7  UNL d   1      -5.030   3.197  -3.252  0.00  0.00    -0.073 A 
ATOM      7  C8  UNL d   1      -5.972   4.134  -2.547  0.00  0.00     0.078 C 
ENDROOT
BRANCH   1   8
ATOM      8  C1  UNL d   1      -5.473   1.324  -1.563  0.00  0.00     0.053 C 
ATOM      9  C   UNL d   1      -4.676   0.200  -0.919  0.00  0.00     0.018 C 
ENDBRANCH   1   8
TORSDOF 1
ENDMDL
