MODEL 1
REMARK minimizedAffinity 9.23906326
REMARK minimizedRMSD -1
REMARK  1 active torsions:
REMARK  status: ('A' for Active; 'I' for Inactive)
REMARK    1  A    between atoms: C1_2  and  C2_3 
ROOT
ATOM      1  C2  UNL d   1       3.039  -4.278  -1.285  0.00  0.00    -0.076 A 
ATOM      2  C3  UNL d   1       3.581  -5.561  -1.478  0.00  0.00     0.004 A 
ATOM      3  C4  UNL d   1       4.843  -5.888  -0.987  0.00  0.00    -0.003 A 
ATOM      4  C5  UNL d   1       5.585  -4.939  -0.293  0.00  0.00     0.000 A 
ATOM      5  C6  UNL d   1       5.056  -3.667  -0.077  0.00  0.00     0.000 A 
ATOM      6  C7  UNL d   1       3.778  -3.325  -0.551  0.00  0.00    -0.073 A 
ATOM      7  C8  UNL d   1       3.260  -1.937  -0.294  0.00  0.00     0.078 C 
ENDROOT
BRANCH   1   8
ATOM      8  C1  UNL d   1       1.677  -3.972  -1.864  0.00  0.00     0.053 C 
ATOM      9  C   UNL d   1       0.548  -4.277  -0.891  0.00  0.00     0.018 C 
ENDBRANCH   1   8
TORSDOF 1
ENDMDL
