MODEL 1
REMARK minimizedAffinity 9.71698475
REMARK minimizedRMSD -1
REMARK  1 active torsions:
REMARK  status: ('A' for Active; 'I' for Inactive)
REMARK    1  A    between atoms: C1_2  and  C2_3 
ROOT
ATOM      1  C2  UNL d   1       0.770   3.303  -0.272  0.00  0.00    -0.076 A 
ATOM      2  C3  UNL d   1       1.640   3.049   0.803  0.00  0.00     0.004 A 
ATOM      3  C4  UNL d   1       1.218   2.315   1.910  0.00  0.00    -0.003 A 
ATOM      4  C5  UNL d   1      -0.082   1.823   1.960  0.00  0.00     0.000 A 
ATOM      5  C6  UNL d   1      -0.953   2.051   0.895  0.00  0.00     0.000 A 
ATOM      6  C7  UNL d   1      -0.538   2.775  -0.236  0.00  0.00    -0.073 A 
ATOM      7  C8  UNL d   1      -1.521   2.996  -1.352  0.00  0.00     0.078 C 
ENDROOT
BRANCH   1   8
ATOM      8  C1  UNL d   1       1.276   4.128  -1.434  0.00  0.00     0.053 C 
ATOM      9  C   UNL d   1       2.198   5.254  -0.991  0.00  0.00     0.018 C 
ENDBRANCH   1   8
TORSDOF 1
ENDMDL
