MODEL 1
REMARK minimizedAffinity 9.7512064
REMARK minimizedRMSD -1
REMARK  1 active torsions:
REMARK  status: ('A' for Active; 'I' for Inactive)
REMARK    1  A    between atoms: C1_2  and  C2_3 
ROOT
ATOM      1  C2  UNL d   1       3.257  -5.373  -2.036  0.00  0.00    -0.076 A 
ATOM      2  C3  UNL d   1       2.386  -5.276  -0.936  0.00  0.00     0.004 A 
ATOM      3  C4  UNL d   1       1.131  -4.685  -1.064  0.00  0.00    -0.003 A 
ATOM      4  C5  UNL d   1       0.724  -4.182  -2.295  0.00  0.00     0.000 A 
ATOM      5  C6  UNL d   1       1.568  -4.285  -3.401  0.00  0.00     0.000 A 
ATOM      6  C7  UNL d   1       2.830  -4.893  -3.292  0.00  0.00    -0.073 A 
ATOM      7  C8  UNL d   1       3.701  -4.971  -4.516  0.00  0.00     0.078 C 
ENDROOT
BRANCH   1   8
ATOM      8  C1  UNL d   1       4.617  -6.000  -1.830  0.00  0.00     0.053 C 
ATOM      9  C   UNL d   1       5.240  -5.616  -0.496  0.00  0.00     0.018 C 
ENDBRANCH   1   8
TORSDOF 1
ENDMDL
