MODEL 1
REMARK minimizedAffinity 14.0478907
REMARK minimizedRMSD -1
REMARK  1 active torsions:
REMARK  status: ('A' for Active; 'I' for Inactive)
REMARK    1  A    between atoms: C1_2  and  C2_3 
ROOT
ATOM      1  C2  UNL d   1      -1.494   4.396  -1.536  0.00  0.00    -0.076 A 
ATOM      2  C3  UNL d   1      -1.898   3.123  -1.097  0.00  0.00     0.004 A 
ATOM      3  C4  UNL d   1      -0.965   2.112  -0.875  0.00  0.00    -0.003 A 
ATOM      4  C5  UNL d   1       0.388   2.357  -1.086  0.00  0.00     0.000 A 
ATOM      5  C6  UNL d   1       0.808   3.620  -1.504  0.00  0.00     0.000 A 
ATOM      6  C7  UNL d   1      -0.119   4.655  -1.717  0.00  0.00    -0.073 A 
ATOM      7  C8  UNL d   1       0.389   5.996  -2.173  0.00  0.00     0.078 C 
ENDROOT
BRANCH   1   8
ATOM      8  C1  UNL d   1      -2.553   5.446  -1.786  0.00  0.00     0.053 C 
ATOM      9  C   UNL d   1      -3.759   4.891  -2.530  0.00  0.00     0.018 C 
ENDBRANCH   1   8
TORSDOF 1
ENDMDL
