MODEL 1
REMARK minimizedAffinity 18.6367798
REMARK minimizedRMSD -1
REMARK  1 active torsions:
REMARK  status: ('A' for Active; 'I' for Inactive)
REMARK    1  A    between atoms: C1_2  and  C2_3 
ROOT
ATOM      1  C2  UNL d   1       1.522  -4.555  -1.756  0.00  0.00    -0.076 A 
ATOM      2  C3  UNL d   1       0.411  -4.419  -2.607  0.00  0.00     0.004 A 
ATOM      3  C4  UNL d   1       0.569  -4.381  -3.991  0.00  0.00    -0.003 A 
ATOM      4  C5  UNL d   1       1.840  -4.478  -4.547  0.00  0.00     0.000 A 
ATOM      5  C6  UNL d   1       2.951  -4.630  -3.719  0.00  0.00     0.000 A 
ATOM      6  C7  UNL d   1       2.808  -4.687  -2.322  0.00  0.00    -0.073 A 
ATOM      7  C8  UNL d   1       4.042  -4.847  -1.476  0.00  0.00     0.078 C 
ENDROOT
BRANCH   1   8
ATOM      8  C1  UNL d   1       1.293  -4.563  -0.262  0.00  0.00     0.053 C 
ATOM      9  C   UNL d   1       1.805  -3.300   0.413  0.00  0.00     0.018 C 
ENDBRANCH   1   8
TORSDOF 1
ENDMDL
