MODEL 1
REMARK minimizedAffinity 9.50729942
REMARK minimizedRMSD -1
REMARK  1 active torsions:
REMARK  status: ('A' for Active; 'I' for Inactive)
REMARK    1  A    between atoms: C1_2  and  C2_3 
ROOT
ATOM      1  C2  UNL d   1       0.530   4.019  -0.866  0.00  0.00    -0.076 A 
ATOM      2  C3  UNL d   1       1.574   3.078  -0.884  0.00  0.00     0.004 A 
ATOM      3  C4  UNL d   1       1.406   1.810  -0.331  0.00  0.00    -0.003 A 
ATOM      4  C5  UNL d   1       0.190   1.461   0.248  0.00  0.00     0.000 A 
ATOM      5  C6  UNL d   1      -0.862   2.376   0.258  0.00  0.00     0.000 A 
ATOM      6  C7  UNL d   1      -0.715   3.654  -0.309  0.00  0.00    -0.073 A 
ATOM      7  C8  UNL d   1      -1.881   4.602  -0.265  0.00  0.00     0.078 C 
ENDROOT
BRANCH   1   8
ATOM      8  C1  UNL d   1       0.779   5.389  -1.456  0.00  0.00     0.053 C 
ATOM      9  C   UNL d   1       2.260   5.720  -1.555  0.00  0.00     0.018 C 
ENDBRANCH   1   8
TORSDOF 1
ENDMDL
