MODEL 1
REMARK minimizedAffinity -1.52176356
REMARK minimizedRMSD -1
REMARK  0 active torsions:
REMARK  status: ('A' for Active; 'I' for Inactive)
ROOT
ATOM      1  C4' PXY d   1      -0.948   2.138  -2.373  0.00  0.00     0.077 C 
ATOM      2  C1' PXY d   1       1.073   0.308   2.724  0.00  0.00     0.077 C 
ATOM      3  C1  PXY d   1       0.537   0.798   1.394  0.00  0.00    -0.082 A 
ATOM      4  C2  PXY d   1       0.412  -0.051   0.386  0.00  0.00     0.003 A 
ATOM      5  C3  PXY d   1      -0.041   0.382  -0.833  0.00  0.00     0.003 A 
ATOM      6  C4  PXY d   1      -0.420   1.685  -1.009  0.00  0.00    -0.082 A 
ATOM      7  C5  PXY d   1      -0.306   2.555   0.017  0.00  0.00     0.003 A 
ATOM      8  C6  PXY d   1       0.195   2.105   1.235  0.00  0.00     0.003 A 
ENDROOT
TORSDOF 0
ENDMDL
