MODEL 1
REMARK minimizedAffinity 2.0819118
REMARK minimizedRMSD -1
REMARK  0 active torsions:
REMARK  status: ('A' for Active; 'I' for Inactive)
ROOT
ATOM      1  C4' PXY d   1       0.301  -2.482  -0.732  0.00  0.00     0.077 C 
ATOM      2  C1' PXY d   1       1.054   2.361   2.332  0.00  0.00     0.077 C 
ATOM      3  C1  PXY d   1       0.850   1.098   1.519  0.00  0.00    -0.082 A 
ATOM      4  C2  PXY d   1       0.834  -0.077   2.128  0.00  0.00     0.003 A 
ATOM      5  C3  PXY d   1       0.684  -1.231   1.405  0.00  0.00     0.003 A 
ATOM      6  C4  PXY d   1       0.494  -1.180   0.050  0.00  0.00    -0.082 A 
ATOM      7  C5  PXY d   1       0.498   0.015  -0.578  0.00  0.00     0.003 A 
ATOM      8  C6  PXY d   1       0.694   1.173   0.170  0.00  0.00     0.003 A 
ENDROOT
TORSDOF 0
ENDMDL
