MODEL 1
REMARK minimizedAffinity 6.93110895
REMARK minimizedRMSD -1
REMARK  0 active torsions:
REMARK  status: ('A' for Active; 'I' for Inactive)
ROOT
ATOM      1  C4' PXY d   1      -0.207  -0.042  -2.117  0.00  0.00     0.077 C 
ATOM      2  C1' PXY d   1       2.234  -1.078   3.020  0.00  0.00     0.077 C 
ATOM      3  C1  PXY d   1       1.582  -0.803   1.679  0.00  0.00    -0.082 A 
ATOM      4  C2  PXY d   1       2.087  -1.347   0.583  0.00  0.00     0.003 A 
ATOM      5  C3  PXY d   1       1.529  -1.084  -0.642  0.00  0.00     0.003 A 
ATOM      6  C4  PXY d   1       0.412  -0.299  -0.740  0.00  0.00    -0.082 A 
ATOM      7  C5  PXY d   1      -0.115   0.251   0.374  0.00  0.00     0.003 A 
ATOM      8  C6  PXY d   1       0.490   0.005   1.603  0.00  0.00     0.003 A 
ENDROOT
TORSDOF 0
ENDMDL
