MODEL 1
REMARK minimizedAffinity 5.00759315
REMARK minimizedRMSD -1
REMARK  0 active torsions:
REMARK  status: ('A' for Active; 'I' for Inactive)
ROOT
ATOM      1  C4' PXY d   1      -6.000  -3.072   6.000  0.00  0.00     0.077 C 
ATOM      2  C1' PXY d   1      -5.878  -0.405   0.873  0.00  0.00     0.077 C 
ATOM      3  C1  PXY d   1      -5.915  -1.114   2.212  0.00  0.00    -0.082 A 
ATOM      4  C2  PXY d   1      -5.902  -0.405   3.329  0.00  0.00     0.003 A 
ATOM      5  C3  PXY d   1      -5.903  -1.032   4.548  0.00  0.00     0.003 A 
ATOM      6  C4  PXY d   1      -5.973  -2.397   4.625  0.00  0.00    -0.082 A 
ATOM      7  C5  PXY d   1      -5.997  -3.127   3.490  0.00  0.00     0.003 A 
ATOM      8  C6  PXY d   1      -5.954  -2.474   2.262  0.00  0.00     0.003 A 
ENDROOT
TORSDOF 0
ENDMDL
