MODEL 1
REMARK minimizedAffinity 8.396492
REMARK minimizedRMSD -1
REMARK  0 active torsions:
REMARK  status: ('A' for Active; 'I' for Inactive)
ROOT
ATOM      1  C4' PXY d   1       1.557   5.257   1.448  0.00  0.00     0.077 C 
ATOM      2  C1' PXY d   1       0.589   0.077   3.825  0.00  0.00     0.077 C 
ATOM      3  C1  PXY d   1       0.847   1.440   3.213  0.00  0.00    -0.082 A 
ATOM      4  C2  PXY d   1       0.200   1.798   2.116  0.00  0.00     0.003 A 
ATOM      5  C3  PXY d   1       0.444   3.014   1.532  0.00  0.00     0.003 A 
ATOM      6  C4  PXY d   1       1.321   3.894   2.106  0.00  0.00    -0.082 A 
ATOM      7  C5  PXY d   1       1.977   3.541   3.232  0.00  0.00     0.003 A 
ATOM      8  C6  PXY d   1       1.745   2.286   3.786  0.00  0.00     0.003 A 
ENDROOT
TORSDOF 0
ENDMDL
