MODEL 1
REMARK minimizedAffinity 14.8061218
REMARK minimizedRMSD -1
REMARK  0 active torsions:
REMARK  status: ('A' for Active; 'I' for Inactive)
ROOT
ATOM      1  C4' PXY d   1      -0.828  -3.461  -0.817  0.00  0.00     0.077 C 
ATOM      2  C1' PXY d   1       4.225  -5.995   0.390  0.00  0.00     0.077 C 
ATOM      3  C1  PXY d   1       2.905  -5.318   0.075  0.00  0.00    -0.082 A 
ATOM      4  C2  PXY d   1       1.773  -5.979   0.254  0.00  0.00     0.003 A 
ATOM      5  C3  PXY d   1       0.572  -5.394  -0.056  0.00  0.00     0.003 A 
ATOM      6  C4  PXY d   1       0.527  -4.101  -0.503  0.00  0.00    -0.082 A 
ATOM      7  C5  PXY d   1       1.677  -3.416  -0.678  0.00  0.00     0.003 A 
ATOM      8  C6  PXY d   1       2.888  -4.042  -0.396  0.00  0.00     0.003 A 
ENDROOT
TORSDOF 0
ENDMDL
