MODEL 1
REMARK minimizedAffinity -2.02427816
REMARK minimizedRMSD -1
REMARK  0 active torsions:
REMARK  status: ('A' for Active; 'I' for Inactive)
ROOT
ATOM      1  C4' PXY d   1       0.050   2.857  -0.737  0.00  0.00     0.077 C 
ATOM      2  C1' PXY d   1      -3.494  -1.575  -1.836  0.00  0.00     0.077 C 
ATOM      3  C1  PXY d   1      -2.559  -0.419  -1.538  0.00  0.00    -0.082 A 
ATOM      4  C2  PXY d   1      -2.879   0.801  -1.938  0.00  0.00     0.003 A 
ATOM      5  C3  PXY d   1      -2.031   1.852  -1.704  0.00  0.00     0.003 A 
ATOM      6  C4  PXY d   1      -0.868   1.662  -1.008  0.00  0.00    -0.082 A 
ATOM      7  C5  PXY d   1      -0.539   0.422  -0.587  0.00  0.00     0.003 A 
ATOM      8  C6  PXY d   1      -1.394  -0.639  -0.870  0.00  0.00     0.003 A 
ENDROOT
TORSDOF 0
ENDMDL
