MODEL 1
REMARK minimizedAffinity -1.93212283
REMARK minimizedRMSD -1
REMARK  0 active torsions:
REMARK  status: ('A' for Active; 'I' for Inactive)
ROOT
ATOM      1  C4' PXY d   1      -2.361   0.115  -2.549  0.00  0.00     0.077 C 
ATOM      2  C1' PXY d   1       1.862  -0.273   1.380  0.00  0.00     0.077 C 
ATOM      3  C1  PXY d   1       0.762  -0.164   0.342  0.00  0.00    -0.082 A 
ATOM      4  C2  PXY d   1      -0.501  -0.305   0.710  0.00  0.00     0.003 A 
ATOM      5  C3  PXY d   1      -1.506  -0.241  -0.221  0.00  0.00     0.003 A 
ATOM      6  C4  PXY d   1      -1.219   0.022  -1.534  0.00  0.00    -0.082 A 
ATOM      7  C5  PXY d   1       0.067   0.177  -1.915  0.00  0.00     0.003 A 
ATOM      8  C6  PXY d   1       1.075   0.068  -0.962  0.00  0.00     0.003 A 
ENDROOT
TORSDOF 0
ENDMDL
