MODEL 1
REMARK minimizedAffinity -4.36927891
REMARK minimizedRMSD -1
REMARK  0 active torsions:
REMARK  status: ('A' for Active; 'I' for Inactive)
ROOT
ATOM      1  C   UNL d   1       2.767  -1.713   0.471  0.00  0.00     0.023 A 
ATOM      2  C1  UNL d   1       2.552  -0.524   1.169  0.00  0.00     0.003 A 
ATOM      3  C2  UNL d   1       1.372   0.197   0.976  0.00  0.00     0.048 A 
ATOM      4  C3  UNL d   1       0.411  -0.277   0.084  0.00  0.00     0.023 A 
ATOM      5  C4  UNL d   1       0.621  -1.466  -0.616  0.00  0.00     0.048 A 
ATOM      6  C5  UNL d   1       1.802  -2.183  -0.420  0.00  0.00     0.003 A 
ATOM      7  I   UNL d   1      -1.347   0.795  -0.205  0.00  0.00    -0.146 I 
ENDROOT
TORSDOF 0
ENDMDL
