MODEL 1
REMARK minimizedAffinity -2.65842152
REMARK minimizedRMSD -1
REMARK  0 active torsions:
REMARK  status: ('A' for Active; 'I' for Inactive)
ROOT
ATOM      1  C   UNL d   1       2.223  -1.915   0.278  0.00  0.00     0.023 A 
ATOM      2  C1  UNL d   1       1.145  -2.260  -0.536  0.00  0.00     0.003 A 
ATOM      3  C2  UNL d   1       0.013  -1.444  -0.581  0.00  0.00     0.048 A 
ATOM      4  C3  UNL d   1      -0.033  -0.283   0.190  0.00  0.00     0.023 A 
ATOM      5  C4  UNL d   1       1.044   0.067   1.006  0.00  0.00     0.048 A 
ATOM      6  C5  UNL d   1       2.173  -0.753   1.048  0.00  0.00     0.003 A 
ATOM      7  I   UNL d   1      -1.717   0.934   0.125  0.00  0.00    -0.146 I 
ENDROOT
TORSDOF 0
ENDMDL
