MODEL 1
REMARK minimizedAffinity -4.16214705
REMARK minimizedRMSD -1
REMARK  0 active torsions:
REMARK  status: ('A' for Active; 'I' for Inactive)
ROOT
ATOM      1  C   UNL d   1       2.292  -1.773   0.106  0.00  0.00     0.023 A 
ATOM      2  C1  UNL d   1       2.160  -0.526   0.716  0.00  0.00     0.003 A 
ATOM      3  C2  UNL d   1       0.929   0.133   0.703  0.00  0.00     0.048 A 
ATOM      4  C3  UNL d   1      -0.166  -0.462   0.077  0.00  0.00     0.023 A 
ATOM      5  C4  UNL d   1      -0.039  -1.710  -0.534  0.00  0.00     0.048 A 
ATOM      6  C5  UNL d   1       1.194  -2.364  -0.519  0.00  0.00     0.003 A 
ATOM      7  I   UNL d   1      -2.000   0.517   0.056  0.00  0.00    -0.146 I 
ENDROOT
TORSDOF 0
ENDMDL
