MODEL 1
REMARK minimizedAffinity -3.71114612
REMARK minimizedRMSD -1
REMARK  0 active torsions:
REMARK  status: ('A' for Active; 'I' for Inactive)
ROOT
ATOM      1  C   UNL d   1       3.264  -1.333  -0.143  0.00  0.00     0.023 A 
ATOM      2  C1  UNL d   1       2.322  -1.728  -1.094  0.00  0.00     0.003 A 
ATOM      3  C2  UNL d   1       1.046  -1.162  -1.092  0.00  0.00     0.048 A 
ATOM      4  C3  UNL d   1       0.718  -0.201  -0.136  0.00  0.00     0.023 A 
ATOM      5  C4  UNL d   1       1.657   0.197   0.817  0.00  0.00     0.048 A 
ATOM      6  C5  UNL d   1       2.931  -0.372   0.811  0.00  0.00     0.003 A 
ATOM      7  I   UNL d   1      -1.182   0.643  -0.130  0.00  0.00    -0.146 I 
ENDROOT
TORSDOF 0
ENDMDL
