MODEL 1
REMARK minimizedAffinity -1.49599528
REMARK minimizedRMSD -1
REMARK  0 active torsions:
REMARK  status: ('A' for Active; 'I' for Inactive)
ROOT
ATOM      1  C   UNL d   1       2.008  -1.622  -0.548  0.00  0.00     0.023 A 
ATOM      2  C1  UNL d   1       2.111  -0.257  -0.279  0.00  0.00     0.003 A 
ATOM      3  C2  UNL d   1       0.959   0.500  -0.055  0.00  0.00     0.048 A 
ATOM      4  C3  UNL d   1      -0.292  -0.114  -0.101  0.00  0.00     0.023 A 
ATOM      5  C4  UNL d   1      -0.399  -1.480  -0.369  0.00  0.00     0.048 A 
ATOM      6  C5  UNL d   1       0.755  -2.233  -0.593  0.00  0.00     0.003 A 
ATOM      7  I   UNL d   1      -2.008   1.010   0.232  0.00  0.00    -0.146 I 
ENDROOT
TORSDOF 0
ENDMDL
