MODEL 1
REMARK minimizedAffinity -1.26912749
REMARK minimizedRMSD -1
REMARK  0 active torsions:
REMARK  status: ('A' for Active; 'I' for Inactive)
ROOT
ATOM      1  C   UNL d   1       1.863  -1.371  -0.441  0.00  0.00     0.023 A 
ATOM      2  C1  UNL d   1       1.731  -0.245   0.371  0.00  0.00     0.003 A 
ATOM      3  C2  UNL d   1       0.479   0.349   0.546  0.00  0.00     0.048 A 
ATOM      4  C3  UNL d   1      -0.637  -0.190  -0.093  0.00  0.00     0.023 A 
ATOM      5  C4  UNL d   1      -0.510  -1.317  -0.907  0.00  0.00     0.048 A 
ATOM      6  C5  UNL d   1       0.744  -1.907  -1.079  0.00  0.00     0.003 A 
ATOM      7  I   UNL d   1      -2.501   0.691   0.166  0.00  0.00    -0.146 I 
ENDROOT
TORSDOF 0
ENDMDL
