MODEL 1
REMARK minimizedAffinity -3.59537077
REMARK minimizedRMSD -1
REMARK  0 active torsions:
REMARK  status: ('A' for Active; 'I' for Inactive)
ROOT
ATOM      1  C   UNL d   1       1.456  -1.847  -0.364  0.00  0.00     0.023 A 
ATOM      2  C1  UNL d   1       1.399  -0.776   0.528  0.00  0.00     0.003 A 
ATOM      3  C2  UNL d   1       0.254   0.020   0.594  0.00  0.00     0.048 A 
ATOM      4  C3  UNL d   1      -0.832  -0.262  -0.235  0.00  0.00     0.023 A 
ATOM      5  C4  UNL d   1      -0.780  -1.333  -1.129  0.00  0.00     0.048 A 
ATOM      6  C5  UNL d   1       0.368  -2.125  -1.191  0.00  0.00     0.003 A 
ATOM      7  I   UNL d   1      -2.538   0.922  -0.140  0.00  0.00    -0.146 I 
ENDROOT
TORSDOF 0
ENDMDL
