MODEL 1
REMARK minimizedAffinity -3.5780437
REMARK minimizedRMSD -1
REMARK  0 active torsions:
REMARK  status: ('A' for Active; 'I' for Inactive)
ROOT
ATOM      1  C   UNL d   1       2.372   0.538   1.214  0.00  0.00     0.023 A 
ATOM      2  C1  UNL d   1       1.118   0.966   0.778  0.00  0.00     0.003 A 
ATOM      3  C2  UNL d   1       0.360   0.158  -0.071  0.00  0.00     0.048 A 
ATOM      4  C3  UNL d   1       0.860  -1.078  -0.480  0.00  0.00     0.023 A 
ATOM      5  C4  UNL d   1       2.114  -1.511  -0.046  0.00  0.00     0.048 A 
ATOM      6  C5  UNL d   1       2.870  -0.699   0.803  0.00  0.00     0.003 A 
ATOM      7  I   UNL d   1      -0.267  -2.282  -1.744  0.00  0.00    -0.146 I 
ENDROOT
TORSDOF 0
ENDMDL
