MODEL 1
REMARK minimizedAffinity -3.91069937
REMARK minimizedRMSD -1
REMARK  0 active torsions:
REMARK  status: ('A' for Active; 'I' for Inactive)
ROOT
ATOM      1  C   UNL d   1       1.611   0.038   0.300  0.00  0.00     0.023 A 
ATOM      2  C1  UNL d   1       1.372   1.408   0.185  0.00  0.00     0.003 A 
ATOM      3  C2  UNL d   1       0.073   1.876  -0.023  0.00  0.00     0.048 A 
ATOM      4  C3  UNL d   1      -0.982   0.970  -0.114  0.00  0.00     0.023 A 
ATOM      5  C4  UNL d   1      -0.748  -0.402   0.001  0.00  0.00     0.048 A 
ATOM      6  C5  UNL d   1       0.552  -0.865   0.208  0.00  0.00     0.003 A 
ATOM      7  I   UNL d   1      -2.916   1.665  -0.423  0.00  0.00    -0.146 I 
ENDROOT
TORSDOF 0
ENDMDL
