MODEL 1
REMARK minimizedAffinity -1.3140229
REMARK minimizedRMSD -1
REMARK  0 active torsions:
REMARK  status: ('A' for Active; 'I' for Inactive)
ROOT
ATOM      1  C   UNL d   1       0.941   1.839   0.782  0.00  0.00     0.023 A 
ATOM      2  C1  UNL d   1       0.004   2.015  -0.236  0.00  0.00     0.003 A 
ATOM      3  C2  UNL d   1      -0.383   0.931  -1.027  0.00  0.00     0.048 A 
ATOM      4  C3  UNL d   1       0.170  -0.327  -0.793  0.00  0.00     0.023 A 
ATOM      5  C4  UNL d   1       1.107  -0.509   0.225  0.00  0.00     0.048 A 
ATOM      6  C5  UNL d   1       1.492   0.578   1.012  0.00  0.00     0.003 A 
ATOM      7  I   UNL d   1      -0.405  -1.942  -1.968  0.00  0.00    -0.146 I 
ENDROOT
TORSDOF 0
ENDMDL
