MODEL 1
REMARK minimizedAffinity 2.86833119
REMARK minimizedRMSD -1
REMARK  0 active torsions:
REMARK  status: ('A' for Active; 'I' for Inactive)
ROOT
ATOM      1  O1  BZF d   1       0.406  -1.954   5.361  0.00  0.00    -0.204 OA
ATOM      2  C2  BZF d   1       1.110  -1.100   4.535  0.00  0.00     0.174 A 
ATOM      3  C3  BZF d   1       0.282  -0.218   3.941  0.00  0.00    -0.012 A 
ATOM      4  C3A BZF d   1      -1.010  -0.482   4.496  0.00  0.00    -0.107 A 
ATOM      5  C4  BZF d   1      -2.243   0.077   4.313  0.00  0.00     0.055 A 
ATOM      6  C5  BZF d   1      -3.314  -0.462   4.954  0.00  0.00    -0.016 A 
ATOM      7  C6  BZF d   1      -3.189  -1.560   5.779  0.00  0.00     0.022 A 
ATOM      8  C7  BZF d   1      -1.986  -2.145   5.995  0.00  0.00     0.029 A 
ATOM      9  C7A BZF d   1      -0.897  -1.583   5.375  0.00  0.00     0.058 A 
ENDROOT
TORSDOF 0
ENDMDL
