MODEL 1
REMARK minimizedAffinity -3.52269411
REMARK minimizedRMSD -1
REMARK  0 active torsions:
REMARK  status: ('A' for Active; 'I' for Inactive)
ROOT
ATOM      1  O1  BZF d   1       0.921   2.147  -1.004  0.00  0.00    -0.204 OA
ATOM      2  C2  BZF d   1       1.372   2.978   0.004  0.00  0.00     0.174 A 
ATOM      3  C3  BZF d   1       1.354   2.341   1.193  0.00  0.00    -0.012 A 
ATOM      4  C3A BZF d   1       0.949   1.001   0.896  0.00  0.00    -0.107 A 
ATOM      5  C4  BZF d   1       0.760  -0.113   1.662  0.00  0.00     0.055 A 
ATOM      6  C5  BZF d   1       0.290  -1.246   1.075  0.00  0.00    -0.016 A 
ATOM      7  C6  BZF d   1      -0.006  -1.297  -0.271  0.00  0.00     0.022 A 
ATOM      8  C7  BZF d   1       0.170  -0.218  -1.072  0.00  0.00     0.029 A 
ATOM      9  C7A BZF d   1       0.676   0.918  -0.489  0.00  0.00     0.058 A 
ENDROOT
TORSDOF 0
ENDMDL
