MODEL 1
REMARK minimizedAffinity -2.67366481
REMARK minimizedRMSD -1
REMARK  0 active torsions:
REMARK  status: ('A' for Active; 'I' for Inactive)
ROOT
ATOM      1  O1  BZF d   1       0.060   1.611  -0.454  0.00  0.00    -0.204 OA
ATOM      2  C2  BZF d   1       0.118   0.255  -0.197  0.00  0.00     0.174 A 
ATOM      3  C3  BZF d   1       1.262  -0.062   0.443  0.00  0.00    -0.012 A 
ATOM      4  C3A BZF d   1       1.921   1.186   0.676  0.00  0.00    -0.107 A 
ATOM      5  C4  BZF d   1       3.094   1.528   1.286  0.00  0.00     0.055 A 
ATOM      6  C5  BZF d   1       3.486   2.830   1.281  0.00  0.00    -0.016 A 
ATOM      7  C6  BZF d   1       2.732   3.812   0.673  0.00  0.00     0.022 A 
ATOM      8  C7  BZF d   1       1.559   3.522   0.060  0.00  0.00     0.029 A 
ATOM      9  C7A BZF d   1       1.145   2.213   0.091  0.00  0.00     0.058 A 
ENDROOT
TORSDOF 0
ENDMDL
