MODEL 1
REMARK minimizedAffinity -0.339885592
REMARK minimizedRMSD -1
REMARK  0 active torsions:
REMARK  status: ('A' for Active; 'I' for Inactive)
ROOT
ATOM      1  O1  BZF d   1      -1.072  -1.476   1.799  0.00  0.00    -0.204 OA
ATOM      2  C2  BZF d   1      -1.264  -2.739   1.274  0.00  0.00     0.174 A 
ATOM      3  C3  BZF d   1      -0.815  -2.803   0.004  0.00  0.00    -0.012 A 
ATOM      4  C3A BZF d   1      -0.226  -1.524  -0.251  0.00  0.00    -0.107 A 
ATOM      5  C4  BZF d   1       0.404  -0.981  -1.334  0.00  0.00     0.055 A 
ATOM      6  C5  BZF d   1       0.797   0.319  -1.285  0.00  0.00    -0.016 A 
ATOM      7  C6  BZF d   1       0.571   1.105  -0.174  0.00  0.00     0.022 A 
ATOM      8  C7  BZF d   1      -0.046   0.608   0.926  0.00  0.00     0.029 A 
ATOM      9  C7A BZF d   1      -0.415  -0.714   0.892  0.00  0.00     0.058 A 
ENDROOT
TORSDOF 0
ENDMDL
