MODEL 1
REMARK minimizedAffinity -5.40808439
REMARK minimizedRMSD -1
REMARK  0 active torsions:
REMARK  status: ('A' for Active; 'I' for Inactive)
ROOT
ATOM      1  O1  BZF d   1      -0.522   0.859  -0.084  0.00  0.00    -0.204 OA
ATOM      2  C2  BZF d   1      -0.335  -0.374   0.511  0.00  0.00     0.174 A 
ATOM      3  C3  BZF d   1       0.821  -0.400   1.204  0.00  0.00    -0.012 A 
ATOM      4  C3A BZF d   1       1.347   0.927   1.108  0.00  0.00    -0.107 A 
ATOM      5  C4  BZF d   1       2.467   1.531   1.604  0.00  0.00     0.055 A 
ATOM      6  C5  BZF d   1       2.726   2.822   1.266  0.00  0.00    -0.016 A 
ATOM      7  C6  BZF d   1       1.891   3.535   0.431  0.00  0.00     0.022 A 
ATOM      8  C7  BZF d   1       0.766   2.980  -0.081  0.00  0.00     0.029 A 
ATOM      9  C7A BZF d   1       0.484   1.687   0.285  0.00  0.00     0.058 A 
ENDROOT
TORSDOF 0
ENDMDL
