MODEL 1
REMARK minimizedAffinity -3.95683169
REMARK minimizedRMSD -1
REMARK  0 active torsions:
REMARK  status: ('A' for Active; 'I' for Inactive)
ROOT
ATOM      1  O1  BZF d   1       0.448  -1.525  -2.417  0.00  0.00    -0.204 OA
ATOM      2  C2  BZF d   1       0.278  -2.878  -2.634  0.00  0.00     0.174 A 
ATOM      3  C3  BZF d   1      -0.138  -3.495  -1.509  0.00  0.00    -0.012 A 
ATOM      4  C3A BZF d   1      -0.323  -2.447  -0.552  0.00  0.00    -0.107 A 
ATOM      5  C4  BZF d   1      -0.741  -2.425   0.748  0.00  0.00     0.055 A 
ATOM      6  C5  BZF d   1      -0.741  -1.246   1.422  0.00  0.00    -0.016 A 
ATOM      7  C6  BZF d   1      -0.325  -0.071   0.830  0.00  0.00     0.022 A 
ATOM      8  C7  BZF d   1       0.094  -0.042  -0.458  0.00  0.00     0.029 A 
ATOM      9  C7A BZF d   1       0.063  -1.226  -1.153  0.00  0.00     0.058 A 
ENDROOT
TORSDOF 0
ENDMDL
