MODEL 1
REMARK minimizedAffinity -3.18282628
REMARK minimizedRMSD -1
REMARK  0 active torsions:
REMARK  status: ('A' for Active; 'I' for Inactive)
ROOT
ATOM      1  O1  BZF d   1       0.554  -0.741  -0.752  0.00  0.00    -0.204 OA
ATOM      2  C2  BZF d   1       1.011   0.543  -0.523  0.00  0.00     0.174 A 
ATOM      3  C3  BZF d   1       0.304   1.132   0.463  0.00  0.00    -0.012 A 
ATOM      4  C3A BZF d   1      -0.593   0.124   0.938  0.00  0.00    -0.107 A 
ATOM      5  C4  BZF d   1      -1.541   0.098   1.921  0.00  0.00     0.055 A 
ATOM      6  C5  BZF d   1      -2.296  -1.021   2.081  0.00  0.00    -0.016 A 
ATOM      7  C6  BZF d   1      -2.133  -2.128   1.275  0.00  0.00     0.022 A 
ATOM      8  C7  BZF d   1      -1.203  -2.151   0.290  0.00  0.00     0.029 A 
ATOM      9  C7A BZF d   1      -0.416  -1.034   0.146  0.00  0.00     0.058 A 
ENDROOT
TORSDOF 0
ENDMDL
