MODEL 1
REMARK minimizedAffinity -4.55033684
REMARK minimizedRMSD -1
REMARK  0 active torsions:
REMARK  status: ('A' for Active; 'I' for Inactive)
ROOT
ATOM      1  O1  BZF d   1      -0.070   0.915   1.692  0.00  0.00    -0.204 OA
ATOM      2  C2  BZF d   1       1.073   1.254   0.994  0.00  0.00     0.174 A 
ATOM      3  C3  BZF d   1       1.431   0.264   0.152  0.00  0.00    -0.012 A 
ATOM      4  C3A BZF d   1       0.399  -0.721   0.268  0.00  0.00    -0.107 A 
ATOM      5  C4  BZF d   1       0.182  -1.929  -0.330  0.00  0.00     0.055 A 
ATOM      6  C5  BZF d   1      -0.883  -2.677   0.059  0.00  0.00    -0.016 A 
ATOM      7  C6  BZF d   1      -1.748  -2.250   1.045  0.00  0.00     0.022 A 
ATOM      8  C7  BZF d   1      -1.577  -1.057   1.664  0.00  0.00     0.029 A 
ATOM      9  C7A BZF d   1      -0.520  -0.284   1.250  0.00  0.00     0.058 A 
ENDROOT
TORSDOF 0
ENDMDL
