MODEL 1
REMARK minimizedAffinity -5.66529179
REMARK minimizedRMSD -1
REMARK  0 active torsions:
REMARK  status: ('A' for Active; 'I' for Inactive)
ROOT
ATOM      1  O1  BZF d   1      -0.293  -3.032   0.714  0.00  0.00    -0.204 OA
ATOM      2  C2  BZF d   1       0.487  -3.538  -0.308  0.00  0.00     0.174 A 
ATOM      3  C3  BZF d   1       0.765  -2.581  -1.217  0.00  0.00    -0.012 A 
ATOM      4  C3A BZF d   1       0.196  -1.381  -0.685  0.00  0.00    -0.107 A 
ATOM      5  C4  BZF d   1       0.154  -0.088  -1.123  0.00  0.00     0.055 A 
ATOM      6  C5  BZF d   1      -0.545   0.830  -0.405  0.00  0.00    -0.016 A 
ATOM      7  C6  BZF d   1      -1.217   0.489   0.751  0.00  0.00     0.022 A 
ATOM      8  C7  BZF d   1      -1.201  -0.780   1.227  0.00  0.00     0.029 A 
ATOM      9  C7A BZF d   1      -0.468  -1.703   0.521  0.00  0.00     0.058 A 
ENDROOT
TORSDOF 0
ENDMDL
