MODEL 1
REMARK minimizedAffinity 0.957424641
REMARK minimizedRMSD -1
REMARK  0 active torsions:
REMARK  status: ('A' for Active; 'I' for Inactive)
ROOT
ATOM      1  O1  BZF d   1      -2.652  -1.793   1.635  0.00  0.00    -0.204 OA
ATOM      2  C2  BZF d   1      -2.367  -3.076   1.210  0.00  0.00     0.174 A 
ATOM      3  C3  BZF d   1      -1.307  -3.079   0.376  0.00  0.00    -0.012 A 
ATOM      4  C3A BZF d   1      -0.847  -1.725   0.347  0.00  0.00    -0.107 A 
ATOM      5  C4  BZF d   1       0.185  -1.097  -0.290  0.00  0.00     0.055 A 
ATOM      6  C5  BZF d   1       0.316   0.250  -0.167  0.00  0.00    -0.016 A 
ATOM      7  C6  BZF d   1      -0.567   1.000   0.581  0.00  0.00     0.022 A 
ATOM      8  C7  BZF d   1      -1.604   0.421   1.236  0.00  0.00     0.029 A 
ATOM      9  C7A BZF d   1      -1.720  -0.944   1.140  0.00  0.00     0.058 A 
ENDROOT
TORSDOF 0
ENDMDL
