MODEL 1
REMARK minimizedAffinity -4.12951994
REMARK minimizedRMSD -1
REMARK  0 active torsions:
REMARK  status: ('A' for Active; 'I' for Inactive)
ROOT
ATOM      1  O1  BZF d   1       1.304  -1.077  -1.684  0.00  0.00    -0.204 OA
ATOM      2  C2  BZF d   1       0.750   0.174  -1.875  0.00  0.00     0.174 A 
ATOM      3  C3  BZF d   1      -0.341   0.338  -1.099  0.00  0.00    -0.012 A 
ATOM      4  C3A BZF d   1      -0.423  -0.853  -0.310  0.00  0.00    -0.107 A 
ATOM      5  C4  BZF d   1      -1.285  -1.278   0.660  0.00  0.00     0.055 A 
ATOM      6  C5  BZF d   1      -1.131  -2.524   1.180  0.00  0.00    -0.016 A 
ATOM      7  C6  BZF d   1      -0.132  -3.372   0.750  0.00  0.00     0.022 A 
ATOM      8  C7  BZF d   1       0.750  -2.993  -0.207  0.00  0.00     0.029 A 
ATOM      9  C7A BZF d   1       0.617  -1.722  -0.711  0.00  0.00     0.058 A 
ENDROOT
TORSDOF 0
ENDMDL
