MODEL 1
REMARK minimizedAffinity -3.70795584
REMARK minimizedRMSD -1
REMARK  0 active torsions:
REMARK  status: ('A' for Active; 'I' for Inactive)
ROOT
ATOM      1  O1  BZF d   1      -0.454  -2.429  -1.100  0.00  0.00    -0.204 OA
ATOM      2  C2  BZF d   1      -0.979  -3.273  -0.140  0.00  0.00     0.174 A 
ATOM      3  C3  BZF d   1      -1.040  -2.655   1.057  0.00  0.00    -0.012 A 
ATOM      4  C3A BZF d   1      -0.608  -1.314   0.812  0.00  0.00    -0.107 A 
ATOM      5  C4  BZF d   1      -0.467  -0.212   1.607  0.00  0.00     0.055 A 
ATOM      6  C5  BZF d   1       0.049   0.926   1.073  0.00  0.00    -0.016 A 
ATOM      7  C6  BZF d   1       0.439   0.996  -0.249  0.00  0.00     0.022 A 
ATOM      8  C7  BZF d   1       0.314  -0.069  -1.077  0.00  0.00     0.029 A 
ATOM      9  C7A BZF d   1      -0.238  -1.210  -0.549  0.00  0.00     0.058 A 
ENDROOT
TORSDOF 0
ENDMDL
