MODEL 1
REMARK minimizedAffinity -4.1621666
REMARK minimizedRMSD -1
REMARK  0 active torsions:
REMARK  status: ('A' for Active; 'I' for Inactive)
ROOT
ATOM      1  O1  BZF d   1      -0.119  -0.217   0.432  0.00  0.00    -0.204 OA
ATOM      2  C2  BZF d   1      -0.628  -0.656   1.639  0.00  0.00     0.174 A 
ATOM      3  C3  BZF d   1      -1.172  -1.883   1.511  0.00  0.00    -0.012 A 
ATOM      4  C3A BZF d   1      -0.910  -2.272   0.159  0.00  0.00    -0.107 A 
ATOM      5  C4  BZF d   1      -1.190  -3.394  -0.566  0.00  0.00     0.055 A 
ATOM      6  C5  BZF d   1      -0.861  -3.428  -1.885  0.00  0.00    -0.016 A 
ATOM      7  C6  BZF d   1      -0.258  -2.357  -2.510  0.00  0.00     0.022 A 
ATOM      8  C7  BZF d   1       0.044  -1.223  -1.831  0.00  0.00     0.029 A 
ATOM      9  C7A BZF d   1      -0.257  -1.199  -0.491  0.00  0.00     0.058 A 
ENDROOT
TORSDOF 0
ENDMDL
