MODEL 1
REMARK minimizedAffinity -2.31303334
REMARK minimizedRMSD -1
REMARK  0 active torsions:
REMARK  status: ('A' for Active; 'I' for Inactive)
ROOT
ATOM      1  O1  BZF d   1      -0.093  -1.655  -2.150  0.00  0.00    -0.204 OA
ATOM      2  C2  BZF d   1      -0.652  -2.868  -2.501  0.00  0.00     0.174 A 
ATOM      3  C3  BZF d   1      -1.162  -3.491  -1.419  0.00  0.00    -0.012 A 
ATOM      4  C3A BZF d   1      -0.988  -2.571  -0.338  0.00  0.00    -0.107 A 
ATOM      5  C4  BZF d   1      -1.309  -2.610   0.989  0.00  0.00     0.055 A 
ATOM      6  C5  BZF d   1      -0.936  -1.577   1.789  0.00  0.00    -0.016 A 
ATOM      7  C6  BZF d   1      -0.238  -0.493   1.298  0.00  0.00     0.022 A 
ATOM      8  C7  BZF d   1       0.099  -0.407  -0.012  0.00  0.00     0.029 A 
ATOM      9  C7A BZF d   1      -0.306  -1.434  -0.830  0.00  0.00     0.058 A 
ENDROOT
TORSDOF 0
ENDMDL
