MODEL 1
REMARK minimizedAffinity -1.38803768
REMARK minimizedRMSD -1
REMARK  0 active torsions:
REMARK  status: ('A' for Active; 'I' for Inactive)
ROOT
ATOM      1  O1  BZF d   1       0.506   0.037  -0.527  0.00  0.00    -0.204 OA
ATOM      2  C2  BZF d   1      -0.577  -0.388   0.218  0.00  0.00     0.174 A 
ATOM      3  C3  BZF d   1      -0.939   0.551   1.116  0.00  0.00    -0.012 A 
ATOM      4  C3A BZF d   1      -0.083   1.668   0.857  0.00  0.00    -0.107 A 
ATOM      5  C4  BZF d   1       0.032   2.911   1.410  0.00  0.00     0.055 A 
ATOM      6  C5  BZF d   1       1.019   3.738   0.977  0.00  0.00    -0.016 A 
ATOM      7  C6  BZF d   1       1.911   3.354  -0.002  0.00  0.00     0.022 A 
ATOM      8  C7  BZF d   1       1.834   2.133  -0.585  0.00  0.00     0.029 A 
ATOM      9  C7A BZF d   1       0.817   1.306  -0.172  0.00  0.00     0.058 A 
ENDROOT
TORSDOF 0
ENDMDL
