MODEL 1
REMARK minimizedAffinity -3.42638826
REMARK minimizedRMSD -1
REMARK  0 active torsions:
REMARK  status: ('A' for Active; 'I' for Inactive)
ROOT
ATOM      1  O1  BZF d   1       1.789   2.680   2.152  0.00  0.00    -0.204 OA
ATOM      2  C2  BZF d   1       1.982   3.566   1.110  0.00  0.00     0.174 A 
ATOM      3  C3  BZF d   1       1.448   3.085  -0.032  0.00  0.00    -0.012 A 
ATOM      4  C3A BZF d   1       0.806   1.861   0.340  0.00  0.00    -0.107 A 
ATOM      5  C4  BZF d   1       0.086   0.931  -0.354  0.00  0.00     0.055 A 
ATOM      6  C5  BZF d   1      -0.341  -0.188   0.289  0.00  0.00    -0.016 A 
ATOM      7  C6  BZF d   1      -0.062  -0.410   1.622  0.00  0.00     0.022 A 
ATOM      8  C7  BZF d   1       0.644   0.487   2.353  0.00  0.00     0.029 A 
ATOM      9  C7A BZF d   1       1.048   1.634   1.714  0.00  0.00     0.058 A 
ENDROOT
TORSDOF 0
ENDMDL
