MODEL 1
REMARK minimizedAffinity 7.67979479
REMARK minimizedRMSD -1
REMARK  0 active torsions:
REMARK  status: ('A' for Active; 'I' for Inactive)
ROOT
ATOM      1  C   UNL d   1      -0.354   1.089   3.320  0.00  0.00    -0.002 A 
ATOM      2  C1  UNL d   1       0.423   0.039   2.851  0.00  0.00     0.010 A 
ATOM      3  C2  UNL d   1       0.783  -0.031   1.503  0.00  0.00     0.041 A 
ATOM      4  C3  UNL d   1       0.345   0.983   0.628  0.00  0.00    -0.075 A 
ATOM      5  S   UNL d   1       0.664   1.105  -1.062  0.00  0.00     0.015 SA
ATOM      6  C4  UNL d   1      -0.223   2.554  -1.200  0.00  0.00     0.022 A 
ATOM      7  C5  UNL d   1      -0.757   2.948   0.003  0.00  0.00     0.026 A 
ATOM      8  C6  UNL d   1      -0.437   2.050   1.077  0.00  0.00    -0.082 A 
ATOM      9  C7  UNL d   1      -0.786   2.092   2.449  0.00  0.00     0.045 A 
ENDROOT
TORSDOF 0
ENDMDL
