MODEL 1
REMARK minimizedAffinity 9.4693594
REMARK minimizedRMSD -1
REMARK  0 active torsions:
REMARK  status: ('A' for Active; 'I' for Inactive)
ROOT
ATOM      1  C   UNL d   1      -3.751   0.704  -2.280  0.00  0.00    -0.002 A 
ATOM      2  C1  UNL d   1      -3.540   1.698  -3.225  0.00  0.00     0.010 A 
ATOM      3  C2  UNL d   1      -2.494   2.610  -3.074  0.00  0.00     0.041 A 
ATOM      4  C3  UNL d   1      -1.653   2.503  -1.948  0.00  0.00    -0.075 A 
ATOM      5  S   UNL d   1      -0.308   3.508  -1.556  0.00  0.00     0.015 SA
ATOM      6  C4  UNL d   1       0.018   2.640  -0.126  0.00  0.00     0.022 A 
ATOM      7  C5  UNL d   1      -0.868   1.606   0.063  0.00  0.00     0.026 A 
ATOM      8  C6  UNL d   1      -1.845   1.510  -0.984  0.00  0.00    -0.082 A 
ATOM      9  C7  UNL d   1      -2.916   0.601  -1.165  0.00  0.00     0.045 A 
ENDROOT
TORSDOF 0
ENDMDL
