MODEL 1
REMARK minimizedAffinity 15.195714
REMARK minimizedRMSD -1
REMARK  0 active torsions:
REMARK  status: ('A' for Active; 'I' for Inactive)
ROOT
ATOM      1  C   UNL d   1      -1.379   2.210  -3.494  0.00  0.00    -0.002 A 
ATOM      2  C1  UNL d   1      -2.637   2.225  -2.909  0.00  0.00     0.010 A 
ATOM      3  C2  UNL d   1      -2.776   2.351  -1.525  0.00  0.00     0.041 A 
ATOM      4  C3  UNL d   1      -1.617   2.463  -0.732  0.00  0.00    -0.075 A 
ATOM      5  S   UNL d   1      -1.543   2.627   0.983  0.00  0.00     0.015 SA
ATOM      6  C4  UNL d   1       0.160   2.681   0.979  0.00  0.00     0.022 A 
ATOM      7  C5  UNL d   1       0.677   2.577  -0.290  0.00  0.00     0.026 A 
ATOM      8  C6  UNL d   1      -0.339   2.450  -1.298  0.00  0.00    -0.082 A 
ATOM      9  C7  UNL d   1      -0.232   2.321  -2.703  0.00  0.00     0.045 A 
ENDROOT
TORSDOF 0
ENDMDL
