MODEL 1
REMARK minimizedAffinity 14.9605989
REMARK minimizedRMSD -1
REMARK  0 active torsions:
REMARK  status: ('A' for Active; 'I' for Inactive)
ROOT
ATOM      1  C   UNL d   1      -1.813   5.210  -4.727  0.00  0.00    -0.002 A 
ATOM      2  C1  UNL d   1      -0.481   4.995  -4.403  0.00  0.00     0.010 A 
ATOM      3  C2  UNL d   1      -0.119   3.957  -3.541  0.00  0.00     0.041 A 
ATOM      4  C3  UNL d   1      -1.127   3.131  -3.008  0.00  0.00    -0.075 A 
ATOM      5  S   UNL d   1      -0.919   1.799  -1.933  0.00  0.00     0.015 SA
ATOM      6  C4  UNL d   1      -2.593   1.484  -1.880  0.00  0.00     0.022 A 
ATOM      7  C5  UNL d   1      -3.308   2.364  -2.657  0.00  0.00     0.026 A 
ATOM      8  C6  UNL d   1      -2.475   3.327  -3.320  0.00  0.00    -0.082 A 
ATOM      9  C7  UNL d   1      -2.810   4.388  -4.196  0.00  0.00     0.045 A 
ENDROOT
TORSDOF 0
ENDMDL
