MODEL 1
REMARK minimizedAffinity 2.58039212
REMARK minimizedRMSD -1
REMARK  0 active torsions:
REMARK  status: ('A' for Active; 'I' for Inactive)
ROOT
ATOM      1  C   UNL d   1      -0.419   2.964  -0.674  0.00  0.00    -0.002 A 
ATOM      2  C1  UNL d   1      -0.133   3.562  -1.893  0.00  0.00     0.010 A 
ATOM      3  C2  UNL d   1       0.003   2.791  -3.048  0.00  0.00     0.041 A 
ATOM      4  C3  UNL d   1      -0.158   1.394  -2.958  0.00  0.00    -0.075 A 
ATOM      5  S   UNL d   1      -0.038   0.249  -4.241  0.00  0.00     0.015 SA
ATOM      6  C4  UNL d   1      -0.365  -1.062  -3.202  0.00  0.00     0.022 A 
ATOM      7  C5  UNL d   1      -0.563  -0.654  -1.904  0.00  0.00     0.026 A 
ATOM      8  C6  UNL d   1      -0.447   0.768  -1.742  0.00  0.00    -0.082 A 
ATOM      9  C7  UNL d   1      -0.577   1.578  -0.588  0.00  0.00     0.045 A 
ENDROOT
TORSDOF 0
ENDMDL
