MODEL 1
REMARK minimizedAffinity 11.8756075
REMARK minimizedRMSD -1
REMARK  0 active torsions:
REMARK  status: ('A' for Active; 'I' for Inactive)
ROOT
ATOM      1  C   UNL d   1      -0.006   3.522  -0.990  0.00  0.00    -0.002 A 
ATOM      2  C1  UNL d   1       0.231   2.679   0.087  0.00  0.00     0.010 A 
ATOM      3  C2  UNL d   1      -0.635   1.620   0.364  0.00  0.00     0.041 A 
ATOM      4  C3  UNL d   1      -1.755   1.420  -0.467  0.00  0.00    -0.075 A 
ATOM      5  S   UNL d   1      -2.952   0.188  -0.320  0.00  0.00     0.015 SA
ATOM      6  C4  UNL d   1      -3.806   0.750  -1.683  0.00  0.00     0.022 A 
ATOM      7  C5  UNL d   1      -3.207   1.851  -2.249  0.00  0.00     0.026 A 
ATOM      8  C6  UNL d   1      -2.014   2.255  -1.558  0.00  0.00    -0.082 A 
ATOM      9  C7  UNL d   1      -1.117   3.320  -1.812  0.00  0.00     0.045 A 
ENDROOT
TORSDOF 0
ENDMDL
