MODEL 1
REMARK minimizedAffinity -1.5902108
REMARK minimizedRMSD -1
REMARK  0 active torsions:
REMARK  status: ('A' for Active; 'I' for Inactive)
ROOT
ATOM      1  C   UNL d   1       3.110   0.125  -0.117  0.00  0.00     0.124 A 
ATOM      2  C1  UNL d   1       2.254  -0.967  -0.168  0.00  0.00     0.062 A 
ATOM      3  C2  UNL d   1       0.886  -0.776  -0.344  0.00  0.00     0.162 A 
ATOM      4  C3  UNL d   1       0.366   0.511  -0.472  0.00  0.00    -0.034 A 
ATOM      5  C4  UNL d   1       1.233   1.604  -0.418  0.00  0.00     0.162 A 
ATOM      6  C5  UNL d   1       2.599   1.409  -0.243  0.00  0.00     0.062 A 
ATOM      7  F   UNL d   1       3.424   2.464  -0.194  0.00  0.00    -0.097 F 
ATOM      8  F1  UNL d   1       0.766   2.856  -0.537  0.00  0.00    -0.096 F 
ATOM      9  I   UNL d   1      -1.678   0.800  -0.735  0.00  0.00    -0.060 I 
ATOM     10  F2  UNL d   1       0.083  -1.849  -0.390  0.00  0.00    -0.096 F 
ATOM     11  F3  UNL d   1       2.745  -2.209  -0.047  0.00  0.00    -0.097 F 
ATOM     12  F4  UNL d   1       4.425  -0.061   0.053  0.00  0.00    -0.092 F 
ENDROOT
TORSDOF 0
ENDMDL
