MODEL 1
REMARK minimizedAffinity -0.815641701
REMARK minimizedRMSD -1
REMARK  0 active torsions:
REMARK  status: ('A' for Active; 'I' for Inactive)
ROOT
ATOM      1  C   UNL d   1      -0.439  -0.346  -0.275  0.00  0.00     0.124 A 
ATOM      2  C1  UNL d   1      -0.358   0.999  -0.611  0.00  0.00     0.062 A 
ATOM      3  C2  UNL d   1       0.884   1.612  -0.749  0.00  0.00     0.162 A 
ATOM      4  C3  UNL d   1       2.056   0.881  -0.552  0.00  0.00    -0.034 A 
ATOM      5  C4  UNL d   1       1.966  -0.470  -0.214  0.00  0.00     0.162 A 
ATOM      6  C5  UNL d   1       0.723  -1.078  -0.077  0.00  0.00     0.062 A 
ATOM      7  F   UNL d   1       0.647  -2.377   0.248  0.00  0.00    -0.097 F 
ATOM      8  F1  UNL d   1       3.073  -1.202  -0.018  0.00  0.00    -0.096 F 
ATOM      9  I   UNL d   1       3.914   1.795  -0.758  0.00  0.00    -0.060 I 
ATOM     10  F2  UNL d   1       0.932   2.913  -1.074  0.00  0.00    -0.096 F 
ATOM     11  F3  UNL d   1      -1.479   1.709  -0.802  0.00  0.00    -0.097 F 
ATOM     12  F4  UNL d   1      -1.635  -0.933  -0.142  0.00  0.00    -0.092 F 
ENDROOT
TORSDOF 0
ENDMDL
