MODEL 1
REMARK minimizedAffinity -1.85914958
REMARK minimizedRMSD -1
REMARK  0 active torsions:
REMARK  status: ('A' for Active; 'I' for Inactive)
ROOT
ATOM      1  C   UNL d   1      -0.248   1.103  -1.286  0.00  0.00     0.124 A 
ATOM      2  C1  UNL d   1       0.702   1.695  -0.465  0.00  0.00     0.062 A 
ATOM      3  C2  UNL d   1       1.617   0.907   0.228  0.00  0.00     0.162 A 
ATOM      4  C3  UNL d   1       1.586  -0.482   0.102  0.00  0.00    -0.034 A 
ATOM      5  C4  UNL d   1       0.627  -1.070  -0.725  0.00  0.00     0.162 A 
ATOM      6  C5  UNL d   1      -0.285  -0.278  -1.415  0.00  0.00     0.062 A 
ATOM      7  F   UNL d   1      -1.202  -0.851  -2.207  0.00  0.00    -0.097 F 
ATOM      8  F1  UNL d   1       0.570  -2.402  -0.868  0.00  0.00    -0.096 F 
ATOM      9  I   UNL d   1       2.952  -1.664   1.136  0.00  0.00    -0.060 I 
ATOM     10  F2  UNL d   1       2.524   1.505   1.014  0.00  0.00    -0.096 F 
ATOM     11  F3  UNL d   1       0.739   3.029  -0.338  0.00  0.00    -0.097 F 
ATOM     12  F4  UNL d   1      -1.127   1.864  -1.950  0.00  0.00    -0.092 F 
ENDROOT
TORSDOF 0
ENDMDL
