MODEL 1
REMARK minimizedAffinity -2.12041426
REMARK minimizedRMSD -1
REMARK  0 active torsions:
REMARK  status: ('A' for Active; 'I' for Inactive)
ROOT
ATOM      1  C   UNL d   1       2.573  -0.314   0.711  0.00  0.00     0.124 A 
ATOM      2  C1  UNL d   1       2.075   0.982   0.746  0.00  0.00     0.062 A 
ATOM      3  C2  UNL d   1       0.776   1.245   0.322  0.00  0.00     0.162 A 
ATOM      4  C3  UNL d   1      -0.036   0.210  -0.142  0.00  0.00    -0.034 A 
ATOM      5  C4  UNL d   1       0.472  -1.090  -0.176  0.00  0.00     0.162 A 
ATOM      6  C5  UNL d   1       1.771  -1.348   0.250  0.00  0.00     0.062 A 
ATOM      7  F   UNL d   1       2.249  -2.600   0.214  0.00  0.00    -0.097 F 
ATOM      8  F1  UNL d   1      -0.282  -2.109  -0.616  0.00  0.00    -0.096 F 
ATOM      9  I   UNL d   1      -1.979   0.599  -0.778  0.00  0.00    -0.060 I 
ATOM     10  F2  UNL d   1       0.322   2.506   0.367  0.00  0.00    -0.096 F 
ATOM     11  F3  UNL d   1       2.849   1.983   1.191  0.00  0.00    -0.097 F 
ATOM     12  F4  UNL d   1       3.823  -0.564   1.119  0.00  0.00    -0.092 F 
ENDROOT
TORSDOF 0
ENDMDL
