MODEL 1
REMARK minimizedAffinity -4.39755678
REMARK minimizedRMSD -1
REMARK  0 active torsions:
REMARK  status: ('A' for Active; 'I' for Inactive)
ROOT
ATOM      1  C   UNL d   1       1.614   0.070   1.079  0.00  0.00     0.124 A 
ATOM      2  C1  UNL d   1       0.636   0.696   1.838  0.00  0.00     0.062 A 
ATOM      3  C2  UNL d   1      -0.649   0.859   1.329  0.00  0.00     0.162 A 
ATOM      4  C3  UNL d   1      -0.964   0.393   0.052  0.00  0.00    -0.034 A 
ATOM      5  C4  UNL d   1       0.025  -0.235  -0.706  0.00  0.00     0.162 A 
ATOM      6  C5  UNL d   1       1.308  -0.395  -0.193  0.00  0.00     0.062 A 
ATOM      7  F   UNL d   1       2.251  -1.001  -0.928  0.00  0.00    -0.097 F 
ATOM      8  F1  UNL d   1      -0.244  -0.694  -1.937  0.00  0.00    -0.096 F 
ATOM      9  I   UNL d   1      -2.884   0.635  -0.713  0.00  0.00    -0.060 I 
ATOM     10  F2  UNL d   1      -1.574   1.468   2.085  0.00  0.00    -0.096 F 
ATOM     11  F3  UNL d   1       0.929   1.147   3.067  0.00  0.00    -0.097 F 
ATOM     12  F4  UNL d   1       2.850  -0.085   1.571  0.00  0.00    -0.092 F 
ENDROOT
TORSDOF 0
ENDMDL
