MODEL 1
REMARK minimizedAffinity 8.26081944
REMARK minimizedRMSD -1
REMARK  0 active torsions:
REMARK  status: ('A' for Active; 'I' for Inactive)
ROOT
ATOM      1  O1  BZF d   1       1.116   1.332   2.857  0.00  0.00    -0.204 OA
ATOM      2  C2  BZF d   1       0.917   1.509   1.502  0.00  0.00     0.174 A 
ATOM      3  C3  BZF d   1       1.783   2.415   1.005  0.00  0.00    -0.012 A 
ATOM      4  C3A BZF d   1       2.634   2.762   2.101  0.00  0.00    -0.107 A 
ATOM      5  C4  BZF d   1       3.702   3.604   2.231  0.00  0.00     0.055 A 
ATOM      6  C5  BZF d   1       4.266   3.771   3.456  0.00  0.00    -0.016 A 
ATOM      7  C6  BZF d   1       3.785   3.117   4.572  0.00  0.00     0.022 A 
ATOM      8  C7  BZF d   1       2.732   2.268   4.492  0.00  0.00     0.029 A 
ATOM      9  C7A BZF d   1       2.181   2.072   3.249  0.00  0.00     0.058 A 
ENDROOT
TORSDOF 0
ENDMDL
