MODEL 1
REMARK minimizedAffinity 10.8522768
REMARK minimizedRMSD -1
REMARK  0 active torsions:
REMARK  status: ('A' for Active; 'I' for Inactive)
ROOT
ATOM      1  O1  BZF d   1       1.137  -4.750  -4.764  0.00  0.00    -0.204 OA
ATOM      2  C2  BZF d   1       1.927  -5.882  -4.814  0.00  0.00     0.174 A 
ATOM      3  C3  BZF d   1       2.678  -5.991  -3.699  0.00  0.00    -0.012 A 
ATOM      4  C3A BZF d   1       2.267  -4.906  -2.862  0.00  0.00    -0.107 A 
ATOM      5  C4  BZF d   1       2.637  -4.490  -1.614  0.00  0.00     0.055 A 
ATOM      6  C5  BZF d   1       2.097  -3.349  -1.111  0.00  0.00    -0.016 A 
ATOM      7  C6  BZF d   1       1.189  -2.598  -1.829  0.00  0.00     0.022 A 
ATOM      8  C7  BZF d   1       0.788  -2.972  -3.068  0.00  0.00     0.029 A 
ATOM      9  C7A BZF d   1       1.307  -4.143  -3.566  0.00  0.00     0.058 A 
ENDROOT
TORSDOF 0
ENDMDL
