MODEL 1
REMARK minimizedAffinity 11.0505714
REMARK minimizedRMSD -1
REMARK  0 active torsions:
REMARK  status: ('A' for Active; 'I' for Inactive)
ROOT
ATOM      1  O1  BZF d   1      -1.545   2.147   1.530  0.00  0.00    -0.204 OA
ATOM      2  C2  BZF d   1      -0.481   1.395   1.990  0.00  0.00     0.174 A 
ATOM      3  C3  BZF d   1      -0.876   0.141   2.290  0.00  0.00    -0.012 A 
ATOM      4  C3A BZF d   1      -2.255   0.080   1.912  0.00  0.00    -0.107 A 
ATOM      5  C4  BZF d   1      -3.196  -0.909   1.951  0.00  0.00     0.055 A 
ATOM      6  C5  BZF d   1      -4.471  -0.623   1.575  0.00  0.00    -0.016 A 
ATOM      7  C6  BZF d   1      -4.839   0.641   1.162  0.00  0.00     0.022 A 
ATOM      8  C7  BZF d   1      -3.940   1.653   1.102  0.00  0.00     0.029 A 
ATOM      9  C7A BZF d   1      -2.644   1.358   1.449  0.00  0.00     0.058 A 
ENDROOT
TORSDOF 0
ENDMDL
