MODEL 1
REMARK minimizedAffinity 13.4306955
REMARK minimizedRMSD -1
REMARK  0 active torsions:
REMARK  status: ('A' for Active; 'I' for Inactive)
ROOT
ATOM      1  O1  BZF d   1       1.456  -1.734   0.355  0.00  0.00    -0.204 OA
ATOM      2  C2  BZF d   1       2.758  -1.966   0.754  0.00  0.00     0.174 A 
ATOM      3  C3  BZF d   1       3.228  -3.108   0.211  0.00  0.00    -0.012 A 
ATOM      4  C3A BZF d   1       2.184  -3.573  -0.650  0.00  0.00    -0.107 A 
ATOM      5  C4  BZF d   1       2.061  -4.652  -1.477  0.00  0.00     0.055 A 
ATOM      6  C5  BZF d   1       0.884  -4.858  -2.124  0.00  0.00    -0.016 A 
ATOM      7  C6  BZF d   1      -0.191  -4.008  -1.963  0.00  0.00     0.022 A 
ATOM      8  C7  BZF d   1      -0.115  -2.921  -1.157  0.00  0.00     0.029 A 
ATOM      9  C7A BZF d   1       1.085  -2.692  -0.528  0.00  0.00     0.058 A 
ENDROOT
TORSDOF 0
ENDMDL
