MODEL 1
REMARK minimizedAffinity 9.32837296
REMARK minimizedRMSD -1
REMARK  0 active torsions:
REMARK  status: ('A' for Active; 'I' for Inactive)
ROOT
ATOM      1  O1  BZF d   1      -1.909   4.096  -4.899  0.00  0.00    -0.204 OA
ATOM      2  C2  BZF d   1      -1.896   5.064  -5.885  0.00  0.00     0.174 A 
ATOM      3  C3  BZF d   1      -0.671   5.614  -6.000  0.00  0.00    -0.012 A 
ATOM      4  C3A BZF d   1       0.156   4.884  -5.089  0.00  0.00    -0.107 A 
ATOM      5  C4  BZF d   1       1.480   4.953  -4.761  0.00  0.00     0.055 A 
ATOM      6  C5  BZF d   1       1.960   4.146  -3.778  0.00  0.00    -0.016 A 
ATOM      7  C6  BZF d   1       1.145   3.265  -3.100  0.00  0.00     0.022 A 
ATOM      8  C7  BZF d   1      -0.174   3.157  -3.393  0.00  0.00     0.029 A 
ATOM      9  C7A BZF d   1      -0.655   3.947  -4.408  0.00  0.00     0.058 A 
ENDROOT
TORSDOF 0
ENDMDL
