MODEL 1
REMARK minimizedAffinity 6.94504166
REMARK minimizedRMSD -1
REMARK  0 active torsions:
REMARK  status: ('A' for Active; 'I' for Inactive)
ROOT
ATOM      1  O1  BZF d   1      -0.423  -1.768   1.939  0.00  0.00    -0.204 OA
ATOM      2  C2  BZF d   1      -0.194  -0.579   1.276  0.00  0.00     0.174 A 
ATOM      3  C3  BZF d   1      -1.306   0.185   1.265  0.00  0.00    -0.012 A 
ATOM      4  C3A BZF d   1      -2.265  -0.536   2.045  0.00  0.00    -0.107 A 
ATOM      5  C4  BZF d   1      -3.556  -0.284   2.413  0.00  0.00     0.055 A 
ATOM      6  C5  BZF d   1      -4.237  -1.226   3.117  0.00  0.00    -0.016 A 
ATOM      7  C6  BZF d   1      -3.662  -2.431   3.464  0.00  0.00     0.022 A 
ATOM      8  C7  BZF d   1      -2.383  -2.723   3.126  0.00  0.00     0.029 A 
ATOM      9  C7A BZF d   1      -1.681  -1.761   2.443  0.00  0.00     0.058 A 
ENDROOT
TORSDOF 0
ENDMDL
