MODEL 1
REMARK minimizedAffinity 2.79510546
REMARK minimizedRMSD -1
REMARK  0 active torsions:
REMARK  status: ('A' for Active; 'I' for Inactive)
ROOT
ATOM      1  O1  BZF d   1      -4.915   5.702  -3.793  0.00  0.00    -0.204 OA
ATOM      2  C2  BZF d   1      -5.395   5.962  -5.062  0.00  0.00     0.174 A 
ATOM      3  C3  BZF d   1      -4.536   5.512  -6.000  0.00  0.00    -0.012 A 
ATOM      4  C3A BZF d   1      -3.496   4.853  -5.272  0.00  0.00    -0.107 A 
ATOM      5  C4  BZF d   1      -2.362   4.190  -5.647  0.00  0.00     0.055 A 
ATOM      6  C5  BZF d   1      -1.520   3.726  -4.686  0.00  0.00    -0.016 A 
ATOM      7  C6  BZF d   1      -1.777   3.912  -3.344  0.00  0.00     0.022 A 
ATOM      8  C7  BZF d   1      -2.891   4.559  -2.923  0.00  0.00     0.029 A 
ATOM      9  C7A BZF d   1      -3.761   5.000  -3.890  0.00  0.00     0.058 A 
ENDROOT
TORSDOF 0
ENDMDL
