MODEL 1
REMARK minimizedAffinity 0.544761777
REMARK minimizedRMSD -1
REMARK  0 active torsions:
REMARK  status: ('A' for Active; 'I' for Inactive)
ROOT
ATOM      1  O1  BZF d   1      -3.657   0.627   2.137  0.00  0.00    -0.204 OA
ATOM      2  C2  BZF d   1      -4.459  -0.347   2.700  0.00  0.00     0.174 A 
ATOM      3  C3  BZF d   1      -3.773  -1.496   2.862  0.00  0.00    -0.012 A 
ATOM      4  C3A BZF d   1      -2.434  -1.196   2.456  0.00  0.00    -0.107 A 
ATOM      5  C4  BZF d   1      -1.282  -1.928   2.404  0.00  0.00     0.055 A 
ATOM      6  C5  BZF d   1      -0.161  -1.359   1.888  0.00  0.00    -0.016 A 
ATOM      7  C6  BZF d   1      -0.157  -0.065   1.412  0.00  0.00     0.022 A 
ATOM      8  C7  BZF d   1      -1.274   0.702   1.447  0.00  0.00     0.029 A 
ATOM      9  C7A BZF d   1      -2.400   0.141   1.998  0.00  0.00     0.058 A 
ENDROOT
TORSDOF 0
ENDMDL
