MODEL 1
REMARK minimizedAffinity 7.61771727
REMARK minimizedRMSD -1
REMARK  0 active torsions:
REMARK  status: ('A' for Active; 'I' for Inactive)
ROOT
ATOM      1  O1  BZF d   1       3.069   5.009  -5.841  0.00  0.00    -0.204 OA
ATOM      2  C2  BZF d   1       4.027   5.997  -5.969  0.00  0.00     0.174 A 
ATOM      3  C3  BZF d   1       5.265   5.461  -5.998  0.00  0.00    -0.012 A 
ATOM      4  C3A BZF d   1       5.063   4.045  -5.973  0.00  0.00    -0.107 A 
ATOM      5  C4  BZF d   1       5.911   2.975  -5.998  0.00  0.00     0.055 A 
ATOM      6  C5  BZF d   1       5.398   1.722  -5.887  0.00  0.00    -0.016 A 
ATOM      7  C6  BZF d   1       4.043   1.503  -5.745  0.00  0.00     0.022 A 
ATOM      8  C7  BZF d   1       3.162   2.532  -5.720  0.00  0.00     0.029 A 
ATOM      9  C7A BZF d   1       3.675   3.798  -5.865  0.00  0.00     0.058 A 
ENDROOT
TORSDOF 0
ENDMDL
