MODEL 1
REMARK minimizedAffinity 3.50090075
REMARK minimizedRMSD -1
REMARK  0 active torsions:
REMARK  status: ('A' for Active; 'I' for Inactive)
ROOT
ATOM      1  O1  BZF d   1      -2.160   1.701   1.680  0.00  0.00    -0.204 OA
ATOM      2  C2  BZF d   1      -0.906   1.394   1.187  0.00  0.00     0.174 A 
ATOM      3  C3  BZF d   1      -0.565   0.128   1.502  0.00  0.00    -0.012 A 
ATOM      4  C3A BZF d   1      -1.712  -0.419   2.159  0.00  0.00    -0.107 A 
ATOM      5  C4  BZF d   1      -1.994  -1.644   2.693  0.00  0.00     0.055 A 
ATOM      6  C5  BZF d   1      -3.181  -1.831   3.327  0.00  0.00    -0.016 A 
ATOM      7  C6  BZF d   1      -4.107  -0.816   3.450  0.00  0.00     0.022 A 
ATOM      8  C7  BZF d   1      -3.875   0.415   2.932  0.00  0.00     0.029 A 
ATOM      9  C7A BZF d   1      -2.690   0.598   2.262  0.00  0.00     0.058 A 
ENDROOT
TORSDOF 0
ENDMDL
