MODEL 1
REMARK minimizedAffinity 8.57167244
REMARK minimizedRMSD -1
REMARK  0 active torsions:
REMARK  status: ('A' for Active; 'I' for Inactive)
ROOT
ATOM      1  O1  BZF d   1      -5.564  -0.247   3.294  0.00  0.00    -0.204 OA
ATOM      2  C2  BZF d   1      -4.952  -1.155   4.135  0.00  0.00     0.174 A 
ATOM      3  C3  BZF d   1      -3.654  -1.316   3.804  0.00  0.00    -0.012 A 
ATOM      4  C3A BZF d   1      -3.419  -0.384   2.743  0.00  0.00    -0.107 A 
ATOM      5  C4  BZF d   1      -2.317  -0.061   2.005  0.00  0.00     0.055 A 
ATOM      6  C5  BZF d   1      -2.440   0.840   0.995  0.00  0.00    -0.016 A 
ATOM      7  C6  BZF d   1      -3.649   1.432   0.693  0.00  0.00     0.022 A 
ATOM      8  C7  BZF d   1      -4.769   1.147   1.400  0.00  0.00     0.029 A 
ATOM      9  C7A BZF d   1      -4.641   0.262   2.443  0.00  0.00     0.058 A 
ENDROOT
TORSDOF 0
ENDMDL
