MODEL 1
REMARK minimizedAffinity 4.98116159
REMARK minimizedRMSD -1
REMARK  0 active torsions:
REMARK  status: ('A' for Active; 'I' for Inactive)
ROOT
ATOM      1  O1  BZF d   1       3.687  -3.372  -0.911  0.00  0.00    -0.204 OA
ATOM      2  C2  BZF d   1       3.519  -2.304  -0.052  0.00  0.00     0.174 A 
ATOM      3  C3  BZF d   1       2.463  -1.552  -0.423  0.00  0.00    -0.012 A 
ATOM      4  C3A BZF d   1       1.882  -2.243  -1.534  0.00  0.00    -0.107 A 
ATOM      5  C4  BZF d   1       0.796  -2.000  -2.326  0.00  0.00     0.055 A 
ATOM      6  C5  BZF d   1       0.544  -2.831  -3.372  0.00  0.00    -0.016 A 
ATOM      7  C6  BZF d   1       1.357  -3.908  -3.656  0.00  0.00     0.022 A 
ATOM      8  C7  BZF d   1       2.442  -4.192  -2.895  0.00  0.00     0.029 A 
ATOM      9  C7A BZF d   1       2.681  -3.374  -1.818  0.00  0.00     0.058 A 
ENDROOT
TORSDOF 0
ENDMDL
