MODEL 1
REMARK minimizedAffinity 13.090765
REMARK minimizedRMSD -1
REMARK  0 active torsions:
REMARK  status: ('A' for Active; 'I' for Inactive)
ROOT
ATOM      1  O1  BZF d   1      -2.448   2.189  -0.281  0.00  0.00    -0.204 OA
ATOM      2  C2  BZF d   1      -3.420   1.520   0.439  0.00  0.00     0.174 A 
ATOM      3  C3  BZF d   1      -2.859   0.704   1.354  0.00  0.00    -0.012 A 
ATOM      4  C3A BZF d   1      -1.452   0.942   1.259  0.00  0.00    -0.107 A 
ATOM      5  C4  BZF d   1      -0.368   0.441   1.922  0.00  0.00     0.055 A 
ATOM      6  C5  BZF d   1       0.877   0.827   1.539  0.00  0.00    -0.016 A 
ATOM      7  C6  BZF d   1       1.076   1.706   0.495  0.00  0.00     0.022 A 
ATOM      8  C7  BZF d   1       0.031   2.233  -0.190  0.00  0.00     0.029 A 
ATOM      9  C7A BZF d   1      -1.229   1.871   0.217  0.00  0.00     0.058 A 
ENDROOT
TORSDOF 0
ENDMDL
