MODEL 1
REMARK minimizedAffinity 4.32555819
REMARK minimizedRMSD -1
REMARK  0 active torsions:
REMARK  status: ('A' for Active; 'I' for Inactive)
ROOT
ATOM      1  O1  BZF d   1      -2.230  -0.094   1.457  0.00  0.00    -0.204 OA
ATOM      2  C2  BZF d   1      -2.902   1.056   1.090  0.00  0.00     0.174 A 
ATOM      3  C3  BZF d   1      -4.149   1.066   1.605  0.00  0.00    -0.012 A 
ATOM      4  C3A BZF d   1      -4.231  -0.110   2.415  0.00  0.00    -0.107 A 
ATOM      5  C4  BZF d   1      -5.215  -0.644   3.198  0.00  0.00     0.055 A 
ATOM      6  C5  BZF d   1      -5.001  -1.844   3.799  0.00  0.00    -0.016 A 
ATOM      7  C6  BZF d   1      -3.821  -2.538   3.636  0.00  0.00     0.022 A 
ATOM      8  C7  BZF d   1      -2.814  -2.046   2.873  0.00  0.00     0.029 A 
ATOM      9  C7A BZF d   1      -3.014  -0.819   2.291  0.00  0.00     0.058 A 
ENDROOT
TORSDOF 0
ENDMDL
