MODEL 1
REMARK minimizedAffinity 1.45599604
REMARK minimizedRMSD -1
REMARK  0 active torsions:
REMARK  status: ('A' for Active; 'I' for Inactive)
ROOT
ATOM      1  O1  BZF d   1       3.006   2.256  -5.214  0.00  0.00    -0.204 OA
ATOM      2  C2  BZF d   1       1.906   2.802  -4.580  0.00  0.00     0.174 A 
ATOM      3  C3  BZF d   1       2.114   4.104  -4.297  0.00  0.00    -0.012 A 
ATOM      4  C3A BZF d   1       3.390   4.413  -4.865  0.00  0.00    -0.107 A 
ATOM      5  C4  BZF d   1       4.139   5.554  -4.928  0.00  0.00     0.055 A 
ATOM      6  C5  BZF d   1       5.374   5.503  -5.491  0.00  0.00    -0.016 A 
ATOM      7  C6  BZF d   1       5.894   4.330  -5.997  0.00  0.00     0.022 A 
ATOM      8  C7  BZF d   1       5.187   3.174  -5.962  0.00  0.00     0.029 A 
ATOM      9  C7A BZF d   1       3.925   3.229  -5.423  0.00  0.00     0.058 A 
ENDROOT
TORSDOF 0
ENDMDL
