MODEL 1
REMARK minimizedAffinity 12.1012173
REMARK minimizedRMSD -1
REMARK  0 active torsions:
REMARK  status: ('A' for Active; 'I' for Inactive)
ROOT
ATOM      1  O1  BZF d   1       3.454   1.590  -5.856  0.00  0.00    -0.204 OA
ATOM      2  C2  BZF d   1       4.637   0.877  -5.880  0.00  0.00     0.174 A 
ATOM      3  C3  BZF d   1       5.694   1.708  -5.989  0.00  0.00    -0.012 A 
ATOM      4  C3A BZF d   1       5.141   3.027  -5.944  0.00  0.00    -0.107 A 
ATOM      5  C4  BZF d   1       5.690   4.277  -5.992  0.00  0.00     0.055 A 
ATOM      6  C5  BZF d   1       4.869   5.359  -5.998  0.00  0.00    -0.016 A 
ATOM      7  C6  BZF d   1       3.496   5.229  -5.964  0.00  0.00     0.022 A 
ATOM      8  C7  BZF d   1       2.905   4.010  -5.911  0.00  0.00     0.029 A 
ATOM      9  C7A BZF d   1       3.734   2.915  -5.871  0.00  0.00     0.058 A 
ENDROOT
TORSDOF 0
ENDMDL
