MODEL 1
REMARK minimizedAffinity 4.28854084
REMARK minimizedRMSD -1
REMARK  0 active torsions:
REMARK  status: ('A' for Active; 'I' for Inactive)
ROOT
ATOM      1  O1  BZF d   1       4.643   0.984  -5.912  0.00  0.00    -0.204 OA
ATOM      2  C2  BZF d   1       5.880   1.599  -5.917  0.00  0.00     0.174 A 
ATOM      3  C3  BZF d   1       5.748   2.939  -6.000  0.00  0.00    -0.012 A 
ATOM      4  C3A BZF d   1       4.339   3.181  -5.956  0.00  0.00    -0.107 A 
ATOM      5  C4  BZF d   1       3.580   4.317  -5.984  0.00  0.00     0.055 A 
ATOM      6  C5  BZF d   1       2.226   4.206  -5.999  0.00  0.00    -0.016 A 
ATOM      7  C6  BZF d   1       1.598   2.978  -5.993  0.00  0.00     0.022 A 
ATOM      8  C7  BZF d   1       2.308   1.824  -5.960  0.00  0.00     0.029 A 
ATOM      9  C7A BZF d   1       3.676   1.933  -5.911  0.00  0.00     0.058 A 
ENDROOT
TORSDOF 0
ENDMDL
