MODEL 1
REMARK minimizedAffinity -4.96902132
REMARK minimizedRMSD -1
REMARK  2 active torsions:
REMARK  status: ('A' for Active; 'I' for Inactive)
REMARK    1  A    between atoms: C1_2  and  C2_3 
REMARK    2  A    between atoms: C2_3  and  C3_4 
ROOT
ATOM      1  C3  UNL d   1      -0.218  -0.052   0.264  0.00  0.00    -0.075 A 
ATOM      2  C4  UNL d   1       0.473  -0.127   1.482  0.00  0.00     0.002 A 
ATOM      3  C5  UNL d   1       0.325   0.874   2.443  0.00  0.00     0.002 A 
ATOM      4  C6  UNL d   1      -0.505   1.965   2.195  0.00  0.00    -0.004 A 
ATOM      5  C7  UNL d   1      -1.183   2.058   0.981  0.00  0.00     0.002 A 
ATOM      6  C8  UNL d   1      -1.040   1.056   0.020  0.00  0.00     0.002 A 
ENDROOT
BRANCH   1   7
ATOM      7  C2  UNL d   1      -0.085  -1.146  -0.768  0.00  0.00     0.056 C 
BRANCH   7   8
ATOM      8  C1  UNL d   1      -1.355  -1.983  -0.957  0.00  0.00     0.007 C 
ATOM      9  C   UNL d   1      -1.180  -3.440  -0.551  0.00  0.00     0.009 C 
ENDBRANCH   7   8
ENDBRANCH   1   7
TORSDOF 2
ENDMDL
