MODEL 1
REMARK minimizedAffinity -0.907083094
REMARK minimizedRMSD -1
REMARK  2 active torsions:
REMARK  status: ('A' for Active; 'I' for Inactive)
REMARK    1  A    between atoms: C1_2  and  C2_3 
REMARK    2  A    between atoms: C2_3  and  C3_4 
ROOT
ATOM      1  C3  UNL d   1       0.267   0.195   0.411  0.00  0.00    -0.075 A 
ATOM      2  C4  UNL d   1       0.673   1.536   0.465  0.00  0.00     0.002 A 
ATOM      3  C5  UNL d   1       0.990   2.132   1.687  0.00  0.00     0.002 A 
ATOM      4  C6  UNL d   1       0.895   1.399   2.868  0.00  0.00    -0.004 A 
ATOM      5  C7  UNL d   1       0.477   0.071   2.828  0.00  0.00     0.002 A 
ATOM      6  C8  UNL d   1       0.164  -0.529   1.607  0.00  0.00     0.002 A 
ENDROOT
BRANCH   1   7
ATOM      7  C2  UNL d   1      -0.049  -0.464  -0.910  0.00  0.00     0.056 C 
BRANCH   7   8
ATOM      8  C1  UNL d   1      -0.941  -1.704  -0.791  0.00  0.00     0.007 C 
ATOM      9  C   UNL d   1      -0.672  -2.743  -1.871  0.00  0.00     0.009 C 
ENDBRANCH   7   8
ENDBRANCH   1   7
TORSDOF 2
ENDMDL
