MODEL 1
REMARK minimizedAffinity -4.82002687
REMARK minimizedRMSD -1
REMARK  2 active torsions:
REMARK  status: ('A' for Active; 'I' for Inactive)
REMARK    1  A    between atoms: C1_2  and  C2_3 
REMARK    2  A    between atoms: C2_3  and  C3_4 
ROOT
ATOM      1  C3  UNL d   1      -0.286   0.647   0.877  0.00  0.00    -0.075 A 
ATOM      2  C4  UNL d   1      -1.098   1.353  -0.022  0.00  0.00     0.002 A 
ATOM      3  C5  UNL d   1      -1.200   2.742   0.056  0.00  0.00     0.002 A 
ATOM      4  C6  UNL d   1      -0.502   3.441   1.039  0.00  0.00    -0.004 A 
ATOM      5  C7  UNL d   1       0.295   2.748   1.948  0.00  0.00     0.002 A 
ATOM      6  C8  UNL d   1       0.402   1.358   1.869  0.00  0.00     0.002 A 
ENDROOT
BRANCH   1   7
ATOM      7  C2  UNL d   1      -0.148  -0.854   0.779  0.00  0.00     0.056 C 
BRANCH   7   8
ATOM      8  C1  UNL d   1       0.315  -1.349  -0.595  0.00  0.00     0.007 C 
ATOM      9  C   UNL d   1      -0.298  -2.686  -0.989  0.00  0.00     0.009 C 
ENDBRANCH   7   8
ENDBRANCH   1   7
TORSDOF 2
ENDMDL
