MODEL 1
REMARK minimizedAffinity -5.8907733
REMARK minimizedRMSD -1
REMARK  2 active torsions:
REMARK  status: ('A' for Active; 'I' for Inactive)
REMARK    1  A    between atoms: C1_2  and  C2_3 
REMARK    2  A    between atoms: C2_3  and  C3_4 
ROOT
ATOM      1  C3  UNL d   1       0.246  -0.102  -0.295  0.00  0.00    -0.075 A 
ATOM      2  C4  UNL d   1      -0.882   0.732  -0.300  0.00  0.00     0.002 A 
ATOM      3  C5  UNL d   1      -1.215   1.479   0.830  0.00  0.00     0.002 A 
ATOM      4  C6  UNL d   1      -0.433   1.396   1.979  0.00  0.00    -0.004 A 
ATOM      5  C7  UNL d   1       0.681   0.559   2.001  0.00  0.00     0.002 A 
ATOM      6  C8  UNL d   1       1.019  -0.187   0.870  0.00  0.00     0.002 A 
ENDROOT
BRANCH   1   7
ATOM      7  C2  UNL d   1       0.628  -0.891  -1.525  0.00  0.00     0.056 C 
BRANCH   7   8
ATOM      8  C1  UNL d   1       0.398  -2.400  -1.394  0.00  0.00     0.007 C 
ATOM      9  C   UNL d   1      -1.073  -2.790  -1.451  0.00  0.00     0.009 C 
ENDBRANCH   7   8
ENDBRANCH   1   7
TORSDOF 2
ENDMDL
