MODEL 1
REMARK minimizedAffinity -5.13050842
REMARK minimizedRMSD -1
REMARK  2 active torsions:
REMARK  status: ('A' for Active; 'I' for Inactive)
REMARK    1  A    between atoms: C1_2  and  C2_3 
REMARK    2  A    between atoms: C2_3  and  C3_4 
ROOT
ATOM      1  C3  UNL d   1       0.294   0.128   0.172  0.00  0.00    -0.075 A 
ATOM      2  C4  UNL d   1       0.276  -0.028   1.565  0.00  0.00     0.002 A 
ATOM      3  C5  UNL d   1      -0.194   0.997   2.387  0.00  0.00     0.002 A 
ATOM      4  C6  UNL d   1      -0.640   2.193   1.828  0.00  0.00    -0.004 A 
ATOM      5  C7  UNL d   1      -0.610   2.365   0.446  0.00  0.00     0.002 A 
ATOM      6  C8  UNL d   1      -0.145   1.339  -0.379  0.00  0.00     0.002 A 
ENDROOT
BRANCH   1   7
ATOM      7  C2  UNL d   1       0.774  -0.989  -0.725  0.00  0.00     0.056 C 
BRANCH   7   8
ATOM      8  C1  UNL d   1      -0.339  -1.931  -1.197  0.00  0.00     0.007 C 
ATOM      9  C   UNL d   1       0.108  -3.383  -1.300  0.00  0.00     0.009 C 
ENDBRANCH   7   8
ENDBRANCH   1   7
TORSDOF 2
ENDMDL
