MODEL 1
REMARK minimizedAffinity -4.41001463
REMARK minimizedRMSD -1
REMARK  2 active torsions:
REMARK  status: ('A' for Active; 'I' for Inactive)
REMARK    1  A    between atoms: C1_2  and  C2_3 
REMARK    2  A    between atoms: C2_3  and  C3_4 
ROOT
ATOM      1  C3  UNL d   1       0.537   1.209   0.643  0.00  0.00    -0.075 A 
ATOM      2  C4  UNL d   1       1.246  -0.001   0.666  0.00  0.00     0.002 A 
ATOM      3  C5  UNL d   1       1.667  -0.552   1.877  0.00  0.00     0.002 A 
ATOM      4  C6  UNL d   1       1.393   0.102   3.076  0.00  0.00    -0.004 A 
ATOM      5  C7  UNL d   1       0.703   1.312   3.063  0.00  0.00     0.002 A 
ATOM      6  C8  UNL d   1       0.278   1.864   1.854  0.00  0.00     0.002 A 
ENDROOT
BRANCH   1   7
ATOM      7  C2  UNL d   1       0.054   1.796  -0.662  0.00  0.00     0.056 C 
BRANCH   7   8
ATOM      8  C1  UNL d   1      -1.399   1.447  -1.003  0.00  0.00     0.007 C 
ATOM      9  C   UNL d   1      -1.890   2.107  -2.284  0.00  0.00     0.009 C 
ENDBRANCH   7   8
ENDBRANCH   1   7
TORSDOF 2
ENDMDL
