MODEL 1
REMARK minimizedAffinity -4.22297907
REMARK minimizedRMSD -1
REMARK  1 active torsions:
REMARK  status: ('A' for Active; 'I' for Inactive)
REMARK    1  A    between atoms: C3_4  and  O_7 
ROOT
ATOM      1  C   UNL d   1      -0.891  -0.434   2.073  0.00  0.00    -0.033 A 
ATOM      2  C1  UNL d   1       0.427  -0.164   1.701  0.00  0.00     0.039 A 
ATOM      3  C2  UNL d   1       0.717   0.245   0.398  0.00  0.00    -0.080 A 
ATOM      4  C3  UNL d   1      -0.320   0.382  -0.522  0.00  0.00     0.150 A 
ATOM      5  C4  UNL d   1      -1.636   0.118  -0.157  0.00  0.00    -0.007 A 
ATOM      6  C5  UNL d   1      -1.923  -0.291   1.145  0.00  0.00     0.039 A 
ENDROOT
BRANCH   4   7
ATOM      7  O   UNL d   1      -0.086   0.774  -1.806  0.00  0.00    -0.526 OA
ATOM      8  H5  UNL d   1       0.871   0.892  -1.922  0.00  0.00     0.418 HD
ENDBRANCH   4   7
TORSDOF 1
ENDMDL
