MODEL 1
REMARK minimizedAffinity -4.39321899
REMARK minimizedRMSD -1
REMARK  1 active torsions:
REMARK  status: ('A' for Active; 'I' for Inactive)
REMARK    1  A    between atoms: C3_4  and  O_7 
ROOT
ATOM      1  C   UNL d   1      -1.037   0.227   0.001  0.00  0.00    -0.033 A 
ATOM      2  C1  UNL d   1      -0.595   1.353   0.698  0.00  0.00     0.039 A 
ATOM      3  C2  UNL d   1      -0.155   2.480   0.001  0.00  0.00    -0.080 A 
ATOM      4  C3  UNL d   1      -0.163   2.468  -1.392  0.00  0.00     0.150 A 
ATOM      5  C4  UNL d   1      -0.606   1.351  -2.093  0.00  0.00    -0.007 A 
ATOM      6  C5  UNL d   1      -1.044   0.226  -1.395  0.00  0.00     0.039 A 
ENDROOT
BRANCH   4   7
ATOM      7  O   UNL d   1       0.261   3.542  -2.116  0.00  0.00    -0.526 OA
ATOM      8  H5  UNL d   1       0.564   4.229  -1.498  0.00  0.00     0.418 HD
ENDBRANCH   4   7
TORSDOF 1
ENDMDL
