MODEL 1
REMARK minimizedAffinity -3.81846237
REMARK minimizedRMSD -1
REMARK  1 active torsions:
REMARK  status: ('A' for Active; 'I' for Inactive)
REMARK    1  A    between atoms: C3_4  and  O_7 
ROOT
ATOM      1  C   UNL d   1       1.169  -1.204   2.622  0.00  0.00    -0.033 A 
ATOM      2  C1  UNL d   1      -0.217  -1.037   2.607  0.00  0.00     0.039 A 
ATOM      3  C2  UNL d   1      -0.849  -0.532   1.469  0.00  0.00    -0.080 A 
ATOM      4  C3  UNL d   1      -0.085  -0.200   0.354  0.00  0.00     0.150 A 
ATOM      5  C4  UNL d   1       1.296  -0.367   0.360  0.00  0.00    -0.007 A 
ATOM      6  C5  UNL d   1       1.925  -0.870   1.498  0.00  0.00     0.039 A 
ENDROOT
BRANCH   4   7
ATOM      7  O   UNL d   1      -0.657   0.300  -0.778  0.00  0.00    -0.526 OA
ATOM      8  H5  UNL d   1      -1.613   0.388  -0.628  0.00  0.00     0.418 HD
ENDBRANCH   4   7
TORSDOF 1
ENDMDL
