MODEL 1
REMARK minimizedAffinity -4.25576019
REMARK minimizedRMSD -1
REMARK  1 active torsions:
REMARK  status: ('A' for Active; 'I' for Inactive)
REMARK    1  A    between atoms: C3_4  and  O_7 
ROOT
ATOM      1  C   UNL d   1       1.243  -1.069   2.786  0.00  0.00    -0.033 A 
ATOM      2  C1  UNL d   1       2.032  -0.192   2.039  0.00  0.00     0.039 A 
ATOM      3  C2  UNL d   1       1.478   0.507   0.966  0.00  0.00    -0.080 A 
ATOM      4  C3  UNL d   1       0.134   0.323   0.651  0.00  0.00     0.150 A 
ATOM      5  C4  UNL d   1      -0.659  -0.545   1.393  0.00  0.00    -0.007 A 
ATOM      6  C5  UNL d   1      -0.103  -1.244   2.464  0.00  0.00     0.039 A 
ENDROOT
BRANCH   4   7
ATOM      7  O   UNL d   1      -0.450   0.981  -0.391  0.00  0.00    -0.526 OA
ATOM      8  H5  UNL d   1       0.225   1.524  -0.830  0.00  0.00     0.418 HD
ENDBRANCH   4   7
TORSDOF 1
ENDMDL
