MODEL 1
REMARK minimizedAffinity -4.64717388
REMARK minimizedRMSD -1
REMARK  1 active torsions:
REMARK  status: ('A' for Active; 'I' for Inactive)
REMARK    1  A    between atoms: C3_4  and  O_7 
ROOT
ATOM      1  C   UNL d   1       1.395  -1.355   2.359  0.00  0.00    -0.033 A 
ATOM      2  C1  UNL d   1       0.187  -0.672   2.512  0.00  0.00     0.039 A 
ATOM      3  C2  UNL d   1      -0.377   0.003   1.427  0.00  0.00    -0.080 A 
ATOM      4  C3  UNL d   1       0.274  -0.016   0.197  0.00  0.00     0.150 A 
ATOM      5  C4  UNL d   1       1.476  -0.698   0.037  0.00  0.00    -0.007 A 
ATOM      6  C5  UNL d   1       2.038  -1.370   1.121  0.00  0.00     0.039 A 
ENDROOT
BRANCH   4   7
ATOM      7  O   UNL d   1      -0.235   0.631  -0.889  0.00  0.00    -0.526 OA
ATOM      8  H5  UNL d   1      -1.053   1.083  -0.623  0.00  0.00     0.418 HD
ENDBRANCH   4   7
TORSDOF 1
ENDMDL
