MODEL 1
REMARK minimizedAffinity -0.929001391
REMARK minimizedRMSD -1
REMARK  1 active torsions:
REMARK  status: ('A' for Active; 'I' for Inactive)
REMARK    1  A    between atoms: C3_4  and  O_7 
ROOT
ATOM      1  C   UNL d   1      -0.119   0.445   2.976  0.00  0.00    -0.033 A 
ATOM      2  C1  UNL d   1      -0.032   1.539   2.113  0.00  0.00     0.039 A 
ATOM      3  C2  UNL d   1      -0.037   1.341   0.730  0.00  0.00    -0.080 A 
ATOM      4  C3  UNL d   1      -0.131   0.047   0.225  0.00  0.00     0.150 A 
ATOM      5  C4  UNL d   1      -0.222  -1.046   1.080  0.00  0.00    -0.007 A 
ATOM      6  C5  UNL d   1      -0.216  -0.847   2.460  0.00  0.00     0.039 A 
ENDROOT
BRANCH   4   7
ATOM      7  O   UNL d   1      -0.135  -0.195  -1.116  0.00  0.00    -0.526 OA
ATOM      8  H5  UNL d   1      -0.037   0.652  -1.582  0.00  0.00     0.418 HD
ENDBRANCH   4   7
TORSDOF 1
ENDMDL
