MODEL 1
REMARK minimizedAffinity -0.518971622
REMARK minimizedRMSD -1
REMARK  1 active torsions:
REMARK  status: ('A' for Active; 'I' for Inactive)
REMARK    1  A    between atoms: C3_4  and  O_7 
ROOT
ATOM      1  C   UNL d   1       2.388  -0.680   2.416  0.00  0.00    -0.033 A 
ATOM      2  C1  UNL d   1       1.337  -0.600   3.332  0.00  0.00     0.039 A 
ATOM      3  C2  UNL d   1       0.015  -0.647   2.885  0.00  0.00    -0.080 A 
ATOM      4  C3  UNL d   1      -0.242  -0.776   1.523  0.00  0.00     0.150 A 
ATOM      5  C4  UNL d   1       0.800  -0.860   0.606  0.00  0.00    -0.007 A 
ATOM      6  C5  UNL d   1       2.119  -0.812   1.053  0.00  0.00     0.039 A 
ENDROOT
BRANCH   4   7
ATOM      7  O   UNL d   1      -1.516  -0.821   1.039  0.00  0.00    -0.526 OA
ATOM      8  H5  UNL d   1      -2.132  -0.723   1.784  0.00  0.00     0.418 HD
ENDBRANCH   4   7
TORSDOF 1
ENDMDL
