MODEL 1
REMARK minimizedAffinity -0.803171337
REMARK minimizedRMSD -1
REMARK  0 active torsions:
REMARK  status: ('A' for Active; 'I' for Inactive)
ROOT
ATOM      1  N1  IND d   1       0.411  -0.169  -1.298  0.00  0.00    -0.196 N 
ATOM      2  C2  IND d   1       0.764  -1.452  -0.985  0.00  0.00     0.054 A 
ATOM      3  C3  IND d   1       0.487  -1.712   0.313  0.00  0.00    -0.031 A 
ATOM      4  C4  IND d   1      -0.640  -0.214   2.077  0.00  0.00     0.051 A 
ATOM      5  C5  IND d   1      -1.107   1.055   2.272  0.00  0.00    -0.031 A 
ATOM      6  C6  IND d   1      -1.095   2.000   1.266  0.00  0.00     0.015 A 
ATOM      7  C7  IND d   1      -0.623   1.705   0.019  0.00  0.00    -0.016 A 
ATOM      8  C8  IND d   1      -0.140   0.420  -0.181  0.00  0.00    -0.047 A 
ATOM      9  C9  IND d   1      -0.111  -0.530   0.848  0.00  0.00    -0.096 A 
ATOM     10  HN1 IND d   1       0.517   0.208  -2.064  0.00  0.00     0.298 HD
ENDROOT
TORSDOF 0
ENDMDL
