MODEL 1
REMARK minimizedAffinity -0.706072152
REMARK minimizedRMSD -1
REMARK  0 active torsions:
REMARK  status: ('A' for Active; 'I' for Inactive)
ROOT
ATOM      1  N1  IND d   1      -0.844  -3.492  -1.347  0.00  0.00    -0.196 N 
ATOM      2  C2  IND d   1      -0.117  -3.663  -2.492  0.00  0.00     0.054 A 
ATOM      3  C3  IND d   1       0.634  -2.566  -2.739  0.00  0.00    -0.031 A 
ATOM      4  C4  IND d   1       0.901  -0.418  -1.346  0.00  0.00     0.051 A 
ATOM      5  C5  IND d   1       0.412   0.215  -0.237  0.00  0.00    -0.031 A 
ATOM      6  C6  IND d   1      -0.538  -0.369   0.576  0.00  0.00     0.015 A 
ATOM      7  C7  IND d   1      -1.028  -1.617   0.316  0.00  0.00    -0.016 A 
ATOM      8  C8  IND d   1      -0.539  -2.260  -0.813  0.00  0.00    -0.047 A 
ATOM      9  C9  IND d   1       0.394  -1.655  -1.665  0.00  0.00    -0.096 A 
ATOM     10  HN1 IND d   1      -1.399  -4.060  -1.016  0.00  0.00     0.298 HD
ENDROOT
TORSDOF 0
ENDMDL
