MODEL 1
REMARK minimizedAffinity -3.20292497
REMARK minimizedRMSD -1
REMARK  0 active torsions:
REMARK  status: ('A' for Active; 'I' for Inactive)
ROOT
ATOM      1  N1  IND d   1       1.244   0.398  -1.254  0.00  0.00    -0.196 N 
ATOM      2  C2  IND d   1       1.336  -0.949  -1.039  0.00  0.00     0.054 A 
ATOM      3  C3  IND d   1       0.624  -1.301   0.055  0.00  0.00    -0.031 A 
ATOM      4  C4  IND d   1      -0.852   0.154   1.583  0.00  0.00     0.051 A 
ATOM      5  C5  IND d   1      -1.220   1.450   1.808  0.00  0.00    -0.031 A 
ATOM      6  C6  IND d   1      -0.779   2.483   1.006  0.00  0.00     0.015 A 
ATOM      7  C7  IND d   1       0.041   2.255  -0.063  0.00  0.00    -0.016 A 
ATOM      8  C8  IND d   1       0.423   0.940  -0.290  0.00  0.00    -0.047 A 
ATOM      9  C9  IND d   1       0.013  -0.106   0.546  0.00  0.00    -0.096 A 
ATOM     10  HN1 IND d   1       1.633   0.833  -1.886  0.00  0.00     0.298 HD
ENDROOT
TORSDOF 0
ENDMDL
