MODEL 1
REMARK minimizedAffinity -0.57254827
REMARK minimizedRMSD -1
REMARK  0 active torsions:
REMARK  status: ('A' for Active; 'I' for Inactive)
ROOT
ATOM      1  N1  IND d   1      -0.747   2.519   0.571  0.00  0.00    -0.196 N 
ATOM      2  C2  IND d   1      -1.285   2.469   1.827  0.00  0.00     0.054 A 
ATOM      3  C3  IND d   1      -1.184   1.219   2.332  0.00  0.00    -0.031 A 
ATOM      4  C4  IND d   1      -0.081  -0.873   1.315  0.00  0.00     0.051 A 
ATOM      5  C5  IND d   1       0.514  -1.329   0.172  0.00  0.00    -0.031 A 
ATOM      6  C6  IND d   1       0.726  -0.509  -0.917  0.00  0.00     0.015 A 
ATOM      7  C7  IND d   1       0.359   0.807  -0.900  0.00  0.00    -0.016 A 
ATOM      8  C8  IND d   1      -0.252   1.272   0.256  0.00  0.00    -0.047 A 
ATOM      9  C9  IND d   1      -0.508   0.434   1.349  0.00  0.00    -0.096 A 
ATOM     10  HN1 IND d   1      -0.722   3.212   0.063  0.00  0.00     0.298 HD
ENDROOT
TORSDOF 0
ENDMDL
