MODEL 1
REMARK minimizedAffinity -3.41324711
REMARK minimizedRMSD -1
REMARK  0 active torsions:
REMARK  status: ('A' for Active; 'I' for Inactive)
ROOT
ATOM      1  N1  IND d   1      -1.284  -3.081  -1.722  0.00  0.00    -0.196 N 
ATOM      2  C2  IND d   1      -0.397  -3.544  -2.654  0.00  0.00     0.054 A 
ATOM      3  C3  IND d   1       0.764  -2.856  -2.580  0.00  0.00    -0.031 A 
ATOM      4  C4  IND d   1       1.465  -1.001  -0.938  0.00  0.00     0.051 A 
ATOM      5  C5  IND d   1       0.981  -0.216   0.070  0.00  0.00    -0.031 A 
ATOM      6  C6  IND d   1      -0.307  -0.351   0.544  0.00  0.00     0.015 A 
ATOM      7  C7  IND d   1      -1.161  -1.287   0.033  0.00  0.00    -0.016 A 
ATOM      8  C8  IND d   1      -0.675  -2.081  -0.996  0.00  0.00    -0.047 A 
ATOM      9  C9  IND d   1       0.618  -1.921  -1.510  0.00  0.00    -0.096 A 
ATOM     10  HN1 IND d   1      -2.087  -3.367  -1.609  0.00  0.00     0.298 HD
ENDROOT
TORSDOF 0
ENDMDL
