MODEL 1
REMARK minimizedAffinity 1.49838948
REMARK minimizedRMSD -1
REMARK  0 active torsions:
REMARK  status: ('A' for Active; 'I' for Inactive)
ROOT
ATOM      1  N1  IND d   1      -0.797  -0.156   2.121  0.00  0.00    -0.196 N 
ATOM      2  C2  IND d   1      -1.481   0.923   2.608  0.00  0.00     0.054 A 
ATOM      3  C3  IND d   1      -1.391   1.963   1.749  0.00  0.00    -0.031 A 
ATOM      4  C4  IND d   1      -0.258   2.086  -0.559  0.00  0.00     0.051 A 
ATOM      5  C5  IND d   1       0.526   1.364  -1.414  0.00  0.00    -0.031 A 
ATOM      6  C6  IND d   1       0.914   0.070  -1.130  0.00  0.00     0.015 A 
ATOM      7  C7  IND d   1       0.523  -0.555   0.020  0.00  0.00    -0.016 A 
ATOM      8  C8  IND d   1      -0.268   0.178   0.894  0.00  0.00    -0.047 A 
ATOM      9  C9  IND d   1      -0.630   1.506   0.630  0.00  0.00    -0.096 A 
ATOM     10  HN1 IND d   1      -0.711  -0.915   2.515  0.00  0.00     0.298 HD
ENDROOT
TORSDOF 0
ENDMDL
