MODEL 1
REMARK minimizedAffinity -2.73269343
REMARK minimizedRMSD -1
REMARK  0 active torsions:
REMARK  status: ('A' for Active; 'I' for Inactive)
ROOT
ATOM      1  N1  IND d   1      -1.297   1.394   1.217  0.00  0.00    -0.196 N 
ATOM      2  C2  IND d   1      -1.224   0.398   2.150  0.00  0.00     0.054 A 
ATOM      3  C3  IND d   1      -0.403  -0.588   1.722  0.00  0.00    -0.031 A 
ATOM      4  C4  IND d   1       1.002  -0.726  -0.431  0.00  0.00     0.051 A 
ATOM      5  C5  IND d   1       1.238  -0.071  -1.607  0.00  0.00    -0.031 A 
ATOM      6  C6  IND d   1       0.630   1.131  -1.907  0.00  0.00     0.015 A 
ATOM      7  C7  IND d   1      -0.231   1.731  -1.033  0.00  0.00    -0.016 A 
ATOM      8  C8  IND d   1      -0.478   1.066   0.160  0.00  0.00    -0.047 A 
ATOM      9  C9  IND d   1       0.103  -0.175   0.451  0.00  0.00    -0.096 A 
ATOM     10  HN1 IND d   1      -1.775   2.106   1.281  0.00  0.00     0.298 HD
ENDROOT
TORSDOF 0
ENDMDL
