MODEL 1
REMARK minimizedAffinity -3.58136249
REMARK minimizedRMSD -1
REMARK  0 active torsions:
REMARK  status: ('A' for Active; 'I' for Inactive)
ROOT
ATOM      1  N1  IND d   1      -0.069   0.569   0.613  0.00  0.00    -0.196 N 
ATOM      2  C2  IND d   1       0.095  -0.431   1.531  0.00  0.00     0.054 A 
ATOM      3  C3  IND d   1       0.393  -1.594   0.911  0.00  0.00    -0.031 A 
ATOM      4  C4  IND d   1       0.762  -2.065  -1.593  0.00  0.00     0.051 A 
ATOM      5  C5  IND d   1       0.686  -1.474  -2.823  0.00  0.00    -0.031 A 
ATOM      6  C6  IND d   1       0.350  -0.144  -2.973  0.00  0.00     0.015 A 
ATOM      7  C7  IND d   1       0.088   0.651  -1.893  0.00  0.00    -0.016 A 
ATOM      8  C8  IND d   1       0.157   0.052  -0.643  0.00  0.00    -0.047 A 
ATOM      9  C9  IND d   1       0.456  -1.307  -0.487  0.00  0.00    -0.096 A 
ATOM     10  HN1 IND d   1      -0.279   1.384   0.791  0.00  0.00     0.298 HD
ENDROOT
TORSDOF 0
ENDMDL
