MODEL 1
REMARK minimizedAffinity -5.24514914
REMARK minimizedRMSD -1
REMARK  0 active torsions:
REMARK  status: ('A' for Active; 'I' for Inactive)
ROOT
ATOM      1  N1  IND d   1       0.885   2.527  -0.886  0.00  0.00    -0.196 N 
ATOM      2  C2  IND d   1       0.315   3.609  -0.275  0.00  0.00     0.054 A 
ATOM      3  C3  IND d   1      -0.407   3.217   0.798  0.00  0.00    -0.031 A 
ATOM      4  C4  IND d   1      -0.707   0.862   1.796  0.00  0.00     0.051 A 
ATOM      5  C5  IND d   1      -0.409  -0.451   1.565  0.00  0.00    -0.031 A 
ATOM      6  C6  IND d   1       0.354  -0.847   0.485  0.00  0.00     0.015 A 
ATOM      7  C7  IND d   1       0.859   0.062  -0.402  0.00  0.00    -0.016 A 
ATOM      8  C8  IND d   1       0.552   1.396  -0.175  0.00  0.00    -0.047 A 
ATOM      9  C9  IND d   1      -0.258   1.799   0.895  0.00  0.00    -0.096 A 
ATOM     10  HN1 IND d   1       1.371   2.550  -1.595  0.00  0.00     0.298 HD
ENDROOT
TORSDOF 0
ENDMDL
