MODEL 1
REMARK minimizedAffinity -2.00092602
REMARK minimizedRMSD -1
REMARK  0 active torsions:
REMARK  status: ('A' for Active; 'I' for Inactive)
ROOT
ATOM      1  N1  IND d   1       0.412   1.121   0.777  0.00  0.00    -0.196 N 
ATOM      2  C2  IND d   1      -0.714   1.385   1.505  0.00  0.00     0.054 A 
ATOM      3  C3  IND d   1      -1.678   0.479   1.225  0.00  0.00    -0.031 A 
ATOM      4  C4  IND d   1      -1.590  -1.578  -0.320  0.00  0.00     0.051 A 
ATOM      5  C5  IND d   1      -0.786  -2.212  -1.225  0.00  0.00    -0.031 A 
ATOM      6  C6  IND d   1       0.486  -1.759  -1.514  0.00  0.00     0.015 A 
ATOM      7  C7  IND d   1       1.007  -0.658  -0.896  0.00  0.00    -0.016 A 
ATOM      8  C8  IND d   1       0.190  -0.008   0.019  0.00  0.00    -0.047 A 
ATOM      9  C9  IND d   1      -1.116  -0.438   0.284  0.00  0.00    -0.096 A 
ATOM     10  HN1 IND d   1       1.138   1.583   0.790  0.00  0.00     0.298 HD
ENDROOT
TORSDOF 0
ENDMDL
