MODEL 1
REMARK minimizedAffinity -6.02935648
REMARK minimizedRMSD -1
REMARK  0 active torsions:
REMARK  status: ('A' for Active; 'I' for Inactive)
ROOT
ATOM      1  N1  IND d   1       0.793   0.782  -0.835  0.00  0.00    -0.196 N 
ATOM      2  C2  IND d   1       0.448  -0.436  -0.320  0.00  0.00     0.054 A 
ATOM      3  C3  IND d   1      -0.415  -0.285   0.710  0.00  0.00    -0.031 A 
ATOM      4  C4  IND d   1      -1.474   1.863   1.653  0.00  0.00     0.051 A 
ATOM      5  C5  IND d   1      -1.438   3.224   1.534  0.00  0.00    -0.031 A 
ATOM      6  C6  IND d   1      -0.643   3.853   0.599  0.00  0.00     0.015 A 
ATOM      7  C7  IND d   1       0.142   3.141  -0.264  0.00  0.00    -0.016 A 
ATOM      8  C8  IND d   1       0.113   1.759  -0.141  0.00  0.00    -0.047 A 
ATOM      9  C9  IND d   1      -0.660   1.117   0.834  0.00  0.00    -0.096 A 
ATOM     10  HN1 IND d   1       1.342   0.916  -1.482  0.00  0.00     0.298 HD
ENDROOT
TORSDOF 0
ENDMDL
