MODEL 1
REMARK minimizedAffinity -5.20029211
REMARK minimizedRMSD -1
REMARK  0 active torsions:
REMARK  status: ('A' for Active; 'I' for Inactive)
ROOT
ATOM      1  N1  IND d   1      -1.304   1.876   2.105  0.00  0.00    -0.196 N 
ATOM      2  C2  IND d   1      -1.143   0.537   2.329  0.00  0.00     0.054 A 
ATOM      3  C3  IND d   1      -0.464  -0.032   1.308  0.00  0.00    -0.031 A 
ATOM      4  C4  IND d   1       0.566   1.063  -0.782  0.00  0.00     0.051 A 
ATOM      5  C5  IND d   1       0.649   2.256  -1.443  0.00  0.00    -0.031 A 
ATOM      6  C6  IND d   1       0.076   3.407  -0.944  0.00  0.00     0.015 A 
ATOM      7  C7  IND d   1      -0.595   3.411   0.246  0.00  0.00    -0.016 A 
ATOM      8  C8  IND d   1      -0.687   2.200   0.917  0.00  0.00    -0.047 A 
ATOM      9  C9  IND d   1      -0.144   1.019   0.394  0.00  0.00    -0.096 A 
ATOM     10  HN1 IND d   1      -1.721   2.424   2.620  0.00  0.00     0.298 HD
ENDROOT
TORSDOF 0
ENDMDL
