MODEL 1
REMARK minimizedAffinity -3.46361685
REMARK minimizedRMSD -1
REMARK  0 active torsions:
REMARK  status: ('A' for Active; 'I' for Inactive)
ROOT
ATOM      1  N1  IND d   1       1.068   1.700  -1.080  0.00  0.00    -0.196 N 
ATOM      2  C2  IND d   1       1.468   0.502  -1.602  0.00  0.00     0.054 A 
ATOM      3  C3  IND d   1       0.945  -0.521  -0.889  0.00  0.00    -0.031 A 
ATOM      4  C4  IND d   1      -0.676  -0.459   1.110  0.00  0.00     0.051 A 
ATOM      5  C5  IND d   1      -1.296   0.406   1.968  0.00  0.00    -0.031 A 
ATOM      6  C6  IND d   1      -1.159   1.774   1.849  0.00  0.00     0.015 A 
ATOM      7  C7  IND d   1      -0.403   2.331   0.857  0.00  0.00    -0.016 A 
ATOM      8  C8  IND d   1       0.234   1.456  -0.011  0.00  0.00    -0.047 A 
ATOM      9  C9  IND d   1       0.133   0.066   0.130  0.00  0.00    -0.096 A 
ATOM     10  HN1 IND d   1       1.299   2.476  -1.370  0.00  0.00     0.298 HD
ENDROOT
TORSDOF 0
ENDMDL
