MODEL 1
REMARK minimizedAffinity -2.13160062
REMARK minimizedRMSD -1
REMARK  0 active torsions:
REMARK  status: ('A' for Active; 'I' for Inactive)
ROOT
ATOM      1  N1  IND d   1      -0.214  -0.095  -1.370  0.00  0.00    -0.196 N 
ATOM      2  C2  IND d   1       0.517   0.305  -0.286  0.00  0.00     0.054 A 
ATOM      3  C3  IND d   1       1.237  -0.728   0.204  0.00  0.00    -0.031 A 
ATOM      4  C4  IND d   1       1.449  -3.138  -0.678  0.00  0.00     0.051 A 
ATOM      5  C5  IND d   1       0.945  -3.987  -1.622  0.00  0.00    -0.031 A 
ATOM      6  C6  IND d   1       0.012  -3.574  -2.551  0.00  0.00     0.015 A 
ATOM      7  C7  IND d   1      -0.445  -2.286  -2.578  0.00  0.00    -0.016 A 
ATOM      8  C8  IND d   1       0.059  -1.423  -1.616  0.00  0.00    -0.047 A 
ATOM      9  C9  IND d   1       0.974  -1.848  -0.644  0.00  0.00    -0.096 A 
ATOM     10  HN1 IND d   1      -0.753   0.399  -1.822  0.00  0.00     0.298 HD
ENDROOT
TORSDOF 0
ENDMDL
