MODEL 1
REMARK minimizedAffinity -3.30169296
REMARK minimizedRMSD -1
REMARK  1 active torsions:
REMARK  status: ('A' for Active; 'I' for Inactive)
REMARK    1  A    between atoms: N_2  and  C1_3 
ROOT
ATOM      1  C1  UNL d   1      -4.846   1.745  -0.773  0.00  0.00     0.143 A 
ATOM      2  C2  UNL d   1      -3.664   1.931  -0.049  0.00  0.00    -0.057 A 
ATOM      3  C3  UNL d   1      -3.637   2.716   1.110  0.00  0.00     0.033 A 
ATOM      4  C4  UNL d   1      -4.791   3.356   1.550  0.00  0.00    -0.042 A 
ATOM      5  C5  UNL d   1      -5.972   3.206   0.833  0.00  0.00     0.033 A 
ATOM      6  C6  UNL d   1      -5.994   2.415  -0.320  0.00  0.00    -0.057 A 
ENDROOT
BRANCH   1   7
ATOM      7  N   UNL d   1      -4.916   1.056  -1.986  0.00  0.00    -0.732 N 
ATOM      8  C   UNL d   1      -4.224   1.553  -3.156  0.00  0.00     0.284 C 
ATOM      9  H3  UNL d   1      -4.856   0.048  -1.864  0.00  0.00     0.395 HD
ENDBRANCH   1   7
TORSDOF 1
ENDMDL
