MODEL 1
REMARK minimizedAffinity 5.79663897
REMARK minimizedRMSD -1
REMARK  1 active torsions:
REMARK  status: ('A' for Active; 'I' for Inactive)
REMARK    1  A    between atoms: N_2  and  C1_3 
ROOT
ATOM      1  C1  UNL d   1       3.591  -5.922  -4.371  0.00  0.00     0.143 A 
ATOM      2  C2  UNL d   1       4.933  -5.688  -4.055  0.00  0.00    -0.057 A 
ATOM      3  C3  UNL d   1       5.348  -5.519  -2.728  0.00  0.00     0.033 A 
ATOM      4  C4  UNL d   1       4.419  -5.552  -1.693  0.00  0.00    -0.042 A 
ATOM      5  C5  UNL d   1       3.076  -5.759  -1.986  0.00  0.00     0.033 A 
ATOM      6  C6  UNL d   1       2.669  -5.933  -3.313  0.00  0.00    -0.057 A 
ENDROOT
BRANCH   1   7
ATOM      7  N   UNL d   1       3.101  -6.000  -5.677  0.00  0.00    -0.732 N 
ATOM      8  C   UNL d   1       1.677  -5.995  -5.933  0.00  0.00     0.284 C 
ATOM      9  H3  UNL d   1       3.642  -5.436  -6.329  0.00  0.00     0.395 HD
ENDBRANCH   1   7
TORSDOF 1
ENDMDL
