MODEL 1
REMARK minimizedAffinity 2.73173285
REMARK minimizedRMSD -1
REMARK  1 active torsions:
REMARK  status: ('A' for Active; 'I' for Inactive)
REMARK    1  A    between atoms: N_2  and  C1_3 
ROOT
ATOM      1  C1  UNL d   1       3.531  -2.978   4.284  0.00  0.00     0.143 A 
ATOM      2  C2  UNL d   1       2.933  -4.225   4.071  0.00  0.00    -0.057 A 
ATOM      3  C3  UNL d   1       1.644  -4.329   3.536  0.00  0.00     0.033 A 
ATOM      4  C4  UNL d   1       0.916  -3.184   3.231  0.00  0.00    -0.042 A 
ATOM      5  C5  UNL d   1       1.481  -1.934   3.458  0.00  0.00     0.033 A 
ATOM      6  C6  UNL d   1       2.772  -1.836   3.986  0.00  0.00    -0.057 A 
ENDROOT
BRANCH   1   7
ATOM      7  N   UNL d   1       4.771  -2.806   4.905  0.00  0.00    -0.732 N 
ATOM      8  C   UNL d   1       5.997  -2.901   4.141  0.00  0.00     0.284 C 
ATOM      9  H3  UNL d   1       4.763  -2.051   5.586  0.00  0.00     0.395 HD
ENDBRANCH   1   7
TORSDOF 1
ENDMDL
