MODEL 1
REMARK minimizedAffinity -0.01786373
REMARK minimizedRMSD -1
REMARK  1 active torsions:
REMARK  status: ('A' for Active; 'I' for Inactive)
REMARK    1  A    between atoms: N_2  and  C1_3 
ROOT
ATOM      1  C1  UNL d   1       4.947  -5.917  -3.276  0.00  0.00     0.143 A 
ATOM      2  C2  UNL d   1       5.821  -5.939  -4.369  0.00  0.00    -0.057 A 
ATOM      3  C3  UNL d   1       5.340  -5.958  -5.683  0.00  0.00     0.033 A 
ATOM      4  C4  UNL d   1       3.971  -5.984  -5.929  0.00  0.00    -0.042 A 
ATOM      5  C5  UNL d   1       3.084  -5.988  -4.858  0.00  0.00     0.033 A 
ATOM      6  C6  UNL d   1       3.571  -5.963  -3.548  0.00  0.00    -0.057 A 
ENDROOT
BRANCH   1   7
ATOM      7  N   UNL d   1       5.364  -5.998  -1.945  0.00  0.00    -0.732 N 
ATOM      8  C   UNL d   1       4.442  -5.714  -0.866  0.00  0.00     0.284 C 
ATOM      9  H3  UNL d   1       5.969  -6.798  -1.775  0.00  0.00     0.395 HD
ENDBRANCH   1   7
TORSDOF 1
ENDMDL
