MODEL 1
REMARK minimizedAffinity 3.66071129
REMARK minimizedRMSD -1
REMARK  1 active torsions:
REMARK  status: ('A' for Active; 'I' for Inactive)
REMARK    1  A    between atoms: N_2  and  C1_3 
ROOT
ATOM      1  C1  UNL d   1      -1.180  -1.929  -0.189  0.00  0.00     0.143 A 
ATOM      2  C2  UNL d   1      -2.060  -2.998   0.012  0.00  0.00    -0.057 A 
ATOM      3  C3  UNL d   1      -3.029  -3.330  -0.942  0.00  0.00     0.033 A 
ATOM      4  C4  UNL d   1      -3.155  -2.577  -2.105  0.00  0.00    -0.042 A 
ATOM      5  C5  UNL d   1      -2.308  -1.494  -2.314  0.00  0.00     0.033 A 
ATOM      6  C6  UNL d   1      -1.338  -1.172  -1.360  0.00  0.00    -0.057 A 
ENDROOT
BRANCH   1   7
ATOM      7  N   UNL d   1      -0.260  -1.489   0.766  0.00  0.00    -0.732 N 
ATOM      8  C   UNL d   1       0.619  -2.427   1.430  0.00  0.00     0.284 C 
ATOM      9  H3  UNL d   1       0.189  -0.616   0.500  0.00  0.00     0.395 HD
ENDBRANCH   1   7
TORSDOF 1
ENDMDL
