MODEL 1
REMARK minimizedAffinity 6.79465055
REMARK minimizedRMSD -1
REMARK  1 active torsions:
REMARK  status: ('A' for Active; 'I' for Inactive)
REMARK    1  A    between atoms: N_2  and  C1_3 
ROOT
ATOM      1  C1  UNL d   1       1.367  -4.194   4.353  0.00  0.00     0.143 A 
ATOM      2  C2  UNL d   1       0.703  -2.967   4.463  0.00  0.00    -0.057 A 
ATOM      3  C3  UNL d   1       1.158  -1.832   3.782  0.00  0.00     0.033 A 
ATOM      4  C4  UNL d   1       2.306  -1.897   2.998  0.00  0.00    -0.042 A 
ATOM      5  C5  UNL d   1       2.996  -3.099   2.894  0.00  0.00     0.033 A 
ATOM      6  C6  UNL d   1       2.532  -4.231   3.572  0.00  0.00    -0.057 A 
ENDROOT
BRANCH   1   7
ATOM      7  N   UNL d   1       1.021  -5.333   5.083  0.00  0.00    -0.732 N 
ATOM      8  C   UNL d   1      -0.103  -5.311   5.996  0.00  0.00     0.284 C 
ATOM      9  H3  UNL d   1       1.091  -6.185   4.531  0.00  0.00     0.395 HD
ENDBRANCH   1   7
TORSDOF 1
ENDMDL
