MODEL 1
REMARK minimizedAffinity 7.61282349
REMARK minimizedRMSD -1
REMARK  1 active torsions:
REMARK  status: ('A' for Active; 'I' for Inactive)
REMARK    1  A    between atoms: N_2  and  C1_3 
ROOT
ATOM      1  C1  UNL d   1       2.708   2.520  -0.104  0.00  0.00     0.143 A 
ATOM      2  C2  UNL d   1       1.951   2.382   1.064  0.00  0.00    -0.057 A 
ATOM      3  C3  UNL d   1       1.921   1.174   1.772  0.00  0.00     0.033 A 
ATOM      4  C4  UNL d   1       2.627   0.070   1.306  0.00  0.00    -0.042 A 
ATOM      5  C5  UNL d   1       3.367   0.177   0.133  0.00  0.00     0.033 A 
ATOM      6  C6  UNL d   1       3.398   1.388  -0.565  0.00  0.00    -0.057 A 
ENDROOT
BRANCH   1   7
ATOM      7  N   UNL d   1       2.700   3.664  -0.906  0.00  0.00    -0.732 N 
ATOM      8  C   UNL d   1       1.585   4.586  -0.863  0.00  0.00     0.284 C 
ATOM      9  H3  UNL d   1       3.611   4.115  -0.948  0.00  0.00     0.395 HD
ENDBRANCH   1   7
TORSDOF 1
ENDMDL
