MODEL 1
REMARK minimizedAffinity 1.4997437
REMARK minimizedRMSD -1
REMARK  0 active torsions:
REMARK  status: ('A' for Active; 'I' for Inactive)
ROOT
ATOM      1  C   UNL d   1      -2.876   0.569   3.668  0.00  0.00     0.124 A 
ATOM      2  C1  UNL d   1      -2.628  -0.060   2.455  0.00  0.00     0.062 A 
ATOM      3  C2  UNL d   1      -3.519   0.089   1.396  0.00  0.00     0.162 A 
ATOM      4  C3  UNL d   1      -4.665   0.870   1.543  0.00  0.00    -0.034 A 
ATOM      5  C4  UNL d   1      -4.907   1.498   2.766  0.00  0.00     0.162 A 
ATOM      6  C5  UNL d   1      -4.015   1.347   3.822  0.00  0.00     0.062 A 
ATOM      7  F   UNL d   1      -4.255   1.954   4.993  0.00  0.00    -0.097 F 
ATOM      8  F1  UNL d   1      -5.999   2.256   2.943  0.00  0.00    -0.096 F 
ATOM      9  I   UNL d   1      -5.998   1.094  -0.039  0.00  0.00    -0.060 I 
ATOM     10  F2  UNL d   1      -3.254  -0.530   0.235  0.00  0.00    -0.096 F 
ATOM     11  F3  UNL d   1      -1.529  -0.812   2.304  0.00  0.00    -0.097 F 
ATOM     12  F4  UNL d   1      -2.018   0.424   4.686  0.00  0.00    -0.092 F 
ENDROOT
TORSDOF 0
ENDMDL
