MODEL 1
REMARK minimizedAffinity 12.9235964
REMARK minimizedRMSD -1
REMARK  0 active torsions:
REMARK  status: ('A' for Active; 'I' for Inactive)
ROOT
ATOM      1  C   UNL d   1      -4.062   0.753   1.415  0.00  0.00     0.124 A 
ATOM      2  C1  UNL d   1      -3.558  -0.091   0.435  0.00  0.00     0.062 A 
ATOM      3  C2  UNL d   1      -2.406  -0.834   0.675  0.00  0.00     0.162 A 
ATOM      4  C3  UNL d   1      -1.748  -0.736   1.901  0.00  0.00    -0.034 A 
ATOM      5  C4  UNL d   1      -2.260   0.116   2.882  0.00  0.00     0.162 A 
ATOM      6  C5  UNL d   1      -3.412   0.856   2.637  0.00  0.00     0.062 A 
ATOM      7  F   UNL d   1      -3.897   1.671   3.585  0.00  0.00    -0.097 F 
ATOM      8  F1  UNL d   1      -1.653   0.233   4.072  0.00  0.00    -0.096 F 
ATOM      9  I   UNL d   1      -0.024  -1.845   2.264  0.00  0.00    -0.060 I 
ATOM     10  F2  UNL d   1      -1.942  -1.641  -0.291  0.00  0.00    -0.096 F 
ATOM     11  F3  UNL d   1      -4.184  -0.191  -0.747  0.00  0.00    -0.097 F 
ATOM     12  F4  UNL d   1      -5.170   1.467   1.181  0.00  0.00    -0.092 F 
ENDROOT
TORSDOF 0
ENDMDL
