MODEL 1
REMARK minimizedAffinity 8.68072224
REMARK minimizedRMSD -1
REMARK  0 active torsions:
REMARK  status: ('A' for Active; 'I' for Inactive)
ROOT
ATOM      1  C   UNL d   1      -1.062  -0.164   3.993  0.00  0.00     0.124 A 
ATOM      2  C1  UNL d   1      -0.243  -1.209   3.590  0.00  0.00     0.062 A 
ATOM      3  C2  UNL d   1      -0.494  -1.875   2.393  0.00  0.00     0.162 A 
ATOM      4  C3  UNL d   1      -1.570  -1.496   1.590  0.00  0.00    -0.034 A 
ATOM      5  C4  UNL d   1      -2.390  -0.444   2.003  0.00  0.00     0.162 A 
ATOM      6  C5  UNL d   1      -2.135   0.217   3.199  0.00  0.00     0.062 A 
ATOM      7  F   UNL d   1      -2.927   1.227   3.587  0.00  0.00    -0.097 F 
ATOM      8  F1  UNL d   1      -3.433  -0.055   1.255  0.00  0.00    -0.096 F 
ATOM      9  I   UNL d   1      -1.950  -2.488  -0.200  0.00  0.00    -0.060 I 
ATOM     10  F2  UNL d   1       0.314  -2.881   2.028  0.00  0.00    -0.096 F 
ATOM     11  F3  UNL d   1       0.794  -1.580   4.355  0.00  0.00    -0.097 F 
ATOM     12  F4  UNL d   1      -0.818   0.474   5.145  0.00  0.00    -0.092 F 
ENDROOT
TORSDOF 0
ENDMDL
