MODEL 1
REMARK minimizedAffinity 16.389267
REMARK minimizedRMSD -1
REMARK  0 active torsions:
REMARK  status: ('A' for Active; 'I' for Inactive)
ROOT
ATOM      1  C   UNL d   1       4.307   4.015  -3.318  0.00  0.00     0.124 A 
ATOM      2  C1  UNL d   1       5.066   4.951  -2.628  0.00  0.00     0.062 A 
ATOM      3  C2  UNL d   1       5.257   4.823  -1.256  0.00  0.00     0.162 A 
ATOM      4  C3  UNL d   1       4.688   3.754  -0.562  0.00  0.00    -0.034 A 
ATOM      5  C4  UNL d   1       3.925   2.818  -1.262  0.00  0.00     0.162 A 
ATOM      6  C5  UNL d   1       3.737   2.950  -2.635  0.00  0.00     0.062 A 
ATOM      7  F   UNL d   1       3.004   2.046  -3.299  0.00  0.00    -0.097 F 
ATOM      8  F1  UNL d   1       3.364   1.779  -0.627  0.00  0.00    -0.096 F 
ATOM      9  I   UNL d   1       4.971   3.560   1.490  0.00  0.00    -0.060 I 
ATOM     10  F2  UNL d   1       5.995   5.742  -0.615  0.00  0.00    -0.096 F 
ATOM     11  F3  UNL d   1       5.617   5.981  -3.286  0.00  0.00    -0.097 F 
ATOM     12  F4  UNL d   1       4.124   4.141  -4.638  0.00  0.00    -0.092 F 
ENDROOT
TORSDOF 0
ENDMDL
