MODEL 1
REMARK minimizedAffinity 22.2612953
REMARK minimizedRMSD -1
REMARK  0 active torsions:
REMARK  status: ('A' for Active; 'I' for Inactive)
ROOT
ATOM      1  C   UNL d   1       1.033   3.836  -1.443  0.00  0.00     0.124 A 
ATOM      2  C1  UNL d   1       1.255   4.931  -2.266  0.00  0.00     0.062 A 
ATOM      3  C2  UNL d   1       2.320   4.928  -3.163  0.00  0.00     0.162 A 
ATOM      4  C3  UNL d   1       3.170   3.824  -3.242  0.00  0.00    -0.034 A 
ATOM      5  C4  UNL d   1       2.940   2.727  -2.410  0.00  0.00     0.162 A 
ATOM      6  C5  UNL d   1       1.875   2.736  -1.515  0.00  0.00     0.062 A 
ATOM      7  F   UNL d   1       1.661   1.677  -0.720  0.00  0.00    -0.097 F 
ATOM      8  F1  UNL d   1       3.738   1.650  -2.459  0.00  0.00    -0.096 F 
ATOM      9  I   UNL d   1       4.763   3.815  -4.581  0.00  0.00    -0.060 I 
ATOM     10  F2  UNL d   1       2.511   5.999  -3.946  0.00  0.00    -0.096 F 
ATOM     11  F3  UNL d   1       0.443   5.996  -2.198  0.00  0.00    -0.097 F 
ATOM     12  F4  UNL d   1       0.008   3.842  -0.580  0.00  0.00    -0.092 F 
ENDROOT
TORSDOF 0
ENDMDL
