MODEL 1
REMARK minimizedAffinity 9.88532543
REMARK minimizedRMSD -1
REMARK  0 active torsions:
REMARK  status: ('A' for Active; 'I' for Inactive)
ROOT
ATOM      1  C   UNL d   1      -2.208   0.441   2.707  0.00  0.00     0.124 A 
ATOM      2  C1  UNL d   1      -1.706  -0.515   1.834  0.00  0.00     0.062 A 
ATOM      3  C2  UNL d   1      -2.381  -0.806   0.652  0.00  0.00     0.162 A 
ATOM      4  C3  UNL d   1      -3.564  -0.139   0.334  0.00  0.00    -0.034 A 
ATOM      5  C4  UNL d   1      -4.063   0.820   1.217  0.00  0.00     0.162 A 
ATOM      6  C5  UNL d   1      -3.385   1.108   2.398  0.00  0.00     0.062 A 
ATOM      7  F   UNL d   1      -3.871   2.031   3.240  0.00  0.00    -0.097 F 
ATOM      8  F1  UNL d   1      -5.198   1.480   0.943  0.00  0.00    -0.096 F 
ATOM      9  I   UNL d   1      -4.575  -0.571  -1.433  0.00  0.00    -0.060 I 
ATOM     10  F2  UNL d   1      -1.873  -1.734  -0.172  0.00  0.00    -0.096 F 
ATOM     11  F3  UNL d   1      -0.570  -1.161   2.131  0.00  0.00    -0.097 F 
ATOM     12  F4  UNL d   1      -1.557   0.718   3.844  0.00  0.00    -0.092 F 
ENDROOT
TORSDOF 0
ENDMDL
