MODEL 1
REMARK minimizedAffinity 7.8961215
REMARK minimizedRMSD -1
REMARK  0 active torsions:
REMARK  status: ('A' for Active; 'I' for Inactive)
ROOT
ATOM      1  C   UNL d   1      -2.545  -0.079   0.609  0.00  0.00     0.124 A 
ATOM      2  C1  UNL d   1      -3.687   0.643   0.291  0.00  0.00     0.062 A 
ATOM      3  C2  UNL d   1      -4.339   1.387   1.270  0.00  0.00     0.162 A 
ATOM      4  C3  UNL d   1      -3.851   1.414   2.576  0.00  0.00    -0.034 A 
ATOM      5  C4  UNL d   1      -2.702   0.685   2.888  0.00  0.00     0.162 A 
ATOM      6  C5  UNL d   1      -2.054  -0.058   1.907  0.00  0.00     0.062 A 
ATOM      7  F   UNL d   1      -0.951  -0.755   2.215  0.00  0.00    -0.097 F 
ATOM      8  F1  UNL d   1      -2.205   0.689   4.134  0.00  0.00    -0.096 F 
ATOM      9  I   UNL d   1      -4.823   2.526   4.042  0.00  0.00    -0.060 I 
ATOM     10  F2  UNL d   1      -5.441   2.076   0.934  0.00  0.00    -0.096 F 
ATOM     11  F3  UNL d   1      -4.164   0.623  -0.962  0.00  0.00    -0.097 F 
ATOM     12  F4  UNL d   1      -1.920  -0.795  -0.334  0.00  0.00    -0.092 F 
ENDROOT
TORSDOF 0
ENDMDL
