MODEL 1
REMARK minimizedAffinity 17.4895554
REMARK minimizedRMSD -1
REMARK  0 active torsions:
REMARK  status: ('A' for Active; 'I' for Inactive)
ROOT
ATOM      1  C   UNL d   1       2.393   2.500  -2.615  0.00  0.00     0.124 A 
ATOM      2  C1  UNL d   1       2.241   3.776  -2.091  0.00  0.00     0.062 A 
ATOM      3  C2  UNL d   1       3.156   4.776  -2.406  0.00  0.00     0.162 A 
ATOM      4  C3  UNL d   1       4.232   4.504  -3.252  0.00  0.00    -0.034 A 
ATOM      5  C4  UNL d   1       4.378   3.218  -3.774  0.00  0.00     0.162 A 
ATOM      6  C5  UNL d   1       3.461   2.222  -3.456  0.00  0.00     0.062 A 
ATOM      7  F   UNL d   1       3.609   0.989  -3.963  0.00  0.00    -0.097 F 
ATOM      8  F1  UNL d   1       5.401   2.922  -4.590  0.00  0.00    -0.096 F 
ATOM      9  I   UNL d   1       5.603   5.996  -3.726  0.00  0.00    -0.060 I 
ATOM     10  F2  UNL d   1       2.985   6.000  -1.885  0.00  0.00    -0.096 F 
ATOM     11  F3  UNL d   1       1.210   4.047  -1.277  0.00  0.00    -0.097 F 
ATOM     12  F4  UNL d   1       1.511   1.539  -2.309  0.00  0.00    -0.092 F 
ENDROOT
TORSDOF 0
ENDMDL
