MODEL 1
REMARK minimizedAffinity 28.829443
REMARK minimizedRMSD -1
REMARK  0 active torsions:
REMARK  status: ('A' for Active; 'I' for Inactive)
ROOT
ATOM      1  C   UNL d   1       2.825   2.581  -2.984  0.00  0.00     0.124 A 
ATOM      2  C1  UNL d   1       2.830   3.825  -2.368  0.00  0.00     0.062 A 
ATOM      3  C2  UNL d   1       3.735   4.802  -2.771  0.00  0.00     0.162 A 
ATOM      4  C3  UNL d   1       4.642   4.541  -3.798  0.00  0.00    -0.034 A 
ATOM      5  C4  UNL d   1       4.632   3.287  -4.412  0.00  0.00     0.162 A 
ATOM      6  C5  UNL d   1       3.726   2.313  -4.005  0.00  0.00     0.062 A 
ATOM      7  F   UNL d   1       3.723   1.112  -4.601  0.00  0.00    -0.097 F 
ATOM      8  F1  UNL d   1       5.491   3.002  -5.402  0.00  0.00    -0.096 F 
ATOM      9  I   UNL d   1       5.997   6.000  -4.405  0.00  0.00    -0.060 I 
ATOM     10  F2  UNL d   1       3.717   5.995  -2.159  0.00  0.00    -0.096 F 
ATOM     11  F3  UNL d   1       1.961   4.086  -1.380  0.00  0.00    -0.097 F 
ATOM     12  F4  UNL d   1       1.954   1.642  -2.592  0.00  0.00    -0.092 F 
ENDROOT
TORSDOF 0
ENDMDL
