MODEL 1
REMARK minimizedAffinity 13.3146172
REMARK minimizedRMSD -1
REMARK  0 active torsions:
REMARK  status: ('A' for Active; 'I' for Inactive)
ROOT
ATOM      1  C   UNL d   1      -2.556   0.186   1.709  0.00  0.00     0.124 A 
ATOM      2  C1  UNL d   1      -1.847  -0.843   1.103  0.00  0.00     0.062 A 
ATOM      3  C2  UNL d   1      -0.837  -1.500   1.799  0.00  0.00     0.162 A 
ATOM      4  C3  UNL d   1      -0.529  -1.132   3.108  0.00  0.00    -0.034 A 
ATOM      5  C4  UNL d   1      -1.245  -0.096   3.710  0.00  0.00     0.162 A 
ATOM      6  C5  UNL d   1      -2.254   0.558   3.011  0.00  0.00     0.062 A 
ATOM      7  F   UNL d   1      -2.938   1.552   3.598  0.00  0.00    -0.097 F 
ATOM      8  F1  UNL d   1      -0.975   0.284   4.968  0.00  0.00    -0.096 F 
ATOM      9  I   UNL d   1       0.982  -2.112   4.151  0.00  0.00    -0.060 I 
ATOM     10  F2  UNL d   1      -0.168  -2.491   1.189  0.00  0.00    -0.096 F 
ATOM     11  F3  UNL d   1      -2.136  -1.204  -0.155  0.00  0.00    -0.097 F 
ATOM     12  F4  UNL d   1      -3.527   0.817   1.037  0.00  0.00    -0.092 F 
ENDROOT
TORSDOF 0
ENDMDL
