MODEL 1
REMARK minimizedAffinity 20.2077255
REMARK minimizedRMSD -1
REMARK  0 active torsions:
REMARK  status: ('A' for Active; 'I' for Inactive)
ROOT
ATOM      1  C   UNL d   1      -0.297  -0.605   3.904  0.00  0.00     0.124 A 
ATOM      2  C1  UNL d   1      -1.342   0.041   4.551  0.00  0.00     0.062 A 
ATOM      3  C2  UNL d   1      -2.515   0.336   3.863  0.00  0.00     0.162 A 
ATOM      4  C3  UNL d   1      -2.652  -0.018   2.520  0.00  0.00    -0.034 A 
ATOM      5  C4  UNL d   1      -1.597  -0.667   1.877  0.00  0.00     0.162 A 
ATOM      6  C5  UNL d   1      -0.426  -0.959   2.569  0.00  0.00     0.062 A 
ATOM      7  F   UNL d   1       0.582  -1.584   1.943  0.00  0.00    -0.097 F 
ATOM      8  F1  UNL d   1      -1.694  -1.021   0.587  0.00  0.00    -0.096 F 
ATOM      9  I   UNL d   1      -4.405   0.420   1.488  0.00  0.00    -0.060 I 
ATOM     10  F2  UNL d   1      -3.508   0.961   4.512  0.00  0.00    -0.096 F 
ATOM     11  F3  UNL d   1      -1.220   0.385   5.841  0.00  0.00    -0.097 F 
ATOM     12  F4  UNL d   1       0.831  -0.886   4.568  0.00  0.00    -0.092 F 
ENDROOT
TORSDOF 0
ENDMDL
