MODEL 1
REMARK minimizedAffinity 14.9342899
REMARK minimizedRMSD -1
REMARK  0 active torsions:
REMARK  status: ('A' for Active; 'I' for Inactive)
ROOT
ATOM      1  C   UNL d   1       2.697   1.940  -1.386  0.00  0.00     0.124 A 
ATOM      2  C1  UNL d   1       3.235   1.525  -0.176  0.00  0.00     0.062 A 
ATOM      3  C2  UNL d   1       2.446   0.838   0.742  0.00  0.00     0.162 A 
ATOM      4  C3  UNL d   1       1.109   0.561   0.453  0.00  0.00    -0.034 A 
ATOM      5  C4  UNL d   1       0.575   0.983  -0.766  0.00  0.00     0.162 A 
ATOM      6  C5  UNL d   1       1.368   1.669  -1.680  0.00  0.00     0.062 A 
ATOM      7  F   UNL d   1       0.846   2.070  -2.849  0.00  0.00    -0.097 F 
ATOM      8  F1  UNL d   1      -0.706   0.733  -1.076  0.00  0.00    -0.096 F 
ATOM      9  I   UNL d   1      -0.074  -0.466   1.823  0.00  0.00    -0.060 I 
ATOM     10  F2  UNL d   1       2.992   0.449   1.903  0.00  0.00    -0.096 F 
ATOM     11  F3  UNL d   1       4.518   1.786   0.111  0.00  0.00    -0.097 F 
ATOM     12  F4  UNL d   1       3.458   2.602  -2.267  0.00  0.00    -0.092 F 
ENDROOT
TORSDOF 0
ENDMDL
