MODEL 1
REMARK minimizedAffinity 20.981678
REMARK minimizedRMSD -1
REMARK  0 active torsions:
REMARK  status: ('A' for Active; 'I' for Inactive)
ROOT
ATOM      1  C   UNL d   1      -2.658  -3.260  -3.621  0.00  0.00     0.124 A 
ATOM      2  C1  UNL d   1      -3.025  -4.255  -4.517  0.00  0.00     0.062 A 
ATOM      3  C2  UNL d   1      -2.051  -5.031  -5.138  0.00  0.00     0.162 A 
ATOM      4  C3  UNL d   1      -0.700  -4.817  -4.864  0.00  0.00    -0.034 A 
ATOM      5  C4  UNL d   1      -0.339  -3.815  -3.963  0.00  0.00     0.162 A 
ATOM      6  C5  UNL d   1      -1.316  -3.041  -3.345  0.00  0.00     0.062 A 
ATOM      7  F   UNL d   1      -0.960  -2.081  -2.479  0.00  0.00    -0.097 F 
ATOM      8  F1  UNL d   1       0.951  -3.582  -3.676  0.00  0.00    -0.096 F 
ATOM      9  I   UNL d   1       0.759  -5.976  -5.791  0.00  0.00    -0.060 I 
ATOM     10  F2  UNL d   1      -2.434  -5.985  -6.000  0.00  0.00    -0.096 F 
ATOM     11  F3  UNL d   1      -4.321  -4.468  -4.786  0.00  0.00    -0.097 F 
ATOM     12  F4  UNL d   1      -3.597  -2.514  -3.026  0.00  0.00    -0.092 F 
ENDROOT
TORSDOF 0
ENDMDL
