MODEL 1
REMARK minimizedAffinity 11.2400017
REMARK minimizedRMSD -1
REMARK  0 active torsions:
REMARK  status: ('A' for Active; 'I' for Inactive)
ROOT
ATOM      1  N1  IND d   1       1.800   1.172  -3.252  0.00  0.00    -0.196 N 
ATOM      2  C2  IND d   1       3.126   1.195  -2.923  0.00  0.00     0.054 A 
ATOM      3  C3  IND d   1       3.742   0.078  -3.371  0.00  0.00    -0.031 A 
ATOM      4  C4  IND d   1       2.788  -1.872  -4.755  0.00  0.00     0.051 A 
ATOM      5  C5  IND d   1       1.617  -2.358  -5.267  0.00  0.00    -0.031 A 
ATOM      6  C6  IND d   1       0.425  -1.677  -5.134  0.00  0.00     0.015 A 
ATOM      7  C7  IND d   1       0.359  -0.474  -4.490  0.00  0.00    -0.016 A 
ATOM      8  C8  IND d   1       1.544   0.019  -3.962  0.00  0.00    -0.047 A 
ATOM      9  C9  IND d   1       2.750  -0.688  -4.057  0.00  0.00    -0.096 A 
ATOM     10  HN1 IND d   1       1.222   1.775  -3.049  0.00  0.00     0.298 HD
ENDROOT
TORSDOF 0
ENDMDL
