MODEL 1
REMARK minimizedAffinity 4.76576042
REMARK minimizedRMSD -1
REMARK  0 active torsions:
REMARK  status: ('A' for Active; 'I' for Inactive)
ROOT
ATOM      1  N1  IND d   1       0.825   1.058  -4.482  0.00  0.00    -0.196 N 
ATOM      2  C2  IND d   1      -0.143   0.178  -4.879  0.00  0.00     0.054 A 
ATOM      3  C3  IND d   1      -0.402  -0.711  -3.894  0.00  0.00    -0.031 A 
ATOM      4  C4  IND d   1       0.570  -0.847  -1.515  0.00  0.00     0.051 A 
ATOM      5  C5  IND d   1       1.513  -0.282  -0.702  0.00  0.00    -0.031 A 
ATOM      6  C6  IND d   1       2.289   0.782  -1.116  0.00  0.00     0.015 A 
ATOM      7  C7  IND d   1       2.142   1.330  -2.359  0.00  0.00    -0.016 A 
ATOM      8  C8  IND d   1       1.190   0.754  -3.189  0.00  0.00    -0.047 A 
ATOM      9  C9  IND d   1       0.430  -0.353  -2.790  0.00  0.00    -0.096 A 
ATOM     10  HN1 IND d   1       1.152   1.694  -4.960  0.00  0.00     0.298 HD
ENDROOT
TORSDOF 0
ENDMDL
