MODEL 1
REMARK minimizedAffinity 2.50219965
REMARK minimizedRMSD -1
REMARK  0 active torsions:
REMARK  status: ('A' for Active; 'I' for Inactive)
ROOT
ATOM      1  N1  IND d   1       2.092   2.178  -1.575  0.00  0.00    -0.196 N 
ATOM      2  C2  IND d   1       1.826   1.451  -2.702  0.00  0.00     0.054 A 
ATOM      3  C3  IND d   1       1.598   0.157  -2.384  0.00  0.00    -0.031 A 
ATOM      4  C4  IND d   1       1.511  -0.967  -0.070  0.00  0.00     0.051 A 
ATOM      5  C5  IND d   1       1.724  -0.719   1.257  0.00  0.00    -0.031 A 
ATOM      6  C6  IND d   1       2.076   0.533   1.717  0.00  0.00     0.015 A 
ATOM      7  C7  IND d   1       2.216   1.592   0.865  0.00  0.00    -0.016 A 
ATOM      8  C8  IND d   1       2.007   1.342  -0.484  0.00  0.00    -0.047 A 
ATOM      9  C9  IND d   1       1.692   0.063  -0.962  0.00  0.00    -0.096 A 
ATOM     10  HN1 IND d   1       2.281   3.017  -1.552  0.00  0.00     0.298 HD
ENDROOT
TORSDOF 0
ENDMDL
