MODEL 1
REMARK minimizedAffinity 0.0679505244
REMARK minimizedRMSD -1
REMARK  0 active torsions:
REMARK  status: ('A' for Active; 'I' for Inactive)
ROOT
ATOM      1  C1  BNZ d   1      -3.637  -5.974  -0.291  0.00  0.00     0.000 A 
ATOM      2  C2  BNZ d   1      -3.654  -5.968   1.078  0.00  0.00     0.000 A 
ATOM      3  C3  BNZ d   1      -4.837  -5.997   1.763  0.00  0.00     0.000 A 
ATOM      4  C4  BNZ d   1      -5.999  -5.991   1.079  0.00  0.00     0.000 A 
ATOM      5  C5  BNZ d   1      -5.999  -5.988  -0.301  0.00  0.00     0.000 A 
ATOM      6  C6  BNZ d   1      -4.806  -5.998  -0.988  0.00  0.00     0.000 A 
ENDROOT
TORSDOF 0
ENDMDL
