MODEL 1
REMARK minimizedAffinity -1.73290062
REMARK minimizedRMSD -1
REMARK  0 active torsions:
REMARK  status: ('A' for Active; 'I' for Inactive)
ROOT
ATOM      1  C1  BNZ d   1      -5.920  -3.642  -0.147  0.00  0.00     0.000 A 
ATOM      2  C2  BNZ d   1      -6.000  -3.644  -1.514  0.00  0.00     0.000 A 
ATOM      3  C3  BNZ d   1      -6.000  -4.818  -2.214  0.00  0.00     0.000 A 
ATOM      4  C4  BNZ d   1      -5.879  -5.986  -1.549  0.00  0.00     0.000 A 
ATOM      5  C5  BNZ d   1      -5.789  -6.000  -0.172  0.00  0.00     0.000 A 
ATOM      6  C6  BNZ d   1      -5.829  -4.818   0.532  0.00  0.00     0.000 A 
ENDROOT
TORSDOF 0
ENDMDL
