MODEL 1
REMARK minimizedAffinity -0.415388018
REMARK minimizedRMSD -1
REMARK  0 active torsions:
REMARK  status: ('A' for Active; 'I' for Inactive)
ROOT
ATOM      1  C1  BNZ d   1      -3.554  -5.979  -0.174  0.00  0.00     0.000 A 
ATOM      2  C2  BNZ d   1      -4.707  -5.975  -0.914  0.00  0.00     0.000 A 
ATOM      3  C3  BNZ d   1      -5.930  -5.958  -0.303  0.00  0.00     0.000 A 
ATOM      4  C4  BNZ d   1      -5.999  -5.987   1.044  0.00  0.00     0.000 A 
ATOM      5  C5  BNZ d   1      -4.846  -6.000   1.803  0.00  0.00     0.000 A 
ATOM      6  C6  BNZ d   1      -3.617  -5.977   1.185  0.00  0.00     0.000 A 
ENDROOT
TORSDOF 0
ENDMDL
