MODEL 1
REMARK minimizedAffinity -4.05596209
REMARK minimizedRMSD -1
REMARK  0 active torsions:
REMARK  status: ('A' for Active; 'I' for Inactive)
ROOT
ATOM      1  C1  BNZ d   1      -5.606  -5.395  -1.052  0.00  0.00     0.000 A 
ATOM      2  C2  BNZ d   1      -5.826  -4.148  -1.573  0.00  0.00     0.000 A 
ATOM      3  C3  BNZ d   1      -5.730  -3.034  -0.785  0.00  0.00     0.000 A 
ATOM      4  C4  BNZ d   1      -5.456  -3.173   0.528  0.00  0.00     0.000 A 
ATOM      5  C5  BNZ d   1      -5.241  -4.424   1.069  0.00  0.00     0.000 A 
ATOM      6  C6  BNZ d   1      -5.299  -5.540   0.265  0.00  0.00     0.000 A 
ENDROOT
TORSDOF 0
ENDMDL
