MODEL 1
REMARK minimizedAffinity -1.59694862
REMARK minimizedRMSD -1
REMARK  0 active torsions:
REMARK  status: ('A' for Active; 'I' for Inactive)
ROOT
ATOM      1  C1  BNZ d   1      -5.630  -4.861  -2.403  0.00  0.00     0.000 A 
ATOM      2  C2  BNZ d   1      -5.360  -6.000  -1.692  0.00  0.00     0.000 A 
ATOM      3  C3  BNZ d   1      -5.407  -6.000  -0.326  0.00  0.00     0.000 A 
ATOM      4  C4  BNZ d   1      -5.685  -4.853   0.328  0.00  0.00     0.000 A 
ATOM      5  C5  BNZ d   1      -5.950  -3.695  -0.375  0.00  0.00     0.000 A 
ATOM      6  C6  BNZ d   1      -5.940  -3.708  -1.751  0.00  0.00     0.000 A 
ENDROOT
TORSDOF 0
ENDMDL
