MODEL 1
REMARK minimizedAffinity -2.04574776
REMARK minimizedRMSD -1
REMARK  0 active torsions:
REMARK  status: ('A' for Active; 'I' for Inactive)
ROOT
ATOM      1  C1  BNZ d   1      -5.988  -3.621  -2.354  0.00  0.00     0.000 A 
ATOM      2  C2  BNZ d   1      -5.997  -3.625  -0.985  0.00  0.00     0.000 A 
ATOM      3  C3  BNZ d   1      -5.982  -4.801  -0.288  0.00  0.00     0.000 A 
ATOM      4  C4  BNZ d   1      -5.999  -5.970  -0.960  0.00  0.00     0.000 A 
ATOM      5  C5  BNZ d   1      -6.000  -5.983  -2.341  0.00  0.00     0.000 A 
ATOM      6  C6  BNZ d   1      -5.975  -4.797  -3.039  0.00  0.00     0.000 A 
ENDROOT
TORSDOF 0
ENDMDL
