MODEL 1
REMARK minimizedAffinity -0.233241975
REMARK minimizedRMSD -1
REMARK  0 active torsions:
REMARK  status: ('A' for Active; 'I' for Inactive)
ROOT
ATOM      1  C1  BNZ d   1       3.091   0.458   1.867  0.00  0.00     0.000 A 
ATOM      2  C2  BNZ d   1       2.307   1.527   1.520  0.00  0.00     0.000 A 
ATOM      3  C3  BNZ d   1       1.099   1.734   2.125  0.00  0.00     0.000 A 
ATOM      4  C4  BNZ d   1       0.658   0.851   3.044  0.00  0.00     0.000 A 
ATOM      5  C5  BNZ d   1       1.432  -0.236   3.398  0.00  0.00     0.000 A 
ATOM      6  C6  BNZ d   1       2.665  -0.420   2.816  0.00  0.00     0.000 A 
ENDROOT
TORSDOF 0
ENDMDL
