MODEL 1
REMARK minimizedAffinity -1.03293622
REMARK minimizedRMSD -1
REMARK  0 active torsions:
REMARK  status: ('A' for Active; 'I' for Inactive)
ROOT
ATOM      1  C1  BNZ d   1      -5.990  -4.795  -0.588  0.00  0.00     0.000 A 
ATOM      2  C2  BNZ d   1      -6.000  -3.449  -0.334  0.00  0.00     0.000 A 
ATOM      3  C3  BNZ d   1      -6.000  -2.544  -1.359  0.00  0.00     0.000 A 
ATOM      4  C4  BNZ d   1      -5.949  -2.984  -2.632  0.00  0.00     0.000 A 
ATOM      5  C5  BNZ d   1      -5.928  -4.338  -2.904  0.00  0.00     0.000 A 
ATOM      6  C6  BNZ d   1      -5.968  -5.246  -1.871  0.00  0.00     0.000 A 
ENDROOT
TORSDOF 0
ENDMDL
