MODEL 1
REMARK minimizedAffinity 1.15649104
REMARK minimizedRMSD -1
REMARK  0 active torsions:
REMARK  status: ('A' for Active; 'I' for Inactive)
ROOT
ATOM      1  C1  BNZ d   1      -0.002   1.939   3.867  0.00  0.00     0.000 A 
ATOM      2  C2  BNZ d   1       0.452   3.026   3.168  0.00  0.00     0.000 A 
ATOM      3  C3  BNZ d   1       1.536   2.923   2.342  0.00  0.00     0.000 A 
ATOM      4  C4  BNZ d   1       2.188   1.747   2.246  0.00  0.00     0.000 A 
ATOM      5  C5  BNZ d   1       1.748   0.645   2.952  0.00  0.00     0.000 A 
ATOM      6  C6  BNZ d   1       0.633   0.741   3.753  0.00  0.00     0.000 A 
ENDROOT
TORSDOF 0
ENDMDL
