MODEL 1
REMARK minimizedAffinity 1.00121641
REMARK minimizedRMSD -1
REMARK  0 active torsions:
REMARK  status: ('A' for Active; 'I' for Inactive)
ROOT
ATOM      1  C1  BNZ d   1       2.170   1.960  -1.779  0.00  0.00     0.000 A 
ATOM      2  C2  BNZ d   1       2.459   0.956  -2.664  0.00  0.00     0.000 A 
ATOM      3  C3  BNZ d   1       1.628  -0.122  -2.796  0.00  0.00     0.000 A 
ATOM      4  C4  BNZ d   1       0.532  -0.213  -2.015  0.00  0.00     0.000 A 
ATOM      5  C5  BNZ d   1       0.233   0.787  -1.111  0.00  0.00     0.000 A 
ATOM      6  C6  BNZ d   1       1.051   1.889  -1.009  0.00  0.00     0.000 A 
ENDROOT
TORSDOF 0
ENDMDL
