MODEL 1
REMARK minimizedAffinity -1.46685302
REMARK minimizedRMSD -1
REMARK  0 active torsions:
REMARK  status: ('A' for Active; 'I' for Inactive)
ROOT
ATOM      1  C1  BNZ d   1      -3.673  -5.998   0.217  0.00  0.00     0.000 A 
ATOM      2  C2  BNZ d   1      -3.691  -5.993   1.586  0.00  0.00     0.000 A 
ATOM      3  C3  BNZ d   1      -4.859  -5.803   2.271  0.00  0.00     0.000 A 
ATOM      4  C4  BNZ d   1      -5.999  -5.578   1.587  0.00  0.00     0.000 A 
ATOM      5  C5  BNZ d   1      -5.996  -5.570   0.206  0.00  0.00     0.000 A 
ATOM      6  C6  BNZ d   1      -4.826  -5.801  -0.480  0.00  0.00     0.000 A 
ENDROOT
TORSDOF 0
ENDMDL
