MODEL 1
REMARK minimizedAffinity -1.69536412
REMARK minimizedRMSD -1
REMARK  0 active torsions:
REMARK  status: ('A' for Active; 'I' for Inactive)
ROOT
ATOM      1  C1  BNZ d   1       1.519   0.326   3.257  0.00  0.00     0.000 A 
ATOM      2  C2  BNZ d   1       1.888   1.629   3.459  0.00  0.00     0.000 A 
ATOM      3  C3  BNZ d   1       0.947   2.617   3.547  0.00  0.00     0.000 A 
ATOM      4  C4  BNZ d   1      -0.357   2.306   3.393  0.00  0.00     0.000 A 
ATOM      5  C5  BNZ d   1      -0.743   0.998   3.180  0.00  0.00     0.000 A 
ATOM      6  C6  BNZ d   1       0.204   0.001   3.131  0.00  0.00     0.000 A 
ENDROOT
TORSDOF 0
ENDMDL
