MODEL 1
REMARK minimizedAffinity 3.16295457
REMARK minimizedRMSD -1
REMARK  0 active torsions:
REMARK  status: ('A' for Active; 'I' for Inactive)
ROOT
ATOM      1  C1  BNZ d   1       2.253   4.995  -5.236  0.00  0.00     0.000 A 
ATOM      2  C2  BNZ d   1       2.065   3.869  -5.993  0.00  0.00     0.000 A 
ATOM      3  C3  BNZ d   1       2.994   2.867  -6.000  0.00  0.00     0.000 A 
ATOM      4  C4  BNZ d   1       4.128   3.009  -5.283  0.00  0.00     0.000 A 
ATOM      5  C5  BNZ d   1       4.336   4.142  -4.522  0.00  0.00     0.000 A 
ATOM      6  C6  BNZ d   1       3.380   5.132  -4.487  0.00  0.00     0.000 A 
ENDROOT
TORSDOF 0
ENDMDL
