MODEL 1
REMARK minimizedAffinity 2.20194054
REMARK minimizedRMSD -1
REMARK  0 active torsions:
REMARK  status: ('A' for Active; 'I' for Inactive)
ROOT
ATOM      1  C1  BNZ d   1       2.957   3.018  -6.000  0.00  0.00     0.000 A 
ATOM      2  C2  BNZ d   1       2.135   4.104  -5.851  0.00  0.00     0.000 A 
ATOM      3  C3  BNZ d   1       2.602   5.264  -5.299  0.00  0.00     0.000 A 
ATOM      4  C4  BNZ d   1       3.876   5.325  -4.862  0.00  0.00     0.000 A 
ATOM      5  C5  BNZ d   1       4.714   4.236  -4.997  0.00  0.00     0.000 A 
ATOM      6  C6  BNZ d   1       4.252   3.082  -5.588  0.00  0.00     0.000 A 
ENDROOT
TORSDOF 0
ENDMDL
