MODEL 1
REMARK minimizedAffinity 5.04529285
REMARK minimizedRMSD -1
REMARK  0 active torsions:
REMARK  status: ('A' for Active; 'I' for Inactive)
ROOT
ATOM      1  C1  BNZ d   1       3.852   3.416  -4.012  0.00  0.00     0.000 A 
ATOM      2  C2  BNZ d   1       3.204   2.732  -3.018  0.00  0.00     0.000 A 
ATOM      3  C3  BNZ d   1       2.250   3.344  -2.254  0.00  0.00     0.000 A 
ATOM      4  C4  BNZ d   1       1.974   4.648  -2.458  0.00  0.00     0.000 A 
ATOM      5  C5  BNZ d   1       2.625   5.354  -3.450  0.00  0.00     0.000 A 
ATOM      6  C6  BNZ d   1       3.557   4.724  -4.243  0.00  0.00     0.000 A 
ENDROOT
TORSDOF 0
ENDMDL
