MODEL 1
REMARK minimizedAffinity 7.23650408
REMARK minimizedRMSD -1
REMARK  0 active torsions:
REMARK  status: ('A' for Active; 'I' for Inactive)
ROOT
ATOM      1  C1  BNZ d   1       0.239   0.976  -1.448  0.00  0.00     0.000 A 
ATOM      2  C2  BNZ d   1       0.085  -0.296  -1.932  0.00  0.00     0.000 A 
ATOM      3  C3  BNZ d   1       0.998  -0.831  -2.797  0.00  0.00     0.000 A 
ATOM      4  C4  BNZ d   1       2.042  -0.082  -3.207  0.00  0.00     0.000 A 
ATOM      5  C5  BNZ d   1       2.206   1.205  -2.735  0.00  0.00     0.000 A 
ATOM      6  C6  BNZ d   1       1.306   1.727  -1.835  0.00  0.00     0.000 A 
ENDROOT
TORSDOF 0
ENDMDL
