MODEL 1
REMARK minimizedAffinity 6.99710035
REMARK minimizedRMSD -1
REMARK  0 active torsions:
REMARK  status: ('A' for Active; 'I' for Inactive)
ROOT
ATOM      1  C1  BNZ d   1       1.374   4.877  -4.782  0.00  0.00     0.000 A 
ATOM      2  C2  BNZ d   1       2.110   4.806  -3.629  0.00  0.00     0.000 A 
ATOM      3  C3  BNZ d   1       3.419   4.414  -3.657  0.00  0.00     0.000 A 
ATOM      4  C4  BNZ d   1       3.979   4.055  -4.830  0.00  0.00     0.000 A 
ATOM      5  C5  BNZ d   1       3.248   4.112  -6.000  0.00  0.00     0.000 A 
ATOM      6  C6  BNZ d   1       1.941   4.544  -5.974  0.00  0.00     0.000 A 
ENDROOT
TORSDOF 0
ENDMDL
