MODEL 1
REMARK minimizedAffinity -2.62021279
REMARK minimizedRMSD -1
REMARK  0 active torsions:
REMARK  status: ('A' for Active; 'I' for Inactive)
ROOT
ATOM      1  C2' OXE d   1       0.422  -3.023  -3.056  0.00  0.00     0.078 C 
ATOM      2  C1' OXE d   1       2.499  -3.208  -1.178  0.00  0.00     0.078 C 
ATOM      3  C1  OXE d   1       1.363  -2.262  -0.879  0.00  0.00    -0.078 A 
ATOM      4  C2  OXE d   1       0.374  -2.143  -1.826  0.00  0.00    -0.078 A 
ATOM      5  C3  OXE d   1      -0.724  -1.325  -1.576  0.00  0.00     0.003 A 
ATOM      6  C4  OXE d   1      -0.755  -0.507  -0.440  0.00  0.00    -0.002 A 
ATOM      7  C5  OXE d   1       0.262  -0.583   0.518  0.00  0.00    -0.002 A 
ATOM      8  C6  OXE d   1       1.305  -1.484   0.334  0.00  0.00     0.003 A 
ENDROOT
TORSDOF 0
ENDMDL
