MODEL 1
REMARK minimizedAffinity -2.16911483
REMARK minimizedRMSD -1
REMARK  0 active torsions:
REMARK  status: ('A' for Active; 'I' for Inactive)
ROOT
ATOM      1  C2' OXE d   1       0.791   0.035  -1.040  0.00  0.00     0.078 C 
ATOM      2  C1' OXE d   1      -0.343  -0.631   1.440  0.00  0.00     0.078 C 
ATOM      3  C1  OXE d   1      -0.383   0.815   1.014  0.00  0.00    -0.078 A 
ATOM      4  C2  OXE d   1       0.216   1.140  -0.179  0.00  0.00    -0.078 A 
ATOM      5  C3  OXE d   1       0.160   2.450  -0.645  0.00  0.00     0.003 A 
ATOM      6  C4  OXE d   1      -0.365   3.467   0.162  0.00  0.00    -0.002 A 
ATOM      7  C5  OXE d   1      -0.944   3.165   1.399  0.00  0.00    -0.002 A 
ATOM      8  C6  OXE d   1      -0.999   1.841   1.820  0.00  0.00     0.003 A 
ENDROOT
TORSDOF 0
ENDMDL
