MODEL 1
REMARK minimizedAffinity -0.768045902
REMARK minimizedRMSD -1
REMARK  0 active torsions:
REMARK  status: ('A' for Active; 'I' for Inactive)
ROOT
ATOM      1  C2' OXE d   1       0.605  -1.153  -0.744  0.00  0.00     0.078 C 
ATOM      2  C1' OXE d   1       0.679   1.592  -1.323  0.00  0.00     0.078 C 
ATOM      3  C1  OXE d   1       0.122   1.170   0.014  0.00  0.00    -0.078 A 
ATOM      4  C2  OXE d   1       0.047  -0.178   0.270  0.00  0.00    -0.078 A 
ATOM      5  C3  OXE d   1      -0.407  -0.620   1.510  0.00  0.00     0.003 A 
ATOM      6  C4  OXE d   1      -0.931   0.288   2.438  0.00  0.00    -0.002 A 
ATOM      7  C5  OXE d   1      -0.900   1.663   2.181  0.00  0.00    -0.002 A 
ATOM      8  C6  OXE d   1      -0.339   2.122   0.994  0.00  0.00     0.003 A 
ENDROOT
TORSDOF 0
ENDMDL
