MODEL 1
REMARK minimizedAffinity -3.5422039
REMARK minimizedRMSD -1
REMARK  0 active torsions:
REMARK  status: ('A' for Active; 'I' for Inactive)
ROOT
ATOM      1  C2' OXE d   1       0.894  -0.166  -0.915  0.00  0.00     0.078 C 
ATOM      2  C1' OXE d   1      -0.197  -1.004   1.532  0.00  0.00     0.078 C 
ATOM      3  C1  OXE d   1      -0.406   0.433   1.124  0.00  0.00    -0.078 A 
ATOM      4  C2  OXE d   1       0.171   0.846  -0.053  0.00  0.00    -0.078 A 
ATOM      5  C3  OXE d   1      -0.037   2.147  -0.503  0.00  0.00     0.003 A 
ATOM      6  C4  OXE d   1      -0.698   3.080   0.306  0.00  0.00    -0.002 A 
ATOM      7  C5  OXE d   1      -1.259   2.689   1.526  0.00  0.00    -0.002 A 
ATOM      8  C6  OXE d   1      -1.159   1.362   1.929  0.00  0.00     0.003 A 
ENDROOT
TORSDOF 0
ENDMDL
