MODEL 1
REMARK minimizedAffinity -3.90287995
REMARK minimizedRMSD -1
REMARK  0 active torsions:
REMARK  status: ('A' for Active; 'I' for Inactive)
ROOT
ATOM      1  C2' OXE d   1       0.713  -0.451  -0.696  0.00  0.00     0.078 C 
ATOM      2  C1' OXE d   1      -0.290  -0.949   1.878  0.00  0.00     0.078 C 
ATOM      3  C1  OXE d   1      -0.566   0.401   1.264  0.00  0.00    -0.078 A 
ATOM      4  C2  OXE d   1      -0.032   0.652   0.024  0.00  0.00    -0.078 A 
ATOM      5  C3  OXE d   1      -0.302   1.861  -0.611  0.00  0.00     0.003 A 
ATOM      6  C4  OXE d   1      -0.983   2.880   0.065  0.00  0.00    -0.002 A 
ATOM      7  C5  OXE d   1      -1.502   2.659   1.346  0.00  0.00    -0.002 A 
ATOM      8  C6  OXE d   1      -1.339   1.413   1.941  0.00  0.00     0.003 A 
ENDROOT
TORSDOF 0
ENDMDL
