MODEL 1
REMARK minimizedAffinity -1.39247239
REMARK minimizedRMSD -1
REMARK  0 active torsions:
REMARK  status: ('A' for Active; 'I' for Inactive)
ROOT
ATOM      1  C2' OXE d   1       0.398  -1.184  -0.685  0.00  0.00     0.078 C 
ATOM      2  C1' OXE d   1       0.200   1.615  -0.731  0.00  0.00     0.078 C 
ATOM      3  C1  OXE d   1      -0.379   0.889   0.457  0.00  0.00    -0.078 A 
ATOM      4  C2  OXE d   1      -0.319  -0.484   0.449  0.00  0.00    -0.078 A 
ATOM      5  C3  OXE d   1      -0.790  -1.201   1.546  0.00  0.00     0.003 A 
ATOM      6  C4  OXE d   1      -1.461  -0.546   2.585  0.00  0.00    -0.002 A 
ATOM      7  C5  OXE d   1      -1.569   0.848   2.594  0.00  0.00    -0.002 A 
ATOM      8  C6  OXE d   1      -0.997   1.582   1.560  0.00  0.00     0.003 A 
ENDROOT
TORSDOF 0
ENDMDL
