MODEL 1
REMARK minimizedAffinity -2.847054
REMARK minimizedRMSD -1
REMARK  0 active torsions:
REMARK  status: ('A' for Active; 'I' for Inactive)
ROOT
ATOM      1  C2' OXE d   1       0.667  -0.267  -0.614  0.00  0.00     0.078 C 
ATOM      2  C1' OXE d   1      -0.638  -0.625   1.845  0.00  0.00     0.078 C 
ATOM      3  C1  OXE d   1      -0.480   0.784   1.331  0.00  0.00    -0.078 A 
ATOM      4  C2  OXE d   1       0.201   0.954   0.150  0.00  0.00    -0.078 A 
ATOM      5  C3  OXE d   1       0.328   2.228  -0.397  0.00  0.00     0.003 A 
ATOM      6  C4  OXE d   1      -0.097   3.352   0.321  0.00  0.00    -0.002 A 
ATOM      7  C5  OXE d   1      -0.757   3.205   1.546  0.00  0.00    -0.002 A 
ATOM      8  C6  OXE d   1      -0.994   1.928   2.043  0.00  0.00     0.003 A 
ENDROOT
TORSDOF 0
ENDMDL
