MODEL 1
REMARK minimizedAffinity -0.788106441
REMARK minimizedRMSD -1
REMARK  0 active torsions:
REMARK  status: ('A' for Active; 'I' for Inactive)
ROOT
ATOM      1  C2' OXE d   1       0.993   0.606  -1.658  0.00  0.00     0.078 C 
ATOM      2  C1' OXE d   1       0.372  -0.581   0.809  0.00  0.00     0.078 C 
ATOM      3  C1  OXE d   1       0.400  -1.467  -0.411  0.00  0.00    -0.078 A 
ATOM      4  C2  OXE d   1       0.659  -0.870  -1.621  0.00  0.00    -0.078 A 
ATOM      5  C3  OXE d   1       0.752  -1.650  -2.769  0.00  0.00     0.003 A 
ATOM      6  C4  OXE d   1       0.432  -3.013  -2.728  0.00  0.00    -0.002 A 
ATOM      7  C5  OXE d   1       0.127  -3.634  -1.512  0.00  0.00    -0.002 A 
ATOM      8  C6  OXE d   1       0.148  -2.885  -0.341  0.00  0.00     0.003 A 
ENDROOT
TORSDOF 0
ENDMDL
