MODEL 1
REMARK minimizedAffinity -1.36918938
REMARK minimizedRMSD -1
REMARK  0 active torsions:
REMARK  status: ('A' for Active; 'I' for Inactive)
ROOT
ATOM      1  C2' OXE d   1       0.682  -0.597  -0.861  0.00  0.00     0.078 C 
ATOM      2  C1' OXE d   1       0.431   2.195  -1.003  0.00  0.00     0.078 C 
ATOM      3  C1  OXE d   1      -0.220   1.488   0.159  0.00  0.00    -0.078 A 
ATOM      4  C2  OXE d   1      -0.131   0.117   0.196  0.00  0.00    -0.078 A 
ATOM      5  C3  OXE d   1      -0.667  -0.580   1.275  0.00  0.00     0.003 A 
ATOM      6  C4  OXE d   1      -1.426   0.088   2.243  0.00  0.00    -0.002 A 
ATOM      7  C5  OXE d   1      -1.563   1.480   2.204  0.00  0.00    -0.002 A 
ATOM      8  C6  OXE d   1      -0.931   2.198   1.194  0.00  0.00     0.003 A 
ENDROOT
TORSDOF 0
ENDMDL
