MODEL 1
REMARK minimizedAffinity -4.7504015
REMARK minimizedRMSD -1
REMARK  0 active torsions:
REMARK  status: ('A' for Active; 'I' for Inactive)
ROOT
ATOM      1  C2' OXE d   1       0.839   2.105  -1.634  0.00  0.00     0.078 C 
ATOM      2  C1' OXE d   1       0.638  -0.459  -0.509  0.00  0.00     0.078 C 
ATOM      3  C1  OXE d   1       0.089   0.702   0.282  0.00  0.00    -0.078 A 
ATOM      4  C2  OXE d   1       0.233   1.958  -0.255  0.00  0.00    -0.078 A 
ATOM      5  C3  OXE d   1      -0.305   3.058   0.408  0.00  0.00     0.003 A 
ATOM      6  C4  OXE d   1      -0.855   2.914   1.688  0.00  0.00    -0.002 A 
ATOM      7  C5  OXE d   1      -0.976   1.648   2.271  0.00  0.00    -0.002 A 
ATOM      8  C6  OXE d   1      -0.549   0.529   1.564  0.00  0.00     0.003 A 
ENDROOT
TORSDOF 0
ENDMDL
