MODEL 1
REMARK minimizedAffinity -3.0303452
REMARK minimizedRMSD -1
REMARK  0 active torsions:
REMARK  status: ('A' for Active; 'I' for Inactive)
ROOT
ATOM      1  C2' OXE d   1      -0.954   0.065   2.078  0.00  0.00     0.078 C 
ATOM      2  C1' OXE d   1       0.311  -0.459  -0.373  0.00  0.00     0.078 C 
ATOM      3  C1  OXE d   1       0.069   0.982  -0.000  0.00  0.00    -0.078 A 
ATOM      4  C2  OXE d   1      -0.593   1.228   1.179  0.00  0.00    -0.078 A 
ATOM      5  C3  OXE d   1      -0.793   2.541   1.596  0.00  0.00     0.003 A 
ATOM      6  C4  OXE d   1      -0.465   3.610   0.754  0.00  0.00    -0.002 A 
ATOM      7  C5  OXE d   1       0.174   3.380  -0.470  0.00  0.00    -0.002 A 
ATOM      8  C6  OXE d   1       0.485   2.077  -0.841  0.00  0.00     0.003 A 
ENDROOT
TORSDOF 0
ENDMDL
