MODEL 1
REMARK minimizedAffinity -3.47780037
REMARK minimizedRMSD -1
REMARK  0 active torsions:
REMARK  status: ('A' for Active; 'I' for Inactive)
ROOT
ATOM      1  C2' OXE d   1      -0.685  -1.211   1.699  0.00  0.00     0.078 C 
ATOM      2  C1' OXE d   1       0.859  -1.121  -0.644  0.00  0.00     0.078 C 
ATOM      3  C1  OXE d   1       0.358   0.186  -0.080  0.00  0.00    -0.078 A 
ATOM      4  C2  OXE d   1      -0.435   0.129   1.040  0.00  0.00    -0.078 A 
ATOM      5  C3  OXE d   1      -0.878   1.308   1.632  0.00  0.00     0.003 A 
ATOM      6  C4  OXE d   1      -0.651   2.542   1.010  0.00  0.00    -0.002 A 
ATOM      7  C5  OXE d   1       0.121   2.619  -0.153  0.00  0.00    -0.002 A 
ATOM      8  C6  OXE d   1       0.668   1.457  -0.687  0.00  0.00     0.003 A 
ENDROOT
TORSDOF 0
ENDMDL
