MODEL 1
REMARK minimizedAffinity -3.10725188
REMARK minimizedRMSD -1
REMARK  0 active torsions:
REMARK  status: ('A' for Active; 'I' for Inactive)
ROOT
ATOM      1  C2' OXE d   1      -0.759   1.844   2.393  0.00  0.00     0.078 C 
ATOM      2  C1' OXE d   1       0.237   2.612  -0.117  0.00  0.00     0.078 C 
ATOM      3  C1  OXE d   1       0.393   1.168   0.290  0.00  0.00    -0.078 A 
ATOM      4  C2  OXE d   1      -0.055   0.811   1.539  0.00  0.00    -0.078 A 
ATOM      5  C3  OXE d   1       0.015  -0.519   1.943  0.00  0.00     0.003 A 
ATOM      6  C4  OXE d   1       0.676  -1.466   1.151  0.00  0.00    -0.002 A 
ATOM      7  C5  OXE d   1       1.175  -1.115  -0.107  0.00  0.00    -0.002 A 
ATOM      8  C6  OXE d   1       1.004   0.185  -0.570  0.00  0.00     0.003 A 
ENDROOT
TORSDOF 0
ENDMDL
