MODEL 1
REMARK minimizedAffinity -4.19545412
REMARK minimizedRMSD -1
REMARK  0 active torsions:
REMARK  status: ('A' for Active; 'I' for Inactive)
ROOT
ATOM      1  C2' OXE d   1      -1.898  -1.198   0.710  0.00  0.00     0.078 C 
ATOM      2  C1' OXE d   1       0.751  -0.586   1.411  0.00  0.00     0.078 C 
ATOM      3  C1  OXE d   1       0.511  -1.248   0.077  0.00  0.00    -0.078 A 
ATOM      4  C2  OXE d   1      -0.783  -1.587  -0.237  0.00  0.00    -0.078 A 
ATOM      5  C3  OXE d   1      -1.066  -2.150  -1.478  0.00  0.00     0.003 A 
ATOM      6  C4  OXE d   1      -0.029  -2.515  -2.344  0.00  0.00    -0.002 A 
ATOM      7  C5  OXE d   1       1.300  -2.215  -2.026  0.00  0.00    -0.002 A 
ATOM      8  C6  OXE d   1       1.583  -1.545  -0.841  0.00  0.00     0.003 A 
ENDROOT
TORSDOF 0
ENDMDL
