MODEL 1
REMARK minimizedAffinity -2.51366186
REMARK minimizedRMSD -1
REMARK  0 active torsions:
REMARK  status: ('A' for Active; 'I' for Inactive)
ROOT
ATOM      1  C2' OXE d   1      -0.940  -1.047   2.472  0.00  0.00     0.078 C 
ATOM      2  C1' OXE d   1      -0.268   1.578   1.739  0.00  0.00     0.078 C 
ATOM      3  C1  OXE d   1       0.166   0.460   0.824  0.00  0.00    -0.078 A 
ATOM      4  C2  OXE d   1      -0.127  -0.825   1.215  0.00  0.00    -0.078 A 
ATOM      5  C3  OXE d   1       0.203  -1.890   0.381  0.00  0.00     0.003 A 
ATOM      6  C4  OXE d   1       0.963  -1.677  -0.775  0.00  0.00    -0.002 A 
ATOM      7  C5  OXE d   1       1.306  -0.379  -1.170  0.00  0.00    -0.002 A 
ATOM      8  C6  OXE d   1       0.879   0.701  -0.405  0.00  0.00     0.003 A 
ENDROOT
TORSDOF 0
ENDMDL
