MODEL 1
REMARK minimizedAffinity -1.85637069
REMARK minimizedRMSD -1
REMARK  0 active torsions:
REMARK  status: ('A' for Active; 'I' for Inactive)
ROOT
ATOM      1  C2' OXE d   1      -0.090   0.168   0.173  0.00  0.00     0.078 C 
ATOM      2  C1' OXE d   1      -1.213   1.495   2.377  0.00  0.00     0.078 C 
ATOM      3  C1  OXE d   1      -0.687   2.337   1.242  0.00  0.00    -0.078 A 
ATOM      4  C2  OXE d   1      -0.097   1.681   0.189  0.00  0.00    -0.078 A 
ATOM      5  C3  OXE d   1       0.356   2.407  -0.909  0.00  0.00     0.003 A 
ATOM      6  C4  OXE d   1       0.355   3.807  -0.882  0.00  0.00    -0.002 A 
ATOM      7  C5  OXE d   1      -0.205   4.496   0.199  0.00  0.00    -0.002 A 
ATOM      8  C6  OXE d   1      -0.768   3.777   1.247  0.00  0.00     0.003 A 
ENDROOT
TORSDOF 0
ENDMDL
