MODEL 1
REMARK minimizedAffinity 8.72560501
REMARK minimizedRMSD -1
REMARK  0 active torsions:
REMARK  status: ('A' for Active; 'I' for Inactive)
ROOT
ATOM      1  C   UNL d   1       2.071  -2.651   3.862  0.00  0.00     0.078 C 
ATOM      2  C1  UNL d   1       3.437  -3.037   4.346  0.00  0.00    -0.077 A 
ATOM      3  C2  UNL d   1       4.142  -2.223   5.240  0.00  0.00    -0.001 A 
ATOM      4  C3  UNL d   1       5.417  -2.590   5.675  0.00  0.00     0.003 A 
ATOM      5  C4  UNL d   1       5.998  -3.771   5.219  0.00  0.00    -0.005 A 
ATOM      6  C5  UNL d   1       5.305  -4.587   4.327  0.00  0.00     0.003 A 
ATOM      7  C6  UNL d   1       4.030  -4.222   3.891  0.00  0.00    -0.001 A 
ENDROOT
TORSDOF 0
ENDMDL
