MODEL 1
REMARK minimizedAffinity 12.1586514
REMARK minimizedRMSD -1
REMARK  0 active torsions:
REMARK  status: ('A' for Active; 'I' for Inactive)
ROOT
ATOM      1  C   UNL d   1      -1.278  -3.559  -6.000  0.00  0.00     0.078 C 
ATOM      2  C1  UNL d   1      -0.366  -2.576  -5.328  0.00  0.00    -0.077 A 
ATOM      3  C2  UNL d   1      -0.867  -1.395  -4.767  0.00  0.00    -0.001 A 
ATOM      4  C3  UNL d   1      -0.005  -0.485  -4.153  0.00  0.00     0.003 A 
ATOM      5  C4  UNL d   1       1.363  -0.746  -4.095  0.00  0.00    -0.005 A 
ATOM      6  C5  UNL d   1       1.870  -1.918  -4.653  0.00  0.00     0.003 A 
ATOM      7  C6  UNL d   1       1.010  -2.829  -5.267  0.00  0.00    -0.001 A 
ENDROOT
TORSDOF 0
ENDMDL
