MODEL 1
REMARK minimizedAffinity 6.96813202
REMARK minimizedRMSD -1
REMARK  0 active torsions:
REMARK  status: ('A' for Active; 'I' for Inactive)
ROOT
ATOM      1  C   UNL d   1       4.193   0.985   4.309  0.00  0.00     0.078 C 
ATOM      2  C1  UNL d   1       3.847  -0.461   4.505  0.00  0.00    -0.077 A 
ATOM      3  C2  UNL d   1       2.643  -0.986   4.022  0.00  0.00    -0.001 A 
ATOM      4  C3  UNL d   1       2.330  -2.332   4.220  0.00  0.00     0.003 A 
ATOM      5  C4  UNL d   1       3.216  -3.163   4.903  0.00  0.00    -0.005 A 
ATOM      6  C5  UNL d   1       4.416  -2.649   5.390  0.00  0.00     0.003 A 
ATOM      7  C6  UNL d   1       4.730  -1.303   5.192  0.00  0.00    -0.001 A 
ENDROOT
TORSDOF 0
ENDMDL
