MODEL 1
REMARK minimizedAffinity 15.0634708
REMARK minimizedRMSD -1
REMARK  0 active torsions:
REMARK  status: ('A' for Active; 'I' for Inactive)
ROOT
ATOM      1  C   UNL d   1      -0.820  -2.531  -1.768  0.00  0.00     0.078 C 
ATOM      2  C1  UNL d   1      -0.535  -1.757  -3.021  0.00  0.00    -0.077 A 
ATOM      3  C2  UNL d   1      -1.180  -2.070  -4.223  0.00  0.00    -0.001 A 
ATOM      4  C3  UNL d   1      -0.897  -1.348  -5.384  0.00  0.00     0.003 A 
ATOM      5  C4  UNL d   1       0.031  -0.309  -5.354  0.00  0.00    -0.005 A 
ATOM      6  C5  UNL d   1       0.680   0.007  -4.162  0.00  0.00     0.003 A 
ATOM      7  C6  UNL d   1       0.399  -0.714  -3.000  0.00  0.00    -0.001 A 
ENDROOT
TORSDOF 0
ENDMDL
