MODEL 1
REMARK minimizedAffinity 7.74078083
REMARK minimizedRMSD -1
REMARK  0 active torsions:
REMARK  status: ('A' for Active; 'I' for Inactive)
ROOT
ATOM      1  C   UNL d   1      -2.343  -1.847   0.576  0.00  0.00     0.078 C 
ATOM      2  C1  UNL d   1      -3.094  -0.560   0.414  0.00  0.00    -0.077 A 
ATOM      3  C2  UNL d   1      -3.011   0.450   1.380  0.00  0.00    -0.001 A 
ATOM      4  C3  UNL d   1      -3.724   1.640   1.221  0.00  0.00     0.003 A 
ATOM      5  C4  UNL d   1      -4.527   1.830   0.098  0.00  0.00    -0.005 A 
ATOM      6  C5  UNL d   1      -4.617   0.829  -0.868  0.00  0.00     0.003 A 
ATOM      7  C6  UNL d   1      -3.905  -0.361  -0.710  0.00  0.00    -0.001 A 
ENDROOT
TORSDOF 0
ENDMDL
