MODEL 1
REMARK minimizedAffinity 3.43417215
REMARK minimizedRMSD -1
REMARK  0 active torsions:
REMARK  status: ('A' for Active; 'I' for Inactive)
ROOT
ATOM      1  C   UNL d   1       2.753  -0.243  -3.561  0.00  0.00     0.078 C 
ATOM      2  C1  UNL d   1       1.366  -0.750  -3.300  0.00  0.00    -0.077 A 
ATOM      3  C2  UNL d   1       1.058  -1.428  -2.115  0.00  0.00    -0.001 A 
ATOM      4  C3  UNL d   1      -0.235  -1.904  -1.890  0.00  0.00     0.003 A 
ATOM      5  C4  UNL d   1      -1.230  -1.707  -2.846  0.00  0.00    -0.005 A 
ATOM      6  C5  UNL d   1      -0.931  -1.035  -4.029  0.00  0.00     0.003 A 
ATOM      7  C6  UNL d   1       0.361  -0.559  -4.256  0.00  0.00    -0.001 A 
ENDROOT
TORSDOF 0
ENDMDL
