MODEL 1
REMARK minimizedAffinity 8.97097969
REMARK minimizedRMSD -1
REMARK  0 active torsions:
REMARK  status: ('A' for Active; 'I' for Inactive)
ROOT
ATOM      1  C   UNL d   1      -0.397  -1.216  -4.182  0.00  0.00     0.078 C 
ATOM      2  C1  UNL d   1      -0.969  -2.581  -4.425  0.00  0.00    -0.077 A 
ATOM      3  C2  UNL d   1      -1.520  -3.329  -3.377  0.00  0.00    -0.001 A 
ATOM      4  C3  UNL d   1      -2.040  -4.602  -3.616  0.00  0.00     0.003 A 
ATOM      5  C4  UNL d   1      -2.014  -5.139  -4.902  0.00  0.00    -0.005 A 
ATOM      6  C5  UNL d   1      -1.466  -4.403  -5.950  0.00  0.00     0.003 A 
ATOM      7  C6  UNL d   1      -0.945  -3.130  -5.713  0.00  0.00    -0.001 A 
ENDROOT
TORSDOF 0
ENDMDL
