MODEL 1
REMARK minimizedAffinity 14.2718248
REMARK minimizedRMSD -1
REMARK  0 active torsions:
REMARK  status: ('A' for Active; 'I' for Inactive)
ROOT
ATOM      1  C   UNL d   1       2.897   0.069   4.112  0.00  0.00     0.078 C 
ATOM      2  C1  UNL d   1       1.708  -0.268   3.263  0.00  0.00    -0.077 A 
ATOM      3  C2  UNL d   1       1.574  -1.534   2.679  0.00  0.00    -0.001 A 
ATOM      4  C3  UNL d   1       0.467  -1.831   1.883  0.00  0.00     0.003 A 
ATOM      5  C4  UNL d   1      -0.515  -0.867   1.662  0.00  0.00    -0.005 A 
ATOM      6  C5  UNL d   1      -0.390   0.396   2.237  0.00  0.00     0.003 A 
ATOM      7  C6  UNL d   1       0.717   0.695   3.033  0.00  0.00    -0.001 A 
ENDROOT
TORSDOF 0
ENDMDL
