MODEL 1
REMARK minimizedAffinity 15.597681
REMARK minimizedRMSD -1
REMARK  0 active torsions:
REMARK  status: ('A' for Active; 'I' for Inactive)
ROOT
ATOM      1  C   UNL d   1      -1.580  -2.653  -1.134  0.00  0.00     0.078 C 
ATOM      2  C1  UNL d   1      -0.986  -2.040  -2.367  0.00  0.00    -0.077 A 
ATOM      3  C2  UNL d   1      -1.574  -2.232  -3.623  0.00  0.00    -0.001 A 
ATOM      4  C3  UNL d   1      -1.004  -1.664  -4.763  0.00  0.00     0.003 A 
ATOM      5  C4  UNL d   1       0.157  -0.900  -4.659  0.00  0.00    -0.005 A 
ATOM      6  C5  UNL d   1       0.750  -0.705  -3.413  0.00  0.00     0.003 A 
ATOM      7  C6  UNL d   1       0.182  -1.273  -2.272  0.00  0.00    -0.001 A 
ENDROOT
TORSDOF 0
ENDMDL
