MODEL 1
REMARK minimizedAffinity -0.51399976
REMARK minimizedRMSD -1
REMARK  0 active torsions:
REMARK  status: ('A' for Active; 'I' for Inactive)
ROOT
ATOM      1  C   UNL d   1       4.131  -3.036   6.000  0.00  0.00     0.078 C 
ATOM      2  C1  UNL d   1       3.166  -2.404   5.041  0.00  0.00    -0.077 A 
ATOM      3  C2  UNL d   1       2.090  -3.132   4.517  0.00  0.00    -0.001 A 
ATOM      4  C3  UNL d   1       1.206  -2.534   3.617  0.00  0.00     0.003 A 
ATOM      5  C4  UNL d   1       1.388  -1.207   3.233  0.00  0.00    -0.005 A 
ATOM      6  C5  UNL d   1       2.457  -0.476   3.748  0.00  0.00     0.003 A 
ATOM      7  C6  UNL d   1       3.343  -1.072   4.647  0.00  0.00    -0.001 A 
ENDROOT
TORSDOF 0
ENDMDL
