MODEL 1
REMARK minimizedAffinity 3.87016129
REMARK minimizedRMSD -1
REMARK  0 active torsions:
REMARK  status: ('A' for Active; 'I' for Inactive)
ROOT
ATOM      1  C   UNL d   1      -2.237  -4.866  -5.125  0.00  0.00     0.078 C 
ATOM      2  C1  UNL d   1      -1.551  -3.539  -4.995  0.00  0.00    -0.077 A 
ATOM      3  C2  UNL d   1      -0.698  -3.066  -6.000  0.00  0.00    -0.001 A 
ATOM      4  C3  UNL d   1      -0.059  -1.833  -5.861  0.00  0.00     0.003 A 
ATOM      5  C4  UNL d   1      -0.264  -1.063  -4.718  0.00  0.00    -0.005 A 
ATOM      6  C5  UNL d   1      -1.110  -1.526  -3.712  0.00  0.00     0.003 A 
ATOM      7  C6  UNL d   1      -1.750  -2.759  -3.849  0.00  0.00    -0.001 A 
ENDROOT
TORSDOF 0
ENDMDL
