MODEL 1
REMARK minimizedAffinity 3.8966856
REMARK minimizedRMSD -1
REMARK  0 active torsions:
REMARK  status: ('A' for Active; 'I' for Inactive)
ROOT
ATOM      1  C   UNL d   1       1.125   1.545   1.669  0.00  0.00     0.023 A 
ATOM      2  C1  UNL d   1       0.348   1.098   2.738  0.00  0.00     0.003 A 
ATOM      3  C2  UNL d   1      -1.046   1.131   2.651  0.00  0.00     0.048 A 
ATOM      4  C3  UNL d   1      -1.655   1.610   1.493  0.00  0.00     0.023 A 
ATOM      5  C4  UNL d   1      -0.882   2.058   0.420  0.00  0.00     0.048 A 
ATOM      6  C5  UNL d   1       0.511   2.024   0.512  0.00  0.00     0.003 A 
ATOM      7  I   UNL d   1      -3.729   1.660   1.361  0.00  0.00    -0.146 I 
ENDROOT
TORSDOF 0
ENDMDL
