MODEL 1
REMARK minimizedAffinity 6.06840706
REMARK minimizedRMSD -1
REMARK  0 active torsions:
REMARK  status: ('A' for Active; 'I' for Inactive)
ROOT
ATOM      1  C   UNL d   1       1.863  -3.218  -1.148  0.00  0.00     0.023 A 
ATOM      2  C1  UNL d   1       1.463  -2.970   0.165  0.00  0.00     0.003 A 
ATOM      3  C2  UNL d   1       1.332  -1.656   0.620  0.00  0.00     0.048 A 
ATOM      4  C3  UNL d   1       1.602  -0.595  -0.244  0.00  0.00     0.023 A 
ATOM      5  C4  UNL d   1       2.002  -0.839  -1.559  0.00  0.00     0.048 A 
ATOM      6  C5  UNL d   1       2.132  -2.154  -2.009  0.00  0.00     0.003 A 
ATOM      7  I   UNL d   1       1.408   1.361   0.430  0.00  0.00    -0.146 I 
ENDROOT
TORSDOF 0
ENDMDL
