MODEL 1
REMARK minimizedAffinity -1.94406688
REMARK minimizedRMSD -1
REMARK  0 active torsions:
REMARK  status: ('A' for Active; 'I' for Inactive)
ROOT
ATOM      1  C   UNL d   1       2.510   1.288   1.457  0.00  0.00     0.023 A 
ATOM      2  C1  UNL d   1       1.690   0.884   2.511  0.00  0.00     0.003 A 
ATOM      3  C2  UNL d   1       0.325   1.175   2.487  0.00  0.00     0.048 A 
ATOM      4  C3  UNL d   1      -0.215   1.870   1.405  0.00  0.00     0.023 A 
ATOM      5  C4  UNL d   1       0.601   2.276   0.348  0.00  0.00     0.048 A 
ATOM      6  C5  UNL d   1       1.966   1.983   0.377  0.00  0.00     0.003 A 
ATOM      7  I   UNL d   1      -2.247   2.304   1.366  0.00  0.00    -0.146 I 
ENDROOT
TORSDOF 0
ENDMDL
