MODEL 1
REMARK minimizedAffinity 4.162498
REMARK minimizedRMSD -1
REMARK  0 active torsions:
REMARK  status: ('A' for Active; 'I' for Inactive)
ROOT
ATOM      1  C   UNL d   1      -2.071   1.646   3.309  0.00  0.00     0.023 A 
ATOM      2  C1  UNL d   1      -2.284   2.094   2.005  0.00  0.00     0.003 A 
ATOM      3  C2  UNL d   1      -1.245   2.053   1.072  0.00  0.00     0.048 A 
ATOM      4  C3  UNL d   1       0.004   1.562   1.450  0.00  0.00     0.023 A 
ATOM      5  C4  UNL d   1       0.222   1.113   2.754  0.00  0.00     0.048 A 
ATOM      6  C5  UNL d   1      -0.819   1.157   3.683  0.00  0.00     0.003 A 
ATOM      7  I   UNL d   1       1.552   1.500   0.065  0.00  0.00    -0.146 I 
ENDROOT
TORSDOF 0
ENDMDL
