MODEL 1
REMARK minimizedAffinity 3.66804743
REMARK minimizedRMSD -1
REMARK  0 active torsions:
REMARK  status: ('A' for Active; 'I' for Inactive)
ROOT
ATOM      1  C   UNL d   1       2.584  -2.264  -0.179  0.00  0.00     0.023 A 
ATOM      2  C1  UNL d   1       1.224  -1.992  -0.027  0.00  0.00     0.003 A 
ATOM      3  C2  UNL d   1       0.778  -0.671   0.046  0.00  0.00     0.048 A 
ATOM      4  C3  UNL d   1       1.698   0.374  -0.035  0.00  0.00     0.023 A 
ATOM      5  C4  UNL d   1       3.059   0.108  -0.188  0.00  0.00     0.048 A 
ATOM      6  C5  UNL d   1       3.500  -1.215  -0.260  0.00  0.00     0.003 A 
ATOM      7  I   UNL d   1       1.037   2.342   0.072  0.00  0.00    -0.146 I 
ENDROOT
TORSDOF 0
ENDMDL
