MODEL 1
REMARK minimizedAffinity 5.97551203
REMARK minimizedRMSD -1
REMARK  0 active torsions:
REMARK  status: ('A' for Active; 'I' for Inactive)
ROOT
ATOM      1  C   UNL d   1       2.255  -2.319  -0.337  0.00  0.00     0.023 A 
ATOM      2  C1  UNL d   1       0.898  -2.018  -0.220  0.00  0.00     0.003 A 
ATOM      3  C2  UNL d   1       0.487  -0.696  -0.039  0.00  0.00     0.048 A 
ATOM      4  C3  UNL d   1       1.439   0.321   0.023  0.00  0.00     0.023 A 
ATOM      5  C4  UNL d   1       2.798   0.026  -0.096  0.00  0.00     0.048 A 
ATOM      6  C5  UNL d   1       3.204  -1.298  -0.275  0.00  0.00     0.003 A 
ATOM      7  I   UNL d   1       0.830   2.290   0.291  0.00  0.00    -0.146 I 
ENDROOT
TORSDOF 0
ENDMDL
