MODEL 1
REMARK minimizedAffinity 4.14394569
REMARK minimizedRMSD -1
REMARK  0 active torsions:
REMARK  status: ('A' for Active; 'I' for Inactive)
ROOT
ATOM      1  C   UNL d   1       6.000   2.189  -1.320  0.00  0.00     0.023 A 
ATOM      2  C1  UNL d   1       5.111   1.749  -2.301  0.00  0.00     0.003 A 
ATOM      3  C2  UNL d   1       4.142   0.793  -1.990  0.00  0.00     0.048 A 
ATOM      4  C3  UNL d   1       4.067   0.281  -0.695  0.00  0.00     0.023 A 
ATOM      5  C4  UNL d   1       4.953   0.719   0.290  0.00  0.00     0.048 A 
ATOM      6  C5  UNL d   1       5.921   1.674  -0.026  0.00  0.00     0.003 A 
ATOM      7  I   UNL d   1       2.625  -1.141  -0.229  0.00  0.00    -0.146 I 
ENDROOT
TORSDOF 0
ENDMDL
