MODEL 1
REMARK minimizedAffinity 3.15726471
REMARK minimizedRMSD -1
REMARK  0 active torsions:
REMARK  status: ('A' for Active; 'I' for Inactive)
ROOT
ATOM      1  C   UNL d   1      -1.454  -0.136   1.442  0.00  0.00    -0.002 A 
ATOM      2  C1  UNL d   1      -2.051  -0.270   0.197  0.00  0.00     0.010 A 
ATOM      3  C2  UNL d   1      -1.277  -0.260  -0.966  0.00  0.00     0.041 A 
ATOM      4  C3  UNL d   1       0.119  -0.114  -0.854  0.00  0.00    -0.075 A 
ATOM      5  S   UNL d   1       1.267  -0.075  -2.140  0.00  0.00     0.015 SA
ATOM      6  C4  UNL d   1       2.576   0.120  -1.066  0.00  0.00     0.022 A 
ATOM      7  C5  UNL d   1       2.166   0.156   0.246  0.00  0.00     0.026 A 
ATOM      8  C6  UNL d   1       0.743   0.022   0.390  0.00  0.00    -0.082 A 
ATOM      9  C7  UNL d   1      -0.069   0.009   1.549  0.00  0.00     0.045 A 
ENDROOT
TORSDOF 0
ENDMDL
