MODEL 1
REMARK minimizedAffinity 4.67859507
REMARK minimizedRMSD -1
REMARK  0 active torsions:
REMARK  status: ('A' for Active; 'I' for Inactive)
ROOT
ATOM      1  C   UNL d   1       1.891  -3.789   1.991  0.00  0.00    -0.002 A 
ATOM      2  C1  UNL d   1       0.833  -4.093   2.836  0.00  0.00     0.010 A 
ATOM      3  C2  UNL d   1      -0.295  -3.271   2.885  0.00  0.00     0.041 A 
ATOM      4  C3  UNL d   1      -0.343  -2.130   2.061  0.00  0.00    -0.075 A 
ATOM      5  S   UNL d   1      -1.623  -0.980   1.952  0.00  0.00     0.015 SA
ATOM      6  C4  UNL d   1      -0.796  -0.059   0.781  0.00  0.00     0.022 A 
ATOM      7  C5  UNL d   1       0.428  -0.601   0.469  0.00  0.00     0.026 A 
ATOM      8  C6  UNL d   1       0.709  -1.804   1.201  0.00  0.00    -0.082 A 
ATOM      9  C7  UNL d   1       1.840  -2.656   1.175  0.00  0.00     0.045 A 
ENDROOT
TORSDOF 0
ENDMDL
