MODEL 1
REMARK minimizedAffinity 5.47500706
REMARK minimizedRMSD -1
REMARK  0 active torsions:
REMARK  status: ('A' for Active; 'I' for Inactive)
ROOT
ATOM      1  C   UNL d   1       0.895  -4.926   3.005  0.00  0.00    -0.002 A 
ATOM      2  C1  UNL d   1       0.771  -3.965   2.011  0.00  0.00     0.010 A 
ATOM      3  C2  UNL d   1       1.832  -3.701   1.142  0.00  0.00     0.041 A 
ATOM      4  C3  UNL d   1       3.030  -4.428   1.289  0.00  0.00    -0.075 A 
ATOM      5  S   UNL d   1       4.461  -4.275   0.339  0.00  0.00     0.015 SA
ATOM      6  C4  UNL d   1       5.270  -5.482   1.230  0.00  0.00     0.022 A 
ATOM      7  C5  UNL d   1       4.483  -5.999   2.231  0.00  0.00     0.026 A 
ATOM      8  C6  UNL d   1       3.179  -5.400   2.281  0.00  0.00    -0.082 A 
ATOM      9  C7  UNL d   1       2.086  -5.644   3.148  0.00  0.00     0.045 A 
ENDROOT
TORSDOF 0
ENDMDL
