MODEL 1
REMARK minimizedAffinity 8.85089397
REMARK minimizedRMSD -1
REMARK  0 active torsions:
REMARK  status: ('A' for Active; 'I' for Inactive)
ROOT
ATOM      1  C   UNL d   1       1.184  -3.777   2.365  0.00  0.00    -0.002 A 
ATOM      2  C1  UNL d   1       1.841  -3.528   1.169  0.00  0.00     0.010 A 
ATOM      3  C2  UNL d   1       1.487  -2.433   0.378  0.00  0.00     0.041 A 
ATOM      4  C3  UNL d   1       0.452  -1.583   0.816  0.00  0.00    -0.075 A 
ATOM      5  S   UNL d   1      -0.151  -0.181   0.013  0.00  0.00     0.015 SA
ATOM      6  C4  UNL d   1      -1.294   0.121   1.240  0.00  0.00     0.022 A 
ATOM      7  C5  UNL d   1      -1.231  -0.815   2.245  0.00  0.00     0.026 A 
ATOM      8  C6  UNL d   1      -0.223  -1.812   2.018  0.00  0.00    -0.082 A 
ATOM      9  C7  UNL d   1       0.159  -2.931   2.796  0.00  0.00     0.045 A 
ENDROOT
TORSDOF 0
ENDMDL
