MODEL 1
REMARK minimizedAffinity 1.75269973
REMARK minimizedRMSD -1
REMARK  0 active torsions:
REMARK  status: ('A' for Active; 'I' for Inactive)
ROOT
ATOM      1  C   UNL d   1       0.528  -3.175   2.629  0.00  0.00    -0.002 A 
ATOM      2  C1  UNL d   1       1.290  -3.335   1.481  0.00  0.00     0.010 A 
ATOM      3  C2  UNL d   1       1.222  -2.399   0.447  0.00  0.00     0.041 A 
ATOM      4  C3  UNL d   1       0.368  -1.288   0.588  0.00  0.00    -0.075 A 
ATOM      5  S   UNL d   1       0.123  -0.014  -0.547  0.00  0.00     0.015 SA
ATOM      6  C4  UNL d   1      -0.999   0.774   0.466  0.00  0.00     0.022 A 
ATOM      7  C5  UNL d   1      -1.194   0.095   1.645  0.00  0.00     0.026 A 
ATOM      8  C6  UNL d   1      -0.409  -1.104   1.736  0.00  0.00    -0.082 A 
ATOM      9  C7  UNL d   1      -0.318  -2.071   2.766  0.00  0.00     0.045 A 
ENDROOT
TORSDOF 0
ENDMDL
