MODEL 1
REMARK minimizedAffinity 5.26205015
REMARK minimizedRMSD -1
REMARK  0 active torsions:
REMARK  status: ('A' for Active; 'I' for Inactive)
ROOT
ATOM      1  C   UNL d   1      -0.269   0.985   0.662  0.00  0.00    -0.002 A 
ATOM      2  C1  UNL d   1      -1.567   0.866   0.186  0.00  0.00     0.010 A 
ATOM      3  C2  UNL d   1      -2.394  -0.168   0.630  0.00  0.00     0.041 A 
ATOM      4  C3  UNL d   1      -1.890  -1.087   1.572  0.00  0.00    -0.075 A 
ATOM      5  S   UNL d   1      -2.721  -2.432   2.259  0.00  0.00     0.015 SA
ATOM      6  C4  UNL d   1      -1.373  -2.879   3.201  0.00  0.00     0.022 A 
ATOM      7  C5  UNL d   1      -0.306  -2.034   3.008  0.00  0.00     0.026 A 
ATOM      8  C6  UNL d   1      -0.587  -0.987   2.066  0.00  0.00    -0.082 A 
ATOM      9  C7  UNL d   1       0.227   0.072   1.595  0.00  0.00     0.045 A 
ENDROOT
TORSDOF 0
ENDMDL
