MODEL 1
REMARK minimizedAffinity 1.20106089
REMARK minimizedRMSD -1
REMARK  0 active torsions:
REMARK  status: ('A' for Active; 'I' for Inactive)
ROOT
ATOM      1  C   UNL d   1       1.656   2.562  -2.785  0.00  0.00    -0.002 A 
ATOM      2  C1  UNL d   1       0.395   3.140  -2.750  0.00  0.00     0.010 A 
ATOM      3  C2  UNL d   1      -0.658   2.508  -2.085  0.00  0.00     0.041 A 
ATOM      4  C3  UNL d   1      -0.419   1.274  -1.448  0.00  0.00    -0.075 A 
ATOM      5  S   UNL d   1      -1.556   0.318  -0.573  0.00  0.00     0.015 SA
ATOM      6  C4  UNL d   1      -0.394  -0.879  -0.225  0.00  0.00     0.022 A 
ATOM      7  C5  UNL d   1       0.837  -0.574  -0.756  0.00  0.00     0.026 A 
ATOM      8  C6  UNL d   1       0.843   0.672  -1.470  0.00  0.00    -0.082 A 
ATOM      9  C7  UNL d   1       1.889   1.338  -2.153  0.00  0.00     0.045 A 
ENDROOT
TORSDOF 0
ENDMDL
