MODEL 1
REMARK minimizedAffinity 3.5843792
REMARK minimizedRMSD -1
REMARK  0 active torsions:
REMARK  status: ('A' for Active; 'I' for Inactive)
ROOT
ATOM      1  C   UNL d   1      -3.115  -0.370   2.515  0.00  0.00     0.172 C 
ATOM      2  N   UNL d   1      -1.726  -0.515   2.882  0.00  0.00    -0.070 N 
ATOM      3  C1  UNL d   1      -0.766   0.455   2.769  0.00  0.00    -0.004 A 
ATOM      4  C2  UNL d   1       0.423  -0.075   3.223  0.00  0.00    -0.047 A 
ATOM      5  C3  UNL d   1       0.168  -1.408   3.622  0.00  0.00    -0.047 A 
ATOM      6  C4  UNL d   1      -1.170  -1.655   3.400  0.00  0.00    -0.004 A 
ENDROOT
TORSDOF 0
ENDMDL
