MODEL 1
REMARK minimizedAffinity 1.52135432
REMARK minimizedRMSD -1
REMARK  0 active torsions:
REMARK  status: ('A' for Active; 'I' for Inactive)
ROOT
ATOM      1  C   UNL d   1       4.128   1.404   3.148  0.00  0.00     0.172 C 
ATOM      2  N   UNL d   1       4.092   2.781   2.715  0.00  0.00    -0.070 N 
ATOM      3  C1  UNL d   1       4.208   3.877   3.529  0.00  0.00    -0.004 A 
ATOM      4  C2  UNL d   1       4.124   5.002   2.737  0.00  0.00    -0.047 A 
ATOM      5  C3  UNL d   1       3.951   4.567   1.401  0.00  0.00    -0.047 A 
ATOM      6  C4  UNL d   1       3.935   3.188   1.417  0.00  0.00    -0.004 A 
ENDROOT
TORSDOF 0
ENDMDL
