MODEL 1
REMARK minimizedAffinity 8.96417236
REMARK minimizedRMSD -1
REMARK  0 active torsions:
REMARK  status: ('A' for Active; 'I' for Inactive)
ROOT
ATOM      1  C   UNL d   1       0.356  -3.015  -6.000  0.00  0.00     0.172 C 
ATOM      2  N   UNL d   1       1.112  -1.957  -5.372  0.00  0.00    -0.070 N 
ATOM      3  C1  UNL d   1       2.478  -1.878  -5.314  0.00  0.00    -0.004 A 
ATOM      4  C2  UNL d   1       2.806  -0.724  -4.634  0.00  0.00    -0.047 A 
ATOM      5  C3  UNL d   1       1.595  -0.089  -4.270  0.00  0.00    -0.047 A 
ATOM      6  C4  UNL d   1       0.562  -0.874  -4.739  0.00  0.00    -0.004 A 
ENDROOT
TORSDOF 0
ENDMDL
