MODEL 1
REMARK minimizedAffinity 2.60815024
REMARK minimizedRMSD -1
REMARK  0 active torsions:
REMARK  status: ('A' for Active; 'I' for Inactive)
ROOT
ATOM      1  C   UNL d   1       0.789   2.006   5.449  0.00  0.00     0.172 C 
ATOM      2  N   UNL d   1       0.732   0.959   4.456  0.00  0.00    -0.070 N 
ATOM      3  C1  UNL d   1       1.428  -0.220   4.497  0.00  0.00    -0.004 A 
ATOM      4  C2  UNL d   1       1.099  -0.944   3.372  0.00  0.00    -0.047 A 
ATOM      5  C3  UNL d   1       0.174  -0.174   2.628  0.00  0.00    -0.047 A 
ATOM      6  C4  UNL d   1      -0.036   0.999   3.322  0.00  0.00    -0.004 A 
ENDROOT
TORSDOF 0
ENDMDL
