MODEL 1
REMARK minimizedAffinity 2.61582947
REMARK minimizedRMSD -1
REMARK  0 active torsions:
REMARK  status: ('A' for Active; 'I' for Inactive)
ROOT
ATOM      1  C   UNL d   1       3.746   4.563   1.210  0.00  0.00     0.172 C 
ATOM      2  N   UNL d   1       4.505   4.916   2.387  0.00  0.00    -0.070 N 
ATOM      3  C1  UNL d   1       4.499   4.235   3.574  0.00  0.00    -0.004 A 
ATOM      4  C2  UNL d   1       5.350   4.887   4.440  0.00  0.00    -0.047 A 
ATOM      5  C3  UNL d   1       5.885   6.000   3.748  0.00  0.00    -0.047 A 
ATOM      6  C4  UNL d   1       5.345   5.994   2.479  0.00  0.00    -0.004 A 
ENDROOT
TORSDOF 0
ENDMDL
