MODEL 1
REMARK minimizedAffinity 4.45494843
REMARK minimizedRMSD -1
REMARK  0 active torsions:
REMARK  status: ('A' for Active; 'I' for Inactive)
ROOT
ATOM      1  C   UNL d   1       1.183  -2.812   4.336  0.00  0.00     0.172 C 
ATOM      2  N   UNL d   1       0.764  -1.721   3.489  0.00  0.00    -0.070 N 
ATOM      3  C1  UNL d   1      -0.491  -1.550   2.969  0.00  0.00    -0.004 A 
ATOM      4  C2  UNL d   1      -0.484  -0.394   2.219  0.00  0.00    -0.047 A 
ATOM      5  C3  UNL d   1       0.821   0.149   2.290  0.00  0.00    -0.047 A 
ATOM      6  C4  UNL d   1       1.573  -0.693   3.082  0.00  0.00    -0.004 A 
ENDROOT
TORSDOF 0
ENDMDL
