MODEL 1
REMARK minimizedAffinity 0.432789892
REMARK minimizedRMSD -1
REMARK  0 active torsions:
REMARK  status: ('A' for Active; 'I' for Inactive)
ROOT
ATOM      1  C   UNL d   1      -4.629   5.998  -2.595  0.00  0.00     0.023 A 
ATOM      2  C1  UNL d   1      -3.286   5.997  -2.216  0.00  0.00     0.003 A 
ATOM      3  C2  UNL d   1      -2.285   5.996  -3.189  0.00  0.00     0.048 A 
ATOM      4  C3  UNL d   1      -2.633   5.998  -4.540  0.00  0.00     0.023 A 
ATOM      5  C4  UNL d   1      -3.975   6.000  -4.923  0.00  0.00     0.048 A 
ATOM      6  C5  UNL d   1      -4.972   5.999  -3.947  0.00  0.00     0.003 A 
ATOM      7  I   UNL d   1      -1.144   5.997  -5.990  0.00  0.00    -0.146 I 
ENDROOT
TORSDOF 0
ENDMDL
