MODEL 1
REMARK minimizedAffinity 5.39169264
REMARK minimizedRMSD -1
REMARK  0 active torsions:
REMARK  status: ('A' for Active; 'I' for Inactive)
ROOT
ATOM      1  C   UNL d   1      -4.485  -1.741   2.226  0.00  0.00     0.023 A 
ATOM      2  C1  UNL d   1      -4.883  -1.799   3.562  0.00  0.00     0.003 A 
ATOM      3  C2  UNL d   1      -4.298  -0.950   4.504  0.00  0.00     0.048 A 
ATOM      4  C3  UNL d   1      -3.316  -0.044   4.103  0.00  0.00     0.023 A 
ATOM      5  C4  UNL d   1      -2.916   0.018   2.767  0.00  0.00     0.048 A 
ATOM      6  C5  UNL d   1      -3.503  -0.833   1.829  0.00  0.00     0.003 A 
ATOM      7  I   UNL d   1      -2.445   1.221   5.502  0.00  0.00    -0.146 I 
ENDROOT
TORSDOF 0
ENDMDL
