MODEL 1
REMARK minimizedAffinity 17.4120846
REMARK minimizedRMSD -1
REMARK  0 active torsions:
REMARK  status: ('A' for Active; 'I' for Inactive)
ROOT
ATOM      1  C   UNL d   1      -5.309   1.555   0.417  0.00  0.00     0.023 A 
ATOM      2  C1  UNL d   1      -5.223   0.164   0.373  0.00  0.00     0.003 A 
ATOM      3  C2  UNL d   1      -5.421  -0.511  -0.833  0.00  0.00     0.048 A 
ATOM      4  C3  UNL d   1      -5.704   0.211  -1.992  0.00  0.00     0.023 A 
ATOM      5  C4  UNL d   1      -5.791   1.604  -1.952  0.00  0.00     0.048 A 
ATOM      6  C5  UNL d   1      -5.593   2.275  -0.744  0.00  0.00     0.003 A 
ATOM      7  I   UNL d   1      -6.000  -0.791  -3.788  0.00  0.00    -0.146 I 
ENDROOT
TORSDOF 0
ENDMDL
