MODEL 1
REMARK minimizedAffinity 17.5500355
REMARK minimizedRMSD -1
REMARK  0 active torsions:
REMARK  status: ('A' for Active; 'I' for Inactive)
ROOT
ATOM      1  C   UNL d   1       0.329  -2.155   3.145  0.00  0.00     0.023 A 
ATOM      2  C1  UNL d   1       1.696  -2.134   3.425  0.00  0.00     0.003 A 
ATOM      3  C2  UNL d   1       2.532  -1.233   2.762  0.00  0.00     0.048 A 
ATOM      4  C3  UNL d   1       1.994  -0.356   1.821  0.00  0.00     0.023 A 
ATOM      5  C4  UNL d   1       0.628  -0.373   1.538  0.00  0.00     0.048 A 
ATOM      6  C5  UNL d   1      -0.204  -1.276   2.203  0.00  0.00     0.003 A 
ATOM      7  I   UNL d   1       3.236   0.986   0.833  0.00  0.00    -0.146 I 
ENDROOT
TORSDOF 0
ENDMDL
