MODEL 1
REMARK minimizedAffinity 14.3912811
REMARK minimizedRMSD -1
REMARK  0 active torsions:
REMARK  status: ('A' for Active; 'I' for Inactive)
ROOT
ATOM      1  C   UNL d   1      -1.589   0.013   3.692  0.00  0.00     0.023 A 
ATOM      2  C1  UNL d   1      -1.500   0.182   5.073  0.00  0.00     0.003 A 
ATOM      3  C2  UNL d   1      -2.410   1.007   5.737  0.00  0.00     0.048 A 
ATOM      4  C3  UNL d   1      -3.407   1.660   5.014  0.00  0.00     0.023 A 
ATOM      5  C4  UNL d   1      -3.501   1.493   3.631  0.00  0.00     0.048 A 
ATOM      6  C5  UNL d   1      -2.589   0.667   2.971  0.00  0.00     0.003 A 
ATOM      7  I   UNL d   1      -4.763   2.889   5.999  0.00  0.00    -0.146 I 
ENDROOT
TORSDOF 0
ENDMDL
