MODEL 1
REMARK minimizedAffinity 4.64057827
REMARK minimizedRMSD -1
REMARK  0 active torsions:
REMARK  status: ('A' for Active; 'I' for Inactive)
ROOT
ATOM      1  C   UNL d   1      -2.102   0.135   2.749  0.00  0.00     0.023 A 
ATOM      2  C1  UNL d   1      -1.676  -0.704   1.719  0.00  0.00     0.003 A 
ATOM      3  C2  UNL d   1      -0.504  -1.449   1.863  0.00  0.00     0.048 A 
ATOM      4  C3  UNL d   1       0.236  -1.352   3.040  0.00  0.00     0.023 A 
ATOM      5  C4  UNL d   1      -0.186  -0.515   4.074  0.00  0.00     0.048 A 
ATOM      6  C5  UNL d   1      -1.358   0.229   3.925  0.00  0.00     0.003 A 
ATOM      7  I   UNL d   1       1.981  -2.461   3.257  0.00  0.00    -0.146 I 
ENDROOT
TORSDOF 0
ENDMDL
