MODEL 1
REMARK minimizedAffinity 6.26795053
REMARK minimizedRMSD -1
REMARK  0 active torsions:
REMARK  status: ('A' for Active; 'I' for Inactive)
ROOT
ATOM      1  C   UNL d   1      -4.705  -3.370   2.107  0.00  0.00     0.023 A 
ATOM      2  C1  UNL d   1      -4.881  -2.746   3.342  0.00  0.00     0.003 A 
ATOM      3  C2  UNL d   1      -5.246  -3.499   4.460  0.00  0.00     0.048 A 
ATOM      4  C3  UNL d   1      -5.433  -4.875   4.336  0.00  0.00     0.023 A 
ATOM      5  C4  UNL d   1      -5.257  -5.504   3.103  0.00  0.00     0.048 A 
ATOM      6  C5  UNL d   1      -4.893  -4.747   1.987  0.00  0.00     0.003 A 
ATOM      7  I   UNL d   1      -5.976  -5.998   5.999  0.00  0.00    -0.146 I 
ENDROOT
TORSDOF 0
ENDMDL
