MODEL 1
REMARK minimizedAffinity 13.4239597
REMARK minimizedRMSD -1
REMARK  0 active torsions:
REMARK  status: ('A' for Active; 'I' for Inactive)
ROOT
ATOM      1  C   UNL d   1      -1.736   0.091   3.359  0.00  0.00     0.023 A 
ATOM      2  C1  UNL d   1      -2.545   0.080   2.223  0.00  0.00     0.003 A 
ATOM      3  C2  UNL d   1      -3.769   0.752   2.228  0.00  0.00     0.048 A 
ATOM      4  C3  UNL d   1      -4.177   1.436   3.373  0.00  0.00     0.023 A 
ATOM      5  C4  UNL d   1      -3.371   1.451   4.512  0.00  0.00     0.048 A 
ATOM      6  C5  UNL d   1      -2.149   0.776   4.502  0.00  0.00     0.003 A 
ATOM      7  I   UNL d   1      -5.998   2.438   3.383  0.00  0.00    -0.146 I 
ENDROOT
TORSDOF 0
ENDMDL
