MODEL 1
REMARK minimizedAffinity 6.12992859
REMARK minimizedRMSD -1
REMARK  0 active torsions:
REMARK  status: ('A' for Active; 'I' for Inactive)
ROOT
ATOM      1  C   UNL d   1      -2.337  -2.608   1.248  0.00  0.00     0.023 A 
ATOM      2  C1  UNL d   1      -1.336  -3.559   1.051  0.00  0.00     0.003 A 
ATOM      3  C2  UNL d   1      -0.039  -3.316   1.507  0.00  0.00     0.048 A 
ATOM      4  C3  UNL d   1       0.250  -2.118   2.160  0.00  0.00     0.023 A 
ATOM      5  C4  UNL d   1      -0.748  -1.164   2.361  0.00  0.00     0.048 A 
ATOM      6  C5  UNL d   1      -2.043  -1.411   1.903  0.00  0.00     0.003 A 
ATOM      7  I   UNL d   1       2.180  -1.753   2.840  0.00  0.00    -0.146 I 
ENDROOT
TORSDOF 0
ENDMDL
