MODEL 1
REMARK minimizedAffinity 6.31453705
REMARK minimizedRMSD -1
REMARK  0 active torsions:
REMARK  status: ('A' for Active; 'I' for Inactive)
ROOT
ATOM      1  C   UNL d   1      -3.828   5.744  -1.100  0.00  0.00     0.023 A 
ATOM      2  C1  UNL d   1      -2.613   5.742  -1.785  0.00  0.00     0.003 A 
ATOM      3  C2  UNL d   1      -2.596   5.812  -3.179  0.00  0.00     0.048 A 
ATOM      4  C3  UNL d   1      -3.798   5.885  -3.882  0.00  0.00     0.023 A 
ATOM      5  C4  UNL d   1      -5.016   5.888  -3.201  0.00  0.00     0.048 A 
ATOM      6  C5  UNL d   1      -5.028   5.816  -1.807  0.00  0.00     0.003 A 
ATOM      7  I   UNL d   1      -3.776   5.990  -5.958  0.00  0.00    -0.146 I 
ENDROOT
TORSDOF 0
ENDMDL
