MODEL 1
REMARK minimizedAffinity 12.8025932
REMARK minimizedRMSD -1
REMARK  0 active torsions:
REMARK  status: ('A' for Active; 'I' for Inactive)
ROOT
ATOM      1  C   UNL d   1      -1.409  -0.163   2.266  0.00  0.00     0.023 A 
ATOM      2  C1  UNL d   1      -2.100   0.962   2.717  0.00  0.00     0.003 A 
ATOM      3  C2  UNL d   1      -3.349   1.278   2.180  0.00  0.00     0.048 A 
ATOM      4  C3  UNL d   1      -3.903   0.464   1.192  0.00  0.00     0.023 A 
ATOM      5  C4  UNL d   1      -3.216  -0.662   0.738  0.00  0.00     0.048 A 
ATOM      6  C5  UNL d   1      -1.966  -0.974   1.277  0.00  0.00     0.003 A 
ATOM      7  I   UNL d   1      -5.763   0.932   0.391  0.00  0.00    -0.146 I 
ENDROOT
TORSDOF 0
ENDMDL
