MODEL 1
REMARK minimizedAffinity 17.3058376
REMARK minimizedRMSD -1
REMARK  0 active torsions:
REMARK  status: ('A' for Active; 'I' for Inactive)
ROOT
ATOM      1  C   UNL d   1      -3.016  -5.997  -5.993  0.00  0.00     0.023 A 
ATOM      2  C1  UNL d   1      -4.012  -5.370  -5.244  0.00  0.00     0.003 A 
ATOM      3  C2  UNL d   1      -3.674  -4.635  -4.107  0.00  0.00     0.048 A 
ATOM      4  C3  UNL d   1      -2.337  -4.528  -3.724  0.00  0.00     0.023 A 
ATOM      5  C4  UNL d   1      -1.337  -5.153  -4.470  0.00  0.00     0.048 A 
ATOM      6  C5  UNL d   1      -1.680  -5.889  -5.606  0.00  0.00     0.003 A 
ATOM      7  I   UNL d   1      -1.832  -3.433  -2.031  0.00  0.00    -0.146 I 
ENDROOT
TORSDOF 0
ENDMDL
