MODEL 1
REMARK minimizedAffinity 4.59664536
REMARK minimizedRMSD -1
REMARK  0 active torsions:
REMARK  status: ('A' for Active; 'I' for Inactive)
ROOT
ATOM      1  C   UNL d   1      -6.000  -5.647   4.515  0.00  0.00     0.023 A 
ATOM      2  C1  UNL d   1      -5.546  -4.578   5.288  0.00  0.00     0.003 A 
ATOM      3  C2  UNL d   1      -4.841  -3.531   4.690  0.00  0.00     0.048 A 
ATOM      4  C3  UNL d   1      -4.594  -3.560   3.318  0.00  0.00     0.023 A 
ATOM      5  C4  UNL d   1      -5.047  -4.626   2.540  0.00  0.00     0.048 A 
ATOM      6  C5  UNL d   1      -5.750  -5.671   3.143  0.00  0.00     0.003 A 
ATOM      7  I   UNL d   1      -3.545  -2.003   2.425  0.00  0.00    -0.146 I 
ENDROOT
TORSDOF 0
ENDMDL
