MODEL 1
REMARK minimizedAffinity 12.2243862
REMARK minimizedRMSD -1
REMARK  0 active torsions:
REMARK  status: ('A' for Active; 'I' for Inactive)
ROOT
ATOM      1  C   UNL d   1      -5.998   0.180  -3.365  0.00  0.00     0.023 A 
ATOM      2  C1  UNL d   1      -6.000  -1.008  -2.633  0.00  0.00     0.003 A 
ATOM      3  C2  UNL d   1      -5.993  -0.968  -1.237  0.00  0.00     0.048 A 
ATOM      4  C3  UNL d   1      -5.984   0.261  -0.580  0.00  0.00     0.023 A 
ATOM      5  C4  UNL d   1      -5.983   1.452  -1.308  0.00  0.00     0.048 A 
ATOM      6  C5  UNL d   1      -5.989   1.408  -2.704  0.00  0.00     0.003 A 
ATOM      7  I   UNL d   1      -5.974   0.322   1.498  0.00  0.00    -0.146 I 
ENDROOT
TORSDOF 0
ENDMDL
