MODEL 1
REMARK minimizedAffinity 12.021718
REMARK minimizedRMSD -1
REMARK  0 active torsions:
REMARK  status: ('A' for Active; 'I' for Inactive)
ROOT
ATOM      1  C   UNL d   1       3.871   3.372  -3.750  0.00  0.00     0.023 A 
ATOM      2  C1  UNL d   1       2.536   2.998  -3.905  0.00  0.00     0.003 A 
ATOM      3  C2  UNL d   1       1.525   3.751  -3.304  0.00  0.00     0.048 A 
ATOM      4  C3  UNL d   1       1.855   4.876  -2.551  0.00  0.00     0.023 A 
ATOM      5  C4  UNL d   1       3.190   5.255  -2.394  0.00  0.00     0.048 A 
ATOM      6  C5  UNL d   1       4.197   4.499  -2.996  0.00  0.00     0.003 A 
ATOM      7  I   UNL d   1       0.352   5.998  -1.656  0.00  0.00    -0.146 I 
ENDROOT
TORSDOF 0
ENDMDL
