MODEL 1
REMARK minimizedAffinity 10.8931684
REMARK minimizedRMSD -1
REMARK  0 active torsions:
REMARK  status: ('A' for Active; 'I' for Inactive)
ROOT
ATOM      1  C   UNL d   1      -4.725  -2.944   0.511  0.00  0.00     0.023 A 
ATOM      2  C1  UNL d   1      -4.308  -1.654   0.185  0.00  0.00     0.003 A 
ATOM      3  C2  UNL d   1      -3.050  -1.202   0.588  0.00  0.00     0.048 A 
ATOM      4  C3  UNL d   1      -2.213  -2.047   1.315  0.00  0.00     0.023 A 
ATOM      5  C4  UNL d   1      -2.625  -3.340   1.643  0.00  0.00     0.048 A 
ATOM      6  C5  UNL d   1      -3.885  -3.786   1.239  0.00  0.00     0.003 A 
ATOM      7  I   UNL d   1      -0.339  -1.378   1.915  0.00  0.00    -0.146 I 
ENDROOT
TORSDOF 0
ENDMDL
