MODEL 1
REMARK minimizedAffinity 11.7189159
REMARK minimizedRMSD -1
REMARK  0 active torsions:
REMARK  status: ('A' for Active; 'I' for Inactive)
ROOT
ATOM      1  C   UNL d   1       1.703   3.686  -2.455  0.00  0.00     0.023 A 
ATOM      2  C1  UNL d   1       2.443   4.814  -2.099  0.00  0.00     0.003 A 
ATOM      3  C2  UNL d   1       3.675   5.062  -2.706  0.00  0.00     0.048 A 
ATOM      4  C3  UNL d   1       4.162   4.180  -3.670  0.00  0.00     0.023 A 
ATOM      5  C4  UNL d   1       3.425   3.051  -4.031  0.00  0.00     0.048 A 
ATOM      6  C5  UNL d   1       2.193   2.806  -3.420  0.00  0.00     0.003 A 
ATOM      7  I   UNL d   1       5.996   4.548  -4.576  0.00  0.00    -0.146 I 
ENDROOT
TORSDOF 0
ENDMDL
