MODEL 1
REMARK minimizedAffinity 4.40685701
REMARK minimizedRMSD -1
REMARK  0 active torsions:
REMARK  status: ('A' for Active; 'I' for Inactive)
ROOT
ATOM      1  O1  BZF d   1       3.048  -1.715   0.844  0.00  0.00    -0.204 OA
ATOM      2  C2  BZF d   1       3.248  -0.435   1.324  0.00  0.00     0.174 A 
ATOM      3  C3  BZF d   1       2.070   0.189   1.530  0.00  0.00    -0.012 A 
ATOM      4  C3A BZF d   1       1.069  -0.793   1.243  0.00  0.00    -0.107 A 
ATOM      5  C4  BZF d   1      -0.296  -0.780   1.279  0.00  0.00     0.055 A 
ATOM      6  C5  BZF d   1      -0.977  -1.882   0.868  0.00  0.00    -0.016 A 
ATOM      7  C6  BZF d   1      -0.328  -3.009   0.410  0.00  0.00     0.022 A 
ATOM      8  C7  BZF d   1       1.025  -3.070   0.360  0.00  0.00     0.029 A 
ATOM      9  C7A BZF d   1       1.718  -1.971   0.806  0.00  0.00     0.058 A 
ENDROOT
TORSDOF 0
ENDMDL
