MODEL 1
REMARK minimizedAffinity 3.68173122
REMARK minimizedRMSD -1
REMARK  0 active torsions:
REMARK  status: ('A' for Active; 'I' for Inactive)
ROOT
ATOM      1  O1  BZF d   1       3.638  -1.719   0.368  0.00  0.00    -0.204 OA
ATOM      2  C2  BZF d   1       3.975  -0.742   1.285  0.00  0.00     0.174 A 
ATOM      3  C3  BZF d   1       2.872  -0.248   1.884  0.00  0.00    -0.012 A 
ATOM      4  C3A BZF d   1       1.785  -1.026   1.372  0.00  0.00    -0.107 A 
ATOM      5  C4  BZF d   1       0.439  -1.022   1.600  0.00  0.00     0.055 A 
ATOM      6  C5  BZF d   1      -0.355  -1.861   0.884  0.00  0.00    -0.016 A 
ATOM      7  C6  BZF d   1       0.163  -2.712  -0.070  0.00  0.00     0.022 A 
ATOM      8  C7  BZF d   1       1.493  -2.755  -0.329  0.00  0.00     0.029 A 
ATOM      9  C7A BZF d   1       2.301  -1.932   0.417  0.00  0.00     0.058 A 
ENDROOT
TORSDOF 0
ENDMDL
