MODEL 1
REMARK minimizedAffinity 8.22679424
REMARK minimizedRMSD -1
REMARK  0 active torsions:
REMARK  status: ('A' for Active; 'I' for Inactive)
ROOT
ATOM      1  O1  BZF d   1       2.387  -2.865  -0.362  0.00  0.00    -0.204 OA
ATOM      2  C2  BZF d   1       1.598  -3.903  -0.819  0.00  0.00     0.174 A 
ATOM      3  C3  BZF d   1       0.297  -3.667  -0.555  0.00  0.00    -0.012 A 
ATOM      4  C3A BZF d   1       0.262  -2.359   0.025  0.00  0.00    -0.107 A 
ATOM      5  C4  BZF d   1      -0.748  -1.562   0.483  0.00  0.00     0.055 A 
ATOM      6  C5  BZF d   1      -0.439  -0.370   1.058  0.00  0.00    -0.016 A 
ATOM      7  C6  BZF d   1       0.867   0.053   1.196  0.00  0.00     0.022 A 
ATOM      8  C7  BZF d   1       1.902  -0.701   0.752  0.00  0.00     0.029 A 
ATOM      9  C7A BZF d   1       1.591  -1.891   0.141  0.00  0.00     0.058 A 
ENDROOT
TORSDOF 0
ENDMDL
