MODEL 1
REMARK minimizedAffinity 13.9807987
REMARK minimizedRMSD -1
REMARK  0 active torsions:
REMARK  status: ('A' for Active; 'I' for Inactive)
ROOT
ATOM      1  O1  BZF d   1      -3.347  -5.978   4.193  0.00  0.00    -0.204 OA
ATOM      2  C2  BZF d   1      -4.142  -6.000   5.323  0.00  0.00     0.174 A 
ATOM      3  C3  BZF d   1      -5.247  -5.248   5.145  0.00  0.00    -0.012 A 
ATOM      4  C3A BZF d   1      -5.181  -4.797   3.789  0.00  0.00    -0.107 A 
ATOM      5  C4  BZF d   1      -6.000  -4.025   3.015  0.00  0.00     0.055 A 
ATOM      6  C5  BZF d   1      -5.611  -3.711   1.751  0.00  0.00    -0.016 A 
ATOM      7  C6  BZF d   1      -4.409  -4.146   1.232  0.00  0.00     0.022 A 
ATOM      8  C7  BZF d   1      -3.566  -4.919   1.959  0.00  0.00     0.029 A 
ATOM      9  C7A BZF d   1      -3.971  -5.265   3.225  0.00  0.00     0.058 A 
ENDROOT
TORSDOF 0
ENDMDL
