MODEL 1
REMARK minimizedAffinity -1.25715911
REMARK minimizedRMSD -1
REMARK  0 active torsions:
REMARK  status: ('A' for Active; 'I' for Inactive)
ROOT
ATOM      1  O1  BZF d   1       3.133  -1.864  -0.139  0.00  0.00    -0.204 OA
ATOM      2  C2  BZF d   1       3.383  -0.707   0.574  0.00  0.00     0.174 A 
ATOM      3  C3  BZF d   1       2.234  -0.178   1.044  0.00  0.00    -0.012 A 
ATOM      4  C3A BZF d   1       1.212  -1.109   0.674  0.00  0.00    -0.107 A 
ATOM      5  C4  BZF d   1      -0.138  -1.147   0.872  0.00  0.00     0.055 A 
ATOM      6  C5  BZF d   1      -0.858  -2.159   0.320  0.00  0.00    -0.016 A 
ATOM      7  C6  BZF d   1      -0.262  -3.144  -0.440  0.00  0.00     0.022 A 
ATOM      8  C7  BZF d   1       1.076  -3.151  -0.660  0.00  0.00     0.029 A 
ATOM      9  C7A BZF d   1       1.810  -2.148  -0.075  0.00  0.00     0.058 A 
ENDROOT
TORSDOF 0
ENDMDL
