MODEL 1
REMARK minimizedAffinity 3.02960777
REMARK minimizedRMSD -1
REMARK  0 active torsions:
REMARK  status: ('A' for Active; 'I' for Inactive)
ROOT
ATOM      1  O1  BZF d   1      -1.564  -1.868   0.790  0.00  0.00    -0.204 OA
ATOM      2  C2  BZF d   1      -1.127  -0.971   1.744  0.00  0.00     0.174 A 
ATOM      3  C3  BZF d   1       0.218  -0.992   1.841  0.00  0.00    -0.012 A 
ATOM      4  C3A BZF d   1       0.654  -1.897   0.822  0.00  0.00    -0.107 A 
ATOM      5  C4  BZF d   1       1.884  -2.325   0.409  0.00  0.00     0.055 A 
ATOM      6  C5  BZF d   1       1.962  -3.269  -0.565  0.00  0.00    -0.016 A 
ATOM      7  C6  BZF d   1       0.833  -3.810  -1.145  0.00  0.00     0.022 A 
ATOM      8  C7  BZF d   1      -0.409  -3.413  -0.772  0.00  0.00     0.029 A 
ATOM      9  C7A BZF d   1      -0.490  -2.435   0.189  0.00  0.00     0.058 A 
ENDROOT
TORSDOF 0
ENDMDL
