MODEL 1
REMARK minimizedAffinity 0.390273243
REMARK minimizedRMSD -1
REMARK  0 active torsions:
REMARK  status: ('A' for Active; 'I' for Inactive)
ROOT
ATOM      1  O1  BZF d   1      -5.725  -4.545   1.449  0.00  0.00    -0.204 OA
ATOM      2  C2  BZF d   1      -5.218  -3.276   1.247  0.00  0.00     0.174 A 
ATOM      3  C3  BZF d   1      -4.829  -2.724   2.415  0.00  0.00    -0.012 A 
ATOM      4  C3A BZF d   1      -5.025  -3.746   3.397  0.00  0.00    -0.107 A 
ATOM      5  C4  BZF d   1      -4.807  -3.808   4.744  0.00  0.00     0.055 A 
ATOM      6  C5  BZF d   1      -5.175  -4.927   5.422  0.00  0.00    -0.016 A 
ATOM      7  C6  BZF d   1      -5.767  -5.999   4.787  0.00  0.00     0.022 A 
ATOM      8  C7  BZF d   1      -5.999  -5.986   3.452  0.00  0.00     0.029 A 
ATOM      9  C7A BZF d   1      -5.598  -4.870   2.758  0.00  0.00     0.058 A 
ENDROOT
TORSDOF 0
ENDMDL
