MODEL 1
REMARK minimizedAffinity -2.19182539
REMARK minimizedRMSD -1
REMARK  0 active torsions:
REMARK  status: ('A' for Active; 'I' for Inactive)
ROOT
ATOM      1  O1  BZF d   1      -5.053  -5.318   2.221  0.00  0.00    -0.204 OA
ATOM      2  C2  BZF d   1      -5.245  -4.125   1.551  0.00  0.00     0.174 A 
ATOM      3  C3  BZF d   1      -5.646  -3.158   2.401  0.00  0.00    -0.012 A 
ATOM      4  C3A BZF d   1      -5.620  -3.762   3.698  0.00  0.00    -0.107 A 
ATOM      5  C4  BZF d   1      -5.899  -3.303   4.953  0.00  0.00     0.055 A 
ATOM      6  C5  BZF d   1      -5.845  -4.168   6.000  0.00  0.00    -0.016 A 
ATOM      7  C6  BZF d   1      -5.521  -5.498   5.827  0.00  0.00     0.022 A 
ATOM      8  C7  BZF d   1      -5.231  -5.998   4.601  0.00  0.00     0.029 A 
ATOM      9  C7A BZF d   1      -5.253  -5.119   3.546  0.00  0.00     0.058 A 
ENDROOT
TORSDOF 0
ENDMDL
