MODEL 1
REMARK minimizedAffinity 0.0242292844
REMARK minimizedRMSD -1
REMARK  0 active torsions:
REMARK  status: ('A' for Active; 'I' for Inactive)
ROOT
ATOM      1  O1  BZF d   1      -0.213  -3.848  -0.212  0.00  0.00    -0.204 OA
ATOM      2  C2  BZF d   1       0.819  -4.358  -0.976  0.00  0.00     0.174 A 
ATOM      3  C3  BZF d   1       1.814  -3.456  -1.099  0.00  0.00    -0.012 A 
ATOM      4  C3A BZF d   1       1.417  -2.345  -0.290  0.00  0.00    -0.107 A 
ATOM      5  C4  BZF d   1       1.996  -1.144   0.006  0.00  0.00     0.055 A 
ATOM      6  C5  BZF d   1       1.314  -0.252   0.771  0.00  0.00    -0.016 A 
ATOM      7  C6  BZF d   1       0.050  -0.525   1.251  0.00  0.00     0.022 A 
ATOM      8  C7  BZF d   1      -0.564  -1.704   0.988  0.00  0.00     0.029 A 
ATOM      9  C7A BZF d   1       0.136  -2.621   0.243  0.00  0.00     0.058 A 
ENDROOT
TORSDOF 0
ENDMDL
