MODEL 1
REMARK minimizedAffinity 5.96595955
REMARK minimizedRMSD -1
REMARK  0 active torsions:
REMARK  status: ('A' for Active; 'I' for Inactive)
ROOT
ATOM      1  O1  BZF d   1       0.019  -4.182  -0.077  0.00  0.00    -0.204 OA
ATOM      2  C2  BZF d   1      -0.808  -3.139   0.292  0.00  0.00     0.174 A 
ATOM      3  C3  BZF d   1      -0.092  -2.023   0.534  0.00  0.00    -0.012 A 
ATOM      4  C3A BZF d   1       1.260  -2.366   0.213  0.00  0.00    -0.107 A 
ATOM      5  C4  BZF d   1       2.435  -1.671   0.233  0.00  0.00     0.055 A 
ATOM      6  C5  BZF d   1       3.591  -2.319  -0.070  0.00  0.00    -0.016 A 
ATOM      7  C6  BZF d   1       3.608  -3.660  -0.392  0.00  0.00     0.022 A 
ATOM      8  C7  BZF d   1       2.467  -4.390  -0.431  0.00  0.00     0.029 A 
ATOM      9  C7A BZF d   1       1.293  -3.730  -0.157  0.00  0.00     0.058 A 
ENDROOT
TORSDOF 0
ENDMDL
