MODEL 1
REMARK minimizedAffinity 0.454385281
REMARK minimizedRMSD -1
REMARK  0 active torsions:
REMARK  status: ('A' for Active; 'I' for Inactive)
ROOT
ATOM      1  O1  BZF d   1       2.455  -2.462  -0.045  0.00  0.00    -0.204 OA
ATOM      2  C2  BZF d   1       1.712  -3.549  -0.465  0.00  0.00     0.174 A 
ATOM      3  C3  BZF d   1       0.399  -3.349  -0.231  0.00  0.00    -0.012 A 
ATOM      4  C3A BZF d   1       0.307  -2.019   0.288  0.00  0.00    -0.107 A 
ATOM      5  C4  BZF d   1      -0.739  -1.240   0.695  0.00  0.00     0.055 A 
ATOM      6  C5  BZF d   1      -0.483  -0.013   1.219  0.00  0.00    -0.016 A 
ATOM      7  C6  BZF d   1       0.804   0.465   1.355  0.00  0.00     0.022 A 
ATOM      8  C7  BZF d   1       1.873  -0.269   0.961  0.00  0.00     0.029 A 
ATOM      9  C7A BZF d   1       1.616  -1.497   0.401  0.00  0.00     0.058 A 
ENDROOT
TORSDOF 0
ENDMDL
