MODEL 1
REMARK minimizedAffinity 6.49879503
REMARK minimizedRMSD -1
REMARK  0 active torsions:
REMARK  status: ('A' for Active; 'I' for Inactive)
ROOT
ATOM      1  O1  BZF d   1       0.982  -3.800  -0.954  0.00  0.00    -0.204 OA
ATOM      2  C2  BZF d   1       2.292  -3.934  -0.536  0.00  0.00     0.174 A 
ATOM      3  C3  BZF d   1       2.600  -2.997   0.384  0.00  0.00    -0.012 A 
ATOM      4  C3A BZF d   1       1.380  -2.287   0.620  0.00  0.00    -0.107 A 
ATOM      5  C4  BZF d   1       1.041  -1.251   1.442  0.00  0.00     0.055 A 
ATOM      6  C5  BZF d   1      -0.218  -0.743   1.380  0.00  0.00    -0.016 A 
ATOM      7  C6  BZF d   1      -1.160  -1.243   0.504  0.00  0.00     0.022 A 
ATOM      8  C7  BZF d   1      -0.872  -2.273  -0.327  0.00  0.00     0.029 A 
ATOM      9  C7A BZF d   1       0.390  -2.811  -0.243  0.00  0.00     0.058 A 
ENDROOT
TORSDOF 0
ENDMDL
