MODEL 1
REMARK minimizedAffinity 2.13787103
REMARK minimizedRMSD -1
REMARK  0 active torsions:
REMARK  status: ('A' for Active; 'I' for Inactive)
ROOT
ATOM      1  O1  BZF d   1      -1.446  -0.859   0.623  0.00  0.00    -0.204 OA
ATOM      2  C2  BZF d   1      -0.975  -2.063   1.109  0.00  0.00     0.174 A 
ATOM      3  C3  BZF d   1      -0.805  -2.005   2.446  0.00  0.00    -0.012 A 
ATOM      4  C3A BZF d   1      -1.281  -0.712   2.830  0.00  0.00    -0.107 A 
ATOM      5  C4  BZF d   1      -1.387  -0.069   4.030  0.00  0.00     0.055 A 
ATOM      6  C5  BZF d   1      -1.826   1.217   4.054  0.00  0.00    -0.016 A 
ATOM      7  C6  BZF d   1      -2.161   1.892   2.899  0.00  0.00     0.022 A 
ATOM      8  C7  BZF d   1      -2.077   1.294   1.685  0.00  0.00     0.029 A 
ATOM      9  C7A BZF d   1      -1.666  -0.016   1.661  0.00  0.00     0.058 A 
ENDROOT
TORSDOF 0
ENDMDL
