MODEL 1
REMARK minimizedAffinity -3.59576511
REMARK minimizedRMSD -1
REMARK  0 active torsions:
REMARK  status: ('A' for Active; 'I' for Inactive)
ROOT
ATOM      1  O1  BZF d   1       1.741  -3.016  -0.063  0.00  0.00    -0.204 OA
ATOM      2  C2  BZF d   1       2.839  -2.277   0.333  0.00  0.00     0.174 A 
ATOM      3  C3  BZF d   1       2.465  -1.055   0.762  0.00  0.00    -0.012 A 
ATOM      4  C3A BZF d   1       1.035  -1.060   0.712  0.00  0.00    -0.107 A 
ATOM      5  C4  BZF d   1       0.081  -0.136   1.029  0.00  0.00     0.055 A 
ATOM      6  C5  BZF d   1      -1.225  -0.428   0.795  0.00  0.00    -0.016 A 
ATOM      7  C6  BZF d   1      -1.613  -1.631   0.241  0.00  0.00     0.022 A 
ATOM      8  C7  BZF d   1      -0.703  -2.581  -0.085  0.00  0.00     0.029 A 
ATOM      9  C7A BZF d   1       0.615  -2.302   0.181  0.00  0.00     0.058 A 
ENDROOT
TORSDOF 0
ENDMDL
