MODEL 1
REMARK minimizedAffinity -5.25163555
REMARK minimizedRMSD -1
REMARK  0 active torsions:
REMARK  status: ('A' for Active; 'I' for Inactive)
ROOT
ATOM      1  O1  BZF d   1      -0.512  -3.796   0.026  0.00  0.00    -0.204 OA
ATOM      2  C2  BZF d   1      -1.791  -3.475   0.438  0.00  0.00     0.174 A 
ATOM      3  C3  BZF d   1      -1.855  -2.189   0.840  0.00  0.00    -0.012 A 
ATOM      4  C3A BZF d   1      -0.555  -1.649   0.582  0.00  0.00    -0.107 A 
ATOM      5  C4  BZF d   1      -0.001  -0.413   0.755  0.00  0.00     0.055 A 
ATOM      6  C5  BZF d   1       1.316  -0.234   0.471  0.00  0.00    -0.016 A 
ATOM      7  C6  BZF d   1       2.108  -1.268   0.019  0.00  0.00     0.022 A 
ATOM      8  C7  BZF d   1       1.602  -2.511  -0.173  0.00  0.00     0.029 A 
ATOM      9  C7A BZF d   1       0.264  -2.687   0.082  0.00  0.00     0.058 A 
ENDROOT
TORSDOF 0
ENDMDL
