MODEL 1
REMARK minimizedAffinity 3.73141503
REMARK minimizedRMSD -1
REMARK  0 active torsions:
REMARK  status: ('A' for Active; 'I' for Inactive)
ROOT
ATOM      1  O1  BZF d   1       1.868  -3.173  -0.716  0.00  0.00    -0.204 OA
ATOM      2  C2  BZF d   1       0.762  -3.999  -0.772  0.00  0.00     0.174 A 
ATOM      3  C3  BZF d   1      -0.254  -3.487  -0.049  0.00  0.00    -0.012 A 
ATOM      4  C3A BZF d   1       0.217  -2.219   0.418  0.00  0.00    -0.107 A 
ATOM      5  C4  BZF d   1      -0.343  -1.230   1.175  0.00  0.00     0.055 A 
ATOM      6  C5  BZF d   1       0.410  -0.151   1.513  0.00  0.00    -0.016 A 
ATOM      7  C6  BZF d   1       1.726  -0.030   1.116  0.00  0.00     0.022 A 
ATOM      8  C7  BZF d   1       2.323  -0.983   0.360  0.00  0.00     0.029 A 
ATOM      9  C7A BZF d   1       1.555  -2.059  -0.011  0.00  0.00     0.058 A 
ENDROOT
TORSDOF 0
ENDMDL
