MODEL 1
REMARK minimizedAffinity 3.01369572
REMARK minimizedRMSD -1
REMARK  0 active torsions:
REMARK  status: ('A' for Active; 'I' for Inactive)
ROOT
ATOM      1  O1  BZF d   1       0.130  -3.454  -0.160  0.00  0.00    -0.204 OA
ATOM      2  C2  BZF d   1       1.467  -3.750  -0.338  0.00  0.00     0.174 A 
ATOM      3  C3  BZF d   1       2.237  -2.685  -0.033  0.00  0.00    -0.012 A 
ATOM      4  C3A BZF d   1       1.330  -1.690   0.449  0.00  0.00    -0.107 A 
ATOM      5  C4  BZF d   1       1.495  -0.419   0.920  0.00  0.00     0.055 A 
ATOM      6  C5  BZF d   1       0.396   0.314   1.241  0.00  0.00    -0.016 A 
ATOM      7  C6  BZF d   1      -0.880  -0.190   1.099  0.00  0.00     0.022 A 
ATOM      8  C7  BZF d   1      -1.093  -1.447   0.640  0.00  0.00     0.029 A 
ATOM      9  C7A BZF d   1       0.016  -2.202   0.346  0.00  0.00     0.058 A 
ENDROOT
TORSDOF 0
ENDMDL
