MODEL 1
REMARK minimizedAffinity -3.26803327
REMARK minimizedRMSD -1
REMARK  0 active torsions:
REMARK  status: ('A' for Active; 'I' for Inactive)
ROOT
ATOM      1  O1  BZF d   1      -1.091  -0.015   2.287  0.00  0.00    -0.204 OA
ATOM      2  C2  BZF d   1      -2.395   0.294   1.954  0.00  0.00     0.174 A 
ATOM      3  C3  BZF d   1      -2.835  -0.499   0.956  0.00  0.00    -0.012 A 
ATOM      4  C3A BZF d   1      -1.768  -1.420   0.710  0.00  0.00    -0.107 A 
ATOM      5  C4  BZF d   1      -1.611  -2.465  -0.156  0.00  0.00     0.055 A 
ATOM      6  C5  BZF d   1      -0.418  -3.116  -0.195  0.00  0.00    -0.016 A 
ATOM      7  C6  BZF d   1       0.638  -2.746   0.611  0.00  0.00     0.022 A 
ATOM      8  C7  BZF d   1       0.527  -1.720   1.489  0.00  0.00     0.029 A 
ATOM      9  C7A BZF d   1      -0.687  -1.081   1.555  0.00  0.00     0.058 A 
ENDROOT
TORSDOF 0
ENDMDL
