MODEL 1
REMARK minimizedAffinity 11.0161572
REMARK minimizedRMSD -1
REMARK  0 active torsions:
REMARK  status: ('A' for Active; 'I' for Inactive)
ROOT
ATOM      1  O1  BZF d   1       2.527   4.669  -1.570  0.00  0.00    -0.204 OA
ATOM      2  C2  BZF d   1       3.525   4.927  -0.650  0.00  0.00     0.174 A 
ATOM      3  C3  BZF d   1       4.380   3.888  -0.567  0.00  0.00    -0.012 A 
ATOM      4  C3A BZF d   1       3.939   2.957  -1.559  0.00  0.00    -0.107 A 
ATOM      5  C4  BZF d   1       4.393   1.736  -1.970  0.00  0.00     0.055 A 
ATOM      6  C5  BZF d   1       3.692   1.054  -2.913  0.00  0.00    -0.016 A 
ATOM      7  C6  BZF d   1       2.532   1.559  -3.462  0.00  0.00     0.022 A 
ATOM      8  C7  BZF d   1       2.045   2.768  -3.091  0.00  0.00     0.029 A 
ATOM      9  C7A BZF d   1       2.769   3.474  -2.162  0.00  0.00     0.058 A 
ENDROOT
TORSDOF 0
ENDMDL
