MODEL 1
REMARK minimizedAffinity 6.99855804
REMARK minimizedRMSD -1
REMARK  0 active torsions:
REMARK  status: ('A' for Active; 'I' for Inactive)
ROOT
ATOM      1  O1  BZF d   1       3.053  -1.649   0.720  0.00  0.00    -0.204 OA
ATOM      2  C2  BZF d   1       3.074  -0.587   1.603  0.00  0.00     0.174 A 
ATOM      3  C3  BZF d   1       1.823  -0.253   1.980  0.00  0.00    -0.012 A 
ATOM      4  C3A BZF d   1       0.972  -1.223   1.360  0.00  0.00    -0.107 A 
ATOM      5  C4  BZF d   1      -0.378  -1.430   1.369  0.00  0.00     0.055 A 
ATOM      6  C5  BZF d   1      -0.899  -2.421   0.599  0.00  0.00    -0.016 A 
ATOM      7  C6  BZF d   1      -0.102  -3.220  -0.194  0.00  0.00     0.022 A 
ATOM      8  C7  BZF d   1       1.243  -3.056  -0.232  0.00  0.00     0.029 A 
ATOM      9  C7A BZF d   1       1.776  -2.076   0.570  0.00  0.00     0.058 A 
ENDROOT
TORSDOF 0
ENDMDL
