MODEL 1
REMARK minimizedAffinity 5.0444231
REMARK minimizedRMSD -1
REMARK  0 active torsions:
REMARK  status: ('A' for Active; 'I' for Inactive)
ROOT
ATOM      1  O1  BZF d   1       1.358  -0.439   1.429  0.00  0.00    -0.204 OA
ATOM      2  C2  BZF d   1       1.093  -1.107   2.608  0.00  0.00     0.174 A 
ATOM      3  C3  BZF d   1       0.259  -0.389   3.388  0.00  0.00    -0.012 A 
ATOM      4  C3A BZF d   1      -0.087   0.761   2.609  0.00  0.00    -0.107 A 
ATOM      5  C4  BZF d   1      -0.896   1.838   2.834  0.00  0.00     0.055 A 
ATOM      6  C5  BZF d   1      -0.960   2.822   1.899  0.00  0.00    -0.016 A 
ATOM      7  C6  BZF d   1      -0.226   2.765   0.733  0.00  0.00     0.022 A 
ATOM      8  C7  BZF d   1       0.586   1.714   0.463  0.00  0.00     0.029 A 
ATOM      9  C7A BZF d   1       0.628   0.702   1.391  0.00  0.00     0.058 A 
ENDROOT
TORSDOF 0
ENDMDL
