MODEL 1
REMARK minimizedAffinity 10.5144529
REMARK minimizedRMSD -1
REMARK  0 active torsions:
REMARK  status: ('A' for Active; 'I' for Inactive)
ROOT
ATOM      1  O1  BZF d   1       0.072   3.128  -2.170  0.00  0.00    -0.204 OA
ATOM      2  C2  BZF d   1       0.783   4.155  -1.579  0.00  0.00     0.174 A 
ATOM      3  C3  BZF d   1       0.167   4.580  -0.458  0.00  0.00    -0.012 A 
ATOM      4  C3A BZF d   1      -0.954   3.708  -0.290  0.00  0.00    -0.107 A 
ATOM      5  C4  BZF d   1      -1.940   3.615   0.651  0.00  0.00     0.055 A 
ATOM      6  C5  BZF d   1      -2.928   2.698   0.484  0.00  0.00    -0.016 A 
ATOM      7  C6  BZF d   1      -2.965   1.862  -0.612  0.00  0.00     0.022 A 
ATOM      8  C7  BZF d   1      -2.007   1.913  -1.570  0.00  0.00     0.029 A 
ATOM      9  C7A BZF d   1      -0.989   2.816  -1.387  0.00  0.00     0.058 A 
ENDROOT
TORSDOF 0
ENDMDL
