MODEL 1
REMARK minimizedAffinity 6.9254055
REMARK minimizedRMSD -1
REMARK  0 active torsions:
REMARK  status: ('A' for Active; 'I' for Inactive)
ROOT
ATOM      1  O1  BZF d   1       1.653   4.276  -0.154  0.00  0.00    -0.204 OA
ATOM      2  C2  BZF d   1       1.424   4.960  -1.332  0.00  0.00     0.174 A 
ATOM      3  C3  BZF d   1       0.287   4.534  -1.919  0.00  0.00    -0.012 A 
ATOM      4  C3A BZF d   1      -0.275   3.585  -1.007  0.00  0.00    -0.107 A 
ATOM      5  C4  BZF d   1      -1.411   2.828  -1.022  0.00  0.00     0.055 A 
ATOM      6  C5  BZF d   1      -1.631   1.947  -0.011  0.00  0.00    -0.016 A 
ATOM      7  C6  BZF d   1      -0.734   1.793   1.025  0.00  0.00     0.022 A 
ATOM      8  C7  BZF d   1       0.405   2.525   1.086  0.00  0.00     0.029 A 
ATOM      9  C7A BZF d   1       0.613   3.441   0.084  0.00  0.00     0.058 A 
ENDROOT
TORSDOF 0
ENDMDL
