MODEL 1
REMARK minimizedAffinity 3.48116231
REMARK minimizedRMSD -1
REMARK  0 active torsions:
REMARK  status: ('A' for Active; 'I' for Inactive)
ROOT
ATOM      1  O1  BZF d   1      -1.770   3.453  -3.434  0.00  0.00    -0.204 OA
ATOM      2  C2  BZF d   1      -2.969   2.806  -3.208  0.00  0.00     0.174 A 
ATOM      3  C3  BZF d   1      -2.928   2.113  -2.051  0.00  0.00    -0.012 A 
ATOM      4  C3A BZF d   1      -1.654   2.416  -1.476  0.00  0.00    -0.107 A 
ATOM      5  C4  BZF d   1      -1.033   2.041  -0.319  0.00  0.00     0.055 A 
ATOM      6  C5  BZF d   1       0.241   2.455  -0.089  0.00  0.00    -0.016 A 
ATOM      7  C6  BZF d   1       0.924   3.238  -0.995  0.00  0.00     0.022 A 
ATOM      8  C7  BZF d   1       0.349   3.640  -2.154  0.00  0.00     0.029 A 
ATOM      9  C7A BZF d   1      -0.950   3.250  -2.375  0.00  0.00     0.058 A 
ENDROOT
TORSDOF 0
ENDMDL
