MODEL 1
REMARK minimizedAffinity 0.840908706
REMARK minimizedRMSD -1
REMARK  0 active torsions:
REMARK  status: ('A' for Active; 'I' for Inactive)
ROOT
ATOM      1  O1  BZF d   1      -0.886   3.929  -1.231  0.00  0.00    -0.204 OA
ATOM      2  C2  BZF d   1      -0.039   3.175  -0.442  0.00  0.00     0.174 A 
ATOM      3  C3  BZF d   1      -0.540   1.937  -0.251  0.00  0.00    -0.012 A 
ATOM      4  C3A BZF d   1      -1.732   1.887  -1.041  0.00  0.00    -0.107 A 
ATOM      5  C4  BZF d   1      -2.663   0.916  -1.276  0.00  0.00     0.055 A 
ATOM      6  C5  BZF d   1      -3.747   1.212  -2.039  0.00  0.00    -0.016 A 
ATOM      7  C6  BZF d   1      -3.935   2.467  -2.578  0.00  0.00     0.022 A 
ATOM      8  C7  BZF d   1      -3.037   3.462  -2.377  0.00  0.00     0.029 A 
ATOM      9  C7A BZF d   1      -1.923   3.157  -1.633  0.00  0.00     0.058 A 
ENDROOT
TORSDOF 0
ENDMDL
