MODEL 1
REMARK minimizedAffinity 6.66923475
REMARK minimizedRMSD -1
REMARK  0 active torsions:
REMARK  status: ('A' for Active; 'I' for Inactive)
ROOT
ATOM      1  O1  BZF d   1      -0.897   1.565   0.010  0.00  0.00    -0.204 OA
ATOM      2  C2  BZF d   1      -0.079   2.634  -0.299  0.00  0.00     0.174 A 
ATOM      3  C3  BZF d   1      -0.443   3.191  -1.472  0.00  0.00    -0.012 A 
ATOM      4  C3A BZF d   1      -1.616   2.480  -1.879  0.00  0.00    -0.107 A 
ATOM      5  C4  BZF d   1      -2.450   2.582  -2.956  0.00  0.00     0.055 A 
ATOM      6  C5  BZF d   1      -3.463   1.687  -3.093  0.00  0.00    -0.016 A 
ATOM      7  C6  BZF d   1      -3.669   0.677  -2.177  0.00  0.00     0.022 A 
ATOM      8  C7  BZF d   1      -2.871   0.538  -1.090  0.00  0.00     0.029 A 
ATOM      9  C7A BZF d   1      -1.866   1.461  -0.931  0.00  0.00     0.058 A 
ENDROOT
TORSDOF 0
ENDMDL
