MODEL 1
REMARK minimizedAffinity 22.6326065
REMARK minimizedRMSD -1
REMARK  0 active torsions:
REMARK  status: ('A' for Active; 'I' for Inactive)
ROOT
ATOM      1  O1  BZF d   1      -1.449   2.352   3.074  0.00  0.00    -0.204 OA
ATOM      2  C2  BZF d   1      -2.184   2.280   1.906  0.00  0.00     0.174 A 
ATOM      3  C3  BZF d   1      -1.389   2.445   0.829  0.00  0.00    -0.012 A 
ATOM      4  C3A BZF d   1      -0.061   2.539   1.353  0.00  0.00    -0.107 A 
ATOM      5  C4  BZF d   1       1.168   2.693   0.777  0.00  0.00     0.055 A 
ATOM      6  C5  BZF d   1       2.260   2.822   1.574  0.00  0.00    -0.016 A 
ATOM      7  C6  BZF d   1       2.161   2.807   2.950  0.00  0.00     0.022 A 
ATOM      8  C7  BZF d   1       0.965   2.651   3.568  0.00  0.00     0.029 A 
ATOM      9  C7A BZF d   1      -0.137   2.487   2.764  0.00  0.00     0.058 A 
ENDROOT
TORSDOF 0
ENDMDL
