MODEL 1
REMARK minimizedAffinity 12.599577
REMARK minimizedRMSD -1
REMARK  0 active torsions:
REMARK  status: ('A' for Active; 'I' for Inactive)
ROOT
ATOM      1  O1  BZF d   1      -1.089   2.050  -2.415  0.00  0.00    -0.204 OA
ATOM      2  C2  BZF d   1      -2.377   1.617  -2.169  0.00  0.00     0.174 A 
ATOM      3  C3  BZF d   1      -3.278   2.461  -2.712  0.00  0.00    -0.012 A 
ATOM      4  C3A BZF d   1      -2.502   3.437  -3.416  0.00  0.00    -0.107 A 
ATOM      5  C4  BZF d   1      -2.827   4.528  -4.170  0.00  0.00     0.055 A 
ATOM      6  C5  BZF d   1      -1.831   5.315  -4.656  0.00  0.00    -0.016 A 
ATOM      7  C6  BZF d   1      -0.502   5.043  -4.403  0.00  0.00     0.022 A 
ATOM      8  C7  BZF d   1      -0.131   3.970  -3.664  0.00  0.00     0.029 A 
ATOM      9  C7A BZF d   1      -1.134   3.154  -3.199  0.00  0.00     0.058 A 
ENDROOT
TORSDOF 0
ENDMDL
