MODEL 1
REMARK minimizedAffinity 1.93558717
REMARK minimizedRMSD -1
REMARK  0 active torsions:
REMARK  status: ('A' for Active; 'I' for Inactive)
ROOT
ATOM      1  O1  BZF d   1       0.726   0.957   1.260  0.00  0.00    -0.204 OA
ATOM      2  C2  BZF d   1       0.031   2.007   1.825  0.00  0.00     0.174 A 
ATOM      3  C3  BZF d   1      -0.707   2.648   0.896  0.00  0.00    -0.012 A 
ATOM      4  C3A BZF d   1      -0.528   1.898  -0.309  0.00  0.00    -0.107 A 
ATOM      5  C4  BZF d   1      -1.019   2.027  -1.577  0.00  0.00     0.055 A 
ATOM      6  C5  BZF d   1      -0.591   1.171  -2.541  0.00  0.00    -0.016 A 
ATOM      7  C6  BZF d   1       0.329   0.178  -2.274  0.00  0.00     0.022 A 
ATOM      8  C7  BZF d   1       0.840   0.007  -1.031  0.00  0.00     0.029 A 
ATOM      9  C7A BZF d   1       0.385   0.850  -0.047  0.00  0.00     0.058 A 
ENDROOT
TORSDOF 0
ENDMDL
