MODEL 1
REMARK minimizedAffinity 7.77440882
REMARK minimizedRMSD -1
REMARK  0 active torsions:
REMARK  status: ('A' for Active; 'I' for Inactive)
ROOT
ATOM      1  O1  BZF d   1      -3.033   2.070  -1.929  0.00  0.00    -0.204 OA
ATOM      2  C2  BZF d   1      -2.079   3.008  -2.273  0.00  0.00     0.174 A 
ATOM      3  C3  BZF d   1      -0.841   2.476  -2.211  0.00  0.00    -0.012 A 
ATOM      4  C3A BZF d   1      -1.040   1.096  -1.891  0.00  0.00    -0.107 A 
ATOM      5  C4  BZF d   1      -0.190   0.043  -1.708  0.00  0.00     0.055 A 
ATOM      6  C5  BZF d   1      -0.700  -1.160  -1.332  0.00  0.00    -0.016 A 
ATOM      7  C6  BZF d   1      -2.051  -1.343  -1.125  0.00  0.00     0.022 A 
ATOM      8  C7  BZF d   1      -2.934  -0.329  -1.299  0.00  0.00     0.029 A 
ATOM      9  C7A BZF d   1      -2.425   0.879  -1.711  0.00  0.00     0.058 A 
ENDROOT
TORSDOF 0
ENDMDL
