MODEL 1
REMARK minimizedAffinity -0.023634268
REMARK minimizedRMSD -1
REMARK  0 active torsions:
REMARK  status: ('A' for Active; 'I' for Inactive)
ROOT
ATOM      1  O1  BZF d   1      -0.054   1.623   0.506  0.00  0.00    -0.204 OA
ATOM      2  C2  BZF d   1      -0.474   2.883   0.885  0.00  0.00     0.174 A 
ATOM      3  C3  BZF d   1      -0.662   3.669  -0.195  0.00  0.00    -0.012 A 
ATOM      4  C3A BZF d   1      -0.429   2.821  -1.323  0.00  0.00    -0.107 A 
ATOM      5  C4  BZF d   1      -0.478   3.020  -2.673  0.00  0.00     0.055 A 
ATOM      6  C5  BZF d   1      -0.124   2.005  -3.504  0.00  0.00    -0.016 A 
ATOM      7  C6  BZF d   1       0.289   0.781  -3.019  0.00  0.00     0.022 A 
ATOM      8  C7  BZF d   1       0.350   0.535  -1.688  0.00  0.00     0.029 A 
ATOM      9  C7A BZF d   1      -0.040   1.548  -0.847  0.00  0.00     0.058 A 
ENDROOT
TORSDOF 0
ENDMDL
