MODEL 1
REMARK minimizedAffinity 10.396965
REMARK minimizedRMSD -1
REMARK  0 active torsions:
REMARK  status: ('A' for Active; 'I' for Inactive)
ROOT
ATOM      1  O1  BZF d   1       0.385   4.420  -1.712  0.00  0.00    -0.204 OA
ATOM      2  C2  BZF d   1      -0.671   3.826  -2.375  0.00  0.00     0.174 A 
ATOM      3  C3  BZF d   1      -1.233   2.864  -1.616  0.00  0.00    -0.012 A 
ATOM      4  C3A BZF d   1      -0.540   2.920  -0.365  0.00  0.00    -0.107 A 
ATOM      5  C4  BZF d   1      -0.655   2.222   0.803  0.00  0.00     0.055 A 
ATOM      6  C5  BZF d   1       0.224   2.471   1.810  0.00  0.00    -0.016 A 
ATOM      7  C6  BZF d   1       1.231   3.405   1.680  0.00  0.00     0.022 A 
ATOM      8  C7  BZF d   1       1.381   4.125   0.542  0.00  0.00     0.029 A 
ATOM      9  C7A BZF d   1       0.474   3.900  -0.464  0.00  0.00     0.058 A 
ENDROOT
TORSDOF 0
ENDMDL
