MODEL 1
REMARK minimizedAffinity 5.57791853
REMARK minimizedRMSD -1
REMARK  0 active torsions:
REMARK  status: ('A' for Active; 'I' for Inactive)
ROOT
ATOM      1  O1  BZF d   1       1.852   0.150  -0.313  0.00  0.00    -0.204 OA
ATOM      2  C2  BZF d   1       1.441  -0.093  -1.609  0.00  0.00     0.174 A 
ATOM      3  C3  BZF d   1       0.270   0.526  -1.864  0.00  0.00    -0.012 A 
ATOM      4  C3A BZF d   1      -0.026   1.273  -0.680  0.00  0.00    -0.107 A 
ATOM      5  C4  BZF d   1      -1.049   2.105  -0.326  0.00  0.00     0.055 A 
ATOM      6  C5  BZF d   1      -1.078   2.618   0.932  0.00  0.00    -0.016 A 
ATOM      7  C6  BZF d   1      -0.105   2.316   1.862  0.00  0.00     0.022 A 
ATOM      8  C7  BZF d   1       0.933   1.499   1.556  0.00  0.00     0.029 A 
ATOM      9  C7A BZF d   1       0.983   1.006   0.275  0.00  0.00     0.058 A 
ENDROOT
TORSDOF 0
ENDMDL
