MODEL 1
REMARK minimizedAffinity -1.88983357
REMARK minimizedRMSD -1
REMARK  0 active torsions:
REMARK  status: ('A' for Active; 'I' for Inactive)
ROOT
ATOM      1  O1  BZF d   1       1.879   5.431  -0.749  0.00  0.00    -0.204 OA
ATOM      2  C2  BZF d   1       0.747   5.271  -1.524  0.00  0.00     0.174 A 
ATOM      3  C3  BZF d   1      -0.017   4.264  -1.054  0.00  0.00    -0.012 A 
ATOM      4  C3A BZF d   1       0.635   3.824   0.141  0.00  0.00    -0.107 A 
ATOM      5  C4  BZF d   1       0.350   2.860   1.065  0.00  0.00     0.055 A 
ATOM      6  C5  BZF d   1       1.229   2.634   2.077  0.00  0.00    -0.016 A 
ATOM      7  C6  BZF d   1       2.404   3.348   2.190  0.00  0.00     0.022 A 
ATOM      8  C7  BZF d   1       2.728   4.317   1.300  0.00  0.00     0.029 A 
ATOM      9  C7A BZF d   1       1.826   4.571   0.296  0.00  0.00     0.058 A 
ENDROOT
TORSDOF 0
ENDMDL
