MODEL 1
REMARK minimizedAffinity 9.67284298
REMARK minimizedRMSD -1
REMARK  0 active torsions:
REMARK  status: ('A' for Active; 'I' for Inactive)
ROOT
ATOM      1  O1  BZF d   1      -3.117   1.908  -2.209  0.00  0.00    -0.204 OA
ATOM      2  C2  BZF d   1      -3.631   0.779  -1.600  0.00  0.00     0.174 A 
ATOM      3  C3  BZF d   1      -2.824   0.365  -0.602  0.00  0.00    -0.012 A 
ATOM      4  C3A BZF d   1      -1.785   1.345  -0.527  0.00  0.00    -0.107 A 
ATOM      5  C4  BZF d   1      -0.692   1.496   0.279  0.00  0.00     0.055 A 
ATOM      6  C5  BZF d   1       0.164   2.524   0.045  0.00  0.00    -0.016 A 
ATOM      7  C6  BZF d   1      -0.037   3.417  -0.988  0.00  0.00     0.022 A 
ATOM      8  C7  BZF d   1      -1.110   3.312  -1.810  0.00  0.00     0.029 A 
ATOM      9  C7A BZF d   1      -1.995   2.293  -1.555  0.00  0.00     0.058 A 
ENDROOT
TORSDOF 0
ENDMDL
