MODEL 1
REMARK minimizedAffinity 8.53066254
REMARK minimizedRMSD -1
REMARK  0 active torsions:
REMARK  status: ('A' for Active; 'I' for Inactive)
ROOT
ATOM      1  O1  BZF d   1      -2.622  -3.264   1.139  0.00  0.00    -0.204 OA
ATOM      2  C2  BZF d   1      -3.029  -1.953   0.981  0.00  0.00     0.174 A 
ATOM      3  C3  BZF d   1      -4.296  -1.897   0.523  0.00  0.00    -0.012 A 
ATOM      4  C3A BZF d   1      -4.739  -3.257   0.474  0.00  0.00    -0.107 A 
ATOM      5  C4  BZF d   1      -5.916  -3.849   0.116  0.00  0.00     0.055 A 
ATOM      6  C5  BZF d   1      -5.998  -5.206   0.111  0.00  0.00    -0.016 A 
ATOM      7  C6  BZF d   1      -4.923  -6.000   0.453  0.00  0.00     0.022 A 
ATOM      8  C7  BZF d   1      -3.736  -5.458   0.820  0.00  0.00     0.029 A 
ATOM      9  C7A BZF d   1      -3.660  -4.087   0.857  0.00  0.00     0.058 A 
ENDROOT
TORSDOF 0
ENDMDL
