MODEL 1
REMARK minimizedAffinity 2.86420894
REMARK minimizedRMSD -1
REMARK  0 active torsions:
REMARK  status: ('A' for Active; 'I' for Inactive)
ROOT
ATOM      1  O1  BZF d   1      -0.368   1.479  -0.959  0.00  0.00    -0.204 OA
ATOM      2  C2  BZF d   1      -1.093   0.596  -1.736  0.00  0.00     0.174 A 
ATOM      3  C3  BZF d   1      -1.699  -0.331  -0.966  0.00  0.00    -0.012 A 
ATOM      4  C3A BZF d   1      -1.405   0.048   0.382  0.00  0.00    -0.107 A 
ATOM      5  C4  BZF d   1      -1.742  -0.473   1.599  0.00  0.00     0.055 A 
ATOM      6  C5  BZF d   1      -1.231   0.093   2.724  0.00  0.00    -0.016 A 
ATOM      7  C6  BZF d   1      -0.378   1.176   2.669  0.00  0.00     0.022 A 
ATOM      8  C7  BZF d   1      -0.020   1.731   1.485  0.00  0.00     0.029 A 
ATOM      9  C7A BZF d   1      -0.560   1.181   0.348  0.00  0.00     0.058 A 
ENDROOT
TORSDOF 0
ENDMDL
