MODEL 1
REMARK minimizedAffinity 4.07184172
REMARK minimizedRMSD -1
REMARK  0 active torsions:
REMARK  status: ('A' for Active; 'I' for Inactive)
ROOT
ATOM      1  O1  BZF d   1       0.108   2.842   2.854  0.00  0.00    -0.204 OA
ATOM      2  C2  BZF d   1      -1.099   3.238   3.396  0.00  0.00     0.174 A 
ATOM      3  C3  BZF d   1      -2.121   2.557   2.840  0.00  0.00    -0.012 A 
ATOM      4  C3A BZF d   1      -1.507   1.614   1.956  0.00  0.00    -0.107 A 
ATOM      5  C4  BZF d   1      -1.998   0.644   1.129  0.00  0.00     0.055 A 
ATOM      6  C5  BZF d   1      -1.136  -0.054   0.345  0.00  0.00    -0.016 A 
ATOM      7  C6  BZF d   1       0.221   0.194   0.357  0.00  0.00     0.022 A 
ATOM      8  C7  BZF d   1       0.756   1.143   1.164  0.00  0.00     0.029 A 
ATOM      9  C7A BZF d   1      -0.109   1.828   1.982  0.00  0.00     0.058 A 
ENDROOT
TORSDOF 0
ENDMDL
