MODEL 1
REMARK minimizedAffinity 5.80144024
REMARK minimizedRMSD -1
REMARK  0 active torsions:
REMARK  status: ('A' for Active; 'I' for Inactive)
ROOT
ATOM      1  O1  BZF d   1       1.142   2.059  -0.409  0.00  0.00    -0.204 OA
ATOM      2  C2  BZF d   1       2.056   2.339   0.588  0.00  0.00     0.174 A 
ATOM      3  C3  BZF d   1       1.597   1.927   1.787  0.00  0.00    -0.012 A 
ATOM      4  C3A BZF d   1       0.356   1.271   1.510  0.00  0.00    -0.107 A 
ATOM      5  C4  BZF d   1      -0.567   0.638   2.292  0.00  0.00     0.055 A 
ATOM      6  C5  BZF d   1      -1.707   0.168   1.721  0.00  0.00    -0.016 A 
ATOM      7  C6  BZF d   1      -1.958   0.318   0.373  0.00  0.00     0.022 A 
ATOM      8  C7  BZF d   1      -1.070   0.935  -0.445  0.00  0.00     0.029 A 
ATOM      9  C7A BZF d   1       0.098   1.382   0.124  0.00  0.00     0.058 A 
ENDROOT
TORSDOF 0
ENDMDL
