MODEL 1
REMARK minimizedAffinity 9.08582592
REMARK minimizedRMSD -1
REMARK  0 active torsions:
REMARK  status: ('A' for Active; 'I' for Inactive)
ROOT
ATOM      1  O1  BZF d   1      -2.464  -5.229  -1.134  0.00  0.00    -0.204 OA
ATOM      2  C2  BZF d   1      -1.532  -5.673  -0.215  0.00  0.00     0.174 A 
ATOM      3  C3  BZF d   1      -2.125  -5.983   0.956  0.00  0.00    -0.012 A 
ATOM      4  C3A BZF d   1      -3.526  -5.803   0.727  0.00  0.00    -0.107 A 
ATOM      5  C4  BZF d   1      -4.634  -5.970   1.508  0.00  0.00     0.055 A 
ATOM      6  C5  BZF d   1      -5.852  -5.638   1.006  0.00  0.00    -0.016 A 
ATOM      7  C6  BZF d   1      -5.999  -5.133  -0.269  0.00  0.00     0.022 A 
ATOM      8  C7  BZF d   1      -4.930  -4.956  -1.084  0.00  0.00     0.029 A 
ATOM      9  C7A BZF d   1      -3.701  -5.321  -0.591  0.00  0.00     0.058 A 
ENDROOT
TORSDOF 0
ENDMDL
