MODEL 1
REMARK minimizedAffinity 0.41874823
REMARK minimizedRMSD -1
REMARK  0 active torsions:
REMARK  status: ('A' for Active; 'I' for Inactive)
ROOT
ATOM      1  O1  BZF d   1      -2.089  -5.959   4.052  0.00  0.00    -0.204 OA
ATOM      2  C2  BZF d   1      -2.669  -5.966   2.799  0.00  0.00     0.174 A 
ATOM      3  C3  BZF d   1      -1.727  -5.927   1.835  0.00  0.00    -0.012 A 
ATOM      4  C3A BZF d   1      -0.477  -5.987   2.528  0.00  0.00    -0.107 A 
ATOM      5  C4  BZF d   1       0.825  -6.000   2.117  0.00  0.00     0.055 A 
ATOM      6  C5  BZF d   1       1.813  -5.989   3.050  0.00  0.00    -0.016 A 
ATOM      7  C6  BZF d   1       1.535  -5.960   4.401  0.00  0.00     0.022 A 
ATOM      8  C7  BZF d   1       0.259  -5.951   4.857  0.00  0.00     0.029 A 
ATOM      9  C7A BZF d   1      -0.741  -5.995   3.917  0.00  0.00     0.058 A 
ENDROOT
TORSDOF 0
ENDMDL
