MODEL 1
REMARK minimizedAffinity 7.84487534
REMARK minimizedRMSD -1
REMARK  0 active torsions:
REMARK  status: ('A' for Active; 'I' for Inactive)
ROOT
ATOM      1  O1  BZF d   1      -1.062  -0.086   3.245  0.00  0.00    -0.204 OA
ATOM      2  C2  BZF d   1      -1.704  -1.292   3.042  0.00  0.00     0.174 A 
ATOM      3  C3  BZF d   1      -1.455  -1.764   1.803  0.00  0.00    -0.012 A 
ATOM      4  C3A BZF d   1      -0.530  -0.837   1.226  0.00  0.00    -0.107 A 
ATOM      5  C4  BZF d   1       0.103  -0.771   0.018  0.00  0.00     0.055 A 
ATOM      6  C5  BZF d   1       0.887   0.303  -0.259  0.00  0.00    -0.016 A 
ATOM      7  C6  BZF d   1       1.056   1.331   0.645  0.00  0.00     0.022 A 
ATOM      8  C7  BZF d   1       0.453   1.308   1.859  0.00  0.00     0.029 A 
ATOM      9  C7A BZF d   1      -0.314   0.208   2.155  0.00  0.00     0.058 A 
ENDROOT
TORSDOF 0
ENDMDL
