MODEL 1
REMARK minimizedAffinity 6.85200024
REMARK minimizedRMSD -1
REMARK  0 active torsions:
REMARK  status: ('A' for Active; 'I' for Inactive)
ROOT
ATOM      1  O1  BZF d   1       0.438   1.185   1.967  0.00  0.00    -0.204 OA
ATOM      2  C2  BZF d   1       0.929   1.132   0.678  0.00  0.00     0.174 A 
ATOM      3  C3  BZF d   1       0.524   0.005   0.057  0.00  0.00    -0.012 A 
ATOM      4  C3A BZF d   1      -0.347  -0.645   0.988  0.00  0.00    -0.107 A 
ATOM      5  C4  BZF d   1      -1.074  -1.800   0.944  0.00  0.00     0.055 A 
ATOM      6  C5  BZF d   1      -1.763  -2.188   2.049  0.00  0.00    -0.016 A 
ATOM      7  C6  BZF d   1      -1.744  -1.450   3.214  0.00  0.00     0.022 A 
ATOM      8  C7  BZF d   1      -1.041  -0.295   3.304  0.00  0.00     0.029 A 
ATOM      9  C7A BZF d   1      -0.370   0.118   2.179  0.00  0.00     0.058 A 
ENDROOT
TORSDOF 0
ENDMDL
