MODEL 1
REMARK minimizedAffinity 16.6685848
REMARK minimizedRMSD -1
REMARK  0 active torsions:
REMARK  status: ('A' for Active; 'I' for Inactive)
ROOT
ATOM      1  O1  BZF d   1      -2.101   0.324  -2.362  0.00  0.00    -0.204 OA
ATOM      2  C2  BZF d   1      -1.002   0.746  -1.638  0.00  0.00     0.174 A 
ATOM      3  C3  BZF d   1      -0.945   0.118  -0.446  0.00  0.00    -0.012 A 
ATOM      4  C3A BZF d   1      -2.027  -0.818  -0.462  0.00  0.00    -0.107 A 
ATOM      5  C4  BZF d   1      -2.479  -1.745   0.434  0.00  0.00     0.055 A 
ATOM      6  C5  BZF d   1      -3.605  -2.448   0.144  0.00  0.00    -0.016 A 
ATOM      7  C6  BZF d   1      -4.305  -2.248  -1.028  0.00  0.00     0.022 A 
ATOM      8  C7  BZF d   1      -3.892  -1.343  -1.949  0.00  0.00     0.029 A 
ATOM      9  C7A BZF d   1      -2.736  -0.654  -1.674  0.00  0.00     0.058 A 
ENDROOT
TORSDOF 0
ENDMDL
