MODEL 1
REMARK minimizedAffinity 12.0591068
REMARK minimizedRMSD -1
REMARK  0 active torsions:
REMARK  status: ('A' for Active; 'I' for Inactive)
ROOT
ATOM      1  O1  BZF d   1      -1.486  -0.568  -1.592  0.00  0.00    -0.204 OA
ATOM      2  C2  BZF d   1      -2.273  -1.617  -1.158  0.00  0.00     0.174 A 
ATOM      3  C3  BZF d   1      -2.264  -1.697   0.189  0.00  0.00    -0.012 A 
ATOM      4  C3A BZF d   1      -1.492  -0.574   0.627  0.00  0.00    -0.107 A 
ATOM      5  C4  BZF d   1      -1.136  -0.103   1.858  0.00  0.00     0.055 A 
ATOM      6  C5  BZF d   1      -0.314   0.976   1.939  0.00  0.00    -0.016 A 
ATOM      7  C6  BZF d   1       0.174   1.604   0.812  0.00  0.00     0.022 A 
ATOM      8  C7  BZF d   1      -0.155   1.176  -0.431  0.00  0.00     0.029 A 
ATOM      9  C7A BZF d   1      -1.012   0.106  -0.517  0.00  0.00     0.058 A 
ENDROOT
TORSDOF 0
ENDMDL
