MODEL 1
REMARK minimizedAffinity 6.94047785
REMARK minimizedRMSD -1
REMARK  0 active torsions:
REMARK  status: ('A' for Active; 'I' for Inactive)
ROOT
ATOM      1  O1  BZF d   1       2.016  -5.976   1.610  0.00  0.00    -0.204 OA
ATOM      2  C2  BZF d   1       2.208  -5.998   2.978  0.00  0.00     0.174 A 
ATOM      3  C3  BZF d   1       1.027  -5.951   3.627  0.00  0.00    -0.012 A 
ATOM      4  C3A BZF d   1       0.031  -5.988   2.600  0.00  0.00    -0.107 A 
ATOM      5  C4  BZF d   1      -1.334  -5.984   2.616  0.00  0.00     0.055 A 
ATOM      6  C5  BZF d   1      -2.008  -5.953   1.436  0.00  0.00    -0.016 A 
ATOM      7  C6  BZF d   1      -1.350  -5.921   0.224  0.00  0.00     0.022 A 
ATOM      8  C7  BZF d   1       0.004  -5.929   0.158  0.00  0.00     0.029 A 
ATOM      9  C7A BZF d   1       0.687  -5.993   1.348  0.00  0.00     0.058 A 
ENDROOT
TORSDOF 0
ENDMDL
