MODEL 1
REMARK minimizedAffinity 6.63863945
REMARK minimizedRMSD -1
REMARK  0 active torsions:
REMARK  status: ('A' for Active; 'I' for Inactive)
ROOT
ATOM      1  O1  BZF d   1       2.958  -5.993   4.492  0.00  0.00    -0.204 OA
ATOM      2  C2  BZF d   1       3.711  -5.975   3.334  0.00  0.00     0.174 A 
ATOM      3  C3  BZF d   1       2.915  -6.000   2.245  0.00  0.00    -0.012 A 
ATOM      4  C3A BZF d   1       1.579  -5.942   2.754  0.00  0.00    -0.107 A 
ATOM      5  C4  BZF d   1       0.349  -5.920   2.162  0.00  0.00     0.055 A 
ATOM      6  C5  BZF d   1      -0.761  -5.936   2.944  0.00  0.00    -0.016 A 
ATOM      7  C6  BZF d   1      -0.679  -5.981   4.321  0.00  0.00     0.022 A 
ATOM      8  C7  BZF d   1       0.519  -5.999   4.954  0.00  0.00     0.029 A 
ATOM      9  C7A BZF d   1       1.643  -5.949   4.167  0.00  0.00     0.058 A 
ENDROOT
TORSDOF 0
ENDMDL
