MODEL 1
REMARK minimizedAffinity 0.240313098
REMARK minimizedRMSD -1
REMARK  0 active torsions:
REMARK  status: ('A' for Active; 'I' for Inactive)
ROOT
ATOM      1  O1  BZF d   1      -2.139  -5.959   2.599  0.00  0.00    -0.204 OA
ATOM      2  C2  BZF d   1      -2.295  -5.956   1.226  0.00  0.00     0.174 A 
ATOM      3  C3  BZF d   1      -1.096  -5.915   0.609  0.00  0.00    -0.012 A 
ATOM      4  C3A BZF d   1      -0.129  -5.984   1.661  0.00  0.00    -0.107 A 
ATOM      5  C4  BZF d   1       1.237  -5.999   1.681  0.00  0.00     0.055 A 
ATOM      6  C5  BZF d   1       1.879  -5.998   2.879  0.00  0.00    -0.016 A 
ATOM      7  C6  BZF d   1       1.189  -5.975   4.073  0.00  0.00     0.022 A 
ATOM      8  C7  BZF d   1      -0.166  -5.965   4.103  0.00  0.00     0.029 A 
ATOM      9  C7A BZF d   1      -0.818  -6.000   2.895  0.00  0.00     0.058 A 
ENDROOT
TORSDOF 0
ENDMDL
