MODEL 1
REMARK minimizedAffinity 6.48791885
REMARK minimizedRMSD -1
REMARK  0 active torsions:
REMARK  status: ('A' for Active; 'I' for Inactive)
ROOT
ATOM      1  O1  BZF d   1      -1.823  -5.955   3.683  0.00  0.00    -0.204 OA
ATOM      2  C2  BZF d   1      -2.305  -5.975   2.389  0.00  0.00     0.174 A 
ATOM      3  C3  BZF d   1      -1.291  -5.933   1.500  0.00  0.00    -0.012 A 
ATOM      4  C3A BZF d   1      -0.098  -5.977   2.288  0.00  0.00    -0.107 A 
ATOM      5  C4  BZF d   1       1.232  -5.981   1.979  0.00  0.00     0.055 A 
ATOM      6  C5  BZF d   1       2.144  -5.955   2.986  0.00  0.00    -0.016 A 
ATOM      7  C6  BZF d   1       1.763  -5.920   4.311  0.00  0.00     0.022 A 
ATOM      8  C7  BZF d   1       0.455  -5.920   4.667  0.00  0.00     0.029 A 
ATOM      9  C7A BZF d   1      -0.469  -5.980   3.653  0.00  0.00     0.058 A 
ENDROOT
TORSDOF 0
ENDMDL
