MODEL 1
REMARK minimizedAffinity 7.06160307
REMARK minimizedRMSD -1
REMARK  0 active torsions:
REMARK  status: ('A' for Active; 'I' for Inactive)
ROOT
ATOM      1  O1  BZF d   1       2.036  -5.967   2.143  0.00  0.00    -0.204 OA
ATOM      2  C2  BZF d   1       2.912  -5.983   3.211  0.00  0.00     0.174 A 
ATOM      3  C3  BZF d   1       2.241  -5.942   4.380  0.00  0.00    -0.012 A 
ATOM      4  C3A BZF d   1       0.857  -5.990   4.021  0.00  0.00    -0.107 A 
ATOM      5  C4  BZF d   1      -0.301  -5.996   4.745  0.00  0.00     0.055 A 
ATOM      6  C5  BZF d   1      -1.491  -5.975   4.089  0.00  0.00    -0.016 A 
ATOM      7  C6  BZF d   1      -1.560  -5.943   2.711  0.00  0.00     0.022 A 
ATOM      8  C7  BZF d   1      -0.438  -5.941   1.950  0.00  0.00     0.029 A 
ATOM      9  C7A BZF d   1       0.765  -5.995   2.610  0.00  0.00     0.058 A 
ENDROOT
TORSDOF 0
ENDMDL
