MODEL 1
REMARK minimizedAffinity 10.8231192
REMARK minimizedRMSD -1
REMARK  0 active torsions:
REMARK  status: ('A' for Active; 'I' for Inactive)
ROOT
ATOM      1  O1  BZF d   1       0.478  -1.686  -3.211  0.00  0.00    -0.204 OA
ATOM      2  C2  BZF d   1       1.037  -2.400  -4.254  0.00  0.00     0.174 A 
ATOM      3  C3  BZF d   1       0.078  -2.943  -5.030  0.00  0.00    -0.012 A 
ATOM      4  C3A BZF d   1      -1.158  -2.468  -4.489  0.00  0.00    -0.107 A 
ATOM      5  C4  BZF d   1      -2.467  -2.649  -4.836  0.00  0.00     0.055 A 
ATOM      6  C5  BZF d   1      -3.438  -2.105  -4.057  0.00  0.00    -0.016 A 
ATOM      7  C6  BZF d   1      -3.138  -1.381  -2.921  0.00  0.00     0.022 A 
ATOM      8  C7  BZF d   1      -1.855  -1.171  -2.539  0.00  0.00     0.029 A 
ATOM      9  C7A BZF d   1      -0.870  -1.691  -3.343  0.00  0.00     0.058 A 
ENDROOT
TORSDOF 0
ENDMDL
