MODEL 1
REMARK minimizedAffinity 4.56237602
REMARK minimizedRMSD -1
REMARK  0 active torsions:
REMARK  status: ('A' for Active; 'I' for Inactive)
ROOT
ATOM      1  O1  BZF d   1       2.481  -5.969   4.748  0.00  0.00    -0.204 OA
ATOM      2  C2  BZF d   1       1.868  -5.978   5.987  0.00  0.00     0.174 A 
ATOM      3  C3  BZF d   1       0.527  -5.931   5.858  0.00  0.00    -0.012 A 
ATOM      4  C3A BZF d   1       0.282  -5.984   4.449  0.00  0.00    -0.107 A 
ATOM      5  C4  BZF d   1      -0.855  -5.988   3.693  0.00  0.00     0.055 A 
ATOM      6  C5  BZF d   1      -0.748  -5.973   2.338  0.00  0.00    -0.016 A 
ATOM      7  C6  BZF d   1       0.479  -5.948   1.707  0.00  0.00     0.022 A 
ATOM      8  C7  BZF d   1       1.635  -5.948   2.415  0.00  0.00     0.029 A 
ATOM      9  C7A BZF d   1       1.530  -5.997   3.784  0.00  0.00     0.058 A 
ENDROOT
TORSDOF 0
ENDMDL
