MODEL 1
REMARK minimizedAffinity -0.175219253
REMARK minimizedRMSD -1
REMARK  0 active torsions:
REMARK  status: ('A' for Active; 'I' for Inactive)
ROOT
ATOM      1  C   UNL d   1      -5.994   1.673  -2.436  0.00  0.00     0.172 C 
ATOM      2  N   UNL d   1      -5.583   1.837  -3.811  0.00  0.00    -0.070 N 
ATOM      3  C1  UNL d   1      -4.728   2.799  -4.280  0.00  0.00    -0.004 A 
ATOM      4  C2  UNL d   1      -4.593   2.617  -5.639  0.00  0.00    -0.047 A 
ATOM      5  C3  UNL d   1      -5.395   1.508  -6.000  0.00  0.00    -0.047 A 
ATOM      6  C4  UNL d   1      -5.997   1.045  -4.849  0.00  0.00    -0.004 A 
ENDROOT
TORSDOF 0
ENDMDL
