MODEL 1
REMARK minimizedAffinity 2.62207818
REMARK minimizedRMSD -1
REMARK  0 active torsions:
REMARK  status: ('A' for Active; 'I' for Inactive)
ROOT
ATOM      1  C   UNL d   1       0.364   2.875   0.257  0.00  0.00     0.172 C 
ATOM      2  N   UNL d   1       0.243   3.861  -0.791  0.00  0.00    -0.070 N 
ATOM      3  C1  UNL d   1      -0.602   3.784  -1.865  0.00  0.00    -0.004 A 
ATOM      4  C2  UNL d   1      -0.418   4.916  -2.629  0.00  0.00    -0.047 A 
ATOM      5  C3  UNL d   1       0.573   5.700  -1.993  0.00  0.00    -0.047 A 
ATOM      6  C4  UNL d   1       0.965   5.023  -0.857  0.00  0.00    -0.004 A 
ENDROOT
TORSDOF 0
ENDMDL
