MODEL 1
REMARK minimizedAffinity 1.35982525
REMARK minimizedRMSD -1
REMARK  0 active torsions:
REMARK  status: ('A' for Active; 'I' for Inactive)
ROOT
ATOM      1  C   UNL d   1      -1.743   5.330  -2.188  0.00  0.00     0.172 C 
ATOM      2  N   UNL d   1      -0.455   4.967  -1.644  0.00  0.00    -0.070 N 
ATOM      3  C1  UNL d   1      -0.223   3.961  -0.745  0.00  0.00    -0.004 A 
ATOM      4  C2  UNL d   1       1.129   3.937  -0.479  0.00  0.00    -0.047 A 
ATOM      5  C3  UNL d   1       1.730   4.964  -1.244  0.00  0.00    -0.047 A 
ATOM      6  C4  UNL d   1       0.727   5.586  -1.956  0.00  0.00    -0.004 A 
ENDROOT
TORSDOF 0
ENDMDL
