MODEL 1
REMARK minimizedAffinity -0.25850749
REMARK minimizedRMSD -1
REMARK  0 active torsions:
REMARK  status: ('A' for Active; 'I' for Inactive)
ROOT
ATOM      1  C   UNL d   1      -2.161   5.552   1.092  0.00  0.00     0.172 C 
ATOM      2  N   UNL d   1      -1.445   4.558   0.328  0.00  0.00    -0.070 N 
ATOM      3  C1  UNL d   1      -1.069   4.677  -0.983  0.00  0.00    -0.004 A 
ATOM      4  C2  UNL d   1      -0.411   3.520  -1.340  0.00  0.00    -0.047 A 
ATOM      5  C3  UNL d   1      -0.391   2.676  -0.204  0.00  0.00    -0.047 A 
ATOM      6  C4  UNL d   1      -1.038   3.344   0.815  0.00  0.00    -0.004 A 
ENDROOT
TORSDOF 0
ENDMDL
