MODEL 1
REMARK minimizedAffinity 7.16917038
REMARK minimizedRMSD -1
REMARK  0 active torsions:
REMARK  status: ('A' for Active; 'I' for Inactive)
ROOT
ATOM      1  C   UNL d   1      -1.855   4.961  -2.300  0.00  0.00     0.172 C 
ATOM      2  N   UNL d   1      -0.703   4.707  -1.468  0.00  0.00    -0.070 N 
ATOM      3  C1  UNL d   1      -0.658   3.836  -0.412  0.00  0.00    -0.004 A 
ATOM      4  C2  UNL d   1       0.614   3.881   0.118  0.00  0.00    -0.047 A 
ATOM      5  C3  UNL d   1       1.358   4.811  -0.645  0.00  0.00    -0.047 A 
ATOM      6  C4  UNL d   1       0.519   5.307  -1.620  0.00  0.00    -0.004 A 
ENDROOT
TORSDOF 0
ENDMDL
