MODEL 1
REMARK minimizedAffinity 5.23069382
REMARK minimizedRMSD -1
REMARK  0 active torsions:
REMARK  status: ('A' for Active; 'I' for Inactive)
ROOT
ATOM      1  C   UNL d   1       0.454  -2.775  -1.086  0.00  0.00     0.172 C 
ATOM      2  N   UNL d   1      -0.388  -3.780  -1.690  0.00  0.00    -0.070 N 
ATOM      3  C1  UNL d   1      -1.493  -3.538  -2.463  0.00  0.00    -0.004 A 
ATOM      4  C2  UNL d   1      -2.015  -4.755  -2.845  0.00  0.00    -0.047 A 
ATOM      5  C3  UNL d   1      -1.198  -5.763  -2.282  0.00  0.00    -0.047 A 
ATOM      6  C4  UNL d   1      -0.198  -5.132  -1.572  0.00  0.00    -0.004 A 
ENDROOT
TORSDOF 0
ENDMDL
