MODEL 1
REMARK minimizedAffinity 6.84535789
REMARK minimizedRMSD -1
REMARK  0 active torsions:
REMARK  status: ('A' for Active; 'I' for Inactive)
ROOT
ATOM      1  C   UNL d   1       4.105  -2.442  -0.713  0.00  0.00     0.172 C 
ATOM      2  N   UNL d   1       4.075  -3.885  -0.715  0.00  0.00    -0.070 N 
ATOM      3  C1  UNL d   1       2.947  -4.661  -0.736  0.00  0.00    -0.004 A 
ATOM      4  C2  UNL d   1       3.342  -5.981  -0.730  0.00  0.00    -0.047 A 
ATOM      5  C3  UNL d   1       4.757  -6.000  -0.704  0.00  0.00    -0.047 A 
ATOM      6  C4  UNL d   1       5.185  -4.689  -0.695  0.00  0.00    -0.004 A 
ENDROOT
TORSDOF 0
ENDMDL
