MODEL 1
REMARK minimizedAffinity 1.14743793
REMARK minimizedRMSD -1
REMARK  0 active torsions:
REMARK  status: ('A' for Active; 'I' for Inactive)
ROOT
ATOM      1  C   UNL d   1       0.357   0.221   3.373  0.00  0.00     0.172 C 
ATOM      2  N   UNL d   1       0.429  -0.747   4.442  0.00  0.00    -0.070 N 
ATOM      3  C1  UNL d   1      -0.640  -1.371   5.027  0.00  0.00    -0.004 A 
ATOM      4  C2  UNL d   1      -0.154  -2.218   6.000  0.00  0.00    -0.047 A 
ATOM      5  C3  UNL d   1       1.256  -2.097   6.000  0.00  0.00    -0.047 A 
ATOM      6  C4  UNL d   1       1.590  -1.181   5.026  0.00  0.00    -0.004 A 
ENDROOT
TORSDOF 0
ENDMDL
