MODEL 1
REMARK minimizedAffinity 6.8347578
REMARK minimizedRMSD -1
REMARK  0 active torsions:
REMARK  status: ('A' for Active; 'I' for Inactive)
ROOT
ATOM      1  C   UNL d   1       6.000  -6.000   1.113  0.00  0.00     0.172 C 
ATOM      2  N   UNL d   1       5.602  -5.300  -0.086  0.00  0.00    -0.070 N 
ATOM      3  C1  UNL d   1       4.778  -5.792  -1.062  0.00  0.00    -0.004 A 
ATOM      4  C2  UNL d   1       4.645  -4.822  -2.032  0.00  0.00    -0.047 A 
ATOM      5  C3  UNL d   1       5.418  -3.709  -1.625  0.00  0.00    -0.047 A 
ATOM      6  C4  UNL d   1       5.999  -4.031  -0.417  0.00  0.00    -0.004 A 
ENDROOT
TORSDOF 0
ENDMDL
