MODEL 1
REMARK minimizedAffinity 5.29413557
REMARK minimizedRMSD -1
REMARK  0 active torsions:
REMARK  status: ('A' for Active; 'I' for Inactive)
ROOT
ATOM      1  C   UNL d   1       5.250  -5.355  -0.879  0.00  0.00     0.172 C 
ATOM      2  N   UNL d   1       4.977  -3.949  -0.698  0.00  0.00    -0.070 N 
ATOM      3  C1  UNL d   1       5.839  -2.925  -0.987  0.00  0.00    -0.004 A 
ATOM      4  C2  UNL d   1       5.207  -1.741  -0.676  0.00  0.00    -0.047 A 
ATOM      5  C3  UNL d   1       3.921  -2.064  -0.181  0.00  0.00    -0.047 A 
ATOM      6  C4  UNL d   1       3.805  -3.438  -0.206  0.00  0.00    -0.004 A 
ENDROOT
TORSDOF 0
ENDMDL
