MODEL 1
REMARK minimizedAffinity 1.56632495
REMARK minimizedRMSD -1
REMARK  0 active torsions:
REMARK  status: ('A' for Active; 'I' for Inactive)
ROOT
ATOM      1  C   UNL d   1       1.096  -1.492   4.647  0.00  0.00     0.172 C 
ATOM      2  N   UNL d   1       0.889  -0.289   3.876  0.00  0.00    -0.070 N 
ATOM      3  C1  UNL d   1       1.781   0.255   2.991  0.00  0.00    -0.004 A 
ATOM      4  C2  UNL d   1       1.212   1.394   2.464  0.00  0.00    -0.047 A 
ATOM      5  C3  UNL d   1      -0.067   1.540   3.054  0.00  0.00    -0.047 A 
ATOM      6  C4  UNL d   1      -0.241   0.485   3.924  0.00  0.00    -0.004 A 
ENDROOT
TORSDOF 0
ENDMDL
