MODEL 1
REMARK minimizedAffinity 7.42124367
REMARK minimizedRMSD -1
REMARK  0 active torsions:
REMARK  status: ('A' for Active; 'I' for Inactive)
ROOT
ATOM      1  C   UNL d   1      -0.318   1.805   0.404  0.00  0.00     0.172 C 
ATOM      2  N   UNL d   1      -0.358   3.084  -0.265  0.00  0.00    -0.070 N 
ATOM      3  C1  UNL d   1      -0.942   4.223   0.223  0.00  0.00    -0.004 A 
ATOM      4  C2  UNL d   1      -0.764   5.222  -0.710  0.00  0.00    -0.047 A 
ATOM      5  C3  UNL d   1      -0.049   4.664  -1.796  0.00  0.00    -0.047 A 
ATOM      6  C4  UNL d   1       0.189   3.340  -1.495  0.00  0.00    -0.004 A 
ENDROOT
TORSDOF 0
ENDMDL
