MODEL 1
REMARK minimizedAffinity -3.18364787
REMARK minimizedRMSD -1
REMARK  0 active torsions:
REMARK  status: ('A' for Active; 'I' for Inactive)
ROOT
ATOM      1  N1  IND d   1      -0.833  -0.839  -0.011  0.00  0.00    -0.196 N 
ATOM      2  C2  IND d   1      -1.345   0.412  -0.216  0.00  0.00     0.054 A 
ATOM      3  C3  IND d   1      -0.387   1.348  -0.034  0.00  0.00    -0.031 A 
ATOM      4  C4  IND d   1       2.112   1.048   0.504  0.00  0.00     0.051 A 
ATOM      5  C5  IND d   1       3.040   0.095   0.818  0.00  0.00    -0.031 A 
ATOM      6  C6  IND d   1       2.718  -1.246   0.870  0.00  0.00     0.015 A 
ATOM      7  C7  IND d   1       1.454  -1.686   0.597  0.00  0.00    -0.016 A 
ATOM      8  C8  IND d   1       0.508  -0.720   0.285  0.00  0.00    -0.047 A 
ATOM      9  C9  IND d   1       0.818   0.646   0.273  0.00  0.00    -0.096 A 
ATOM     10  HN1 IND d   1      -1.273  -1.576  -0.059  0.00  0.00     0.298 HD
ENDROOT
TORSDOF 0
ENDMDL
