MODEL 1
REMARK minimizedAffinity -5.63755751
REMARK minimizedRMSD -1
REMARK  0 active torsions:
REMARK  status: ('A' for Active; 'I' for Inactive)
ROOT
ATOM      1  N1  IND d   1      -0.444  -0.676   1.151  0.00  0.00    -0.196 N 
ATOM      2  C2  IND d   1      -0.620   0.340   0.253  0.00  0.00     0.054 A 
ATOM      3  C3  IND d   1       0.576   0.784  -0.195  0.00  0.00    -0.031 A 
ATOM      4  C4  IND d   1       2.943  -0.079   0.332  0.00  0.00     0.051 A 
ATOM      5  C5  IND d   1       3.614  -0.968   1.125  0.00  0.00    -0.031 A 
ATOM      6  C6  IND d   1       2.953  -1.824   1.981  0.00  0.00     0.015 A 
ATOM      7  C7  IND d   1       1.590  -1.831   2.070  0.00  0.00    -0.016 A 
ATOM      8  C8  IND d   1       0.906  -0.925   1.272  0.00  0.00    -0.047 A 
ATOM      9  C9  IND d   1       1.573  -0.024   0.432  0.00  0.00    -0.096 A 
ATOM     10  HN1 IND d   1      -1.071  -1.090   1.569  0.00  0.00     0.298 HD
ENDROOT
TORSDOF 0
ENDMDL
