MODEL 1
REMARK minimizedAffinity -5.16196442
REMARK minimizedRMSD -1
REMARK  0 active torsions:
REMARK  status: ('A' for Active; 'I' for Inactive)
ROOT
ATOM      1  N1  IND d   1      -0.694  -0.949   0.770  0.00  0.00    -0.196 N 
ATOM      2  C2  IND d   1      -1.517   0.051   0.333  0.00  0.00     0.054 A 
ATOM      3  C3  IND d   1      -0.789   1.117  -0.071  0.00  0.00    -0.031 A 
ATOM      4  C4  IND d   1       1.767   1.398  -0.198  0.00  0.00     0.051 A 
ATOM      5  C5  IND d   1       2.937   0.770   0.125  0.00  0.00    -0.031 A 
ATOM      6  C6  IND d   1       2.957  -0.490   0.688  0.00  0.00     0.015 A 
ATOM      7  C7  IND d   1       1.803  -1.176   0.940  0.00  0.00    -0.016 A 
ATOM      8  C8  IND d   1       0.613  -0.539   0.620  0.00  0.00    -0.047 A 
ATOM      9  C9  IND d   1       0.584   0.757   0.088  0.00  0.00    -0.096 A 
ATOM     10  HN1 IND d   1      -0.949  -1.707   1.085  0.00  0.00     0.298 HD
ENDROOT
TORSDOF 0
ENDMDL
