MODEL 1
REMARK minimizedAffinity -3.86272311
REMARK minimizedRMSD -1
REMARK  0 active torsions:
REMARK  status: ('A' for Active; 'I' for Inactive)
ROOT
ATOM      1  N1  IND d   1      -0.896  -0.835   0.140  0.00  0.00    -0.196 N 
ATOM      2  C2  IND d   1      -1.367   0.102  -0.737  0.00  0.00     0.054 A 
ATOM      3  C3  IND d   1      -0.351   0.866  -1.199  0.00  0.00    -0.031 A 
ATOM      4  C4  IND d   1       2.173   0.690  -0.728  0.00  0.00     0.051 A 
ATOM      5  C5  IND d   1       3.082   0.013   0.037  0.00  0.00    -0.031 A 
ATOM      6  C6  IND d   1       2.704  -1.003   0.891  0.00  0.00     0.015 A 
ATOM      7  C7  IND d   1       1.398  -1.390   1.003  0.00  0.00    -0.016 A 
ATOM      8  C8  IND d   1       0.472  -0.701   0.233  0.00  0.00    -0.047 A 
ATOM      9  C9  IND d   1       0.845   0.360  -0.603  0.00  0.00    -0.096 A 
ATOM     10  HN1 IND d   1      -1.374  -1.412   0.562  0.00  0.00     0.298 HD
ENDROOT
TORSDOF 0
ENDMDL
