MODEL 1
REMARK minimizedAffinity -4.96477699
REMARK minimizedRMSD -1
REMARK  0 active torsions:
REMARK  status: ('A' for Active; 'I' for Inactive)
ROOT
ATOM      1  N1  IND d   1      -0.794  -0.302   0.360  0.00  0.00    -0.196 N 
ATOM      2  C2  IND d   1      -1.025   1.020   0.098  0.00  0.00     0.054 A 
ATOM      3  C3  IND d   1       0.137   1.711   0.110  0.00  0.00    -0.031 A 
ATOM      4  C4  IND d   1       2.544   0.859   0.437  0.00  0.00     0.051 A 
ATOM      5  C5  IND d   1       3.256  -0.267   0.743  0.00  0.00    -0.031 A 
ATOM      6  C6  IND d   1       2.642  -1.487   0.938  0.00  0.00     0.015 A 
ATOM      7  C7  IND d   1       1.288  -1.630   0.823  0.00  0.00    -0.016 A 
ATOM      8  C8  IND d   1       0.562  -0.487   0.519  0.00  0.00    -0.047 A 
ATOM      9  C9  IND d   1       1.175   0.762   0.362  0.00  0.00    -0.096 A 
ATOM     10  HN1 IND d   1      -1.395  -0.914   0.417  0.00  0.00     0.298 HD
ENDROOT
TORSDOF 0
ENDMDL
