MODEL 1
REMARK minimizedAffinity -1.57523811
REMARK minimizedRMSD -1
REMARK  0 active torsions:
REMARK  status: ('A' for Active; 'I' for Inactive)
ROOT
ATOM      1  N1  IND d   1       2.226   1.134   0.737  0.00  0.00    -0.196 N 
ATOM      2  C2  IND d   1       3.327   0.324   0.772  0.00  0.00     0.054 A 
ATOM      3  C3  IND d   1       2.957  -0.976   0.737  0.00  0.00    -0.031 A 
ATOM      4  C4  IND d   1       0.605  -2.001   0.519  0.00  0.00     0.051 A 
ATOM      5  C5  IND d   1      -0.719  -1.663   0.490  0.00  0.00    -0.031 A 
ATOM      6  C6  IND d   1      -1.137  -0.349   0.540  0.00  0.00     0.015 A 
ATOM      7  C7  IND d   1      -0.243   0.681   0.610  0.00  0.00    -0.016 A 
ATOM      8  C8  IND d   1       1.102   0.342   0.647  0.00  0.00    -0.047 A 
ATOM      9  C9  IND d   1       1.531  -0.992   0.639  0.00  0.00    -0.096 A 
ATOM     10  HN1 IND d   1       2.234   1.993   0.767  0.00  0.00     0.298 HD
ENDROOT
TORSDOF 0
ENDMDL
