MODEL 1
REMARK minimizedAffinity 11.902607
REMARK minimizedRMSD -1
REMARK  0 active torsions:
REMARK  status: ('A' for Active; 'I' for Inactive)
ROOT
ATOM      1  C4' PXY d   1      -5.871   0.127  -4.611  0.00  0.00     0.077 C 
ATOM      2  C1' PXY d   1      -3.417   0.564   0.605  0.00  0.00     0.077 C 
ATOM      3  C1  PXY d   1      -4.072   0.449  -0.757  0.00  0.00    -0.082 A 
ATOM      4  C2  PXY d   1      -3.368   0.007  -1.786  0.00  0.00     0.003 A 
ATOM      5  C3  PXY d   1      -3.936  -0.074  -3.032  0.00  0.00     0.003 A 
ATOM      6  C4  PXY d   1      -5.253   0.251  -3.215  0.00  0.00    -0.082 A 
ATOM      7  C5  PXY d   1      -5.981   0.693  -2.168  0.00  0.00     0.003 A 
ATOM      8  C6  PXY d   1      -5.375   0.807  -0.920  0.00  0.00     0.003 A 
ENDROOT
TORSDOF 0
ENDMDL
