MODEL 1
REMARK minimizedAffinity 8.16863155
REMARK minimizedRMSD -1
REMARK  0 active torsions:
REMARK  status: ('A' for Active; 'I' for Inactive)
ROOT
ATOM      1  C4' PXY d   1       2.268  -0.729   1.396  0.00  0.00     0.077 C 
ATOM      2  C1' PXY d   1       3.371   3.561  -2.318  0.00  0.00     0.077 C 
ATOM      3  C1  PXY d   1       3.069   2.437  -1.347  0.00  0.00    -0.082 A 
ATOM      4  C2  PXY d   1       3.869   2.232  -0.313  0.00  0.00     0.003 A 
ATOM      5  C3  PXY d   1       3.629   1.200   0.556  0.00  0.00     0.003 A 
ATOM      6  C4  PXY d   1       2.529   0.401   0.396  0.00  0.00    -0.082 A 
ATOM      7  C5  PXY d   1       1.701   0.610  -0.650  0.00  0.00     0.003 A 
ATOM      8  C6  PXY d   1       1.986   1.637  -1.545  0.00  0.00     0.003 A 
ENDROOT
TORSDOF 0
ENDMDL
