MODEL 1
REMARK minimizedAffinity 12.2756023
REMARK minimizedRMSD -1
REMARK  0 active torsions:
REMARK  status: ('A' for Active; 'I' for Inactive)
ROOT
ATOM      1  C4' PXY d   1      -4.499  -5.976  -3.320  0.00  0.00     0.077 C 
ATOM      2  C1' PXY d   1       0.059  -5.995   0.235  0.00  0.00     0.077 C 
ATOM      3  C1  PXY d   1      -1.129  -5.985  -0.707  0.00  0.00    -0.082 A 
ATOM      4  C2  PXY d   1      -2.356  -5.971  -0.212  0.00  0.00     0.003 A 
ATOM      5  C3  PXY d   1      -3.442  -5.994  -1.049  0.00  0.00     0.003 A 
ATOM      6  C4  PXY d   1      -3.270  -5.977  -2.407  0.00  0.00    -0.082 A 
ATOM      7  C5  PXY d   1      -2.022  -5.980  -2.920  0.00  0.00     0.003 A 
ATOM      8  C6  PXY d   1      -0.933  -5.999  -2.053  0.00  0.00     0.003 A 
ENDROOT
TORSDOF 0
ENDMDL
