MODEL 1
REMARK minimizedAffinity 4.59889793
REMARK minimizedRMSD -1
REMARK  0 active torsions:
REMARK  status: ('A' for Active; 'I' for Inactive)
ROOT
ATOM      1  C4' PXY d   1       3.742   2.230  -1.572  0.00  0.00     0.077 C 
ATOM      2  C1' PXY d   1       1.539  -2.635   0.642  0.00  0.00     0.077 C 
ATOM      3  C1  PXY d   1       2.118  -1.354   0.073  0.00  0.00    -0.082 A 
ATOM      4  C2  PXY d   1       1.838  -1.006  -1.172  0.00  0.00     0.003 A 
ATOM      5  C3  PXY d   1       2.379   0.132  -1.712  0.00  0.00     0.003 A 
ATOM      6  C4  PXY d   1       3.172   0.950  -0.953  0.00  0.00    -0.082 A 
ATOM      7  C5  PXY d   1       3.453   0.608   0.322  0.00  0.00     0.003 A 
ATOM      8  C6  PXY d   1       2.928  -0.573   0.839  0.00  0.00     0.003 A 
ENDROOT
TORSDOF 0
ENDMDL
