MODEL 1
REMARK minimizedAffinity 10.566206
REMARK minimizedRMSD -1
REMARK  0 active torsions:
REMARK  status: ('A' for Active; 'I' for Inactive)
ROOT
ATOM      1  C4' PXY d   1      -4.968   6.000   5.999  0.00  0.00     0.077 C 
ATOM      2  C1' PXY d   1      -4.690   2.990   1.072  0.00  0.00     0.077 C 
ATOM      3  C1  PXY d   1      -4.751   3.775   2.367  0.00  0.00    -0.082 A 
ATOM      4  C2  PXY d   1      -5.926   4.084   2.890  0.00  0.00     0.003 A 
ATOM      5  C3  PXY d   1      -6.000   4.821   4.044  0.00  0.00     0.003 A 
ATOM      6  C4  PXY d   1      -4.858   5.201   4.698  0.00  0.00    -0.082 A 
ATOM      7  C5  PXY d   1      -3.655   4.880   4.176  0.00  0.00     0.003 A 
ATOM      8  C6  PXY d   1      -3.602   4.167   2.982  0.00  0.00     0.003 A 
ENDROOT
TORSDOF 0
ENDMDL
