MODEL 1
REMARK minimizedAffinity 9.08715439
REMARK minimizedRMSD -1
REMARK  0 active torsions:
REMARK  status: ('A' for Active; 'I' for Inactive)
ROOT
ATOM      1  C4' PXY d   1       4.488   3.037  -1.979  0.00  0.00     0.077 C 
ATOM      2  C1' PXY d   1       2.199  -1.527   0.731  0.00  0.00     0.077 C 
ATOM      3  C1  PXY d   1       2.796  -0.322   0.031  0.00  0.00    -0.082 A 
ATOM      4  C2  PXY d   1       2.847  -0.293  -1.291  0.00  0.00     0.003 A 
ATOM      5  C3  PXY d   1       3.414   0.774  -1.940  0.00  0.00     0.003 A 
ATOM      6  C4  PXY d   1       3.884   1.846  -1.230  0.00  0.00    -0.082 A 
ATOM      7  C5  PXY d   1       3.826   1.828   0.118  0.00  0.00     0.003 A 
ATOM      8  C6  PXY d   1       3.285   0.718   0.759  0.00  0.00     0.003 A 
ENDROOT
TORSDOF 0
ENDMDL
