MODEL 1
REMARK minimizedAffinity 19.0000935
REMARK minimizedRMSD -1
REMARK  0 active torsions:
REMARK  status: ('A' for Active; 'I' for Inactive)
ROOT
ATOM      1  C4' PXY d   1       5.225   3.163   1.553  0.00  0.00     0.077 C 
ATOM      2  C1' PXY d   1       1.472  -0.059  -1.438  0.00  0.00     0.077 C 
ATOM      3  C1  PXY d   1       2.460   0.791  -0.664  0.00  0.00    -0.082 A 
ATOM      4  C2  PXY d   1       2.863   0.400   0.534  0.00  0.00     0.003 A 
ATOM      5  C3  PXY d   1       3.732   1.173   1.260  0.00  0.00     0.003 A 
ATOM      6  C4  PXY d   1       4.235   2.331   0.733  0.00  0.00    -0.082 A 
ATOM      7  C5  PXY d   1       3.838   2.732  -0.494  0.00  0.00     0.003 A 
ATOM      8  C6  PXY d   1       2.923   1.954  -1.198  0.00  0.00     0.003 A 
ENDROOT
TORSDOF 0
ENDMDL
