MODEL 1
REMARK minimizedAffinity 0.995578527
REMARK minimizedRMSD -1
REMARK  0 active torsions:
REMARK  status: ('A' for Active; 'I' for Inactive)
ROOT
ATOM      1  C4' PXY d   1       4.483   1.812  -2.583  0.00  0.00     0.077 C 
ATOM      2  C1' PXY d   1       1.792  -2.337   0.410  0.00  0.00     0.077 C 
ATOM      3  C1  PXY d   1       2.492  -1.240  -0.368  0.00  0.00    -0.082 A 
ATOM      4  C2  PXY d   1       2.922  -1.481  -1.596  0.00  0.00     0.003 A 
ATOM      5  C3  PXY d   1       3.585  -0.510  -2.301  0.00  0.00     0.003 A 
ATOM      6  C4  PXY d   1       3.763   0.737  -1.764  0.00  0.00    -0.082 A 
ATOM      7  C5  PXY d   1       3.317   0.994  -0.516  0.00  0.00     0.003 A 
ATOM      8  C6  PXY d   1       2.683  -0.018   0.199  0.00  0.00     0.003 A 
ENDROOT
TORSDOF 0
ENDMDL
