MODEL 1
REMARK minimizedAffinity 6.67222786
REMARK minimizedRMSD -1
REMARK  0 active torsions:
REMARK  status: ('A' for Active; 'I' for Inactive)
ROOT
ATOM      1  C4' PXY d   1       3.640   1.833  -1.475  0.00  0.00     0.077 C 
ATOM      2  C1' PXY d   1       1.311  -3.401  -0.701  0.00  0.00     0.077 C 
ATOM      3  C1  PXY d   1       1.919  -2.025  -0.892  0.00  0.00    -0.082 A 
ATOM      4  C2  PXY d   1       2.022  -1.518  -2.110  0.00  0.00     0.003 A 
ATOM      5  C3  PXY d   1       2.598  -0.289  -2.303  0.00  0.00     0.003 A 
ATOM      6  C4  PXY d   1       3.025   0.452  -1.234  0.00  0.00    -0.082 A 
ATOM      7  C5  PXY d   1       2.913  -0.053   0.013  0.00  0.00     0.003 A 
ATOM      8  C6  PXY d   1       2.363  -1.320   0.184  0.00  0.00     0.003 A 
ENDROOT
TORSDOF 0
ENDMDL
