MODEL 1
REMARK minimizedAffinity 16.4258709
REMARK minimizedRMSD -1
REMARK  0 active torsions:
REMARK  status: ('A' for Active; 'I' for Inactive)
ROOT
ATOM      1  C4' PXY d   1       6.000   3.017  -1.864  0.00  0.00     0.077 C 
ATOM      2  C1' PXY d   1       1.657   0.342   0.857  0.00  0.00     0.077 C 
ATOM      3  C1  PXY d   1       2.802   1.046   0.155  0.00  0.00    -0.082 A 
ATOM      4  C2  PXY d   1       2.604   1.591  -1.034  0.00  0.00     0.003 A 
ATOM      5  C3  PXY d   1       3.636   2.203  -1.698  0.00  0.00     0.003 A 
ATOM      6  C4  PXY d   1       4.871   2.305  -1.114  0.00  0.00    -0.082 A 
ATOM      7  C5  PXY d   1       5.078   1.760   0.103  0.00  0.00     0.003 A 
ATOM      8  C6  PXY d   1       4.028   1.107   0.742  0.00  0.00     0.003 A 
ENDROOT
TORSDOF 0
ENDMDL
