MODEL 1
REMARK minimizedAffinity 1.97959054
REMARK minimizedRMSD -1
REMARK  0 active torsions:
REMARK  status: ('A' for Active; 'I' for Inactive)
ROOT
ATOM      1  C4' PXY d   1      -4.912   3.105   1.080  0.00  0.00     0.077 C 
ATOM      2  C1' PXY d   1      -6.000   5.999   5.964  0.00  0.00     0.077 C 
ATOM      3  C1  PXY d   1      -5.724   5.247   4.677  0.00  0.00    -0.082 A 
ATOM      4  C2  PXY d   1      -5.208   4.030   4.728  0.00  0.00     0.003 A 
ATOM      5  C3  PXY d   1      -4.922   3.348   3.573  0.00  0.00     0.003 A 
ATOM      6  C4  PXY d   1      -5.216   3.897   2.354  0.00  0.00    -0.082 A 
ATOM      7  C5  PXY d   1      -5.752   5.135   2.293  0.00  0.00     0.003 A 
ATOM      8  C6  PXY d   1      -5.997   5.827   3.476  0.00  0.00     0.003 A 
ENDROOT
TORSDOF 0
ENDMDL
