MODEL 1
REMARK minimizedAffinity 16.4070587
REMARK minimizedRMSD -1
REMARK  0 active torsions:
REMARK  status: ('A' for Active; 'I' for Inactive)
ROOT
ATOM      1  C4' PXY d   1      -4.126   2.625   1.509  0.00  0.00     0.077 C 
ATOM      2  C1' PXY d   1      -5.999   1.377  -3.815  0.00  0.00     0.077 C 
ATOM      3  C1  PXY d   1      -5.504   1.716  -2.423  0.00  0.00    -0.082 A 
ATOM      4  C2  PXY d   1      -5.239   0.742  -1.568  0.00  0.00     0.003 A 
ATOM      5  C3  PXY d   1      -4.821   1.031  -0.295  0.00  0.00     0.003 A 
ATOM      6  C4  PXY d   1      -4.620   2.330   0.090  0.00  0.00    -0.082 A 
ATOM      7  C5  PXY d   1      -4.877   3.329  -0.780  0.00  0.00     0.003 A 
ATOM      8  C6  PXY d   1      -5.341   3.016  -2.055  0.00  0.00     0.003 A 
ENDROOT
TORSDOF 0
ENDMDL
