MODEL 1
REMARK minimizedAffinity 8.27050018
REMARK minimizedRMSD -1
REMARK  0 active torsions:
REMARK  status: ('A' for Active; 'I' for Inactive)
ROOT
ATOM      1  C4' PXY d   1      -1.743  -5.998   5.999  0.00  0.00     0.077 C 
ATOM      2  C1' PXY d   1       0.905  -1.795   3.043  0.00  0.00     0.077 C 
ATOM      3  C1  PXY d   1       0.222  -2.900   3.824  0.00  0.00    -0.082 A 
ATOM      4  C2  PXY d   1      -0.881  -3.454   3.346  0.00  0.00     0.003 A 
ATOM      5  C3  PXY d   1      -1.529  -4.433   4.055  0.00  0.00     0.003 A 
ATOM      6  C4  PXY d   1      -1.015  -4.886   5.240  0.00  0.00    -0.082 A 
ATOM      7  C5  PXY d   1       0.116  -4.333   5.729  0.00  0.00     0.003 A 
ATOM      8  C6  PXY d   1       0.736  -3.313   5.015  0.00  0.00     0.003 A 
ENDROOT
TORSDOF 0
ENDMDL
