MODEL 1
REMARK minimizedAffinity -2.96014929
REMARK minimizedRMSD -1
REMARK  0 active torsions:
REMARK  status: ('A' for Active; 'I' for Inactive)
ROOT
ATOM      1  C   UNL d   1       2.748   0.379  -0.479  0.00  0.00     0.172 C 
ATOM      2  N   UNL d   1       1.391  -0.108  -0.391  0.00  0.00    -0.070 N 
ATOM      3  C1  UNL d   1       0.337   0.565   0.166  0.00  0.00    -0.004 A 
ATOM      4  C2  UNL d   1      -0.781  -0.234   0.053  0.00  0.00    -0.047 A 
ATOM      5  C3  UNL d   1      -0.384  -1.428  -0.594  0.00  0.00    -0.047 A 
ATOM      6  C4  UNL d   1       0.966  -1.323  -0.857  0.00  0.00    -0.004 A 
ENDROOT
TORSDOF 0
ENDMDL
