MODEL 1
REMARK minimizedAffinity -3.10451508
REMARK minimizedRMSD -1
REMARK  0 active torsions:
REMARK  status: ('A' for Active; 'I' for Inactive)
ROOT
ATOM      1  C   UNL d   1       2.166  -1.513  -1.654  0.00  0.00     0.172 C 
ATOM      2  N   UNL d   1       1.173  -0.787  -0.897  0.00  0.00    -0.070 N 
ATOM      3  C1  UNL d   1       0.079  -1.336  -0.282  0.00  0.00    -0.004 A 
ATOM      4  C2  UNL d   1      -0.616  -0.316   0.331  0.00  0.00    -0.047 A 
ATOM      5  C3  UNL d   1       0.084   0.887   0.075  0.00  0.00    -0.047 A 
ATOM      6  C4  UNL d   1       1.187   0.566  -0.687  0.00  0.00    -0.004 A 
ENDROOT
TORSDOF 0
ENDMDL
