MODEL 1
REMARK minimizedAffinity -2.8823483
REMARK minimizedRMSD -1
REMARK  0 active torsions:
REMARK  status: ('A' for Active; 'I' for Inactive)
ROOT
ATOM      1  C   UNL d   1      -0.585  -1.671  -0.741  0.00  0.00     0.172 C 
ATOM      2  N   UNL d   1       0.471  -0.764  -0.360  0.00  0.00    -0.070 N 
ATOM      3  C1  UNL d   1       0.481   0.026   0.759  0.00  0.00    -0.004 A 
ATOM      4  C2  UNL d   1       1.659   0.740   0.761  0.00  0.00    -0.047 A 
ATOM      5  C3  UNL d   1       2.382   0.368  -0.397  0.00  0.00    -0.047 A 
ATOM      6  C4  UNL d   1       1.624  -0.564  -1.073  0.00  0.00    -0.004 A 
ENDROOT
TORSDOF 0
ENDMDL
