MODEL 1
REMARK minimizedAffinity -3.82869864
REMARK minimizedRMSD -1
REMARK  0 active torsions:
REMARK  status: ('A' for Active; 'I' for Inactive)
ROOT
ATOM      1  C   UNL d   1       3.023  -0.413  -1.683  0.00  0.00     0.172 C 
ATOM      2  N   UNL d   1       1.736   0.129  -1.317  0.00  0.00    -0.070 N 
ATOM      3  C1  UNL d   1       1.183   1.279  -1.814  0.00  0.00    -0.004 A 
ATOM      4  C2  UNL d   1      -0.047   1.449  -1.217  0.00  0.00    -0.047 A 
ATOM      5  C3  UNL d   1      -0.240   0.364  -0.329  0.00  0.00    -0.047 A 
ATOM      6  C4  UNL d   1       0.879  -0.438  -0.411  0.00  0.00    -0.004 A 
ENDROOT
TORSDOF 0
ENDMDL
