MODEL 1
REMARK minimizedAffinity -3.13813376
REMARK minimizedRMSD -1
REMARK  0 active torsions:
REMARK  status: ('A' for Active; 'I' for Inactive)
ROOT
ATOM      1  C   UNL d   1      -0.736   0.582   0.524  0.00  0.00     0.172 C 
ATOM      2  N   UNL d   1       0.457  -0.032  -0.011  0.00  0.00    -0.070 N 
ATOM      3  C1  UNL d   1       0.768  -1.363   0.055  0.00  0.00    -0.004 A 
ATOM      4  C2  UNL d   1       1.983  -1.545  -0.569  0.00  0.00    -0.047 A 
ATOM      5  C3  UNL d   1       2.418  -0.278  -1.026  0.00  0.00    -0.047 A 
ATOM      6  C4  UNL d   1       1.454   0.641  -0.667  0.00  0.00    -0.004 A 
ENDROOT
TORSDOF 0
ENDMDL
