MODEL 1
REMARK minimizedAffinity -3.56459713
REMARK minimizedRMSD -1
REMARK  0 active torsions:
REMARK  status: ('A' for Active; 'I' for Inactive)
ROOT
ATOM      1  C   UNL d   1      -0.749   0.310   0.493  0.00  0.00     0.172 C 
ATOM      2  N   UNL d   1       0.457  -0.208  -0.109  0.00  0.00    -0.070 N 
ATOM      3  C1  UNL d   1       1.699   0.364  -0.030  0.00  0.00    -0.004 A 
ATOM      4  C2  UNL d   1       2.577  -0.432  -0.732  0.00  0.00    -0.047 A 
ATOM      5  C3  UNL d   1       1.837  -1.521  -1.253  0.00  0.00    -0.047 A 
ATOM      6  C4  UNL d   1       0.528  -1.357  -0.852  0.00  0.00    -0.004 A 
ENDROOT
TORSDOF 0
ENDMDL
