MODEL 1
REMARK minimizedAffinity -3.38183784
REMARK minimizedRMSD -1
REMARK  0 active torsions:
REMARK  status: ('A' for Active; 'I' for Inactive)
ROOT
ATOM      1  C   UNL d   1       2.334  -0.825  -1.202  0.00  0.00     0.172 C 
ATOM      2  N   UNL d   1       1.020  -0.389  -0.792  0.00  0.00    -0.070 N 
ATOM      3  C1  UNL d   1       0.102  -1.148  -0.116  0.00  0.00    -0.004 A 
ATOM      4  C2  UNL d   1      -1.020  -0.373   0.086  0.00  0.00    -0.047 A 
ATOM      5  C3  UNL d   1      -0.768   0.895  -0.490  0.00  0.00    -0.047 A 
ATOM      6  C4  UNL d   1       0.502   0.857  -1.027  0.00  0.00    -0.004 A 
ENDROOT
TORSDOF 0
ENDMDL
