MODEL 1
REMARK minimizedAffinity -3.04990315
REMARK minimizedRMSD -1
REMARK  0 active torsions:
REMARK  status: ('A' for Active; 'I' for Inactive)
ROOT
ATOM      1  C   UNL d   1      -2.272   3.530   3.816  0.00  0.00     0.172 C 
ATOM      2  N   UNL d   1      -3.365   4.233   4.447  0.00  0.00    -0.070 N 
ATOM      3  C1  UNL d   1      -3.647   4.231   5.787  0.00  0.00    -0.004 A 
ATOM      4  C2  UNL d   1      -4.761   5.018   5.984  0.00  0.00    -0.047 A 
ATOM      5  C3  UNL d   1      -5.163   5.509   4.719  0.00  0.00    -0.047 A 
ATOM      6  C4  UNL d   1      -4.281   5.008   3.785  0.00  0.00    -0.004 A 
ENDROOT
TORSDOF 0
ENDMDL
