MODEL 1
REMARK minimizedAffinity -3.22120023
REMARK minimizedRMSD -1
REMARK  0 active torsions:
REMARK  status: ('A' for Active; 'I' for Inactive)
ROOT
ATOM      1  C   UNL d   1       2.613  -0.328  -0.932  0.00  0.00     0.172 C 
ATOM      2  N   UNL d   1       1.266  -0.240  -0.420  0.00  0.00    -0.070 N 
ATOM      3  C1  UNL d   1       0.560   0.916  -0.223  0.00  0.00    -0.004 A 
ATOM      4  C2  UNL d   1      -0.679   0.575   0.275  0.00  0.00    -0.047 A 
ATOM      5  C3  UNL d   1      -0.718  -0.835   0.383  0.00  0.00    -0.047 A 
ATOM      6  C4  UNL d   1       0.499  -1.315  -0.054  0.00  0.00    -0.004 A 
ENDROOT
TORSDOF 0
ENDMDL
