MODEL 1
REMARK minimizedAffinity -3.89386201
REMARK minimizedRMSD -1
REMARK  0 active torsions:
REMARK  status: ('A' for Active; 'I' for Inactive)
ROOT
ATOM      1  C   UNL d   1      -0.433   0.537   0.557  0.00  0.00     0.172 C 
ATOM      2  N   UNL d   1       0.685   0.581  -0.356  0.00  0.00    -0.070 N 
ATOM      3  C1  UNL d   1       1.652  -0.380  -0.481  0.00  0.00    -0.004 A 
ATOM      4  C2  UNL d   1       2.535   0.033  -1.455  0.00  0.00    -0.047 A 
ATOM      5  C3  UNL d   1       2.083   1.287  -1.931  0.00  0.00    -0.047 A 
ATOM      6  C4  UNL d   1       0.936   1.602  -1.234  0.00  0.00    -0.004 A 
ENDROOT
TORSDOF 0
ENDMDL
