MODEL 1
REMARK minimizedAffinity -3.43745518
REMARK minimizedRMSD -1
REMARK  0 active torsions:
REMARK  status: ('A' for Active; 'I' for Inactive)
ROOT
ATOM      1  C   UNL d   1       2.611  -0.800  -1.360  0.00  0.00     0.172 C 
ATOM      2  N   UNL d   1       1.295  -0.463  -0.872  0.00  0.00    -0.070 N 
ATOM      3  C1  UNL d   1       0.389  -1.345  -0.346  0.00  0.00    -0.004 A 
ATOM      4  C2  UNL d   1      -0.739  -0.634   0.002  0.00  0.00    -0.047 A 
ATOM      5  C3  UNL d   1      -0.503   0.722  -0.327  0.00  0.00    -0.047 A 
ATOM      6  C4  UNL d   1       0.764   0.800  -0.866  0.00  0.00    -0.004 A 
ENDROOT
TORSDOF 0
ENDMDL
