MODEL 1
REMARK minimizedAffinity -3.55711937
REMARK minimizedRMSD -1
REMARK  0 active torsions:
REMARK  status: ('A' for Active; 'I' for Inactive)
ROOT
ATOM      1  C   UNL d   1       2.055   0.946  -0.866  0.00  0.00     0.172 C 
ATOM      2  N   UNL d   1       0.947   0.230  -0.278  0.00  0.00    -0.070 N 
ATOM      3  C1  UNL d   1      -0.059   0.787   0.465  0.00  0.00    -0.004 A 
ATOM      4  C2  UNL d   1      -0.916  -0.225   0.841  0.00  0.00    -0.047 A 
ATOM      5  C3  UNL d   1      -0.406  -1.432   0.306  0.00  0.00    -0.047 A 
ATOM      6  C4  UNL d   1       0.748  -1.122  -0.382  0.00  0.00    -0.004 A 
ENDROOT
TORSDOF 0
ENDMDL
