MODEL 1
REMARK minimizedAffinity -3.70812535
REMARK minimizedRMSD -1
REMARK  0 active torsions:
REMARK  status: ('A' for Active; 'I' for Inactive)
ROOT
ATOM      1  C   UNL d   1      -0.794   0.423   0.332  0.00  0.00     0.172 C 
ATOM      2  N   UNL d   1       0.454  -0.054  -0.215  0.00  0.00    -0.070 N 
ATOM      3  C1  UNL d   1       0.690  -1.321  -0.678  0.00  0.00    -0.004 A 
ATOM      4  C2  UNL d   1       1.996  -1.375  -1.115  0.00  0.00    -0.047 A 
ATOM      5  C3  UNL d   1       2.565  -0.096  -0.906  0.00  0.00    -0.047 A 
ATOM      6  C4  UNL d   1       1.588   0.702  -0.348  0.00  0.00    -0.004 A 
ENDROOT
TORSDOF 0
ENDMDL
