MODEL 1
REMARK minimizedAffinity -1.91883755
REMARK minimizedRMSD -1
REMARK  0 active torsions:
REMARK  status: ('A' for Active; 'I' for Inactive)
ROOT
ATOM      1  C   UNL d   1      -1.183   0.315   0.292  0.00  0.00     0.172 C 
ATOM      2  N   UNL d   1      -1.546   0.535   1.673  0.00  0.00    -0.070 N 
ATOM      3  C1  UNL d   1      -2.134  -0.384   2.500  0.00  0.00    -0.004 A 
ATOM      4  C2  UNL d   1      -2.316   0.211   3.730  0.00  0.00    -0.047 A 
ATOM      5  C3  UNL d   1      -1.822   1.533   3.638  0.00  0.00    -0.047 A 
ATOM      6  C4  UNL d   1      -1.351   1.708   2.354  0.00  0.00    -0.004 A 
ENDROOT
TORSDOF 0
ENDMDL
