MODEL 1
REMARK minimizedAffinity -1.57018554
REMARK minimizedRMSD -1
REMARK  0 active torsions:
REMARK  status: ('A' for Active; 'I' for Inactive)
ROOT
ATOM      1  C   UNL d   1      -1.899   1.238   2.112  0.00  0.00     0.172 C 
ATOM      2  N   UNL d   1      -1.108   0.739   1.011  0.00  0.00    -0.070 N 
ATOM      3  C1  UNL d   1      -1.522   0.644  -0.291  0.00  0.00    -0.004 A 
ATOM      4  C2  UNL d   1      -0.480   0.124  -1.028  0.00  0.00    -0.047 A 
ATOM      5  C3  UNL d   1       0.596  -0.103  -0.138  0.00  0.00    -0.047 A 
ATOM      6  C4  UNL d   1       0.180   0.287   1.118  0.00  0.00    -0.004 A 
ENDROOT
TORSDOF 0
ENDMDL
