MODEL 1
REMARK minimizedAffinity -1.88047326
REMARK minimizedRMSD -1
REMARK  0 active torsions:
REMARK  status: ('A' for Active; 'I' for Inactive)
ROOT
ATOM      1  C   UNL d   1      -1.445   0.737   0.335  0.00  0.00     0.172 C 
ATOM      2  N   UNL d   1      -1.893   0.956   1.690  0.00  0.00    -0.070 N 
ATOM      3  C1  UNL d   1      -1.537   2.010   2.488  0.00  0.00    -0.004 A 
ATOM      4  C2  UNL d   1      -2.174   1.855   3.701  0.00  0.00    -0.047 A 
ATOM      5  C3  UNL d   1      -2.938   0.666   3.629  0.00  0.00    -0.047 A 
ATOM      6  C4  UNL d   1      -2.746   0.130   2.374  0.00  0.00    -0.004 A 
ENDROOT
TORSDOF 0
ENDMDL
