MODEL 1
REMARK minimizedAffinity -3.57386112
REMARK minimizedRMSD -1
REMARK  0 active torsions:
REMARK  status: ('A' for Active; 'I' for Inactive)
ROOT
ATOM      1  C   UNL d   1      -0.159  -1.444   0.641  0.00  0.00     0.172 C 
ATOM      2  N   UNL d   1      -0.044  -0.203  -0.088  0.00  0.00    -0.070 N 
ATOM      3  C1  UNL d   1       1.105   0.294  -0.642  0.00  0.00    -0.004 A 
ATOM      4  C2  UNL d   1       0.798   1.493  -1.248  0.00  0.00    -0.047 A 
ATOM      5  C3  UNL d   1      -0.584   1.725  -1.051  0.00  0.00    -0.047 A 
ATOM      6  C4  UNL d   1      -1.081   0.660  -0.330  0.00  0.00    -0.004 A 
ENDROOT
TORSDOF 0
ENDMDL
