MODEL 1
REMARK minimizedAffinity -3.47852659
REMARK minimizedRMSD -1
REMARK  0 active torsions:
REMARK  status: ('A' for Active; 'I' for Inactive)
ROOT
ATOM      1  C   UNL d   1      -0.848   0.413   0.330  0.00  0.00     0.172 C 
ATOM      2  N   UNL d   1       0.357  -0.172  -0.208  0.00  0.00    -0.070 N 
ATOM      3  C1  UNL d   1       1.426   0.521  -0.711  0.00  0.00    -0.004 A 
ATOM      4  C2  UNL d   1       2.369  -0.396  -1.122  0.00  0.00    -0.047 A 
ATOM      5  C3  UNL d   1       1.849  -1.685  -0.857  0.00  0.00    -0.047 A 
ATOM      6  C4  UNL d   1       0.602  -1.517  -0.292  0.00  0.00    -0.004 A 
ENDROOT
TORSDOF 0
ENDMDL
