MODEL 1
REMARK minimizedAffinity -2.74039745
REMARK minimizedRMSD -1
REMARK  0 active torsions:
REMARK  status: ('A' for Active; 'I' for Inactive)
ROOT
ATOM      1  C   UNL d   1      -4.876   2.470  -0.391  0.00  0.00     0.172 C 
ATOM      2  N   UNL d   1      -5.161   3.882  -0.486  0.00  0.00    -0.070 N 
ATOM      3  C1  UNL d   1      -4.669   4.734  -1.438  0.00  0.00    -0.004 A 
ATOM      4  C2  UNL d   1      -5.175   5.990  -1.182  0.00  0.00    -0.047 A 
ATOM      5  C3  UNL d   1      -6.000   5.890  -0.037  0.00  0.00    -0.047 A 
ATOM      6  C4  UNL d   1      -5.973   4.574   0.374  0.00  0.00    -0.004 A 
ENDROOT
TORSDOF 0
ENDMDL
