MODEL 1
REMARK minimizedAffinity -1.40309298
REMARK minimizedRMSD -1
REMARK  0 active torsions:
REMARK  status: ('A' for Active; 'I' for Inactive)
ROOT
ATOM      1  C   UNL d   1      -5.209   2.383  -1.123  0.00  0.00     0.172 C 
ATOM      2  N   UNL d   1      -5.402   3.788  -0.851  0.00  0.00    -0.070 N 
ATOM      3  C1  UNL d   1      -5.019   4.819  -1.668  0.00  0.00    -0.004 A 
ATOM      4  C2  UNL d   1      -5.380   5.999  -1.054  0.00  0.00    -0.047 A 
ATOM      5  C3  UNL d   1      -6.000   5.666   0.174  0.00  0.00    -0.047 A 
ATOM      6  C4  UNL d   1      -6.000   4.291   0.274  0.00  0.00    -0.004 A 
ENDROOT
TORSDOF 0
ENDMDL
