MODEL 1
REMARK minimizedAffinity -2.80589366
REMARK minimizedRMSD -1
REMARK  0 active torsions:
REMARK  status: ('A' for Active; 'I' for Inactive)
ROOT
ATOM      1  C   UNL d   1      -5.247   2.469  -1.492  0.00  0.00     0.172 C 
ATOM      2  N   UNL d   1      -5.032   3.876  -1.246  0.00  0.00    -0.070 N 
ATOM      3  C1  UNL d   1      -3.845   4.541  -1.400  0.00  0.00    -0.004 A 
ATOM      4  C2  UNL d   1      -4.055   5.862  -1.067  0.00  0.00    -0.047 A 
ATOM      5  C3  UNL d   1      -5.415   5.995  -0.700  0.00  0.00    -0.047 A 
ATOM      6  C4  UNL d   1      -5.997   4.750  -0.820  0.00  0.00    -0.004 A 
ENDROOT
TORSDOF 0
ENDMDL
