MODEL 1
REMARK minimizedAffinity 4.54413509
REMARK minimizedRMSD -1
REMARK  0 active torsions:
REMARK  status: ('A' for Active; 'I' for Inactive)
ROOT
ATOM      1  C   UNL d   1      -2.929   1.142  -0.274  0.00  0.00     0.172 C 
ATOM      2  N   UNL d   1      -2.177   0.691   0.873  0.00  0.00    -0.070 N 
ATOM      3  C1  UNL d   1      -2.288   1.185   2.145  0.00  0.00    -0.004 A 
ATOM      4  C2  UNL d   1      -1.404   0.493   2.945  0.00  0.00    -0.047 A 
ATOM      5  C3  UNL d   1      -0.738  -0.449   2.125  0.00  0.00    -0.047 A 
ATOM      6  C4  UNL d   1      -1.236  -0.304   0.847  0.00  0.00    -0.004 A 
ENDROOT
TORSDOF 0
ENDMDL
