MODEL 1
REMARK minimizedAffinity 2.82897687
REMARK minimizedRMSD -1
REMARK  0 active torsions:
REMARK  status: ('A' for Active; 'I' for Inactive)
ROOT
ATOM      1  C   UNL d   1      -2.163  -1.619   1.206  0.00  0.00     0.172 C 
ATOM      2  N   UNL d   1      -1.900  -1.739  -0.209  0.00  0.00    -0.070 N 
ATOM      3  C1  UNL d   1      -0.779  -2.291  -0.768  0.00  0.00    -0.004 A 
ATOM      4  C2  UNL d   1      -0.911  -2.216  -2.138  0.00  0.00    -0.047 A 
ATOM      5  C3  UNL d   1      -2.154  -1.597  -2.411  0.00  0.00    -0.047 A 
ATOM      6  C4  UNL d   1      -2.746  -1.312  -1.199  0.00  0.00    -0.004 A 
ENDROOT
TORSDOF 0
ENDMDL
