MODEL 1
REMARK minimizedAffinity -0.00594090484
REMARK minimizedRMSD -1
REMARK  0 active torsions:
REMARK  status: ('A' for Active; 'I' for Inactive)
ROOT
ATOM      1  C   UNL d   1      -4.035   1.188  -0.313  0.00  0.00     0.172 C 
ATOM      2  N   UNL d   1      -2.961   0.982   0.630  0.00  0.00    -0.070 N 
ATOM      3  C1  UNL d   1      -2.357   1.957   1.378  0.00  0.00    -0.004 A 
ATOM      4  C2  UNL d   1      -1.386   1.356   2.149  0.00  0.00    -0.047 A 
ATOM      5  C3  UNL d   1      -1.406  -0.027   1.853  0.00  0.00    -0.047 A 
ATOM      6  C4  UNL d   1      -2.390  -0.231   0.909  0.00  0.00    -0.004 A 
ENDROOT
TORSDOF 0
ENDMDL
