MODEL 1
REMARK minimizedAffinity 3.80695009
REMARK minimizedRMSD -1
REMARK  0 active torsions:
REMARK  status: ('A' for Active; 'I' for Inactive)
ROOT
ATOM      1  C   UNL d   1      -0.120  -3.130  -1.666  0.00  0.00     0.172 C 
ATOM      2  N   UNL d   1       0.209  -2.104  -0.705  0.00  0.00    -0.070 N 
ATOM      3  C1  UNL d   1       1.461  -1.604  -0.468  0.00  0.00    -0.004 A 
ATOM      4  C2  UNL d   1       1.354  -0.646   0.517  0.00  0.00    -0.047 A 
ATOM      5  C3  UNL d   1      -0.010  -0.569   0.886  0.00  0.00    -0.047 A 
ATOM      6  C4  UNL d   1      -0.696  -1.482   0.114  0.00  0.00    -0.004 A 
ENDROOT
TORSDOF 0
ENDMDL
