MODEL 1
REMARK minimizedAffinity 0.0338450447
REMARK minimizedRMSD -1
REMARK  0 active torsions:
REMARK  status: ('A' for Active; 'I' for Inactive)
ROOT
ATOM      1  C   UNL d   1      -1.476   0.746   2.257  0.00  0.00     0.172 C 
ATOM      2  N   UNL d   1      -0.134   0.235   2.402  0.00  0.00    -0.070 N 
ATOM      3  C1  UNL d   1       0.789   0.117   1.397  0.00  0.00    -0.004 A 
ATOM      4  C2  UNL d   1       1.940  -0.410   1.940  0.00  0.00    -0.047 A 
ATOM      5  C3  UNL d   1       1.701  -0.617   3.320  0.00  0.00    -0.047 A 
ATOM      6  C4  UNL d   1       0.410  -0.209   3.578  0.00  0.00    -0.004 A 
ENDROOT
TORSDOF 0
ENDMDL
