MODEL 1
REMARK minimizedAffinity 9.34114456
REMARK minimizedRMSD -1
REMARK  1 active torsions:
REMARK  status: ('A' for Active; 'I' for Inactive)
REMARK    1  A    between atoms: C1_2  and  C2_3 
ROOT
ATOM      1  C2  UNL d   1       0.515   2.585   1.488  0.00  0.00    -0.077 A 
ATOM      2  C3  UNL d   1       0.622   3.923   1.085  0.00  0.00     0.002 A 
ATOM      3  C4  UNL d   1       1.475   4.799   1.759  0.00  0.00     0.002 A 
ATOM      4  C5  UNL d   1       2.231   4.345   2.838  0.00  0.00    -0.004 A 
ATOM      5  C6  UNL d   1       2.131   3.016   3.248  0.00  0.00     0.002 A 
ATOM      6  C7  UNL d   1       1.278   2.140   2.576  0.00  0.00     0.002 A 
ENDROOT
BRANCH   1   7
ATOM      7  C1  UNL d   1      -0.367   1.627   0.732  0.00  0.00     0.055 C 
ATOM      8  C   UNL d   1       0.393   0.370   0.334  0.00  0.00     0.019 C 
ENDBRANCH   1   7
TORSDOF 1
ENDMDL
