MODEL 1
REMARK minimizedAffinity -3.25716209
REMARK minimizedRMSD -1
REMARK  1 active torsions:
REMARK  status: ('A' for Active; 'I' for Inactive)
REMARK    1  A    between atoms: C1_2  and  C2_3 
ROOT
ATOM      1  C2  UNL d   1       0.039   0.920   0.644  0.00  0.00    -0.077 A 
ATOM      2  C3  UNL d   1      -0.980   1.253  -0.259  0.00  0.00     0.002 A 
ATOM      3  C4  UNL d   1      -1.547   2.529  -0.246  0.00  0.00     0.002 A 
ATOM      4  C5  UNL d   1      -1.098   3.483   0.665  0.00  0.00    -0.004 A 
ATOM      5  C6  UNL d   1      -0.087   3.160   1.569  0.00  0.00     0.002 A 
ATOM      6  C7  UNL d   1       0.480   1.885   1.558  0.00  0.00     0.002 A 
ENDROOT
BRANCH   1   7
ATOM      7  C1  UNL d   1       0.685  -0.440   0.599  0.00  0.00     0.055 C 
ATOM      8  C   UNL d   1       0.254  -1.217  -0.637  0.00  0.00     0.019 C 
ENDBRANCH   1   7
TORSDOF 1
ENDMDL
