MODEL 1
REMARK minimizedAffinity -1.33635259
REMARK minimizedRMSD -1
REMARK  1 active torsions:
REMARK  status: ('A' for Active; 'I' for Inactive)
REMARK    1  A    between atoms: C1_2  and  C2_3 
ROOT
ATOM      1  C2  UNL d   1       1.672   3.925   1.523  0.00  0.00    -0.077 A 
ATOM      2  C3  UNL d   1       2.702   4.856   1.328  0.00  0.00     0.002 A 
ATOM      3  C4  UNL d   1       2.625   5.787   0.290  0.00  0.00     0.002 A 
ATOM      4  C5  UNL d   1       1.519   5.799  -0.558  0.00  0.00    -0.004 A 
ATOM      5  C6  UNL d   1       0.491   4.876  -0.373  0.00  0.00     0.002 A 
ATOM      6  C7  UNL d   1       0.566   3.944   0.663  0.00  0.00     0.002 A 
ENDROOT
BRANCH   1   7
ATOM      7  C1  UNL d   1       1.729   2.952   2.671  0.00  0.00     0.055 C 
ATOM      8  C   UNL d   1       2.668   3.442   3.764  0.00  0.00     0.019 C 
ENDBRANCH   1   7
TORSDOF 1
ENDMDL
