MODEL 1
REMARK minimizedAffinity 6.50285387
REMARK minimizedRMSD -1
REMARK  3 active torsions:
REMARK  status: ('A' for Active; 'I' for Inactive)
REMARK    1  A    between atoms: C3'_2  and  C2'_3 
REMARK    2  A    between atoms: C2'_3  and  C1'_4 
REMARK    3  A    between atoms: C1'_4  and  C1_5 
ROOT
ATOM      1  C1  N4B d   1       2.880  -3.808   0.340  0.00  0.00    -0.075 A 
ATOM      2  C2  N4B d   1       3.573  -4.458  -0.705  0.00  0.00     0.002 A 
ATOM      3  C3  N4B d   1       4.686  -5.212  -0.426  0.00  0.00     0.002 A 
ATOM      4  C4  N4B d   1       5.133  -5.317   0.883  0.00  0.00    -0.004 A 
ATOM      5  C5  N4B d   1       4.443  -4.707   1.890  0.00  0.00     0.002 A 
ATOM      6  C6  N4B d   1       3.321  -3.949   1.624  0.00  0.00     0.002 A 
ENDROOT
BRANCH   1   7
ATOM      7  C1' N4B d   1       1.709  -2.903   0.074  0.00  0.00     0.057 C 
BRANCH   7   8
ATOM      8  C2' N4B d   1       1.715  -1.765   1.090  0.00  0.00     0.009 C 
BRANCH   8   9
ATOM      9  C3' N4B d   1       0.378  -1.629   1.798  0.00  0.00     0.004 C 
ATOM     10  C4' N4B d   1       0.267  -0.360   2.591  0.00  0.00     0.003 C 
ENDBRANCH   8   9
ENDBRANCH   7   8
ENDBRANCH   1   7
TORSDOF 3
ENDMDL
