MODEL 1
REMARK minimizedAffinity 10.1952333
REMARK minimizedRMSD -1
REMARK  3 active torsions:
REMARK  status: ('A' for Active; 'I' for Inactive)
REMARK    1  A    between atoms: C3'_2  and  C2'_3 
REMARK    2  A    between atoms: C2'_3  and  C1'_4 
REMARK    3  A    between atoms: C1'_4  and  C1_5 
ROOT
ATOM      1  C1  N4B d   1       2.346  -1.772   2.780  0.00  0.00    -0.075 A 
ATOM      2  C2  N4B d   1       1.141  -1.140   2.403  0.00  0.00     0.002 A 
ATOM      3  C3  N4B d   1       0.644  -1.310   1.134  0.00  0.00     0.002 A 
ATOM      4  C4  N4B d   1       1.342  -2.089   0.223  0.00  0.00    -0.004 A 
ATOM      5  C5  N4B d   1       2.492  -2.717   0.603  0.00  0.00     0.002 A 
ATOM      6  C6  N4B d   1       3.000  -2.558   1.877  0.00  0.00     0.002 A 
ENDROOT
BRANCH   1   7
ATOM      7  C1' N4B d   1       2.973  -1.547   4.129  0.00  0.00     0.057 C 
BRANCH   7   8
ATOM      8  C2' N4B d   1       4.061  -2.592   4.356  0.00  0.00     0.009 C 
BRANCH   8   9
ATOM      9  C3' N4B d   1       4.142  -3.021   5.811  0.00  0.00     0.004 C 
ATOM     10  C4' N4B d   1       4.408  -4.488   5.971  0.00  0.00     0.003 C 
ENDBRANCH   8   9
ENDBRANCH   7   8
ENDBRANCH   1   7
TORSDOF 3
ENDMDL
