MODEL 1
REMARK minimizedAffinity 7.68488836
REMARK minimizedRMSD -1
REMARK  0 active torsions:
REMARK  status: ('A' for Active; 'I' for Inactive)
ROOT
ATOM      1  O1  BZF d   1       4.561  -1.823   0.144  0.00  0.00    -0.204 OA
ATOM      2  C2  BZF d   1       5.575  -2.337   0.928  0.00  0.00     0.174 A 
ATOM      3  C3  BZF d   1       5.247  -2.277   2.235  0.00  0.00    -0.012 A 
ATOM      4  C3A BZF d   1       3.909  -1.773   2.264  0.00  0.00    -0.107 A 
ATOM      5  C4  BZF d   1       3.028  -1.505   3.272  0.00  0.00     0.055 A 
ATOM      6  C5  BZF d   1       1.825  -0.951   2.969  0.00  0.00    -0.016 A 
ATOM      7  C6  BZF d   1       1.472  -0.647   1.670  0.00  0.00     0.022 A 
ATOM      8  C7  BZF d   1       2.311  -0.898   0.636  0.00  0.00     0.029 A 
ATOM      9  C7A BZF d   1       3.514  -1.489   0.936  0.00  0.00     0.058 A 
ENDROOT
TORSDOF 0
ENDMDL
