MODEL 1
REMARK minimizedAffinity 13.2091541
REMARK minimizedRMSD -1
REMARK  0 active torsions:
REMARK  status: ('A' for Active; 'I' for Inactive)
ROOT
ATOM      1  O1  BZF d   1      -1.295   1.710  -4.350  0.00  0.00    -0.204 OA
ATOM      2  C2  BZF d   1      -1.258   0.468  -4.955  0.00  0.00     0.174 A 
ATOM      3  C3  BZF d   1      -2.274  -0.306  -4.521  0.00  0.00    -0.012 A 
ATOM      4  C3A BZF d   1      -3.044   0.534  -3.655  0.00  0.00    -0.107 A 
ATOM      5  C4  BZF d   1      -4.185   0.341  -2.931  0.00  0.00     0.055 A 
ATOM      6  C5  BZF d   1      -4.637   1.342  -2.131  0.00  0.00    -0.016 A 
ATOM      7  C6  BZF d   1      -3.970   2.545  -2.026  0.00  0.00     0.022 A 
ATOM      8  C7  BZF d   1      -2.836   2.785  -2.728  0.00  0.00     0.029 A 
ATOM      9  C7A BZF d   1      -2.396   1.787  -3.564  0.00  0.00     0.058 A 
ENDROOT
TORSDOF 0
ENDMDL
