MODEL 1
REMARK minimizedAffinity 4.77319479
REMARK minimizedRMSD -1
REMARK  0 active torsions:
REMARK  status: ('A' for Active; 'I' for Inactive)
ROOT
ATOM      1  O1  BZF d   1      -0.357   2.647   0.448  0.00  0.00    -0.204 OA
ATOM      2  C2  BZF d   1      -1.724   2.556   0.627  0.00  0.00     0.174 A 
ATOM      3  C3  BZF d   1      -2.352   3.603   0.053  0.00  0.00    -0.012 A 
ATOM      4  C3A BZF d   1      -1.320   4.350  -0.599  0.00  0.00    -0.107 A 
ATOM      5  C4  BZF d   1      -1.318   5.489  -1.352  0.00  0.00     0.055 A 
ATOM      6  C5  BZF d   1      -0.132   5.996  -1.780  0.00  0.00    -0.016 A 
ATOM      7  C6  BZF d   1       1.069   5.395  -1.468  0.00  0.00     0.022 A 
ATOM      8  C7  BZF d   1       1.118   4.261  -0.727  0.00  0.00     0.029 A 
ATOM      9  C7A BZF d   1      -0.081   3.727  -0.322  0.00  0.00     0.058 A 
ENDROOT
TORSDOF 0
ENDMDL
