MODEL 1
REMARK minimizedAffinity 16.770031
REMARK minimizedRMSD -1
REMARK  0 active torsions:
REMARK  status: ('A' for Active; 'I' for Inactive)
ROOT
ATOM      1  O1  BZF d   1      -5.336  -0.015  -2.635  0.00  0.00    -0.204 OA
ATOM      2  C2  BZF d   1      -5.996   0.746  -1.690  0.00  0.00     0.174 A 
ATOM      3  C3  BZF d   1      -5.316   1.882  -1.431  0.00  0.00    -0.012 A 
ATOM      4  C3A BZF d   1      -4.206   1.870  -2.334  0.00  0.00    -0.107 A 
ATOM      5  C4  BZF d   1      -3.177   2.737  -2.568  0.00  0.00     0.055 A 
ATOM      6  C5  BZF d   1      -2.217   2.395  -3.467  0.00  0.00    -0.016 A 
ATOM      7  C6  BZF d   1      -2.252   1.194  -4.145  0.00  0.00     0.022 A 
ATOM      8  C7  BZF d   1      -3.255   0.304  -3.950  0.00  0.00     0.029 A 
ATOM      9  C7A BZF d   1      -4.244   0.661  -3.066  0.00  0.00     0.058 A 
ENDROOT
TORSDOF 0
ENDMDL
