MODEL 1
REMARK minimizedAffinity -1.68813694
REMARK minimizedRMSD -1
REMARK  0 active torsions:
REMARK  status: ('A' for Active; 'I' for Inactive)
ROOT
ATOM      1  O1  BZF d   1      -3.472   2.124   1.468  0.00  0.00    -0.204 OA
ATOM      2  C2  BZF d   1      -2.097   2.253   1.439  0.00  0.00     0.174 A 
ATOM      3  C3  BZF d   1      -1.740   3.551   1.360  0.00  0.00    -0.012 A 
ATOM      4  C3A BZF d   1      -2.967   4.284   1.430  0.00  0.00    -0.107 A 
ATOM      5  C4  BZF d   1      -3.267   5.616   1.417  0.00  0.00     0.055 A 
ATOM      6  C5  BZF d   1      -4.570   6.000   1.427  0.00  0.00    -0.016 A 
ATOM      7  C6  BZF d   1      -5.598   5.080   1.446  0.00  0.00     0.022 A 
ATOM      8  C7  BZF d   1      -5.350   3.747   1.465  0.00  0.00     0.029 A 
ATOM      9  C7A BZF d   1      -4.033   3.357   1.487  0.00  0.00     0.058 A 
ENDROOT
TORSDOF 0
ENDMDL
