MODEL 1
REMARK minimizedAffinity 8.47310638
REMARK minimizedRMSD -1
REMARK  0 active torsions:
REMARK  status: ('A' for Active; 'I' for Inactive)
ROOT
ATOM      1  O1  BZF d   1       2.126  -1.082   0.678  0.00  0.00    -0.204 OA
ATOM      2  C2  BZF d   1       1.509  -0.706   1.855  0.00  0.00     0.174 A 
ATOM      3  C3  BZF d   1       2.187  -1.176   2.922  0.00  0.00    -0.012 A 
ATOM      4  C3A BZF d   1       3.348  -1.812   2.380  0.00  0.00    -0.107 A 
ATOM      5  C4  BZF d   1       4.415  -2.455   2.940  0.00  0.00     0.055 A 
ATOM      6  C5  BZF d   1       5.342  -3.028   2.129  0.00  0.00    -0.016 A 
ATOM      7  C6  BZF d   1       5.231  -2.982   0.754  0.00  0.00     0.022 A 
ATOM      8  C7  BZF d   1       4.193  -2.351   0.152  0.00  0.00     0.029 A 
ATOM      9  C7A BZF d   1       3.272  -1.743   0.969  0.00  0.00     0.058 A 
ENDROOT
TORSDOF 0
ENDMDL
