MODEL 1
REMARK minimizedAffinity 6.72123194
REMARK minimizedRMSD -1
REMARK  0 active torsions:
REMARK  status: ('A' for Active; 'I' for Inactive)
ROOT
ATOM      1  O1  BZF d   1       4.306  -2.466  -0.256  0.00  0.00    -0.204 OA
ATOM      2  C2  BZF d   1       5.483  -2.693   0.430  0.00  0.00     0.174 A 
ATOM      3  C3  BZF d   1       5.370  -2.300   1.716  0.00  0.00    -0.012 A 
ATOM      4  C3A BZF d   1       4.010  -1.882   1.863  0.00  0.00    -0.107 A 
ATOM      5  C4  BZF d   1       3.284  -1.401   2.915  0.00  0.00     0.055 A 
ATOM      6  C5  BZF d   1       1.997  -1.017   2.710  0.00  0.00    -0.016 A 
ATOM      7  C6  BZF d   1       1.406  -1.095   1.465  0.00  0.00     0.022 A 
ATOM      8  C7  BZF d   1       2.084  -1.570   0.392  0.00  0.00     0.029 A 
ATOM      9  C7A BZF d   1       3.375  -1.990   0.604  0.00  0.00     0.058 A 
ENDROOT
TORSDOF 0
ENDMDL
