MODEL 1
REMARK minimizedAffinity 16.5704784
REMARK minimizedRMSD -1
REMARK  0 active torsions:
REMARK  status: ('A' for Active; 'I' for Inactive)
ROOT
ATOM      1  O1  BZF d   1       1.593   4.409  -1.757  0.00  0.00    -0.204 OA
ATOM      2  C2  BZF d   1       1.228   5.564  -2.422  0.00  0.00     0.174 A 
ATOM      3  C3  BZF d   1      -0.106   5.605  -2.614  0.00  0.00    -0.012 A 
ATOM      4  C3A BZF d   1      -0.617   4.445  -1.950  0.00  0.00    -0.107 A 
ATOM      5  C4  BZF d   1      -1.875   3.943  -1.773  0.00  0.00     0.055 A 
ATOM      6  C5  BZF d   1      -2.026   2.750  -1.139  0.00  0.00    -0.016 A 
ATOM      7  C6  BZF d   1      -0.944   2.032  -0.674  0.00  0.00     0.022 A 
ATOM      8  C7  BZF d   1       0.322   2.493  -0.822  0.00  0.00     0.029 A 
ATOM      9  C7A BZF d   1       0.476   3.713  -1.433  0.00  0.00     0.058 A 
ENDROOT
TORSDOF 0
ENDMDL
