MODEL 1
REMARK minimizedAffinity 12.4813728
REMARK minimizedRMSD -1
REMARK  0 active torsions:
REMARK  status: ('A' for Active; 'I' for Inactive)
ROOT
ATOM      1  O1  BZF d   1       2.979  -5.453  -2.903  0.00  0.00    -0.204 OA
ATOM      2  C2  BZF d   1       4.216  -5.778  -2.380  0.00  0.00     0.174 A 
ATOM      3  C3  BZF d   1       4.132  -5.990  -1.051  0.00  0.00    -0.012 A 
ATOM      4  C3A BZF d   1       2.740  -5.876  -0.739  0.00  0.00    -0.107 A 
ATOM      5  C4  BZF d   1       2.024  -5.999   0.418  0.00  0.00     0.055 A 
ATOM      6  C5  BZF d   1       0.688  -5.755   0.396  0.00  0.00    -0.016 A 
ATOM      7  C6  BZF d   1       0.036  -5.381  -0.761  0.00  0.00     0.022 A 
ATOM      8  C7  BZF d   1       0.703  -5.251  -1.934  0.00  0.00     0.029 A 
ATOM      9  C7A BZF d   1       2.048  -5.529  -1.922  0.00  0.00     0.058 A 
ENDROOT
TORSDOF 0
ENDMDL
