MODEL 1
REMARK minimizedAffinity 3.33515787
REMARK minimizedRMSD -1
REMARK  0 active torsions:
REMARK  status: ('A' for Active; 'I' for Inactive)
ROOT
ATOM      1  N1  IND d   1      -2.555   0.738   0.329  0.00  0.00    -0.196 N 
ATOM      2  C2  IND d   1      -1.524   1.620   0.504  0.00  0.00     0.054 A 
ATOM      3  C3  IND d   1      -1.873   2.846   0.056  0.00  0.00    -0.031 A 
ATOM      4  C4  IND d   1      -4.118   3.657  -0.910  0.00  0.00     0.051 A 
ATOM      5  C5  IND d   1      -5.349   3.208  -1.298  0.00  0.00    -0.031 A 
ATOM      6  C6  IND d   1      -5.720   1.887  -1.158  0.00  0.00     0.015 A 
ATOM      7  C7  IND d   1      -4.874   0.963  -0.612  0.00  0.00    -0.016 A 
ATOM      8  C8  IND d   1      -3.621   1.414  -0.223  0.00  0.00    -0.047 A 
ATOM      9  C9  IND d   1      -3.223   2.745  -0.402  0.00  0.00    -0.096 A 
ATOM     10  HN1 IND d   1      -2.540  -0.097   0.530  0.00  0.00     0.298 HD
ENDROOT
TORSDOF 0
ENDMDL
