MODEL 1
REMARK minimizedAffinity 15.0793056
REMARK minimizedRMSD -1
REMARK  0 active torsions:
REMARK  status: ('A' for Active; 'I' for Inactive)
ROOT
ATOM      1  N1  IND d   1      -5.888   2.036   3.704  0.00  0.00    -0.196 N 
ATOM      2  C2  IND d   1      -5.888   1.423   4.926  0.00  0.00     0.054 A 
ATOM      3  C3  IND d   1      -5.887   2.345   5.915  0.00  0.00    -0.031 A 
ATOM      4  C4  IND d   1      -5.988   4.913   5.757  0.00  0.00     0.051 A 
ATOM      5  C5  IND d   1      -5.966   5.938   4.853  0.00  0.00    -0.031 A 
ATOM      6  C6  IND d   1      -5.918   5.710   3.493  0.00  0.00     0.015 A 
ATOM      7  C7  IND d   1      -5.902   4.443   2.983  0.00  0.00    -0.016 A 
ATOM      8  C8  IND d   1      -5.918   3.400   3.898  0.00  0.00    -0.047 A 
ATOM      9  C9  IND d   1      -5.923   3.625   5.280  0.00  0.00    -0.096 A 
ATOM     10  HN1 IND d   1      -5.871   1.637   2.943  0.00  0.00     0.298 HD
ENDROOT
TORSDOF 0
ENDMDL
