MODEL 1
REMARK minimizedAffinity 3.96478796
REMARK minimizedRMSD -1
REMARK  0 active torsions:
REMARK  status: ('A' for Active; 'I' for Inactive)
ROOT
ATOM      1  N1  IND d   1      -0.689  -5.444   0.246  0.00  0.00    -0.196 N 
ATOM      2  C2  IND d   1      -1.568  -6.000  -0.641  0.00  0.00     0.054 A 
ATOM      3  C3  IND d   1      -1.377  -5.487  -1.877  0.00  0.00    -0.031 A 
ATOM      4  C4  IND d   1       0.388  -3.800  -2.694  0.00  0.00     0.051 A 
ATOM      5  C5  IND d   1       1.388  -2.985  -2.244  0.00  0.00    -0.031 A 
ATOM      6  C6  IND d   1       1.756  -2.948  -0.914  0.00  0.00     0.015 A 
ATOM      7  C7  IND d   1       1.142  -3.738   0.017  0.00  0.00    -0.016 A 
ATOM      8  C8  IND d   1       0.122  -4.562  -0.436  0.00  0.00    -0.047 A 
ATOM      9  C9  IND d   1      -0.285  -4.573  -1.776  0.00  0.00    -0.096 A 
ATOM     10  HN1 IND d   1      -0.649  -5.615   1.087  0.00  0.00     0.298 HD
ENDROOT
TORSDOF 0
ENDMDL
