MODEL 1
REMARK minimizedAffinity 14.2975216
REMARK minimizedRMSD -1
REMARK  0 active torsions:
REMARK  status: ('A' for Active; 'I' for Inactive)
ROOT
ATOM      1  N1  IND d   1       1.101  -4.122  -0.854  0.00  0.00    -0.196 N 
ATOM      2  C2  IND d   1       0.790  -4.068  -2.184  0.00  0.00     0.054 A 
ATOM      3  C3  IND d   1       1.295  -2.944  -2.741  0.00  0.00    -0.031 A 
ATOM      4  C4  IND d   1       2.751  -1.106  -1.678  0.00  0.00     0.051 A 
ATOM      5  C5  IND d   1       3.267  -0.698  -0.480  0.00  0.00    -0.031 A 
ATOM      6  C6  IND d   1       3.087  -1.428   0.677  0.00  0.00     0.015 A 
ATOM      7  C7  IND d   1       2.390  -2.603   0.677  0.00  0.00    -0.016 A 
ATOM      8  C8  IND d   1       1.858  -3.016  -0.536  0.00  0.00    -0.047 A 
ATOM      9  C9  IND d   1       2.001  -2.258  -1.706  0.00  0.00    -0.096 A 
ATOM     10  HN1 IND d   1       0.864  -4.742  -0.308  0.00  0.00     0.298 HD
ENDROOT
TORSDOF 0
ENDMDL
