MODEL 1
REMARK minimizedAffinity 16.2858505
REMARK minimizedRMSD -1
REMARK  0 active torsions:
REMARK  status: ('A' for Active; 'I' for Inactive)
ROOT
ATOM      1  N1  IND d   1       2.862  -0.020  -1.836  0.00  0.00    -0.196 N 
ATOM      2  C2  IND d   1       2.118  -0.387  -0.749  0.00  0.00     0.054 A 
ATOM      3  C3  IND d   1       2.718   0.023   0.391  0.00  0.00    -0.031 A 
ATOM      4  C4  IND d   1       4.872   1.399   0.703  0.00  0.00     0.051 A 
ATOM      5  C5  IND d   1       5.918   1.936   0.006  0.00  0.00    -0.031 A 
ATOM      6  C6  IND d   1       5.998   1.849  -1.369  0.00  0.00     0.015 A 
ATOM      7  C7  IND d   1       5.026   1.229  -2.102  0.00  0.00    -0.016 A 
ATOM      8  C8  IND d   1       3.966   0.676  -1.397  0.00  0.00    -0.047 A 
ATOM      9  C9  IND d   1       3.901   0.724   0.002  0.00  0.00    -0.096 A 
ATOM     10  HN1 IND d   1       2.671  -0.195  -2.656  0.00  0.00     0.298 HD
ENDROOT
TORSDOF 0
ENDMDL
