MODEL 1
REMARK minimizedAffinity 7.88645697
REMARK minimizedRMSD -1
REMARK  0 active torsions:
REMARK  status: ('A' for Active; 'I' for Inactive)
ROOT
ATOM      1  N1  IND d   1       1.068  -4.012  -1.081  0.00  0.00    -0.196 N 
ATOM      2  C2  IND d   1       1.058  -3.955  -2.446  0.00  0.00     0.054 A 
ATOM      3  C3  IND d   1       1.744  -2.873  -2.877  0.00  0.00    -0.031 A 
ATOM      4  C4  IND d   1       3.050  -1.118  -1.520  0.00  0.00     0.051 A 
ATOM      5  C5  IND d   1       3.319  -0.730  -0.237  0.00  0.00    -0.031 A 
ATOM      6  C6  IND d   1       2.844  -1.431   0.852  0.00  0.00     0.015 A 
ATOM      7  C7  IND d   1       2.088  -2.559   0.698  0.00  0.00    -0.016 A 
ATOM      8  C8  IND d   1       1.807  -2.952  -0.603  0.00  0.00    -0.047 A 
ATOM      9  C9  IND d   1       2.251  -2.220  -1.712  0.00  0.00    -0.096 A 
ATOM     10  HN1 IND d   1       0.677  -4.609  -0.601  0.00  0.00     0.298 HD
ENDROOT
TORSDOF 0
ENDMDL
