MODEL 1
REMARK minimizedAffinity 7.37275362
REMARK minimizedRMSD -1
REMARK  0 active torsions:
REMARK  status: ('A' for Active; 'I' for Inactive)
ROOT
ATOM      1  N1  IND d   1       3.367   0.757  -0.915  0.00  0.00    -0.196 N 
ATOM      2  C2  IND d   1       3.037  -0.232  -0.032  0.00  0.00     0.054 A 
ATOM      3  C3  IND d   1       3.720  -0.078   1.125  0.00  0.00    -0.031 A 
ATOM      4  C4  IND d   1       5.355   1.784   1.822  0.00  0.00     0.051 A 
ATOM      5  C5  IND d   1       6.000   2.889   1.339  0.00  0.00    -0.031 A 
ATOM      6  C6  IND d   1       5.793   3.350   0.054  0.00  0.00     0.015 A 
ATOM      7  C7  IND d   1       4.922   2.727  -0.794  0.00  0.00    -0.016 A 
ATOM      8  C8  IND d   1       4.272   1.602  -0.310  0.00  0.00    -0.047 A 
ATOM      9  C9  IND d   1       4.509   1.104   0.978  0.00  0.00    -0.096 A 
ATOM     10  HN1 IND d   1       3.062   0.838  -1.715  0.00  0.00     0.298 HD
ENDROOT
TORSDOF 0
ENDMDL
