MODEL 1
REMARK minimizedAffinity 11.9384995
REMARK minimizedRMSD -1
REMARK  0 active torsions:
REMARK  status: ('A' for Active; 'I' for Inactive)
ROOT
ATOM      1  N1  IND d   1       0.198  -5.447  -2.827  0.00  0.00    -0.196 N 
ATOM      2  C2  IND d   1      -0.246  -5.226  -1.553  0.00  0.00     0.054 A 
ATOM      3  C3  IND d   1       0.435  -4.203  -0.988  0.00  0.00    -0.031 A 
ATOM      4  C4  IND d   1       2.246  -2.684  -2.007  0.00  0.00     0.051 A 
ATOM      5  C5  IND d   1       3.009  -2.520  -3.130  0.00  0.00    -0.031 A 
ATOM      6  C6  IND d   1       2.869  -3.339  -4.232  0.00  0.00     0.015 A 
ATOM      7  C7  IND d   1       1.949  -4.349  -4.257  0.00  0.00    -0.016 A 
ATOM      8  C8  IND d   1       1.178  -4.522  -3.116  0.00  0.00    -0.047 A 
ATOM      9  C9  IND d   1       1.345  -3.721  -1.979  0.00  0.00    -0.096 A 
ATOM     10  HN1 IND d   1      -0.086  -6.060  -3.358  0.00  0.00     0.298 HD
ENDROOT
TORSDOF 0
ENDMDL
