MODEL 1
REMARK minimizedAffinity 20.528965
REMARK minimizedRMSD -1
REMARK  0 active torsions:
REMARK  status: ('A' for Active; 'I' for Inactive)
ROOT
ATOM      1  N1  IND d   1       3.280  -0.843  -2.267  0.00  0.00    -0.196 N 
ATOM      2  C2  IND d   1       2.157  -1.120  -1.540  0.00  0.00     0.054 A 
ATOM      3  C3  IND d   1       2.256  -0.590  -0.300  0.00  0.00    -0.031 A 
ATOM      4  C4  IND d   1       4.129   0.856   0.714  0.00  0.00     0.051 A 
ATOM      5  C5  IND d   1       5.376   1.347   0.446  0.00  0.00    -0.031 A 
ATOM      6  C6  IND d   1       6.000   1.130  -0.766  0.00  0.00     0.015 A 
ATOM      7  C7  IND d   1       5.392   0.422  -1.763  0.00  0.00    -0.016 A 
ATOM      8  C8  IND d   1       4.129  -0.084  -1.492  0.00  0.00    -0.047 A 
ATOM      9  C9  IND d   1       3.508   0.096  -0.249  0.00  0.00    -0.096 A 
ATOM     10  HN1 IND d   1       3.432  -1.100  -3.074  0.00  0.00     0.298 HD
ENDROOT
TORSDOF 0
ENDMDL
