MODEL 1
REMARK minimizedAffinity 11.3873682
REMARK minimizedRMSD -1
REMARK  0 active torsions:
REMARK  status: ('A' for Active; 'I' for Inactive)
ROOT
ATOM      1  C1  DEN d   1      -1.667  -1.982  -5.131  0.00  0.00     0.130 A 
ATOM      2  C2  DEN d   1      -2.320  -2.959  -5.998  0.00  0.00    -0.031 A 
ATOM      3  C3  DEN d   1      -3.212  -3.787  -5.162  0.00  0.00     0.027 A 
ATOM      4  C4  DEN d   1      -3.646  -3.650  -2.624  0.00  0.00     0.027 A 
ATOM      5  C5  DEN d   1      -3.314  -2.988  -1.462  0.00  0.00    -0.003 A 
ATOM      6  C6  DEN d   1      -2.391  -1.977  -1.436  0.00  0.00     0.001 A 
ATOM      7  C7  DEN d   1      -1.802  -1.566  -2.603  0.00  0.00     0.017 A 
ATOM      8  C8  DEN d   1      -2.127  -2.232  -3.777  0.00  0.00    -0.094 A 
ATOM      9  C9  DEN d   1      -3.071  -3.245  -3.784  0.00  0.00    -0.072 A 
ENDROOT
TORSDOF 0
ENDMDL
