MODEL 1
REMARK minimizedAffinity 12.760479
REMARK minimizedRMSD -1
REMARK  0 active torsions:
REMARK  status: ('A' for Active; 'I' for Inactive)
ROOT
ATOM      1  C1  DEN d   1       2.421   0.403  -1.719  0.00  0.00     0.130 A 
ATOM      2  C2  DEN d   1       2.490   1.482  -2.700  0.00  0.00    -0.031 A 
ATOM      3  C3  DEN d   1       2.030   2.724  -2.046  0.00  0.00     0.027 A 
ATOM      4  C4  DEN d   1       1.226   3.078   0.379  0.00  0.00     0.027 A 
ATOM      5  C5  DEN d   1       0.982   2.455   1.583  0.00  0.00    -0.003 A 
ATOM      6  C6  DEN d   1       1.166   1.109   1.759  0.00  0.00     0.001 A 
ATOM      7  C7  DEN d   1       1.651   0.350   0.728  0.00  0.00     0.017 A 
ATOM      8  C8  DEN d   1       1.892   0.969  -0.492  0.00  0.00    -0.094 A 
ATOM      9  C9  DEN d   1       1.712   2.333  -0.646  0.00  0.00    -0.072 A 
ENDROOT
TORSDOF 0
ENDMDL
