MODEL 1
REMARK minimizedAffinity 17.8442783
REMARK minimizedRMSD -1
REMARK  0 active torsions:
REMARK  status: ('A' for Active; 'I' for Inactive)
ROOT
ATOM      1  C1  DEN d   1      -2.238  -1.358   4.603  0.00  0.00     0.130 A 
ATOM      2  C2  DEN d   1      -2.029  -2.431   3.635  0.00  0.00    -0.031 A 
ATOM      3  C3  DEN d   1      -0.771  -2.156   2.912  0.00  0.00     0.027 A 
ATOM      4  C4  DEN d   1       0.866  -0.184   3.198  0.00  0.00     0.027 A 
ATOM      5  C5  DEN d   1       1.107   0.984   3.887  0.00  0.00    -0.003 A 
ATOM      6  C6  DEN d   1       0.240   1.467   4.831  0.00  0.00     0.001 A 
ATOM      7  C7  DEN d   1      -0.887   0.755   5.145  0.00  0.00     0.017 A 
ATOM      8  C8  DEN d   1      -1.141  -0.419   4.449  0.00  0.00    -0.094 A 
ATOM      9  C9  DEN d   1      -0.246  -0.897   3.507  0.00  0.00    -0.072 A 
ENDROOT
TORSDOF 0
ENDMDL
