MODEL 1
REMARK minimizedAffinity 22.1598015
REMARK minimizedRMSD -1
REMARK  0 active torsions:
REMARK  status: ('A' for Active; 'I' for Inactive)
ROOT
ATOM      1  C1  DEN d   1      -3.574   0.728   3.303  0.00  0.00     0.130 A 
ATOM      2  C2  DEN d   1      -3.418   2.179   3.345  0.00  0.00    -0.031 A 
ATOM      3  C3  DEN d   1      -1.973   2.484   3.350  0.00  0.00     0.027 A 
ATOM      4  C4  DEN d   1       0.028   0.858   3.290  0.00  0.00     0.027 A 
ATOM      5  C5  DEN d   1       0.395  -0.469   3.260  0.00  0.00    -0.003 A 
ATOM      6  C6  DEN d   1      -0.526  -1.482   3.277  0.00  0.00     0.001 A 
ATOM      7  C7  DEN d   1      -1.863  -1.184   3.279  0.00  0.00     0.017 A 
ATOM      8  C8  DEN d   1      -2.241   0.151   3.316  0.00  0.00    -0.094 A 
ATOM      9  C9  DEN d   1      -1.295   1.162   3.287  0.00  0.00    -0.072 A 
ENDROOT
TORSDOF 0
ENDMDL
