MODEL 1
REMARK minimizedAffinity 10.566968
REMARK minimizedRMSD -1
REMARK  0 active torsions:
REMARK  status: ('A' for Active; 'I' for Inactive)
ROOT
ATOM      1  C1  DEN d   1      -5.517  -1.748  -5.999  0.00  0.00     0.130 A 
ATOM      2  C2  DEN d   1      -5.137  -0.339  -5.953  0.00  0.00    -0.031 A 
ATOM      3  C3  DEN d   1      -3.662  -0.265  -5.927  0.00  0.00     0.027 A 
ATOM      4  C4  DEN d   1      -1.940  -2.185  -5.960  0.00  0.00     0.027 A 
ATOM      5  C5  DEN d   1      -1.785  -3.553  -5.985  0.00  0.00    -0.003 A 
ATOM      6  C6  DEN d   1      -2.854  -4.410  -5.983  0.00  0.00     0.001 A 
ATOM      7  C7  DEN d   1      -4.128  -3.905  -6.000  0.00  0.00     0.017 A 
ATOM      8  C8  DEN d   1      -4.292  -2.527  -5.967  0.00  0.00    -0.094 A 
ATOM      9  C9  DEN d   1      -3.199  -1.678  -5.982  0.00  0.00    -0.072 A 
ENDROOT
TORSDOF 0
ENDMDL
