MODEL 1
REMARK minimizedAffinity 3.54083681
REMARK minimizedRMSD -1
REMARK  0 active torsions:
REMARK  status: ('A' for Active; 'I' for Inactive)
ROOT
ATOM      1  C1  DEN d   1       3.836   0.683  -2.758  0.00  0.00     0.130 A 
ATOM      2  C2  DEN d   1       2.972   1.601  -3.495  0.00  0.00    -0.031 A 
ATOM      3  C3  DEN d   1       2.055   2.239  -2.529  0.00  0.00     0.027 A 
ATOM      4  C4  DEN d   1       1.895   1.900   0.023  0.00  0.00     0.027 A 
ATOM      5  C5  DEN d   1       2.413   1.213   1.099  0.00  0.00    -0.003 A 
ATOM      6  C6  DEN d   1       3.410   0.284   0.961  0.00  0.00     0.001 A 
ATOM      7  C7  DEN d   1       3.952   0.049  -0.275  0.00  0.00     0.017 A 
ATOM      8  C8  DEN d   1       3.430   0.732  -1.365  0.00  0.00    -0.094 A 
ATOM      9  C9  DEN d   1       2.431   1.676  -1.203  0.00  0.00    -0.072 A 
ENDROOT
TORSDOF 0
ENDMDL
