MODEL 1
REMARK minimizedAffinity 19.6993694
REMARK minimizedRMSD -1
REMARK  0 active torsions:
REMARK  status: ('A' for Active; 'I' for Inactive)
ROOT
ATOM      1  C1  DEN d   1      -2.610  -1.787   3.778  0.00  0.00     0.130 A 
ATOM      2  C2  DEN d   1      -1.371  -1.430   3.093  0.00  0.00    -0.031 A 
ATOM      3  C3  DEN d   1      -0.504  -2.625   3.064  0.00  0.00     0.027 A 
ATOM      4  C4  DEN d   1      -0.961  -4.983   4.005  0.00  0.00     0.027 A 
ATOM      5  C5  DEN d   1      -1.870  -5.765   4.683  0.00  0.00    -0.003 A 
ATOM      6  C6  DEN d   1      -3.066  -5.270   5.133  0.00  0.00     0.001 A 
ATOM      7  C7  DEN d   1      -3.404  -3.969   4.871  0.00  0.00     0.017 A 
ATOM      8  C8  DEN d   1      -2.489  -3.173   4.194  0.00  0.00    -0.094 A 
ATOM      9  C9  DEN d   1      -1.291  -3.694   3.737  0.00  0.00    -0.072 A 
ENDROOT
TORSDOF 0
ENDMDL
