MODEL 1
REMARK minimizedAffinity 6.88758612
REMARK minimizedRMSD -1
REMARK  0 active torsions:
REMARK  status: ('A' for Active; 'I' for Inactive)
ROOT
ATOM      1  C1  DEN d   1       0.431  -3.793  -0.228  0.00  0.00     0.130 A 
ATOM      2  C2  DEN d   1       0.504  -5.240  -0.044  0.00  0.00    -0.031 A 
ATOM      3  C3  DEN d   1      -0.020  -5.557   1.300  0.00  0.00     0.027 A 
ATOM      4  C4  DEN d   1      -0.937  -3.956   3.103  0.00  0.00     0.027 A 
ATOM      5  C5  DEN d   1      -1.188  -2.637   3.410  0.00  0.00    -0.003 A 
ATOM      6  C6  DEN d   1      -0.888  -1.617   2.547  0.00  0.00     0.001 A 
ATOM      7  C7  DEN d   1      -0.361  -1.902   1.315  0.00  0.00     0.017 A 
ATOM      8  C8  DEN d   1      -0.098  -3.229   1.001  0.00  0.00    -0.094 A 
ATOM      9  C9  DEN d   1      -0.420  -4.247   1.882  0.00  0.00    -0.072 A 
ENDROOT
TORSDOF 0
ENDMDL
