MODEL 1
REMARK minimizedAffinity 15.762866
REMARK minimizedRMSD -1
REMARK  0 active torsions:
REMARK  status: ('A' for Active; 'I' for Inactive)
ROOT
ATOM      1  C1  DEN d   1      -5.148  -3.197  -5.998  0.00  0.00     0.130 A 
ATOM      2  C2  DEN d   1      -5.345  -1.750  -5.963  0.00  0.00    -0.031 A 
ATOM      3  C3  DEN d   1      -4.016  -1.108  -5.948  0.00  0.00     0.027 A 
ATOM      4  C4  DEN d   1      -1.683  -2.206  -5.979  0.00  0.00     0.027 A 
ATOM      5  C5  DEN d   1      -1.007  -3.407  -5.996  0.00  0.00    -0.003 A 
ATOM      6  C6  DEN d   1      -1.659  -4.611  -5.981  0.00  0.00     0.001 A 
ATOM      7  C7  DEN d   1      -3.028  -4.643  -5.994  0.00  0.00     0.017 A 
ATOM      8  C8  DEN d   1      -3.716  -3.437  -5.968  0.00  0.00    -0.094 A 
ATOM      9  C9  DEN d   1      -3.039  -2.229  -5.996  0.00  0.00    -0.072 A 
ENDROOT
TORSDOF 0
ENDMDL
