MODEL 1
REMARK minimizedAffinity -1.9681226
REMARK minimizedRMSD -1
REMARK  0 active torsions:
REMARK  status: ('A' for Active; 'I' for Inactive)
ROOT
ATOM      1  C1  DEN d   1       5.995   3.565  -5.648  0.00  0.00     0.130 A 
ATOM      2  C2  DEN d   1       4.926   4.500  -5.990  0.00  0.00    -0.031 A 
ATOM      3  C3  DEN d   1       3.652   3.753  -5.999  0.00  0.00     0.027 A 
ATOM      4  C4  DEN d   1       3.232   1.255  -5.516  0.00  0.00     0.027 A 
ATOM      5  C5  DEN d   1       3.831   0.058  -5.192  0.00  0.00    -0.003 A 
ATOM      6  C6  DEN d   1       5.187  -0.060  -5.032  0.00  0.00     0.001 A 
ATOM      7  C7  DEN d   1       5.983   1.048  -5.152  0.00  0.00     0.017 A 
ATOM      8  C8  DEN d   1       5.387   2.256  -5.485  0.00  0.00    -0.094 A 
ATOM      9  C9  DEN d   1       4.014   2.358  -5.631  0.00  0.00    -0.072 A 
ENDROOT
TORSDOF 0
ENDMDL
