MODEL 1
REMARK minimizedAffinity 21.5442581
REMARK minimizedRMSD -1
REMARK  0 active torsions:
REMARK  status: ('A' for Active; 'I' for Inactive)
ROOT
ATOM      1  C1  DEN d   1      -4.761  -3.378  -4.562  0.00  0.00     0.130 A 
ATOM      2  C2  DEN d   1      -5.046  -3.779  -3.187  0.00  0.00    -0.031 A 
ATOM      3  C3  DEN d   1      -3.810  -4.343  -2.610  0.00  0.00     0.027 A 
ATOM      4  C4  DEN d   1      -1.492  -4.630  -3.705  0.00  0.00     0.027 A 
ATOM      5  C5  DEN d   1      -0.766  -4.447  -4.861  0.00  0.00    -0.003 A 
ATOM      6  C6  DEN d   1      -1.325  -3.931  -6.000  0.00  0.00     0.001 A 
ATOM      7  C7  DEN d   1      -2.637  -3.537  -5.994  0.00  0.00     0.017 A 
ATOM      8  C8  DEN d   1      -3.377  -3.725  -4.834  0.00  0.00    -0.094 A 
ATOM      9  C9  DEN d   1      -2.791  -4.238  -3.689  0.00  0.00    -0.072 A 
ENDROOT
TORSDOF 0
ENDMDL
