MODEL 1
REMARK minimizedAffinity 14.7444096
REMARK minimizedRMSD -1
REMARK  0 active torsions:
REMARK  status: ('A' for Active; 'I' for Inactive)
ROOT
ATOM      1  C1  DEN d   1       3.725   0.223   1.591  0.00  0.00     0.130 A 
ATOM      2  C2  DEN d   1       4.505  -0.220   2.743  0.00  0.00    -0.031 A 
ATOM      3  C3  DEN d   1       3.778   0.175   3.966  0.00  0.00     0.027 A 
ATOM      4  C4  DEN d   1       1.530   1.420   4.186  0.00  0.00     0.027 A 
ATOM      5  C5  DEN d   1       0.501   2.012   3.487  0.00  0.00    -0.003 A 
ATOM      6  C6  DEN d   1       0.491   2.078   2.118  0.00  0.00     0.001 A 
ATOM      7  C7  DEN d   1       1.509   1.504   1.404  0.00  0.00     0.017 A 
ATOM      8  C8  DEN d   1       2.554   0.912   2.102  0.00  0.00    -0.094 A 
ATOM      9  C9  DEN d   1       2.539   0.844   3.485  0.00  0.00    -0.072 A 
ENDROOT
TORSDOF 0
ENDMDL
