MODEL 1
REMARK minimizedAffinity 17.4388485
REMARK minimizedRMSD -1
REMARK  0 active torsions:
REMARK  status: ('A' for Active; 'I' for Inactive)
ROOT
ATOM      1  C1  DEN d   1       2.967  -1.872  -5.175  0.00  0.00     0.130 A 
ATOM      2  C2  DEN d   1       3.845  -2.729  -5.966  0.00  0.00    -0.031 A 
ATOM      3  C3  DEN d   1       5.185  -2.108  -5.994  0.00  0.00     0.027 A 
ATOM      4  C4  DEN d   1       5.981   0.084  -4.892  0.00  0.00     0.027 A 
ATOM      5  C5  DEN d   1       5.592   1.162  -4.128  0.00  0.00    -0.003 A 
ATOM      6  C6  DEN d   1       4.303   1.321  -3.692  0.00  0.00     0.001 A 
ATOM      7  C7  DEN d   1       3.366   0.363  -3.979  0.00  0.00     0.017 A 
ATOM      8  C8  DEN d   1       3.750  -0.724  -4.755  0.00  0.00    -0.094 A 
ATOM      9  C9  DEN d   1       5.060  -0.872  -5.175  0.00  0.00    -0.072 A 
ENDROOT
TORSDOF 0
ENDMDL
