MODEL 1
REMARK minimizedAffinity 11.1953058
REMARK minimizedRMSD -1
REMARK  0 active torsions:
REMARK  status: ('A' for Active; 'I' for Inactive)
ROOT
ATOM      1  C1  DEN d   1       0.459   3.046   2.725  0.00  0.00     0.130 A 
ATOM      2  C2  DEN d   1       0.333   2.878   1.280  0.00  0.00    -0.031 A 
ATOM      3  C3  DEN d   1       1.209   1.762   0.872  0.00  0.00     0.027 A 
ATOM      4  C4  DEN d   1       2.736   0.281   2.331  0.00  0.00     0.027 A 
ATOM      5  C5  DEN d   1       3.184   0.052   3.613  0.00  0.00    -0.003 A 
ATOM      6  C6  DEN d   1       2.785   0.820   4.675  0.00  0.00     0.001 A 
ATOM      7  C7  DEN d   1       1.877   1.826   4.481  0.00  0.00     0.017 A 
ATOM      8  C8  DEN d   1       1.425   2.068   3.190  0.00  0.00    -0.094 A 
ATOM      9  C9  DEN d   1       1.831   1.273   2.132  0.00  0.00    -0.072 A 
ENDROOT
TORSDOF 0
ENDMDL
