MODEL 1
REMARK minimizedAffinity 3.18009853
REMARK minimizedRMSD -1
REMARK  0 active torsions:
REMARK  status: ('A' for Active; 'I' for Inactive)
ROOT
ATOM      1  C1  DEN d   1      -1.413  -5.604   4.182  0.00  0.00     0.130 A 
ATOM      2  C2  DEN d   1      -2.641  -5.888   4.919  0.00  0.00    -0.031 A 
ATOM      3  C3  DEN d   1      -3.424  -4.638   5.001  0.00  0.00     0.027 A 
ATOM      4  C4  DEN d   1      -2.857  -2.304   4.061  0.00  0.00     0.027 A 
ATOM      5  C5  DEN d   1      -1.918  -1.569   3.371  0.00  0.00    -0.003 A 
ATOM      6  C6  DEN d   1      -0.739  -2.115   2.936  0.00  0.00     0.001 A 
ATOM      7  C7  DEN d   1      -0.488  -3.445   3.148  0.00  0.00     0.017 A 
ATOM      8  C8  DEN d   1      -1.427  -4.191   3.849  0.00  0.00    -0.094 A 
ATOM      9  C9  DEN d   1      -2.618  -3.623   4.269  0.00  0.00    -0.072 A 
ENDROOT
TORSDOF 0
ENDMDL
