MODEL 1
REMARK minimizedAffinity 13.8812256
REMARK minimizedRMSD -1
REMARK  0 active torsions:
REMARK  status: ('A' for Active; 'I' for Inactive)
ROOT
ATOM      1  C1  DEN d   1      -3.395  -4.587   4.902  0.00  0.00     0.130 A 
ATOM      2  C2  DEN d   1      -2.984  -5.977   4.724  0.00  0.00    -0.031 A 
ATOM      3  C3  DEN d   1      -1.844  -5.999   3.786  0.00  0.00     0.027 A 
ATOM      4  C4  DEN d   1      -0.678  -4.027   2.602  0.00  0.00     0.027 A 
ATOM      5  C5  DEN d   1      -0.680  -2.661   2.430  0.00  0.00    -0.003 A 
ATOM      6  C6  DEN d   1      -1.601  -1.850   3.039  0.00  0.00     0.001 A 
ATOM      7  C7  DEN d   1      -2.531  -2.395   3.884  0.00  0.00     0.017 A 
ATOM      8  C8  DEN d   1      -2.540  -3.773   4.056  0.00  0.00    -0.094 A 
ATOM      9  C9  DEN d   1      -1.592  -4.574   3.442  0.00  0.00    -0.072 A 
ENDROOT
TORSDOF 0
ENDMDL
