MODEL 1
REMARK minimizedAffinity 14.0961933
REMARK minimizedRMSD -1
REMARK  0 active torsions:
REMARK  status: ('A' for Active; 'I' for Inactive)
ROOT
ATOM      1  C1  DEN d   1       1.215   0.816   3.955  0.00  0.00     0.130 A 
ATOM      2  C2  DEN d   1       2.509   0.321   3.495  0.00  0.00    -0.031 A 
ATOM      3  C3  DEN d   1       2.819   0.979   2.209  0.00  0.00     0.027 A 
ATOM      4  C4  DEN d   1       1.430   2.710   0.896  0.00  0.00     0.027 A 
ATOM      5  C5  DEN d   1       0.255   3.430   0.883  0.00  0.00    -0.003 A 
ATOM      6  C6  DEN d   1      -0.689   3.304   1.867  0.00  0.00     0.001 A 
ATOM      7  C7  DEN d   1      -0.455   2.473   2.930  0.00  0.00     0.017 A 
ATOM      8  C8  DEN d   1       0.723   1.738   2.947  0.00  0.00    -0.094 A 
ATOM      9  C9  DEN d   1       1.671   1.888   1.949  0.00  0.00    -0.072 A 
ENDROOT
TORSDOF 0
ENDMDL
