MODEL 1
REMARK minimizedAffinity -4.30692148
REMARK minimizedRMSD -1
REMARK  1 active torsions:
REMARK  status: ('A' for Active; 'I' for Inactive)
REMARK    1  A    between atoms: C3_4  and  O_7 
ROOT
ATOM      1  C   UNL d   1      -0.778  -0.195  -0.159  0.00  0.00    -0.033 A 
ATOM      2  C1  UNL d   1      -1.408  -0.738   0.962  0.00  0.00     0.039 A 
ATOM      3  C2  UNL d   1      -0.680  -0.968   2.131  0.00  0.00    -0.080 A 
ATOM      4  C3  UNL d   1       0.675  -0.650   2.166  0.00  0.00     0.150 A 
ATOM      5  C4  UNL d   1       1.308  -0.105   1.054  0.00  0.00    -0.007 A 
ATOM      6  C5  UNL d   1       0.579   0.123  -0.113  0.00  0.00     0.039 A 
ENDROOT
BRANCH   4   7
ATOM      7  O   UNL d   1       1.428  -0.861   3.282  0.00  0.00    -0.526 OA
ATOM      8  H5  UNL d   1       0.864  -1.268   3.961  0.00  0.00     0.418 HD
ENDBRANCH   4   7
TORSDOF 1
ENDMDL
