MODEL 1
REMARK minimizedAffinity -2.80078626
REMARK minimizedRMSD -1
REMARK  1 active torsions:
REMARK  status: ('A' for Active; 'I' for Inactive)
REMARK    1  A    between atoms: C3_4  and  O_7 
ROOT
ATOM      1  C   UNL d   1      -1.399  -1.568   1.149  0.00  0.00    -0.033 A 
ATOM      2  C1  UNL d   1      -0.723  -0.349   1.237  0.00  0.00     0.039 A 
ATOM      3  C2  UNL d   1       0.258  -0.162   2.212  0.00  0.00    -0.080 A 
ATOM      4  C3  UNL d   1       0.554  -1.199   3.092  0.00  0.00     0.150 A 
ATOM      5  C4  UNL d   1      -0.112  -2.417   3.007  0.00  0.00    -0.007 A 
ATOM      6  C5  UNL d   1      -1.092  -2.603   2.033  0.00  0.00     0.039 A 
ENDROOT
BRANCH   4   7
ATOM      7  O   UNL d   1       1.501  -1.062   4.064  0.00  0.00    -0.526 OA
ATOM      8  H5  UNL d   1       1.857  -0.159   4.020  0.00  0.00     0.418 HD
ENDBRANCH   4   7
TORSDOF 1
ENDMDL
