MODEL 1
REMARK minimizedAffinity -3.78371549
REMARK minimizedRMSD -1
REMARK  1 active torsions:
REMARK  status: ('A' for Active; 'I' for Inactive)
REMARK    1  A    between atoms: C3_4  and  O_7 
ROOT
ATOM      1  C   UNL d   1      -0.643   0.004   1.446  0.00  0.00    -0.033 A 
ATOM      2  C1  UNL d   1      -0.184  -0.021   0.128  0.00  0.00     0.039 A 
ATOM      3  C2  UNL d   1       0.924  -0.798  -0.213  0.00  0.00    -0.080 A 
ATOM      4  C3  UNL d   1       1.564  -1.545   0.773  0.00  0.00     0.150 A 
ATOM      5  C4  UNL d   1       1.110  -1.528   2.087  0.00  0.00    -0.007 A 
ATOM      6  C5  UNL d   1       0.003  -0.750   2.426  0.00  0.00     0.039 A 
ENDROOT
BRANCH   4   7
ATOM      7  O   UNL d   1       2.652  -2.315   0.489  0.00  0.00    -0.526 OA
ATOM      8  H5  UNL d   1       2.870  -2.207  -0.452  0.00  0.00     0.418 HD
ENDBRANCH   4   7
TORSDOF 1
ENDMDL
