MODEL 1
REMARK minimizedAffinity -4.13056087
REMARK minimizedRMSD -1
REMARK  1 active torsions:
REMARK  status: ('A' for Active; 'I' for Inactive)
REMARK    1  A    between atoms: C3_4  and  O_7 
ROOT
ATOM      1  C   UNL d   1      -0.900  -0.223   1.410  0.00  0.00    -0.033 A 
ATOM      2  C1  UNL d   1      -0.050  -0.898   2.288  0.00  0.00     0.039 A 
ATOM      3  C2  UNL d   1       1.117  -1.498   1.811  0.00  0.00    -0.080 A 
ATOM      4  C3  UNL d   1       1.422  -1.415   0.455  0.00  0.00     0.150 A 
ATOM      5  C4  UNL d   1       0.582  -0.741  -0.425  0.00  0.00    -0.007 A 
ATOM      6  C5  UNL d   1      -0.584  -0.143   0.054  0.00  0.00     0.039 A 
ENDROOT
BRANCH   4   7
ATOM      7  O   UNL d   1       2.547  -1.988  -0.059  0.00  0.00    -0.526 OA
ATOM      8  H5  UNL d   1       3.016  -2.444   0.660  0.00  0.00     0.418 HD
ENDBRANCH   4   7
TORSDOF 1
ENDMDL
