MODEL 1
REMARK minimizedAffinity -4.77966499
REMARK minimizedRMSD -1
REMARK  1 active torsions:
REMARK  status: ('A' for Active; 'I' for Inactive)
REMARK    1  A    between atoms: C3_4  and  O_7 
ROOT
ATOM      1  C   UNL d   1       2.175  -1.864   2.527  0.00  0.00    -0.033 A 
ATOM      2  C1  UNL d   1       2.610  -1.869   1.201  0.00  0.00     0.039 A 
ATOM      3  C2  UNL d   1       1.980  -1.058   0.254  0.00  0.00    -0.080 A 
ATOM      4  C3  UNL d   1       0.918  -0.248   0.647  0.00  0.00     0.150 A 
ATOM      5  C4  UNL d   1       0.482  -0.235   1.968  0.00  0.00    -0.007 A 
ATOM      6  C5  UNL d   1       1.112  -1.046   2.911  0.00  0.00     0.039 A 
ENDROOT
BRANCH   4   7
ATOM      7  O   UNL d   1       0.269   0.557  -0.242  0.00  0.00    -0.526 OA
ATOM      8  H5  UNL d   1       0.660   0.422  -1.121  0.00  0.00     0.418 HD
ENDBRANCH   4   7
TORSDOF 1
ENDMDL
