MODEL 1
REMARK minimizedAffinity -4.51498127
REMARK minimizedRMSD -1
REMARK  1 active torsions:
REMARK  status: ('A' for Active; 'I' for Inactive)
REMARK    1  A    between atoms: C3_4  and  O_7 
ROOT
ATOM      1  C   UNL d   1      -0.278   0.223  -0.033  0.00  0.00    -0.033 A 
ATOM      2  C1  UNL d   1      -0.904  -0.380   1.059  0.00  0.00     0.039 A 
ATOM      3  C2  UNL d   1      -0.151  -0.774   2.168  0.00  0.00    -0.080 A 
ATOM      4  C3  UNL d   1       1.225  -0.557   2.171  0.00  0.00     0.150 A 
ATOM      5  C4  UNL d   1       1.854   0.048   1.088  0.00  0.00    -0.007 A 
ATOM      6  C5  UNL d   1       1.100   0.439  -0.019  0.00  0.00     0.039 A 
ENDROOT
BRANCH   4   7
ATOM      7  O   UNL d   1       2.002  -0.927   3.228  0.00  0.00    -0.526 OA
ATOM      8  H5  UNL d   1       1.436  -1.358   3.890  0.00  0.00     0.418 HD
ENDBRANCH   4   7
TORSDOF 1
ENDMDL
