MODEL 1
REMARK minimizedAffinity -5.58103991
REMARK minimizedRMSD -1
REMARK  1 active torsions:
REMARK  status: ('A' for Active; 'I' for Inactive)
REMARK    1  A    between atoms: C3_4  and  O_7 
ROOT
ATOM      1  C   UNL d   1       1.593  -1.449   2.827  0.00  0.00    -0.033 A 
ATOM      2  C1  UNL d   1       0.337  -0.841   2.767  0.00  0.00     0.039 A 
ATOM      3  C2  UNL d   1      -0.189  -0.443   1.536  0.00  0.00    -0.080 A 
ATOM      4  C3  UNL d   1       0.548  -0.658   0.375  0.00  0.00     0.150 A 
ATOM      5  C4  UNL d   1       1.798  -1.266   0.427  0.00  0.00    -0.007 A 
ATOM      6  C5  UNL d   1       2.323  -1.662   1.657  0.00  0.00     0.039 A 
ENDROOT
BRANCH   4   7
ATOM      7  O   UNL d   1       0.077  -0.282  -0.848  0.00  0.00    -0.526 OA
ATOM      8  H5  UNL d   1      -0.784   0.150  -0.726  0.00  0.00     0.418 HD
ENDBRANCH   4   7
TORSDOF 1
ENDMDL
