MODEL 1
REMARK minimizedAffinity -3.35045934
REMARK minimizedRMSD -1
REMARK  1 active torsions:
REMARK  status: ('A' for Active; 'I' for Inactive)
REMARK    1  A    between atoms: C3_4  and  O_7 
ROOT
ATOM      1  C   UNL d   1      -0.948  -0.153   0.775  0.00  0.00    -0.033 A 
ATOM      2  C1  UNL d   1      -0.568   0.040  -0.554  0.00  0.00     0.039 A 
ATOM      3  C2  UNL d   1       0.583  -0.576  -1.050  0.00  0.00    -0.080 A 
ATOM      4  C3  UNL d   1       1.343  -1.383  -0.208  0.00  0.00     0.150 A 
ATOM      5  C4  UNL d   1       0.968  -1.582   1.117  0.00  0.00    -0.007 A 
ATOM      6  C5  UNL d   1      -0.181  -0.965   1.611  0.00  0.00     0.039 A 
ENDROOT
BRANCH   4   7
ATOM      7  O   UNL d   1       2.476  -2.001  -0.645  0.00  0.00    -0.526 OA
ATOM      8  H5  UNL d   1       2.626  -1.749  -1.571  0.00  0.00     0.418 HD
ENDBRANCH   4   7
TORSDOF 1
ENDMDL
