MODEL 1
REMARK minimizedAffinity -2.67806387
REMARK minimizedRMSD -1
REMARK  1 active torsions:
REMARK  status: ('A' for Active; 'I' for Inactive)
REMARK    1  A    between atoms: C3_4  and  O_7 
ROOT
ATOM      1  C   UNL d   1      -1.082  -0.164   1.498  0.00  0.00    -0.033 A 
ATOM      2  C1  UNL d   1      -0.261  -0.950   2.309  0.00  0.00     0.039 A 
ATOM      3  C2  UNL d   1       0.891  -1.535   1.780  0.00  0.00    -0.080 A 
ATOM      4  C3  UNL d   1       1.211  -1.326   0.441  0.00  0.00     0.150 A 
ATOM      5  C4  UNL d   1       0.399  -0.541  -0.371  0.00  0.00    -0.007 A 
ATOM      6  C5  UNL d   1      -0.751   0.042   0.159  0.00  0.00     0.039 A 
ENDROOT
BRANCH   4   7
ATOM      7  O   UNL d   1       2.322  -1.880  -0.121  0.00  0.00    -0.526 OA
ATOM      8  H5  UNL d   1       2.771  -2.420   0.551  0.00  0.00     0.418 HD
ENDBRANCH   4   7
TORSDOF 1
ENDMDL
