MODEL 1
REMARK minimizedAffinity 9.09897518
REMARK minimizedRMSD -1
REMARK  1 active torsions:
REMARK  status: ('A' for Active; 'I' for Inactive)
REMARK    1  A    between atoms: N_2  and  C1_3 
ROOT
ATOM      1  C1  UNL d   1      -5.121   3.000  -4.093  0.00  0.00     0.143 A 
ATOM      2  C2  UNL d   1      -5.609   2.934  -2.783  0.00  0.00    -0.057 A 
ATOM      3  C3  UNL d   1      -4.749   2.728  -1.697  0.00  0.00     0.033 A 
ATOM      4  C4  UNL d   1      -3.385   2.555  -1.906  0.00  0.00    -0.042 A 
ATOM      5  C5  UNL d   1      -2.881   2.592  -3.202  0.00  0.00     0.033 A 
ATOM      6  C6  UNL d   1      -3.744   2.804  -4.281  0.00  0.00    -0.057 A 
ENDROOT
BRANCH   1   7
ATOM      7  N   UNL d   1      -5.937   3.104  -5.222  0.00  0.00    -0.732 N 
ATOM      8  C   UNL d   1      -5.992   4.334  -5.981  0.00  0.00     0.284 C 
ATOM      9  H3  UNL d   1      -5.917   2.263  -5.794  0.00  0.00     0.395 HD
ENDBRANCH   1   7
TORSDOF 1
ENDMDL
