MODEL 1
REMARK minimizedAffinity 2.6905117
REMARK minimizedRMSD -1
REMARK  1 active torsions:
REMARK  status: ('A' for Active; 'I' for Inactive)
REMARK    1  A    between atoms: N_2  and  C1_3 
ROOT
ATOM      1  C1  UNL d   1       2.083  -0.092   1.572  0.00  0.00     0.143 A 
ATOM      2  C2  UNL d   1       1.030  -0.665   0.850  0.00  0.00    -0.057 A 
ATOM      3  C3  UNL d   1       0.464  -1.885   1.239  0.00  0.00     0.033 A 
ATOM      4  C4  UNL d   1       0.961  -2.569   2.343  0.00  0.00    -0.042 A 
ATOM      5  C5  UNL d   1       2.023  -2.030   3.061  0.00  0.00     0.033 A 
ATOM      6  C6  UNL d   1       2.580  -0.809   2.671  0.00  0.00    -0.057 A 
ENDROOT
BRANCH   1   7
ATOM      7  N   UNL d   1       2.753   1.069   1.179  0.00  0.00    -0.732 N 
ATOM      8  C   UNL d   1       2.274   1.856   0.063  0.00  0.00     0.284 C 
ATOM      9  H3  UNL d   1       3.069   1.623   1.972  0.00  0.00     0.395 HD
ENDBRANCH   1   7
TORSDOF 1
ENDMDL
