MODEL 1
REMARK minimizedAffinity 4.41845465
REMARK minimizedRMSD -1
REMARK  1 active torsions:
REMARK  status: ('A' for Active; 'I' for Inactive)
REMARK    1  A    between atoms: N_2  and  C1_3 
ROOT
ATOM      1  C1  UNL d   1       5.238   5.136  -3.621  0.00  0.00     0.143 A 
ATOM      2  C2  UNL d   1       3.979   4.567  -3.403  0.00  0.00    -0.057 A 
ATOM      3  C3  UNL d   1       3.332   4.686  -2.167  0.00  0.00     0.033 A 
ATOM      4  C4  UNL d   1       3.949   5.354  -1.114  0.00  0.00    -0.042 A 
ATOM      5  C5  UNL d   1       5.211   5.905  -1.300  0.00  0.00     0.033 A 
ATOM      6  C6  UNL d   1       5.849   5.789  -2.539  0.00  0.00    -0.057 A 
ENDROOT
BRANCH   1   7
ATOM      7  N   UNL d   1       5.975   4.968  -4.796  0.00  0.00    -0.732 N 
ATOM      8  C   UNL d   1       5.999   3.690  -5.474  0.00  0.00     0.284 C 
ATOM      9  H3  UNL d   1       5.900   5.768  -5.419  0.00  0.00     0.395 HD
ENDBRANCH   1   7
TORSDOF 1
ENDMDL
