MODEL 1
REMARK minimizedAffinity 3.07708836
REMARK minimizedRMSD -1
REMARK  1 active torsions:
REMARK  status: ('A' for Active; 'I' for Inactive)
REMARK    1  A    between atoms: N_2  and  C1_3 
ROOT
ATOM      1  C1  UNL d   1       3.275   5.353  -2.314  0.00  0.00     0.143 A 
ATOM      2  C2  UNL d   1       4.423   5.341  -1.515  0.00  0.00    -0.057 A 
ATOM      3  C3  UNL d   1       5.677   5.674  -2.041  0.00  0.00     0.033 A 
ATOM      4  C4  UNL d   1       5.809   5.999  -3.387  0.00  0.00    -0.042 A 
ATOM      5  C5  UNL d   1       4.685   5.994  -4.206  0.00  0.00     0.033 A 
ATOM      6  C6  UNL d   1       3.435   5.666  -3.673  0.00  0.00    -0.057 A 
ENDROOT
BRANCH   1   7
ATOM      7  N   UNL d   1       2.016   4.937  -1.873  0.00  0.00    -0.732 N 
ATOM      8  C   UNL d   1       1.872   3.728  -1.091  0.00  0.00     0.284 C 
ATOM      9  H3  UNL d   1       1.441   5.712  -1.550  0.00  0.00     0.395 HD
ENDBRANCH   1   7
TORSDOF 1
ENDMDL
