MODEL 1
REMARK minimizedAffinity 7.01683474
REMARK minimizedRMSD -1
REMARK  1 active torsions:
REMARK  status: ('A' for Active; 'I' for Inactive)
REMARK    1  A    between atoms: N_2  and  C1_3 
ROOT
ATOM      1  C1  UNL d   1      -0.948  -1.550  -0.474  0.00  0.00     0.143 A 
ATOM      2  C2  UNL d   1       0.121  -1.789   0.397  0.00  0.00    -0.057 A 
ATOM      3  C3  UNL d   1       1.265  -2.474  -0.028  0.00  0.00     0.033 A 
ATOM      4  C4  UNL d   1       1.349  -2.961  -1.329  0.00  0.00    -0.042 A 
ATOM      5  C5  UNL d   1       0.288  -2.757  -2.204  0.00  0.00     0.033 A 
ATOM      6  C6  UNL d   1      -0.849  -2.066  -1.776  0.00  0.00    -0.057 A 
ENDROOT
BRANCH   1   7
ATOM      7  N   UNL d   1      -2.153  -0.961  -0.083  0.00  0.00    -0.732 N 
ATOM      8  C   UNL d   1      -2.382   0.453  -0.288  0.00  0.00     0.284 C 
ATOM      9  H3  UNL d   1      -2.957  -1.547  -0.292  0.00  0.00     0.395 HD
ENDBRANCH   1   7
TORSDOF 1
ENDMDL
