MODEL 1
REMARK minimizedAffinity 1.62383687
REMARK minimizedRMSD -1
REMARK  1 active torsions:
REMARK  status: ('A' for Active; 'I' for Inactive)
REMARK    1  A    between atoms: N_2  and  C1_3 
ROOT
ATOM      1  C1  UNL d   1       1.410  -2.644  -2.630  0.00  0.00     0.143 A 
ATOM      2  C2  UNL d   1       2.028  -3.667  -3.357  0.00  0.00    -0.057 A 
ATOM      3  C3  UNL d   1       3.423  -3.752  -3.449  0.00  0.00     0.033 A 
ATOM      4  C4  UNL d   1       4.226  -2.796  -2.836  0.00  0.00    -0.042 A 
ATOM      5  C5  UNL d   1       3.633  -1.757  -2.129  0.00  0.00     0.033 A 
ATOM      6  C6  UNL d   1       2.240  -1.680  -2.035  0.00  0.00    -0.057 A 
ENDROOT
BRANCH   1   7
ATOM      7  N   UNL d   1       0.028  -2.448  -2.583  0.00  0.00    -0.732 N 
ATOM      8  C   UNL d   1      -0.584  -1.778  -1.457  0.00  0.00     0.284 C 
ATOM      9  H3  UNL d   1      -0.357  -2.180  -3.486  0.00  0.00     0.395 HD
ENDBRANCH   1   7
TORSDOF 1
ENDMDL
