MODEL 1
REMARK minimizedAffinity -2.16707277
REMARK minimizedRMSD -1
REMARK  0 active torsions:
REMARK  status: ('A' for Active; 'I' for Inactive)
ROOT
ATOM      1  N1  IND d   1      -1.234  -3.334  -0.184  0.00  0.00    -0.196 N 
ATOM      2  C2  IND d   1      -0.943  -4.047  -1.314  0.00  0.00     0.054 A 
ATOM      3  C3  IND d   1      -0.180  -3.309  -2.151  0.00  0.00    -0.031 A 
ATOM      4  C4  IND d   1       0.790  -0.947  -1.827  0.00  0.00     0.051 A 
ATOM      5  C5  IND d   1       0.769   0.119  -0.971  0.00  0.00    -0.031 A 
ATOM      6  C6  IND d   1       0.067   0.086   0.216  0.00  0.00     0.015 A 
ATOM      7  C7  IND d   1      -0.634  -1.023   0.599  0.00  0.00    -0.016 A 
ATOM      8  C8  IND d   1      -0.621  -2.104  -0.271  0.00  0.00    -0.047 A 
ATOM      9  C9  IND d   1       0.056  -2.061  -1.498  0.00  0.00    -0.096 A 
ATOM     10  HN1 IND d   1      -1.720  -3.608   0.471  0.00  0.00     0.298 HD
ENDROOT
TORSDOF 0
ENDMDL
