MODEL 1
REMARK minimizedAffinity 0.803894818
REMARK minimizedRMSD -1
REMARK  0 active torsions:
REMARK  status: ('A' for Active; 'I' for Inactive)
ROOT
ATOM      1  N1  IND d   1      -0.150  -1.855  -2.305  0.00  0.00    -0.196 N 
ATOM      2  C2  IND d   1       0.300  -3.020  -1.748  0.00  0.00     0.054 A 
ATOM      3  C3  IND d   1       0.741  -2.799  -0.489  0.00  0.00    -0.031 A 
ATOM      4  C4  IND d   1       0.725  -0.628   0.893  0.00  0.00     0.051 A 
ATOM      5  C5  IND d   1       0.445   0.707   0.800  0.00  0.00    -0.031 A 
ATOM      6  C6  IND d   1      -0.062   1.266  -0.356  0.00  0.00     0.015 A 
ATOM      7  C7  IND d   1      -0.317   0.507  -1.462  0.00  0.00    -0.016 A 
ATOM      8  C8  IND d   1      -0.027  -0.847  -1.373  0.00  0.00    -0.047 A 
ATOM      9  C9  IND d   1       0.527  -1.413  -0.218  0.00  0.00    -0.096 A 
ATOM     10  HN1 IND d   1      -0.458  -1.766  -3.103  0.00  0.00     0.298 HD
ENDROOT
TORSDOF 0
ENDMDL
