MODEL 1
REMARK minimizedAffinity -5.79551268
REMARK minimizedRMSD -1
REMARK  0 active torsions:
REMARK  status: ('A' for Active; 'I' for Inactive)
ROOT
ATOM      1  N1  IND d   1      -0.144   0.054  -0.975  0.00  0.00    -0.196 N 
ATOM      2  C2  IND d   1       0.424  -0.787  -0.060  0.00  0.00     0.054 A 
ATOM      3  C3  IND d   1       0.398  -0.229   1.172  0.00  0.00    -0.031 A 
ATOM      4  C4  IND d   1      -0.619   2.010   1.931  0.00  0.00     0.051 A 
ATOM      5  C5  IND d   1      -1.215   3.141   1.448  0.00  0.00    -0.031 A 
ATOM      6  C6  IND d   1      -1.493   3.303   0.107  0.00  0.00     0.015 A 
ATOM      7  C7  IND d   1      -1.194   2.331  -0.805  0.00  0.00    -0.016 A 
ATOM      8  C8  IND d   1      -0.582   1.184  -0.320  0.00  0.00    -0.047 A 
ATOM      9  C9  IND d   1      -0.259   1.032   1.035  0.00  0.00    -0.096 A 
ATOM     10  HN1 IND d   1      -0.215  -0.097  -1.819  0.00  0.00     0.298 HD
ENDROOT
TORSDOF 0
ENDMDL
