MODEL 1
REMARK minimizedAffinity -5.65560389
REMARK minimizedRMSD -1
REMARK  0 active torsions:
REMARK  status: ('A' for Active; 'I' for Inactive)
ROOT
ATOM      1  N1  IND d   1       0.329  -0.349  -0.805  0.00  0.00    -0.196 N 
ATOM      2  C2  IND d   1       0.797  -1.102   0.235  0.00  0.00     0.054 A 
ATOM      3  C3  IND d   1       0.607  -0.456   1.407  0.00  0.00    -0.031 A 
ATOM      4  C4  IND d   1      -0.546   1.801   1.861  0.00  0.00     0.051 A 
ATOM      5  C5  IND d   1      -1.103   2.874   1.223  0.00  0.00    -0.031 A 
ATOM      6  C6  IND d   1      -1.216   2.927  -0.151  0.00  0.00     0.015 A 
ATOM      7  C7  IND d   1      -0.784   1.899  -0.941  0.00  0.00    -0.016 A 
ATOM      8  C8  IND d   1      -0.212   0.812  -0.298  0.00  0.00    -0.047 A 
ATOM      9  C9  IND d   1      -0.056   0.771   1.094  0.00  0.00    -0.096 A 
ATOM     10  HN1 IND d   1       0.365  -0.565  -1.637  0.00  0.00     0.298 HD
ENDROOT
TORSDOF 0
ENDMDL
