MODEL 1
REMARK minimizedAffinity -6.32208729
REMARK minimizedRMSD -1
REMARK  0 active torsions:
REMARK  status: ('A' for Active; 'I' for Inactive)
ROOT
ATOM      1  N1  IND d   1       0.505   0.265  -1.118  0.00  0.00    -0.196 N 
ATOM      2  C2  IND d   1       0.918  -0.601  -0.144  0.00  0.00     0.054 A 
ATOM      3  C3  IND d   1       0.546  -0.149   1.075  0.00  0.00    -0.031 A 
ATOM      4  C4  IND d   1      -0.835   1.933   1.696  0.00  0.00     0.051 A 
ATOM      5  C5  IND d   1      -1.407   3.048   1.151  0.00  0.00    -0.031 A 
ATOM      6  C6  IND d   1      -1.372   3.297  -0.206  0.00  0.00     0.015 A 
ATOM      7  C7  IND d   1      -0.771   2.429  -1.074  0.00  0.00    -0.016 A 
ATOM      8  C8  IND d   1      -0.184   1.299  -0.523  0.00  0.00    -0.047 A 
ATOM      9  C9  IND d   1      -0.179   1.063   0.858  0.00  0.00    -0.096 A 
ATOM     10  HN1 IND d   1       0.651   0.178  -1.961  0.00  0.00     0.298 HD
ENDROOT
TORSDOF 0
ENDMDL
