MODEL 1
REMARK minimizedAffinity -4.96144629
REMARK minimizedRMSD -1
REMARK  0 active torsions:
REMARK  status: ('A' for Active; 'I' for Inactive)
ROOT
ATOM      1  N1  IND d   1      -0.017   0.276  -0.717  0.00  0.00    -0.196 N 
ATOM      2  C2  IND d   1       0.685  -0.501   0.162  0.00  0.00     0.054 A 
ATOM      3  C3  IND d   1       0.642   0.036   1.402  0.00  0.00    -0.031 A 
ATOM      4  C4  IND d   1      -0.607   2.127   2.236  0.00  0.00     0.051 A 
ATOM      5  C5  IND d   1      -1.354   3.183   1.795  0.00  0.00    -0.031 A 
ATOM      6  C6  IND d   1      -1.704   3.325   0.468  0.00  0.00     0.015 A 
ATOM      7  C7  IND d   1      -1.327   2.406  -0.470  0.00  0.00    -0.016 A 
ATOM      8  C8  IND d   1      -0.561   1.337  -0.027  0.00  0.00    -0.047 A 
ATOM      9  C9  IND d   1      -0.168   1.210   1.311  0.00  0.00    -0.096 A 
ATOM     10  HN1 IND d   1      -0.105   0.127  -1.560  0.00  0.00     0.298 HD
ENDROOT
TORSDOF 0
ENDMDL
