MODEL 1
REMARK minimizedAffinity -1.81334424
REMARK minimizedRMSD -1
REMARK  0 active torsions:
REMARK  status: ('A' for Active; 'I' for Inactive)
ROOT
ATOM      1  N1  IND d   1       0.221   3.765  -1.067  0.00  0.00    -0.196 N 
ATOM      2  C2  IND d   1       0.334   4.940  -0.378  0.00  0.00     0.054 A 
ATOM      3  C3  IND d   1       0.429   4.699   0.949  0.00  0.00    -0.031 A 
ATOM      4  C4  IND d   1       0.523   2.451   2.201  0.00  0.00     0.051 A 
ATOM      5  C5  IND d   1       0.418   1.103   2.003  0.00  0.00    -0.031 A 
ATOM      6  C6  IND d   1       0.242   0.562   0.746  0.00  0.00     0.015 A 
ATOM      7  C7  IND d   1       0.175   1.352  -0.367  0.00  0.00    -0.016 A 
ATOM      8  C8  IND d   1       0.273   2.722  -0.169  0.00  0.00    -0.047 A 
ATOM      9  C9  IND d   1       0.409   3.280   1.109  0.00  0.00    -0.096 A 
ATOM     10  HN1 IND d   1       0.132   3.690  -1.919  0.00  0.00     0.298 HD
ENDROOT
TORSDOF 0
ENDMDL
