MODEL 1
REMARK minimizedAffinity 7.14473867
REMARK minimizedRMSD -1
REMARK  0 active torsions:
REMARK  status: ('A' for Active; 'I' for Inactive)
ROOT
ATOM      1  N1  IND d   1       0.580   0.277  -1.351  0.00  0.00    -0.196 N 
ATOM      2  C2  IND d   1      -0.349   1.279  -1.364  0.00  0.00     0.054 A 
ATOM      3  C3  IND d   1      -0.704   1.609  -0.102  0.00  0.00    -0.031 A 
ATOM      4  C4  IND d   1       0.188   0.704   2.137  0.00  0.00     0.051 A 
ATOM      5  C5  IND d   1       1.019  -0.246   2.660  0.00  0.00    -0.031 A 
ATOM      6  C6  IND d   1       1.764  -1.085   1.857  0.00  0.00     0.015 A 
ATOM      7  C7  IND d   1       1.713  -0.998   0.495  0.00  0.00    -0.016 A 
ATOM      8  C8  IND d   1       0.865  -0.039  -0.040  0.00  0.00    -0.047 A 
ATOM      9  C9  IND d   1       0.074   0.787   0.769  0.00  0.00    -0.096 A 
ATOM     10  HN1 IND d   1       0.929  -0.093  -2.044  0.00  0.00     0.298 HD
ENDROOT
TORSDOF 0
ENDMDL
