MODEL 1
REMARK minimizedAffinity 6.03946114
REMARK minimizedRMSD -1
REMARK  0 active torsions:
REMARK  status: ('A' for Active; 'I' for Inactive)
ROOT
ATOM      1  N1  IND d   1       0.919   2.693   3.397  0.00  0.00    -0.196 N 
ATOM      2  C2  IND d   1       1.768   3.744   3.188  0.00  0.00     0.054 A 
ATOM      3  C3  IND d   1       1.830   4.044   1.872  0.00  0.00    -0.031 A 
ATOM      4  C4  IND d   1       0.547   3.008  -0.105  0.00  0.00     0.051 A 
ATOM      5  C5  IND d   1      -0.316   1.995  -0.416  0.00  0.00    -0.031 A 
ATOM      6  C6  IND d   1      -0.823   1.147   0.547  0.00  0.00     0.015 A 
ATOM      7  C7  IND d   1      -0.494   1.289   1.865  0.00  0.00    -0.016 A 
ATOM      8  C8  IND d   1       0.387   2.312   2.184  0.00  0.00    -0.047 A 
ATOM      9  C9  IND d   1       0.938   3.149   1.206  0.00  0.00    -0.096 A 
ATOM     10  HN1 IND d   1       0.747   2.330   4.157  0.00  0.00     0.298 HD
ENDROOT
TORSDOF 0
ENDMDL
