MODEL 1
REMARK minimizedAffinity 3.41736794
REMARK minimizedRMSD -1
REMARK  0 active torsions:
REMARK  status: ('A' for Active; 'I' for Inactive)
ROOT
ATOM      1  N1  IND d   1       0.001  -3.036  -0.193  0.00  0.00    -0.196 N 
ATOM      2  C2  IND d   1      -0.375  -3.171  -1.500  0.00  0.00     0.054 A 
ATOM      3  C3  IND d   1      -0.473  -1.958  -2.089  0.00  0.00    -0.031 A 
ATOM      4  C4  IND d   1       0.035   0.374  -1.125  0.00  0.00     0.051 A 
ATOM      5  C5  IND d   1       0.375   1.009   0.037  0.00  0.00    -0.031 A 
ATOM      6  C6  IND d   1       0.615   0.313   1.205  0.00  0.00     0.015 A 
ATOM      7  C7  IND d   1       0.535  -1.050   1.251  0.00  0.00    -0.016 A 
ATOM      8  C8  IND d   1       0.183  -1.697   0.075  0.00  0.00    -0.047 A 
ATOM      9  C9  IND d   1      -0.103  -0.994  -1.102  0.00  0.00    -0.096 A 
ATOM     10  HN1 IND d   1       0.106  -3.679   0.368  0.00  0.00     0.298 HD
ENDROOT
TORSDOF 0
ENDMDL
