MODEL 1
REMARK minimizedAffinity -4.57062912
REMARK minimizedRMSD -1
REMARK  0 active torsions:
REMARK  status: ('A' for Active; 'I' for Inactive)
ROOT
ATOM      1  C2' OXE d   1       0.275   0.375   2.975  0.00  0.00     0.078 C 
ATOM      2  C1' OXE d   1      -1.500   2.250   1.875  0.00  0.00     0.078 C 
ATOM      3  C1  OXE d   1      -0.738   1.361   0.925  0.00  0.00    -0.078 A 
ATOM      4  C2  OXE d   1       0.163   0.478   1.470  0.00  0.00    -0.078 A 
ATOM      5  C3  OXE d   1       0.852  -0.403   0.641  0.00  0.00     0.003 A 
ATOM      6  C4  OXE d   1       0.750  -0.294  -0.751  0.00  0.00    -0.002 A 
ATOM      7  C5  OXE d   1      -0.132   0.625  -1.328  0.00  0.00    -0.002 A 
ATOM      8  C6  OXE d   1      -0.913   1.429  -0.505  0.00  0.00     0.003 A 
ENDROOT
TORSDOF 0
ENDMDL
