MODEL 1
REMARK minimizedAffinity -6.01278114
REMARK minimizedRMSD -1
REMARK  0 active torsions:
REMARK  status: ('A' for Active; 'I' for Inactive)
ROOT
ATOM      1  C2' OXE d   1       0.384   0.585  -1.085  0.00  0.00     0.078 C 
ATOM      2  C1' OXE d   1      -1.163   2.927  -1.149  0.00  0.00     0.078 C 
ATOM      3  C1  OXE d   1      -0.855   2.323   0.199  0.00  0.00    -0.078 A 
ATOM      4  C2  OXE d   1      -0.138   1.151   0.218  0.00  0.00    -0.078 A 
ATOM      5  C3  OXE d   1       0.220   0.582   1.436  0.00  0.00     0.003 A 
ATOM      6  C4  OXE d   1      -0.275   1.106   2.636  0.00  0.00    -0.002 A 
ATOM      7  C5  OXE d   1      -1.041   2.277   2.637  0.00  0.00    -0.002 A 
ATOM      8  C6  OXE d   1      -1.304   2.920   1.432  0.00  0.00     0.003 A 
ENDROOT
TORSDOF 0
ENDMDL
