MODEL 1
REMARK minimizedAffinity -4.00751495
REMARK minimizedRMSD -1
REMARK  0 active torsions:
REMARK  status: ('A' for Active; 'I' for Inactive)
ROOT
ATOM      1  C2' OXE d   1      -1.095   3.372  -1.278  0.00  0.00     0.078 C 
ATOM      2  C1' OXE d   1      -0.894   2.999   1.497  0.00  0.00     0.078 C 
ATOM      3  C1  OXE d   1      -0.395   1.893   0.600  0.00  0.00    -0.078 A 
ATOM      4  C2  OXE d   1      -0.541   2.065  -0.756  0.00  0.00    -0.078 A 
ATOM      5  C3  OXE d   1      -0.048   1.100  -1.629  0.00  0.00     0.003 A 
ATOM      6  C4  OXE d   1       0.454  -0.111  -1.137  0.00  0.00    -0.002 A 
ATOM      7  C5  OXE d   1       0.575  -0.323   0.240  0.00  0.00    -0.002 A 
ATOM      8  C6  OXE d   1       0.195   0.685   1.120  0.00  0.00     0.003 A 
ENDROOT
TORSDOF 0
ENDMDL
