MODEL 1
REMARK minimizedAffinity -5.16051292
REMARK minimizedRMSD -1
REMARK  0 active torsions:
REMARK  status: ('A' for Active; 'I' for Inactive)
ROOT
ATOM      1  C2' OXE d   1      -1.350   3.926   1.196  0.00  0.00     0.078 C 
ATOM      2  C1' OXE d   1      -0.842   2.944  -1.384  0.00  0.00     0.078 C 
ATOM      3  C1  OXE d   1      -0.563   2.031  -0.216  0.00  0.00    -0.078 A 
ATOM      4  C2  OXE d   1      -0.770   2.536   1.045  0.00  0.00    -0.078 A 
ATOM      5  C3  OXE d   1      -0.580   1.718   2.155  0.00  0.00     0.003 A 
ATOM      6  C4  OXE d   1      -0.034   0.438   2.007  0.00  0.00    -0.002 A 
ATOM      7  C5  OXE d   1       0.222  -0.082   0.733  0.00  0.00    -0.002 A 
ATOM      8  C6  OXE d   1      -0.076   0.685  -0.388  0.00  0.00     0.003 A 
ENDROOT
TORSDOF 0
ENDMDL
