MODEL 1
REMARK minimizedAffinity -5.78258991
REMARK minimizedRMSD -1
REMARK  0 active torsions:
REMARK  status: ('A' for Active; 'I' for Inactive)
ROOT
ATOM      1  C2' OXE d   1       0.692  -0.257   2.668  0.00  0.00     0.078 C 
ATOM      2  C1' OXE d   1      -0.865   2.045   2.273  0.00  0.00     0.078 C 
ATOM      3  C1  OXE d   1      -0.481   1.239   1.057  0.00  0.00    -0.078 A 
ATOM      4  C2  OXE d   1       0.320   0.140   1.255  0.00  0.00    -0.078 A 
ATOM      5  C3  OXE d   1       0.659  -0.670   0.175  0.00  0.00     0.003 A 
ATOM      6  C4  OXE d   1       0.319  -0.290  -1.129  0.00  0.00    -0.002 A 
ATOM      7  C5  OXE d   1      -0.463   0.847  -1.357  0.00  0.00    -0.002 A 
ATOM      8  C6  OXE d   1      -0.906   1.597  -0.273  0.00  0.00     0.003 A 
ENDROOT
TORSDOF 0
ENDMDL
