MODEL 1
REMARK minimizedAffinity -3.27052808
REMARK minimizedRMSD -1
REMARK  0 active torsions:
REMARK  status: ('A' for Active; 'I' for Inactive)
ROOT
ATOM      1  C2' OXE d   1       0.450  -0.651  -1.021  0.00  0.00     0.078 C 
ATOM      2  C1' OXE d   1       0.047   1.882  -2.164  0.00  0.00     0.078 C 
ATOM      3  C1  OXE d   1       0.262   1.809  -0.673  0.00  0.00    -0.078 A 
ATOM      4  C2  OXE d   1       0.412   0.561  -0.116  0.00  0.00    -0.078 A 
ATOM      5  C3  OXE d   1       0.667   0.441   1.247  0.00  0.00     0.003 A 
ATOM      6  C4  OXE d   1       0.621   1.566   2.079  0.00  0.00    -0.002 A 
ATOM      7  C5  OXE d   1       0.430   2.842   1.538  0.00  0.00    -0.002 A 
ATOM      8  C6  OXE d   1       0.292   2.985   0.162  0.00  0.00     0.003 A 
ENDROOT
TORSDOF 0
ENDMDL
