MODEL 1
REMARK minimizedAffinity -4.80342484
REMARK minimizedRMSD -1
REMARK  0 active torsions:
REMARK  status: ('A' for Active; 'I' for Inactive)
ROOT
ATOM      1  C2' OXE d   1       0.535   0.073   2.730  0.00  0.00     0.078 C 
ATOM      2  C1' OXE d   1      -0.049  -0.736   0.106  0.00  0.00     0.078 C 
ATOM      3  C1  OXE d   1      -0.376   0.685   0.493  0.00  0.00    -0.078 A 
ATOM      4  C2  OXE d   1      -0.130   1.059   1.792  0.00  0.00    -0.078 A 
ATOM      5  C3  OXE d   1      -0.361   2.373   2.188  0.00  0.00     0.003 A 
ATOM      6  C4  OXE d   1      -0.986   3.275   1.318  0.00  0.00    -0.002 A 
ATOM      7  C5  OXE d   1      -1.281   2.903   0.002  0.00  0.00    -0.002 A 
ATOM      8  C6  OXE d   1      -0.945   1.628  -0.438  0.00  0.00     0.003 A 
ENDROOT
TORSDOF 0
ENDMDL
