MODEL 1
REMARK minimizedAffinity -5.33587265
REMARK minimizedRMSD -1
REMARK  0 active torsions:
REMARK  status: ('A' for Active; 'I' for Inactive)
ROOT
ATOM      1  C2' OXE d   1       0.020  -1.080  -0.852  0.00  0.00     0.078 C 
ATOM      2  C1' OXE d   1      -1.402   1.318  -0.527  0.00  0.00     0.078 C 
ATOM      3  C1  OXE d   1      -0.431   0.923   0.558  0.00  0.00    -0.078 A 
ATOM      4  C2  OXE d   1       0.226  -0.275   0.413  0.00  0.00    -0.078 A 
ATOM      5  C3  OXE d   1       1.173  -0.661   1.357  0.00  0.00     0.003 A 
ATOM      6  C4  OXE d   1       1.350   0.085   2.529  0.00  0.00    -0.002 A 
ATOM      7  C5  OXE d   1       0.662   1.288   2.715  0.00  0.00    -0.002 A 
ATOM      8  C6  OXE d   1      -0.198   1.742   1.722  0.00  0.00     0.003 A 
ENDROOT
TORSDOF 0
ENDMDL
