MODEL 1
REMARK minimizedAffinity -5.41997671
REMARK minimizedRMSD -1
REMARK  0 active torsions:
REMARK  status: ('A' for Active; 'I' for Inactive)
ROOT
ATOM      1  C2' OXE d   1      -0.135   1.776  -1.672  0.00  0.00     0.078 C 
ATOM      2  C1' OXE d   1       0.675  -0.718  -0.668  0.00  0.00     0.078 C 
ATOM      3  C1  OXE d   1       0.198   0.317   0.320  0.00  0.00    -0.078 A 
ATOM      4  C2  OXE d   1      -0.152   1.550  -0.176  0.00  0.00    -0.078 A 
ATOM      5  C3  OXE d   1      -0.651   2.523   0.686  0.00  0.00     0.003 A 
ATOM      6  C4  OXE d   1      -0.654   2.310   2.070  0.00  0.00    -0.002 A 
ATOM      7  C5  OXE d   1      -0.265   1.075   2.599  0.00  0.00    -0.002 A 
ATOM      8  C6  OXE d   1       0.123   0.056   1.736  0.00  0.00     0.003 A 
ENDROOT
TORSDOF 0
ENDMDL
