MODEL 1
REMARK minimizedAffinity -5.15946627
REMARK minimizedRMSD -1
REMARK  1 active torsions:
REMARK  status: ('A' for Active; 'I' for Inactive)
REMARK    1  A    between atoms: C1_2  and  C2_3 
ROOT
ATOM      1  C2  UNL d   1      -0.183   0.051  -0.025  0.00  0.00    -0.077 A 
ATOM      2  C3  UNL d   1       0.773   0.416   0.934  0.00  0.00     0.002 A 
ATOM      3  C4  UNL d   1       0.375   0.960   2.156  0.00  0.00     0.002 A 
ATOM      4  C5  UNL d   1      -0.979   1.141   2.433  0.00  0.00    -0.004 A 
ATOM      5  C6  UNL d   1      -1.937   0.783   1.485  0.00  0.00     0.002 A 
ATOM      6  C7  UNL d   1      -1.541   0.240   0.262  0.00  0.00     0.002 A 
ENDROOT
BRANCH   1   7
ATOM      7  C1  UNL d   1       0.242  -0.582  -1.324  0.00  0.00     0.055 C 
ATOM      8  C   UNL d   1       0.605   0.472  -2.360  0.00  0.00     0.019 C 
ENDBRANCH   1   7
TORSDOF 1
ENDMDL
