MODEL 1
REMARK minimizedAffinity -4.0247345
REMARK minimizedRMSD -1
REMARK  1 active torsions:
REMARK  status: ('A' for Active; 'I' for Inactive)
REMARK    1  A    between atoms: C1_2  and  C2_3 
ROOT
ATOM      1  C2  UNL d   1      -0.530   0.004   2.286  0.00  0.00    -0.077 A 
ATOM      2  C3  UNL d   1       0.282  -0.359   3.370  0.00  0.00     0.002 A 
ATOM      3  C4  UNL d   1       1.630  -0.662   3.171  0.00  0.00     0.002 A 
ATOM      4  C5  UNL d   1       2.179  -0.603   1.892  0.00  0.00    -0.004 A 
ATOM      5  C6  UNL d   1       1.379  -0.245   0.807  0.00  0.00     0.002 A 
ATOM      6  C7  UNL d   1       0.031   0.057   1.004  0.00  0.00     0.002 A 
ENDROOT
BRANCH   1   7
ATOM      7  C1  UNL d   1      -1.972   0.379   2.505  0.00  0.00     0.055 C 
ATOM      8  C   UNL d   1      -2.649   0.765   1.198  0.00  0.00     0.019 C 
ENDBRANCH   1   7
TORSDOF 1
ENDMDL
