MODEL 1
REMARK minimizedAffinity -5.44891024
REMARK minimizedRMSD -1
REMARK  1 active torsions:
REMARK  status: ('A' for Active; 'I' for Inactive)
REMARK    1  A    between atoms: C1_2  and  C2_3 
ROOT
ATOM      1  C2  UNL d   1      -0.024  -0.001   0.327  0.00  0.00    -0.077 A 
ATOM      2  C3  UNL d   1       0.853   0.432   1.331  0.00  0.00     0.002 A 
ATOM      3  C4  UNL d   1       0.365   0.791   2.589  0.00  0.00     0.002 A 
ATOM      4  C5  UNL d   1      -1.001   0.716   2.856  0.00  0.00    -0.004 A 
ATOM      5  C6  UNL d   1      -1.881   0.288   1.863  0.00  0.00     0.002 A 
ATOM      6  C7  UNL d   1      -1.395  -0.069   0.605  0.00  0.00     0.002 A 
ENDROOT
BRANCH   1   7
ATOM      7  C1  UNL d   1       0.506  -0.435  -1.014  0.00  0.00     0.055 C 
ATOM      8  C   UNL d   1       1.432  -1.635  -0.882  0.00  0.00     0.019 C 
ENDBRANCH   1   7
TORSDOF 1
ENDMDL
