MODEL 1
REMARK minimizedAffinity -4.21526098
REMARK minimizedRMSD -1
REMARK  1 active torsions:
REMARK  status: ('A' for Active; 'I' for Inactive)
REMARK    1  A    between atoms: C1_2  and  C2_3 
ROOT
ATOM      1  C2  UNL d   1      -0.022  -0.347   1.149  0.00  0.00    -0.077 A 
ATOM      2  C3  UNL d   1       1.326  -0.728   1.184  0.00  0.00     0.002 A 
ATOM      3  C4  UNL d   1       1.998  -0.840   2.403  0.00  0.00     0.002 A 
ATOM      4  C5  UNL d   1       1.328  -0.577   3.596  0.00  0.00    -0.004 A 
ATOM      5  C6  UNL d   1      -0.013  -0.195   3.572  0.00  0.00     0.002 A 
ATOM      6  C7  UNL d   1      -0.685  -0.082   2.355  0.00  0.00     0.002 A 
ENDROOT
BRANCH   1   7
ATOM      7  C1  UNL d   1      -0.762  -0.274  -0.161  0.00  0.00     0.055 C 
ATOM      8  C   UNL d   1       0.177  -0.485  -1.339  0.00  0.00     0.019 C 
ENDBRANCH   1   7
TORSDOF 1
ENDMDL
