MODEL 1
REMARK minimizedAffinity -5.46923065
REMARK minimizedRMSD -1
REMARK  1 active torsions:
REMARK  status: ('A' for Active; 'I' for Inactive)
REMARK    1  A    between atoms: C1_2  and  C2_3 
ROOT
ATOM      1  C2  UNL d   1       0.568  -0.080   1.205  0.00  0.00    -0.077 A 
ATOM      2  C3  UNL d   1       1.408  -0.097   2.327  0.00  0.00     0.002 A 
ATOM      3  C4  UNL d   1       1.065   0.618   3.477  0.00  0.00     0.002 A 
ATOM      4  C5  UNL d   1      -0.120   1.350   3.517  0.00  0.00    -0.004 A 
ATOM      5  C6  UNL d   1      -0.961   1.375   2.405  0.00  0.00     0.002 A 
ATOM      6  C7  UNL d   1      -0.619   0.662   1.254  0.00  0.00     0.002 A 
ENDROOT
BRANCH   1   7
ATOM      7  C1  UNL d   1       0.911  -0.889  -0.019  0.00  0.00     0.055 C 
ATOM      8  C   UNL d   1       0.056  -0.482  -1.210  0.00  0.00     0.019 C 
ENDBRANCH   1   7
TORSDOF 1
ENDMDL
