MODEL 1
REMARK minimizedAffinity -4.11426115
REMARK minimizedRMSD -1
REMARK  1 active torsions:
REMARK  status: ('A' for Active; 'I' for Inactive)
REMARK    1  A    between atoms: C1_2  and  C2_3 
ROOT
ATOM      1  C2  UNL d   1      -0.200   0.467   1.871  0.00  0.00    -0.077 A 
ATOM      2  C3  UNL d   1       1.148   0.724   2.157  0.00  0.00     0.002 A 
ATOM      3  C4  UNL d   1       2.096   0.742   1.132  0.00  0.00     0.002 A 
ATOM      4  C5  UNL d   1       1.706   0.508  -0.185  0.00  0.00    -0.004 A 
ATOM      5  C6  UNL d   1       0.368   0.249  -0.479  0.00  0.00     0.002 A 
ATOM      6  C7  UNL d   1      -0.581   0.230   0.544  0.00  0.00     0.002 A 
ENDROOT
BRANCH   1   7
ATOM      7  C1  UNL d   1      -1.232   0.496   2.968  0.00  0.00     0.055 C 
ATOM      8  C   UNL d   1      -0.715   1.231   4.196  0.00  0.00     0.019 C 
ENDBRANCH   1   7
TORSDOF 1
ENDMDL
