MODEL 1
REMARK minimizedAffinity -3.99406409
REMARK minimizedRMSD -1
REMARK  1 active torsions:
REMARK  status: ('A' for Active; 'I' for Inactive)
REMARK    1  A    between atoms: C1_2  and  C2_3 
ROOT
ATOM      1  C2  UNL d   1      -0.665  -0.064   1.320  0.00  0.00    -0.077 A 
ATOM      2  C3  UNL d   1       0.475  -0.817   1.636  0.00  0.00     0.002 A 
ATOM      3  C4  UNL d   1       0.939  -0.876   2.951  0.00  0.00     0.002 A 
ATOM      4  C5  UNL d   1       0.268  -0.190   3.961  0.00  0.00    -0.004 A 
ATOM      5  C6  UNL d   1      -0.865   0.563   3.656  0.00  0.00     0.002 A 
ATOM      6  C7  UNL d   1      -1.330   0.625   2.342  0.00  0.00     0.002 A 
ENDROOT
BRANCH   1   7
ATOM      7  C1  UNL d   1      -1.196  -0.038  -0.090  0.00  0.00     0.055 C 
ATOM      8  C   UNL d   1      -2.593  -0.637  -0.166  0.00  0.00     0.019 C 
ENDBRANCH   1   7
TORSDOF 1
ENDMDL
