MODEL 1
REMARK minimizedAffinity 5.15333319
REMARK minimizedRMSD -1
REMARK  0 active torsions:
REMARK  status: ('A' for Active; 'I' for Inactive)
ROOT
ATOM      1  C   UNL d   1       0.305  -3.832   1.464  0.00  0.00     0.078 C 
ATOM      2  C1  UNL d   1      -0.422  -3.861   0.153  0.00  0.00    -0.077 A 
ATOM      3  C2  UNL d   1       0.102  -4.551  -0.947  0.00  0.00    -0.001 A 
ATOM      4  C3  UNL d   1      -0.580  -4.561  -2.165  0.00  0.00     0.003 A 
ATOM      5  C4  UNL d   1      -1.790  -3.882  -2.294  0.00  0.00    -0.005 A 
ATOM      6  C5  UNL d   1      -2.318  -3.190  -1.206  0.00  0.00     0.003 A 
ATOM      7  C6  UNL d   1      -1.637  -3.179   0.012  0.00  0.00    -0.001 A 
ENDROOT
TORSDOF 0
ENDMDL
