MODEL 1
REMARK minimizedAffinity 3.49693894
REMARK minimizedRMSD -1
REMARK  0 active torsions:
REMARK  status: ('A' for Active; 'I' for Inactive)
ROOT
ATOM      1  C   UNL d   1       2.609  -1.223   0.018  0.00  0.00     0.078 C 
ATOM      2  C1  UNL d   1       1.508  -2.233   0.152  0.00  0.00    -0.077 A 
ATOM      3  C2  UNL d   1       1.034  -2.621   1.411  0.00  0.00    -0.001 A 
ATOM      4  C3  UNL d   1       0.016  -3.569   1.520  0.00  0.00     0.003 A 
ATOM      5  C4  UNL d   1      -0.536  -4.138   0.374  0.00  0.00    -0.005 A 
ATOM      6  C5  UNL d   1      -0.069  -3.760  -0.883  0.00  0.00     0.003 A 
ATOM      7  C6  UNL d   1       0.949  -2.812  -0.994  0.00  0.00    -0.001 A 
ENDROOT
TORSDOF 0
ENDMDL
