MODEL 1
REMARK minimizedAffinity 6.86402655
REMARK minimizedRMSD -1
REMARK  0 active torsions:
REMARK  status: ('A' for Active; 'I' for Inactive)
ROOT
ATOM      1  C   UNL d   1       1.353   1.866  -4.352  0.00  0.00     0.078 C 
ATOM      2  C1  UNL d   1       0.205   2.646  -4.917  0.00  0.00    -0.077 A 
ATOM      3  C2  UNL d   1      -1.092   2.119  -4.924  0.00  0.00    -0.001 A 
ATOM      4  C3  UNL d   1      -2.150   2.853  -5.463  0.00  0.00     0.003 A 
ATOM      5  C4  UNL d   1      -1.922   4.118  -6.000  0.00  0.00    -0.005 A 
ATOM      6  C5  UNL d   1      -0.634   4.650  -6.000  0.00  0.00     0.003 A 
ATOM      7  C6  UNL d   1       0.425   3.918  -5.462  0.00  0.00    -0.001 A 
ENDROOT
TORSDOF 0
ENDMDL
