MODEL 1
REMARK minimizedAffinity 0.26363644
REMARK minimizedRMSD -1
REMARK  0 active torsions:
REMARK  status: ('A' for Active; 'I' for Inactive)
ROOT
ATOM      1  C   UNL d   1      -0.868  -2.956   1.946  0.00  0.00     0.078 C 
ATOM      2  C1  UNL d   1      -1.736  -3.744   1.011  0.00  0.00    -0.077 A 
ATOM      3  C2  UNL d   1      -1.923  -3.337  -0.316  0.00  0.00    -0.001 A 
ATOM      4  C3  UNL d   1      -2.742  -4.075  -1.172  0.00  0.00     0.003 A 
ATOM      5  C4  UNL d   1      -3.381  -5.224  -0.711  0.00  0.00    -0.005 A 
ATOM      6  C5  UNL d   1      -3.204  -5.635   0.609  0.00  0.00     0.003 A 
ATOM      7  C6  UNL d   1      -2.385  -4.899   1.466  0.00  0.00    -0.001 A 
ENDROOT
TORSDOF 0
ENDMDL
