MODEL 1
REMARK minimizedAffinity -1.28481638
REMARK minimizedRMSD -1
REMARK  0 active torsions:
REMARK  status: ('A' for Active; 'I' for Inactive)
ROOT
ATOM      1  C   UNL d   1      -2.921   2.079  -2.879  0.00  0.00     0.078 C 
ATOM      2  C1  UNL d   1      -1.964   2.573  -3.922  0.00  0.00    -0.077 A 
ATOM      3  C2  UNL d   1      -2.415   3.311  -5.023  0.00  0.00    -0.001 A 
ATOM      4  C3  UNL d   1      -1.514   3.756  -5.992  0.00  0.00     0.003 A 
ATOM      5  C4  UNL d   1      -0.156   3.468  -5.870  0.00  0.00    -0.005 A 
ATOM      6  C5  UNL d   1       0.302   2.732  -4.778  0.00  0.00     0.003 A 
ATOM      7  C6  UNL d   1      -0.598   2.286  -3.809  0.00  0.00    -0.001 A 
ENDROOT
TORSDOF 0
ENDMDL
