MODEL 1
REMARK minimizedAffinity -0.255595505
REMARK minimizedRMSD -1
REMARK  0 active torsions:
REMARK  status: ('A' for Active; 'I' for Inactive)
ROOT
ATOM      1  C   UNL d   1      -0.920   2.493   2.994  0.00  0.00     0.078 C 
ATOM      2  C1  UNL d   1       0.283   2.313   2.117  0.00  0.00    -0.077 A 
ATOM      3  C2  UNL d   1       0.673   3.310   1.214  0.00  0.00    -0.001 A 
ATOM      4  C3  UNL d   1       1.789   3.125   0.397  0.00  0.00     0.003 A 
ATOM      5  C4  UNL d   1       2.524   1.944   0.473  0.00  0.00    -0.005 A 
ATOM      6  C5  UNL d   1       2.143   0.945   1.367  0.00  0.00     0.003 A 
ATOM      7  C6  UNL d   1       1.027   1.128   2.185  0.00  0.00    -0.001 A 
ENDROOT
TORSDOF 0
ENDMDL
