MODEL 1
REMARK minimizedAffinity -2.55187821
REMARK minimizedRMSD -1
REMARK  0 active torsions:
REMARK  status: ('A' for Active; 'I' for Inactive)
ROOT
ATOM      1  C   UNL d   1       1.901   0.825   1.209  0.00  0.00     0.078 C 
ATOM      2  C1  UNL d   1       0.634   0.034   1.080  0.00  0.00    -0.077 A 
ATOM      3  C2  UNL d   1      -0.594   0.566   1.489  0.00  0.00    -0.001 A 
ATOM      4  C3  UNL d   1      -1.764  -0.186   1.372  0.00  0.00     0.003 A 
ATOM      5  C4  UNL d   1      -1.717  -1.475   0.846  0.00  0.00    -0.005 A 
ATOM      6  C5  UNL d   1      -0.499  -2.015   0.438  0.00  0.00     0.003 A 
ATOM      7  C6  UNL d   1       0.672  -1.264   0.555  0.00  0.00    -0.001 A 
ENDROOT
TORSDOF 0
ENDMDL
