MODEL 1
REMARK minimizedAffinity 4.71236467
REMARK minimizedRMSD -1
REMARK  0 active torsions:
REMARK  status: ('A' for Active; 'I' for Inactive)
ROOT
ATOM      1  C   UNL d   1      -1.746  -0.602   2.220  0.00  0.00     0.078 C 
ATOM      2  C1  UNL d   1      -3.027  -0.054   1.663  0.00  0.00    -0.077 A 
ATOM      3  C2  UNL d   1      -4.267  -0.551   2.084  0.00  0.00    -0.001 A 
ATOM      4  C3  UNL d   1      -5.450  -0.038   1.549  0.00  0.00     0.003 A 
ATOM      5  C4  UNL d   1      -5.405   0.972   0.591  0.00  0.00    -0.005 A 
ATOM      6  C5  UNL d   1      -4.176   1.471   0.165  0.00  0.00     0.003 A 
ATOM      7  C6  UNL d   1      -2.991   0.960   0.698  0.00  0.00    -0.001 A 
ENDROOT
TORSDOF 0
ENDMDL
