MODEL 1
REMARK minimizedAffinity 2.22884583
REMARK minimizedRMSD -1
REMARK  0 active torsions:
REMARK  status: ('A' for Active; 'I' for Inactive)
ROOT
ATOM      1  C   UNL d   1       0.417   2.618  -4.507  0.00  0.00     0.078 C 
ATOM      2  C1  UNL d   1      -1.025   2.672  -4.914  0.00  0.00    -0.077 A 
ATOM      3  C2  UNL d   1      -1.530   3.761  -5.635  0.00  0.00    -0.001 A 
ATOM      4  C3  UNL d   1      -2.877   3.802  -5.999  0.00  0.00     0.003 A 
ATOM      5  C4  UNL d   1      -3.730   2.758  -5.646  0.00  0.00    -0.005 A 
ATOM      6  C5  UNL d   1      -3.237   1.671  -4.927  0.00  0.00     0.003 A 
ATOM      7  C6  UNL d   1      -1.890   1.628  -4.562  0.00  0.00    -0.001 A 
ENDROOT
TORSDOF 0
ENDMDL
