MODEL 1
REMARK minimizedAffinity -3.04578304
REMARK minimizedRMSD -1
REMARK  0 active torsions:
REMARK  status: ('A' for Active; 'I' for Inactive)
ROOT
ATOM      1  C   UNL d   1      -1.792  -3.887  -1.911  0.00  0.00     0.078 C 
ATOM      2  C1  UNL d   1      -1.013  -3.460  -0.703  0.00  0.00    -0.077 A 
ATOM      3  C2  UNL d   1       0.373  -3.269  -0.768  0.00  0.00    -0.001 A 
ATOM      4  C3  UNL d   1       1.086  -2.881   0.367  0.00  0.00     0.003 A 
ATOM      5  C4  UNL d   1       0.423  -2.682   1.576  0.00  0.00    -0.005 A 
ATOM      6  C5  UNL d   1      -0.955  -2.873   1.652  0.00  0.00     0.003 A 
ATOM      7  C6  UNL d   1      -1.670  -3.260   0.518  0.00  0.00    -0.001 A 
ENDROOT
TORSDOF 0
ENDMDL
