MODEL 1
REMARK minimizedAffinity 0.755528152
REMARK minimizedRMSD -1
REMARK  0 active torsions:
REMARK  status: ('A' for Active; 'I' for Inactive)
ROOT
ATOM      1  C   UNL d   1      -0.860  -2.235   1.580  0.00  0.00     0.078 C 
ATOM      2  C1  UNL d   1      -1.442  -3.126   0.524  0.00  0.00    -0.077 A 
ATOM      3  C2  UNL d   1      -2.233  -4.229   0.867  0.00  0.00    -0.001 A 
ATOM      4  C3  UNL d   1      -2.761  -5.056  -0.126  0.00  0.00     0.003 A 
ATOM      5  C4  UNL d   1      -2.501  -4.789  -1.469  0.00  0.00    -0.005 A 
ATOM      6  C5  UNL d   1      -1.713  -3.695  -1.820  0.00  0.00     0.003 A 
ATOM      7  C6  UNL d   1      -1.185  -2.867  -0.828  0.00  0.00    -0.001 A 
ENDROOT
TORSDOF 0
ENDMDL
