MODEL 1
REMARK minimizedAffinity 1.58072984
REMARK minimizedRMSD -1
REMARK  0 active torsions:
REMARK  status: ('A' for Active; 'I' for Inactive)
ROOT
ATOM      1  C   UNL d   1       1.877   1.502  -4.128  0.00  0.00     0.078 C 
ATOM      2  C1  UNL d   1       0.457   1.883  -4.424  0.00  0.00    -0.077 A 
ATOM      3  C2  UNL d   1      -0.029   1.888  -5.737  0.00  0.00    -0.001 A 
ATOM      4  C3  UNL d   1      -1.350   2.254  -5.999  0.00  0.00     0.003 A 
ATOM      5  C4  UNL d   1      -2.196   2.618  -4.954  0.00  0.00    -0.005 A 
ATOM      6  C5  UNL d   1      -1.721   2.618  -3.644  0.00  0.00     0.003 A 
ATOM      7  C6  UNL d   1      -0.400   2.252  -3.380  0.00  0.00    -0.001 A 
ENDROOT
TORSDOF 0
ENDMDL
