MODEL 1
REMARK minimizedAffinity 1.01860666
REMARK minimizedRMSD -1
REMARK  0 active torsions:
REMARK  status: ('A' for Active; 'I' for Inactive)
ROOT
ATOM      1  C   UNL d   1       0.942   2.253  -4.496  0.00  0.00     0.078 C 
ATOM      2  C1  UNL d   1      -0.449   2.556  -4.967  0.00  0.00    -0.077 A 
ATOM      3  C2  UNL d   1      -1.472   1.607  -4.850  0.00  0.00    -0.001 A 
ATOM      4  C3  UNL d   1      -2.760   1.899  -5.302  0.00  0.00     0.003 A 
ATOM      5  C4  UNL d   1      -3.036   3.139  -5.874  0.00  0.00    -0.005 A 
ATOM      6  C5  UNL d   1      -2.024   4.089  -5.996  0.00  0.00     0.003 A 
ATOM      7  C6  UNL d   1      -0.736   3.799  -5.545  0.00  0.00    -0.001 A 
ENDROOT
TORSDOF 0
ENDMDL
