MODEL 1
REMARK minimizedAffinity 2.03077602
REMARK minimizedRMSD -1
REMARK  0 active torsions:
REMARK  status: ('A' for Active; 'I' for Inactive)
ROOT
ATOM      1  C   UNL d   1      -3.197   1.698  -3.362  0.00  0.00     0.078 C 
ATOM      2  C1  UNL d   1      -2.038   2.097  -4.226  0.00  0.00    -0.077 A 
ATOM      3  C2  UNL d   1      -0.783   1.495  -4.073  0.00  0.00    -0.001 A 
ATOM      4  C3  UNL d   1       0.289   1.884  -4.878  0.00  0.00     0.003 A 
ATOM      5  C4  UNL d   1       0.117   2.876  -5.841  0.00  0.00    -0.005 A 
ATOM      6  C5  UNL d   1      -1.128   3.481  -6.000  0.00  0.00     0.003 A 
ATOM      7  C6  UNL d   1      -2.201   3.095  -5.196  0.00  0.00    -0.001 A 
ENDROOT
TORSDOF 0
ENDMDL
