MODEL 1
REMARK minimizedAffinity -4.06233025
REMARK minimizedRMSD -1
REMARK  2 active torsions:
REMARK  status: ('A' for Active; 'I' for Inactive)
REMARK    1  A    between atoms: C2'_3  and  C1'_4 
REMARK    2  A    between atoms: C1'_4  and  C1_5 
ROOT
ATOM      1  C1  I4B d   1       0.420  -0.597   0.161  0.00  0.00    -0.075 A 
ATOM      2  C2  I4B d   1      -0.860  -0.100   0.158  0.00  0.00     0.003 A 
ATOM      3  C3  I4B d   1      -1.373   0.553   1.305  0.00  0.00     0.002 A 
ATOM      4  C4  I4B d   1      -0.596   0.643   2.441  0.00  0.00    -0.004 A 
ATOM      5  C5  I4B d   1       0.709   0.159   2.435  0.00  0.00     0.002 A 
ATOM      6  C6  I4B d   1       1.225  -0.454   1.284  0.00  0.00     0.003 A 
ENDROOT
BRANCH   1   7
ATOM      7  C1' I4B d   1       0.919  -1.310  -1.055  0.00  0.00     0.060 C 
BRANCH   7   8
ATOM      8  C2' I4B d   1       0.569  -0.469  -2.266  0.00  0.00    -0.013 C 
ATOM      9  C4' I4B d   1       1.799   0.154  -2.872  0.00  0.00     0.013 C 
ATOM     10  C3' I4B d   1      -0.134  -1.352  -3.254  0.00  0.00     0.013 C 
ENDBRANCH   7   8
ENDBRANCH   1   7
TORSDOF 2
ENDMDL
