MODEL 1
REMARK minimizedAffinity -4.68655348
REMARK minimizedRMSD -1
REMARK  2 active torsions:
REMARK  status: ('A' for Active; 'I' for Inactive)
REMARK    1  A    between atoms: C2'_3  and  C1'_4 
REMARK    2  A    between atoms: C1'_4  and  C1_5 
ROOT
ATOM      1  C1  I4B d   1      -0.524   0.222   1.014  0.00  0.00    -0.075 A 
ATOM      2  C2  I4B d   1       0.720   0.432   1.554  0.00  0.00     0.003 A 
ATOM      3  C3  I4B d   1       0.849   0.902   2.884  0.00  0.00     0.002 A 
ATOM      4  C4  I4B d   1      -0.284   1.194   3.615  0.00  0.00    -0.004 A 
ATOM      5  C5  I4B d   1      -1.544   0.958   3.073  0.00  0.00     0.002 A 
ATOM      6  C6  I4B d   1      -1.666   0.457   1.769  0.00  0.00     0.003 A 
ENDROOT
BRANCH   1   7
ATOM      7  C1' I4B d   1      -0.625  -0.243  -0.405  0.00  0.00     0.060 C 
BRANCH   7   8
ATOM      8  C2' I4B d   1       0.781  -0.474  -0.921  0.00  0.00    -0.013 C 
ATOM      9  C4' I4B d   1       1.284  -1.841  -0.538  0.00  0.00     0.013 C 
ATOM     10  C3' I4B d   1       0.761  -0.302  -2.410  0.00  0.00     0.013 C 
ENDBRANCH   7   8
ENDBRANCH   1   7
TORSDOF 2
ENDMDL
