MODEL 1
REMARK minimizedAffinity -4.83763266
REMARK minimizedRMSD -1
REMARK  2 active torsions:
REMARK  status: ('A' for Active; 'I' for Inactive)
REMARK    1  A    between atoms: C2'_3  and  C1'_4 
REMARK    2  A    between atoms: C1'_4  and  C1_5 
ROOT
ATOM      1  C1  I4B d   1       0.295  -0.066   0.661  0.00  0.00    -0.075 A 
ATOM      2  C2  I4B d   1      -0.975   0.452   0.699  0.00  0.00     0.003 A 
ATOM      3  C3  I4B d   1      -1.443   1.109   1.863  0.00  0.00     0.002 A 
ATOM      4  C4  I4B d   1      -0.630   1.180   2.976  0.00  0.00    -0.004 A 
ATOM      5  C5  I4B d   1       0.665   0.674   2.929  0.00  0.00     0.002 A 
ATOM      6  C6  I4B d   1       1.136   0.058   1.760  0.00  0.00     0.003 A 
ENDROOT
BRANCH   1   7
ATOM      7  C1' I4B d   1       0.745  -0.782  -0.572  0.00  0.00     0.060 C 
BRANCH   7   8
ATOM      8  C2' I4B d   1       0.716   0.204  -1.722  0.00  0.00    -0.013 C 
ATOM      9  C4' I4B d   1       2.105   0.654  -2.090  0.00  0.00     0.013 C 
ATOM     10  C3' I4B d   1       0.035  -0.457  -2.883  0.00  0.00     0.013 C 
ENDBRANCH   7   8
ENDBRANCH   1   7
TORSDOF 2
ENDMDL
