MODEL 1
REMARK minimizedAffinity -5.19591999
REMARK minimizedRMSD -1
REMARK  2 active torsions:
REMARK  status: ('A' for Active; 'I' for Inactive)
REMARK    1  A    between atoms: C2'_3  and  C1'_4 
REMARK    2  A    between atoms: C1'_4  and  C1_5 
ROOT
ATOM      1  C1  I4B d   1       0.160  -0.264  -0.166  0.00  0.00    -0.075 A 
ATOM      2  C2  I4B d   1       0.885  -0.033   0.977  0.00  0.00     0.003 A 
ATOM      3  C3  I4B d   1       0.278   0.598   2.090  0.00  0.00     0.002 A 
ATOM      4  C4  I4B d   1      -1.031   1.025   1.999  0.00  0.00    -0.004 A 
ATOM      5  C5  I4B d   1      -1.771   0.769   0.847  0.00  0.00     0.002 A 
ATOM      6  C6  I4B d   1      -1.175   0.110  -0.238  0.00  0.00     0.003 A 
ENDROOT
BRANCH   1   7
ATOM      7  C1' I4B d   1       0.842  -0.904  -1.334  0.00  0.00     0.060 C 
BRANCH   7   8
ATOM      8  C2' I4B d   1       0.495  -0.103  -2.573  0.00  0.00    -0.013 C 
ATOM      9  C4' I4B d   1       1.629   0.805  -2.970  0.00  0.00     0.013 C 
ATOM     10  C3' I4B d   1       0.164  -1.069  -3.671  0.00  0.00     0.013 C 
ENDBRANCH   7   8
ENDBRANCH   1   7
TORSDOF 2
ENDMDL
