MODEL 1
REMARK minimizedAffinity -5.98219585
REMARK minimizedRMSD -1
REMARK  2 active torsions:
REMARK  status: ('A' for Active; 'I' for Inactive)
REMARK    1  A    between atoms: C2'_3  and  C1'_4 
REMARK    2  A    between atoms: C1'_4  and  C1_5 
ROOT
ATOM      1  C1  I4B d   1       0.237  -0.228   0.225  0.00  0.00    -0.075 A 
ATOM      2  C2  I4B d   1      -1.129  -0.116   0.297  0.00  0.00     0.003 A 
ATOM      3  C3  I4B d   1      -1.731   0.604   1.357  0.00  0.00     0.002 A 
ATOM      4  C4  I4B d   1      -0.937   1.150   2.345  0.00  0.00    -0.004 A 
ATOM      5  C5  I4B d   1       0.449   1.055   2.258  0.00  0.00     0.002 A 
ATOM      6  C6  I4B d   1       1.041   0.373   1.185  0.00  0.00     0.003 A 
ENDROOT
BRANCH   1   7
ATOM      7  C1' I4B d   1       0.838  -1.024  -0.890  0.00  0.00     0.060 C 
BRANCH   7   8
ATOM      8  C2' I4B d   1       0.656  -0.239  -2.174  0.00  0.00    -0.013 C 
ATOM      9  C4' I4B d   1       1.947   0.403  -2.607  0.00  0.00     0.013 C 
ATOM     10  C3' I4B d   1       0.141  -1.180  -3.222  0.00  0.00     0.013 C 
ENDBRANCH   7   8
ENDBRANCH   1   7
TORSDOF 2
ENDMDL
