MODEL 1
REMARK minimizedAffinity -5.50189972
REMARK minimizedRMSD -1
REMARK  2 active torsions:
REMARK  status: ('A' for Active; 'I' for Inactive)
REMARK    1  A    between atoms: C2'_3  and  C1'_4 
REMARK    2  A    between atoms: C1'_4  and  C1_5 
ROOT
ATOM      1  C1  I4B d   1       0.154  -0.119   0.076  0.00  0.00    -0.075 A 
ATOM      2  C2  I4B d   1      -1.172   0.230   0.010  0.00  0.00     0.003 A 
ATOM      3  C3  I4B d   1      -1.818   0.793   1.137  0.00  0.00     0.002 A 
ATOM      4  C4  I4B d   1      -1.119   0.941   2.317  0.00  0.00    -0.004 A 
ATOM      5  C5  I4B d   1       0.231   0.607   2.376  0.00  0.00     0.002 A 
ATOM      6  C6  I4B d   1       0.875   0.085   1.245  0.00  0.00     0.003 A 
ENDROOT
BRANCH   1   7
ATOM      7  C1' I4B d   1       0.796  -0.741  -1.124  0.00  0.00     0.060 C 
BRANCH   7   8
ATOM      8  C2' I4B d   1       0.519   0.151  -2.317  0.00  0.00    -0.013 C 
ATOM      9  C4' I4B d   1       1.682   1.066  -2.595  0.00  0.00     0.013 C 
ATOM     10  C3' I4B d   1       0.229  -0.730  -3.495  0.00  0.00     0.013 C 
ENDBRANCH   7   8
ENDBRANCH   1   7
TORSDOF 2
ENDMDL
