MODEL 1
REMARK minimizedAffinity -4.35696077
REMARK minimizedRMSD -1
REMARK  2 active torsions:
REMARK  status: ('A' for Active; 'I' for Inactive)
REMARK    1  A    between atoms: C2'_3  and  C1'_4 
REMARK    2  A    between atoms: C1'_4  and  C1_5 
ROOT
ATOM      1  C1  I4B d   1       0.102  -0.010   0.101  0.00  0.00    -0.075 A 
ATOM      2  C2  I4B d   1      -1.186   0.463   0.098  0.00  0.00     0.003 A 
ATOM      3  C3  I4B d   1      -1.729   1.059   1.262  0.00  0.00     0.002 A 
ATOM      4  C4  I4B d   1      -0.971   1.115   2.414  0.00  0.00    -0.004 A 
ATOM      5  C5  I4B d   1       0.343   0.655   2.408  0.00  0.00     0.002 A 
ATOM      6  C6  I4B d   1       0.887   0.100   1.241  0.00  0.00     0.003 A 
ENDROOT
BRANCH   1   7
ATOM      7  C1' I4B d   1       0.632  -0.664  -1.136  0.00  0.00     0.060 C 
BRANCH   7   8
ATOM      8  C2' I4B d   1       0.497   0.322  -2.279  0.00  0.00    -0.013 C 
ATOM      9  C4' I4B d   1       1.847   0.780  -2.765  0.00  0.00     0.013 C 
ATOM     10  C3' I4B d   1      -0.276  -0.346  -3.377  0.00  0.00     0.013 C 
ENDBRANCH   7   8
ENDBRANCH   1   7
TORSDOF 2
ENDMDL
