MODEL 1
REMARK minimizedAffinity -2.80092335
REMARK minimizedRMSD -1
REMARK  2 active torsions:
REMARK  status: ('A' for Active; 'I' for Inactive)
REMARK    1  A    between atoms: C2'_3  and  C1'_4 
REMARK    2  A    between atoms: C1'_4  and  C1_5 
ROOT
ATOM      1  C1  I4B d   1       0.327  -0.349  -0.633  0.00  0.00    -0.075 A 
ATOM      2  C2  I4B d   1      -0.899   0.160  -0.286  0.00  0.00     0.003 A 
ATOM      3  C3  I4B d   1      -1.145   0.582   1.043  0.00  0.00     0.002 A 
ATOM      4  C4  I4B d   1      -0.159   0.431   1.998  0.00  0.00    -0.004 A 
ATOM      5  C5  I4B d   1       1.091  -0.064   1.638  0.00  0.00     0.002 A 
ATOM      6  C6  I4B d   1       1.340  -0.445   0.312  0.00  0.00     0.003 A 
ENDROOT
BRANCH   1   7
ATOM      7  C1' I4B d   1       0.542  -0.816  -2.038  0.00  0.00     0.060 C 
BRANCH   7   8
ATOM      8  C2' I4B d   1       0.660   0.408  -2.924  0.00  0.00    -0.013 C 
ATOM      9  C4' I4B d   1       2.100   0.713  -3.243  0.00  0.00     0.013 C 
ATOM     10  C3' I4B d   1      -0.129   0.154  -4.173  0.00  0.00     0.013 C 
ENDBRANCH   7   8
ENDBRANCH   1   7
TORSDOF 2
ENDMDL
