MODEL 1
REMARK minimizedAffinity 4.74891615
REMARK minimizedRMSD -1
REMARK  0 active torsions:
REMARK  status: ('A' for Active; 'I' for Inactive)
ROOT
ATOM      1  C1  DEN d   1       3.094   1.267   1.805  0.00  0.00     0.130 A 
ATOM      2  C2  DEN d   1       2.572   1.950   0.625  0.00  0.00    -0.031 A 
ATOM      3  C3  DEN d   1       1.505   1.110   0.046  0.00  0.00     0.027 A 
ATOM      4  C4  DEN d   1       0.611  -1.169   0.862  0.00  0.00     0.027 A 
ATOM      5  C5  DEN d   1       0.751  -2.153   1.815  0.00  0.00    -0.003 A 
ATOM      6  C6  DEN d   1       1.696  -2.083   2.804  0.00  0.00     0.001 A 
ATOM      7  C7  DEN d   1       2.509  -0.984   2.889  0.00  0.00     0.017 A 
ATOM      8  C8  DEN d   1       2.380   0.009   1.927  0.00  0.00    -0.094 A 
ATOM      9  C9  DEN d   1       1.410  -0.074   0.942  0.00  0.00    -0.072 A 
ENDROOT
TORSDOF 0
ENDMDL
