MODEL 1
REMARK minimizedAffinity 2.92612743
REMARK minimizedRMSD -1
REMARK  0 active torsions:
REMARK  status: ('A' for Active; 'I' for Inactive)
ROOT
ATOM      1  C1  DEN d   1       2.028  -3.549   2.386  0.00  0.00     0.130 A 
ATOM      2  C2  DEN d   1       1.592  -2.155   2.384  0.00  0.00    -0.031 A 
ATOM      3  C3  DEN d   1       1.305  -1.769   0.988  0.00  0.00     0.027 A 
ATOM      4  C4  DEN d   1       1.486  -3.189  -1.158  0.00  0.00     0.027 A 
ATOM      5  C5  DEN d   1       1.823  -4.426  -1.660  0.00  0.00    -0.003 A 
ATOM      6  C6  DEN d   1       2.282  -5.439  -0.860  0.00  0.00     0.001 A 
ATOM      7  C7  DEN d   1       2.372  -5.246   0.493  0.00  0.00     0.017 A 
ATOM      8  C8  DEN d   1       2.040  -3.999   1.006  0.00  0.00    -0.094 A 
ATOM      9  C9  DEN d   1       1.567  -2.992   0.182  0.00  0.00    -0.072 A 
ENDROOT
TORSDOF 0
ENDMDL
