MODEL 1
REMARK minimizedAffinity 11.0482721
REMARK minimizedRMSD -1
REMARK  0 active torsions:
REMARK  status: ('A' for Active; 'I' for Inactive)
ROOT
ATOM      1  C1  DEN d   1      -2.498   2.946  -2.694  0.00  0.00     0.130 A 
ATOM      2  C2  DEN d   1      -3.038   2.967  -1.337  0.00  0.00    -0.031 A 
ATOM      3  C3  DEN d   1      -4.511   2.915  -1.431  0.00  0.00     0.027 A 
ATOM      4  C4  DEN d   1      -5.999   2.800  -3.534  0.00  0.00     0.027 A 
ATOM      5  C5  DEN d   1      -5.997   2.771  -4.911  0.00  0.00    -0.003 A 
ATOM      6  C6  DEN d   1      -4.839   2.832  -5.641  0.00  0.00     0.001 A 
ATOM      7  C7  DEN d   1      -3.632   2.880  -4.995  0.00  0.00     0.017 A 
ATOM      8  C8  DEN d   1      -3.627   2.917  -3.607  0.00  0.00    -0.094 A 
ATOM      9  C9  DEN d   1      -4.807   2.841  -2.887  0.00  0.00    -0.072 A 
ENDROOT
TORSDOF 0
ENDMDL
