MODEL 1
REMARK minimizedAffinity 8.6991787
REMARK minimizedRMSD -1
REMARK  0 active torsions:
REMARK  status: ('A' for Active; 'I' for Inactive)
ROOT
ATOM      1  C1  DEN d   1       2.884  -0.973   2.579  0.00  0.00     0.130 A 
ATOM      2  C2  DEN d   1       1.530  -1.286   2.131  0.00  0.00    -0.031 A 
ATOM      3  C3  DEN d   1       1.127  -2.563   2.753  0.00  0.00     0.027 A 
ATOM      4  C4  DEN d   1       2.460  -4.077   4.360  0.00  0.00     0.027 A 
ATOM      5  C5  DEN d   1       3.659  -4.234   5.019  0.00  0.00    -0.003 A 
ATOM      6  C6  DEN d   1       4.688  -3.340   4.885  0.00  0.00     0.001 A 
ATOM      7  C7  DEN d   1       4.521  -2.224   4.109  0.00  0.00     0.017 A 
ATOM      8  C8  DEN d   1       3.317  -2.062   3.435  0.00  0.00    -0.094 A 
ATOM      9  C9  DEN d   1       2.284  -2.971   3.593  0.00  0.00    -0.072 A 
ENDROOT
TORSDOF 0
ENDMDL
