MODEL 1
REMARK minimizedAffinity 2.03577733
REMARK minimizedRMSD -1
REMARK  0 active torsions:
REMARK  status: ('A' for Active; 'I' for Inactive)
ROOT
ATOM      1  C1  DEN d   1       2.851   0.332   1.676  0.00  0.00     0.130 A 
ATOM      2  C2  DEN d   1       3.317   0.519   3.047  0.00  0.00    -0.031 A 
ATOM      3  C3  DEN d   1       2.920  -0.668   3.830  0.00  0.00     0.027 A 
ATOM      4  C4  DEN d   1       1.638  -2.768   3.057  0.00  0.00     0.027 A 
ATOM      5  C5  DEN d   1       1.024  -3.376   1.985  0.00  0.00    -0.003 A 
ATOM      6  C6  DEN d   1       0.946  -2.782   0.753  0.00  0.00     0.001 A 
ATOM      7  C7  DEN d   1       1.532  -1.560   0.552  0.00  0.00     0.017 A 
ATOM      8  C8  DEN d   1       2.147  -0.937   1.629  0.00  0.00    -0.094 A 
ATOM      9  C9  DEN d   1       2.226  -1.560   2.863  0.00  0.00    -0.072 A 
ENDROOT
TORSDOF 0
ENDMDL
