MODEL 1
REMARK minimizedAffinity 6.10379314
REMARK minimizedRMSD -1
REMARK  0 active torsions:
REMARK  status: ('A' for Active; 'I' for Inactive)
ROOT
ATOM      1  C1  DEN d   1      -3.273   1.464  -0.929  0.00  0.00     0.130 A 
ATOM      2  C2  DEN d   1      -2.214   0.713  -0.260  0.00  0.00    -0.031 A 
ATOM      3  C3  DEN d   1      -2.417   0.838   1.197  0.00  0.00     0.027 A 
ATOM      4  C4  DEN d   1      -4.261   2.109   2.476  0.00  0.00     0.027 A 
ATOM      5  C5  DEN d   1      -5.376   2.906   2.340  0.00  0.00    -0.003 A 
ATOM      6  C6  DEN d   1      -5.845   3.303   1.116  0.00  0.00     0.001 A 
ATOM      7  C7  DEN d   1      -5.222   2.866  -0.023  0.00  0.00     0.017 A 
ATOM      8  C8  DEN d   1      -4.093   2.069   0.106  0.00  0.00    -0.094 A 
ATOM      9  C9  DEN d   1      -3.642   1.668   1.352  0.00  0.00    -0.072 A 
ENDROOT
TORSDOF 0
ENDMDL
