MODEL 1
REMARK minimizedAffinity -0.788689733
REMARK minimizedRMSD -1
REMARK  1 active torsions:
REMARK  status: ('A' for Active; 'I' for Inactive)
REMARK    1  A    between atoms: C1_2  and  C2_3 
ROOT
ATOM      1  C2  UNL d   1      -0.265  -0.426   1.013  0.00  0.00    -0.073 A 
ATOM      2  C3  UNL d   1      -1.371   0.216   0.444  0.00  0.00    -0.002 A 
ATOM      3  C4  UNL d   1      -1.879   1.383   1.015  0.00  0.00     0.004 A 
ATOM      4  C5  UNL d   1      -1.284   1.925   2.154  0.00  0.00    -0.004 A 
ATOM      5  C6  UNL d   1      -0.170   1.305   2.730  0.00  0.00    -0.075 A 
ATOM      6  C7  UNL d   1       0.481   1.873   3.957  0.00  0.00     0.076 C 
ATOM      7  C8  UNL d   1       0.333   0.131   2.153  0.00  0.00     0.001 A 
ENDROOT
BRANCH   1   8
ATOM      8  C1  UNL d   1       0.292  -1.683   0.396  0.00  0.00     0.053 C 
ATOM      9  C   UNL d   1       0.485  -1.544  -1.106  0.00  0.00     0.018 C 
ENDBRANCH   1   8
TORSDOF 1
ENDMDL
