MODEL 1
REMARK minimizedAffinity -5.49514437
REMARK minimizedRMSD -1
REMARK  1 active torsions:
REMARK  status: ('A' for Active; 'I' for Inactive)
REMARK    1  A    between atoms: C1_2  and  C2_3 
ROOT
ATOM      1  C2  UNL d   1      -0.388  -0.435   0.460  0.00  0.00    -0.073 A 
ATOM      2  C3  UNL d   1      -1.404  -1.276   0.928  0.00  0.00    -0.002 A 
ATOM      3  C4  UNL d   1      -1.597  -2.534   0.355  0.00  0.00     0.004 A 
ATOM      4  C5  UNL d   1      -0.773  -2.966  -0.684  0.00  0.00    -0.004 A 
ATOM      5  C6  UNL d   1       0.255  -2.145  -1.157  0.00  0.00    -0.075 A 
ATOM      6  C7  UNL d   1       1.148  -2.594  -2.276  0.00  0.00     0.076 C 
ATOM      7  C8  UNL d   1       0.441  -0.882  -0.579  0.00  0.00     0.001 A 
ENDROOT
BRANCH   1   8
ATOM      8  C1  UNL d   1      -0.172   0.921   1.080  0.00  0.00     0.053 C 
ATOM      9  C   UNL d   1      -1.280   1.286   2.055  0.00  0.00     0.018 C 
ENDBRANCH   1   8
TORSDOF 1
ENDMDL
