MODEL 1
REMARK minimizedAffinity -3.16624331
REMARK minimizedRMSD -1
REMARK  1 active torsions:
REMARK  status: ('A' for Active; 'I' for Inactive)
REMARK    1  A    between atoms: C1_2  and  C2_3 
ROOT
ATOM      1  C2  UNL d   1      -0.489  -0.981   0.605  0.00  0.00    -0.073 A 
ATOM      2  C3  UNL d   1       0.460  -0.119   0.046  0.00  0.00    -0.002 A 
ATOM      3  C4  UNL d   1       1.346  -0.581  -0.929  0.00  0.00     0.004 A 
ATOM      4  C5  UNL d   1       1.287  -1.907  -1.358  0.00  0.00    -0.004 A 
ATOM      5  C6  UNL d   1       0.337  -2.781  -0.820  0.00  0.00    -0.075 A 
ATOM      6  C7  UNL d   1       0.262  -4.211  -1.269  0.00  0.00     0.076 C 
ATOM      7  C8  UNL d   1      -0.547  -2.310   0.161  0.00  0.00     0.001 A 
ENDROOT
BRANCH   1   8
ATOM      8  C1  UNL d   1      -1.451  -0.484   1.653  0.00  0.00     0.053 C 
ATOM      9  C   UNL d   1      -0.982   0.815   2.287  0.00  0.00     0.018 C 
ENDBRANCH   1   8
TORSDOF 1
ENDMDL
