MODEL 1
REMARK minimizedAffinity -4.71920252
REMARK minimizedRMSD -1
REMARK  1 active torsions:
REMARK  status: ('A' for Active; 'I' for Inactive)
REMARK    1  A    between atoms: C1_2  and  C2_3 
ROOT
ATOM      1  C2  UNL d   1       0.822   0.354  -0.379  0.00  0.00    -0.073 A 
ATOM      2  C3  UNL d   1       1.168   1.521  -1.070  0.00  0.00    -0.002 A 
ATOM      3  C4  UNL d   1       0.392   2.674  -0.939  0.00  0.00     0.004 A 
ATOM      4  C5  UNL d   1      -0.731   2.674  -0.112  0.00  0.00    -0.004 A 
ATOM      5  C6  UNL d   1      -1.086   1.521   0.596  0.00  0.00    -0.075 A 
ATOM      6  C7  UNL d   1      -2.292   1.504   1.488  0.00  0.00     0.076 C 
ATOM      7  C8  UNL d   1      -0.303   0.367   0.457  0.00  0.00     0.001 A 
ENDROOT
BRANCH   1   8
ATOM      8  C1  UNL d   1       1.661  -0.891  -0.513  0.00  0.00     0.053 C 
ATOM      9  C   UNL d   1       1.077  -1.865  -1.524  0.00  0.00     0.018 C 
ENDBRANCH   1   8
TORSDOF 1
ENDMDL
