MODEL 1
REMARK minimizedAffinity -3.03167796
REMARK minimizedRMSD -1
REMARK  1 active torsions:
REMARK  status: ('A' for Active; 'I' for Inactive)
REMARK    1  A    between atoms: C1_2  and  C2_3 
ROOT
ATOM      1  C2  UNL d   1       0.083  -0.712   0.056  0.00  0.00    -0.073 A 
ATOM      2  C3  UNL d   1      -0.776  -1.351   0.957  0.00  0.00    -0.002 A 
ATOM      3  C4  UNL d   1      -1.583  -0.601   1.814  0.00  0.00     0.004 A 
ATOM      4  C5  UNL d   1      -1.545   0.792   1.774  0.00  0.00    -0.004 A 
ATOM      5  C6  UNL d   1      -0.702   1.449   0.872  0.00  0.00    -0.075 A 
ATOM      6  C7  UNL d   1      -0.647   2.948   0.818  0.00  0.00     0.076 C 
ATOM      7  C8  UNL d   1       0.108   0.690   0.017  0.00  0.00     0.001 A 
ENDROOT
BRANCH   1   8
ATOM      8  C1  UNL d   1       0.952  -1.517  -0.876  0.00  0.00     0.053 C 
ATOM      9  C   UNL d   1       0.257  -1.803  -2.198  0.00  0.00     0.018 C 
ENDBRANCH   1   8
TORSDOF 1
ENDMDL
