MODEL 1
REMARK minimizedAffinity -4.06169653
REMARK minimizedRMSD -1
REMARK  1 active torsions:
REMARK  status: ('A' for Active; 'I' for Inactive)
REMARK    1  A    between atoms: C1_2  and  C2_3 
ROOT
ATOM      1  C2  UNL d   1       0.205   0.010   0.288  0.00  0.00    -0.073 A 
ATOM      2  C3  UNL d   1      -0.556  -0.014   1.462  0.00  0.00    -0.002 A 
ATOM      3  C4  UNL d   1      -1.083   1.168   1.984  0.00  0.00     0.004 A 
ATOM      4  C5  UNL d   1      -0.861   2.382   1.336  0.00  0.00    -0.004 A 
ATOM      5  C6  UNL d   1      -0.113   2.425   0.155  0.00  0.00    -0.075 A 
ATOM      6  C7  UNL d   1       0.138   3.724  -0.553  0.00  0.00     0.076 C 
ATOM      7  C8  UNL d   1       0.416   1.235  -0.362  0.00  0.00     0.001 A 
ENDROOT
BRANCH   1   8
ATOM      8  C1  UNL d   1       0.771  -1.265  -0.284  0.00  0.00     0.053 C 
ATOM      9  C   UNL d   1      -0.037  -1.765  -1.471  0.00  0.00     0.018 C 
ENDBRANCH   1   8
TORSDOF 1
ENDMDL
