MODEL 1
REMARK minimizedAffinity -4.73817396
REMARK minimizedRMSD -1
REMARK  1 active torsions:
REMARK  status: ('A' for Active; 'I' for Inactive)
REMARK    1  A    between atoms: C1_2  and  C2_3 
ROOT
ATOM      1  C2  UNL d   1      -0.195  -0.519   0.449  0.00  0.00    -0.073 A 
ATOM      2  C3  UNL d   1       0.379   0.434  -0.400  0.00  0.00    -0.002 A 
ATOM      3  C4  UNL d   1       1.066   0.034  -1.547  0.00  0.00     0.004 A 
ATOM      4  C5  UNL d   1       1.180  -1.320  -1.861  0.00  0.00    -0.004 A 
ATOM      5  C6  UNL d   1       0.602  -2.287  -1.032  0.00  0.00    -0.075 A 
ATOM      6  C7  UNL d   1       0.717  -3.748  -1.354  0.00  0.00     0.076 C 
ATOM      7  C8  UNL d   1      -0.083  -1.878   0.120  0.00  0.00     0.001 A 
ENDROOT
BRANCH   1   8
ATOM      8  C1  UNL d   1      -0.943  -0.092   1.685  0.00  0.00     0.053 C 
ATOM      9  C   UNL d   1      -0.967   1.420   1.843  0.00  0.00     0.018 C 
ENDBRANCH   1   8
TORSDOF 1
ENDMDL
