MODEL 1
REMARK minimizedAffinity -3.250386
REMARK minimizedRMSD -1
REMARK  1 active torsions:
REMARK  status: ('A' for Active; 'I' for Inactive)
REMARK    1  A    between atoms: C1_2  and  C2_3 
ROOT
ATOM      1  C2  UNL d   1      -0.530  -0.796  -0.054  0.00  0.00    -0.073 A 
ATOM      2  C3  UNL d   1       0.731  -0.215   0.121  0.00  0.00    -0.002 A 
ATOM      3  C4  UNL d   1       1.794  -0.574  -0.709  0.00  0.00     0.004 A 
ATOM      4  C5  UNL d   1       1.606  -1.511  -1.724  0.00  0.00    -0.004 A 
ATOM      5  C6  UNL d   1       0.350  -2.094  -1.922  0.00  0.00    -0.075 A 
ATOM      6  C7  UNL d   1       0.132  -3.106  -3.009  0.00  0.00     0.076 C 
ATOM      7  C8  UNL d   1      -0.711  -1.730  -1.083  0.00  0.00     0.001 A 
ENDROOT
BRANCH   1   8
ATOM      8  C1  UNL d   1      -1.682  -0.406   0.836  0.00  0.00     0.053 C 
ATOM      9  C   UNL d   1      -1.210   0.176   2.159  0.00  0.00     0.018 C 
ENDBRANCH   1   8
TORSDOF 1
ENDMDL
