MODEL 1
REMARK minimizedAffinity -1.95191491
REMARK minimizedRMSD -1
REMARK  1 active torsions:
REMARK  status: ('A' for Active; 'I' for Inactive)
REMARK    1  A    between atoms: C1_2  and  C2_3 
ROOT
ATOM      1  C2  UNL d   1      -0.135   0.094   0.171  0.00  0.00    -0.073 A 
ATOM      2  C3  UNL d   1      -1.088  -0.042   1.186  0.00  0.00    -0.002 A 
ATOM      3  C4  UNL d   1      -1.714   1.085   1.721  0.00  0.00     0.004 A 
ATOM      4  C5  UNL d   1      -1.399   2.357   1.241  0.00  0.00    -0.004 A 
ATOM      5  C6  UNL d   1      -0.458   2.512   0.219  0.00  0.00    -0.075 A 
ATOM      6  C7  UNL d   1      -0.107   3.873  -0.306  0.00  0.00     0.076 C 
ATOM      7  C8  UNL d   1       0.168   1.375  -0.311  0.00  0.00     0.001 A 
ENDROOT
BRANCH   1   8
ATOM      8  C1  UNL d   1       0.539  -1.121  -0.414  0.00  0.00     0.053 C 
ATOM      9  C   UNL d   1       1.774  -0.754  -1.221  0.00  0.00     0.018 C 
ENDBRANCH   1   8
TORSDOF 1
ENDMDL
