MODEL 1
REMARK minimizedAffinity -4.24069548
REMARK minimizedRMSD -1
REMARK  1 active torsions:
REMARK  status: ('A' for Active; 'I' for Inactive)
REMARK    1  A    between atoms: C1_2  and  C2_3 
ROOT
ATOM      1  C2  UNL d   1      -0.117   1.124   0.066  0.00  0.00    -0.073 A 
ATOM      2  C3  UNL d   1       0.717   1.869  -0.776  0.00  0.00    -0.002 A 
ATOM      3  C4  UNL d   1       0.599   3.258  -0.836  0.00  0.00     0.004 A 
ATOM      4  C5  UNL d   1      -0.346   3.917  -0.050  0.00  0.00    -0.004 A 
ATOM      5  C6  UNL d   1      -1.181   3.192   0.806  0.00  0.00    -0.075 A 
ATOM      6  C7  UNL d   1      -2.205   3.885   1.656  0.00  0.00     0.076 C 
ATOM      7  C8  UNL d   1      -1.059   1.797   0.858  0.00  0.00     0.001 A 
ENDROOT
BRANCH   1   8
ATOM      8  C1  UNL d   1       0.010  -0.375   0.138  0.00  0.00     0.053 C 
ATOM      9  C   UNL d   1       1.270  -0.874  -0.551  0.00  0.00     0.018 C 
ENDBRANCH   1   8
TORSDOF 1
ENDMDL
