MODEL 1
REMARK minimizedAffinity -0.249544054
REMARK minimizedRMSD -1
REMARK  0 active torsions:
REMARK  status: ('A' for Active; 'I' for Inactive)
ROOT
ATOM      1  C   UNL d   1       0.331   0.012   1.167  0.00  0.00     0.172 C 
ATOM      2  N   UNL d   1       0.911   1.089   0.399  0.00  0.00    -0.070 N 
ATOM      3  C1  UNL d   1       1.189   2.345   0.868  0.00  0.00    -0.004 A 
ATOM      4  C2  UNL d   1       1.733   3.072  -0.169  0.00  0.00    -0.047 A 
ATOM      5  C3  UNL d   1       1.782   2.224  -1.300  0.00  0.00    -0.047 A 
ATOM      6  C4  UNL d   1       1.267   1.002  -0.921  0.00  0.00    -0.004 A 
ENDROOT
TORSDOF 0
ENDMDL
