MODEL 1
REMARK minimizedAffinity -1.07552683
REMARK minimizedRMSD -1
REMARK  0 active torsions:
REMARK  status: ('A' for Active; 'I' for Inactive)
ROOT
ATOM      1  C   UNL d   1       5.758   2.614  -4.808  0.00  0.00     0.172 C 
ATOM      2  N   UNL d   1       5.286   3.931  -5.165  0.00  0.00    -0.070 N 
ATOM      3  C1  UNL d   1       5.997   4.873  -5.859  0.00  0.00    -0.004 A 
ATOM      4  C2  UNL d   1       5.199   5.988  -5.996  0.00  0.00    -0.047 A 
ATOM      5  C3  UNL d   1       3.966   5.707  -5.362  0.00  0.00    -0.047 A 
ATOM      6  C4  UNL d   1       4.047   4.427  -4.856  0.00  0.00    -0.004 A 
ENDROOT
TORSDOF 0
ENDMDL
