MODEL 1
REMARK minimizedAffinity -0.275010735
REMARK minimizedRMSD -1
REMARK  0 active torsions:
REMARK  status: ('A' for Active; 'I' for Inactive)
ROOT
ATOM      1  C   UNL d   1       2.896   5.997  -5.549  0.00  0.00     0.172 C 
ATOM      2  N   UNL d   1       1.586   5.998  -4.941  0.00  0.00    -0.070 N 
ATOM      3  C1  UNL d   1       0.394   5.999  -5.613  0.00  0.00    -0.004 A 
ATOM      4  C2  UNL d   1      -0.618   5.998  -4.677  0.00  0.00    -0.047 A 
ATOM      5  C3  UNL d   1      -0.013   5.998  -3.398  0.00  0.00    -0.047 A 
ATOM      6  C4  UNL d   1       1.353   5.998  -3.591  0.00  0.00    -0.004 A 
ENDROOT
TORSDOF 0
ENDMDL
