MODEL 1
REMARK minimizedAffinity -0.945232034
REMARK minimizedRMSD -1
REMARK  0 active torsions:
REMARK  status: ('A' for Active; 'I' for Inactive)
ROOT
ATOM      1  C   UNL d   1      -2.119   5.988  -5.591  0.00  0.00     0.172 C 
ATOM      2  N   UNL d   1      -2.538   5.991  -4.209  0.00  0.00    -0.070 N 
ATOM      3  C1  UNL d   1      -3.834   5.984  -3.768  0.00  0.00    -0.004 A 
ATOM      4  C2  UNL d   1      -3.812   5.989  -2.390  0.00  0.00    -0.047 A 
ATOM      5  C3  UNL d   1      -2.455   5.999  -1.989  0.00  0.00    -0.047 A 
ATOM      6  C4  UNL d   1      -1.688   6.000  -3.135  0.00  0.00    -0.004 A 
ENDROOT
TORSDOF 0
ENDMDL
