MODEL 1
REMARK minimizedAffinity 0.358436763
REMARK minimizedRMSD -1
REMARK  0 active torsions:
REMARK  status: ('A' for Active; 'I' for Inactive)
ROOT
ATOM      1  C   UNL d   1      -0.227   5.987  -3.105  0.00  0.00     0.172 C 
ATOM      2  N   UNL d   1      -1.564   5.992  -2.559  0.00  0.00    -0.070 N 
ATOM      3  C1  UNL d   1      -1.882   5.995  -1.227  0.00  0.00    -0.004 A 
ATOM      4  C2  UNL d   1      -3.256   6.000  -1.121  0.00  0.00    -0.047 A 
ATOM      5  C3  UNL d   1      -3.782   5.999  -2.435  0.00  0.00    -0.047 A 
ATOM      6  C4  UNL d   1      -2.713   5.994  -3.305  0.00  0.00    -0.004 A 
ENDROOT
TORSDOF 0
ENDMDL
