MODEL 1
REMARK minimizedAffinity -2.22975683
REMARK minimizedRMSD -1
REMARK  0 active torsions:
REMARK  status: ('A' for Active; 'I' for Inactive)
ROOT
ATOM      1  C   UNL d   1       1.799   5.561  -6.000  0.00  0.00     0.172 C 
ATOM      2  N   UNL d   1       0.520   5.684  -5.341  0.00  0.00    -0.070 N 
ATOM      3  C1  UNL d   1      -0.704   5.540  -5.939  0.00  0.00    -0.004 A 
ATOM      4  C2  UNL d   1      -1.670   5.731  -4.975  0.00  0.00    -0.047 A 
ATOM      5  C3  UNL d   1      -1.005   6.000  -3.756  0.00  0.00    -0.047 A 
ATOM      6  C4  UNL d   1       0.350   5.965  -4.011  0.00  0.00    -0.004 A 
ENDROOT
TORSDOF 0
ENDMDL
