MODEL 1
REMARK minimizedAffinity 2.80385017
REMARK minimizedRMSD -1
REMARK  0 active torsions:
REMARK  status: ('A' for Active; 'I' for Inactive)
ROOT
ATOM      1  C   UNL d   1       0.605   6.000  -5.991  0.00  0.00     0.172 C 
ATOM      2  N   UNL d   1       1.900   5.506  -5.586  0.00  0.00    -0.070 N 
ATOM      3  C1  UNL d   1       3.109   6.000  -6.000  0.00  0.00    -0.004 A 
ATOM      4  C2  UNL d   1       4.098   5.261  -5.389  0.00  0.00    -0.047 A 
ATOM      5  C3  UNL d   1       3.463   4.288  -4.581  0.00  0.00    -0.047 A 
ATOM      6  C4  UNL d   1       2.103   4.463  -4.721  0.00  0.00    -0.004 A 
ENDROOT
TORSDOF 0
ENDMDL
