MODEL 1
REMARK minimizedAffinity -2.76142764
REMARK minimizedRMSD -1
REMARK  0 active torsions:
REMARK  status: ('A' for Active; 'I' for Inactive)
ROOT
ATOM      1  C   UNL d   1       2.127   5.997  -5.995  0.00  0.00     0.172 C 
ATOM      2  N   UNL d   1       0.961   5.759  -5.176  0.00  0.00    -0.070 N 
ATOM      3  C1  UNL d   1       0.868   5.999  -3.831  0.00  0.00    -0.004 A 
ATOM      4  C2  UNL d   1      -0.400   5.643  -3.426  0.00  0.00    -0.047 A 
ATOM      5  C3  UNL d   1      -1.092   5.170  -4.566  0.00  0.00    -0.047 A 
ATOM      6  C4  UNL d   1      -0.226   5.253  -5.636  0.00  0.00    -0.004 A 
ENDROOT
TORSDOF 0
ENDMDL
