MODEL 1
REMARK minimizedAffinity 1.59598053
REMARK minimizedRMSD -1
REMARK  0 active torsions:
REMARK  status: ('A' for Active; 'I' for Inactive)
ROOT
ATOM      1  C   UNL d   1      -3.815   5.993   0.415  0.00  0.00     0.172 C 
ATOM      2  N   UNL d   1      -2.797   5.994  -0.609  0.00  0.00    -0.070 N 
ATOM      3  C1  UNL d   1      -3.023   5.996  -1.960  0.00  0.00    -0.004 A 
ATOM      4  C2  UNL d   1      -1.798   5.997  -2.592  0.00  0.00    -0.047 A 
ATOM      5  C3  UNL d   1      -0.802   5.995  -1.587  0.00  0.00    -0.047 A 
ATOM      6  C4  UNL d   1      -1.448   5.994  -0.369  0.00  0.00    -0.004 A 
ENDROOT
TORSDOF 0
ENDMDL
