MODEL 1
REMARK minimizedAffinity 4.92220926
REMARK minimizedRMSD -1
REMARK  0 active torsions:
REMARK  status: ('A' for Active; 'I' for Inactive)
ROOT
ATOM      1  C   UNL d   1       0.158   5.734  -1.454  0.00  0.00     0.172 C 
ATOM      2  N   UNL d   1      -1.278   5.812  -1.325  0.00  0.00    -0.070 N 
ATOM      3  C1  UNL d   1      -2.169   5.916  -2.359  0.00  0.00    -0.004 A 
ATOM      4  C2  UNL d   1      -3.437   5.963  -1.822  0.00  0.00    -0.047 A 
ATOM      5  C3  UNL d   1      -3.304   5.885  -0.415  0.00  0.00    -0.047 A 
ATOM      6  C4  UNL d   1      -1.957   5.792  -0.135  0.00  0.00    -0.004 A 
ENDROOT
TORSDOF 0
ENDMDL
