MODEL 1
REMARK minimizedAffinity -2.4687252
REMARK minimizedRMSD -1
REMARK  0 active torsions:
REMARK  status: ('A' for Active; 'I' for Inactive)
ROOT
ATOM      1  C   UNL d   1       4.214   5.400  -5.638  0.00  0.00     0.172 C 
ATOM      2  N   UNL d   1       2.800   5.246  -5.390  0.00  0.00    -0.070 N 
ATOM      3  C1  UNL d   1       1.977   4.337  -5.999  0.00  0.00    -0.004 A 
ATOM      4  C2  UNL d   1       0.708   4.510  -5.490  0.00  0.00    -0.047 A 
ATOM      5  C3  UNL d   1       0.770   5.560  -4.543  0.00  0.00    -0.047 A 
ATOM      6  C4  UNL d   1       2.077   5.998  -4.501  0.00  0.00    -0.004 A 
ENDROOT
TORSDOF 0
ENDMDL
