MODEL 1
REMARK minimizedAffinity -0.545689702
REMARK minimizedRMSD -1
REMARK  0 active torsions:
REMARK  status: ('A' for Active; 'I' for Inactive)
ROOT
ATOM      1  C   UNL d   1      -0.712   5.991  -4.899  0.00  0.00     0.172 C 
ATOM      2  N   UNL d   1      -1.736   5.994  -3.881  0.00  0.00    -0.070 N 
ATOM      3  C1  UNL d   1      -1.518   5.991  -2.529  0.00  0.00    -0.004 A 
ATOM      4  C2  UNL d   1      -2.746   5.995  -1.904  0.00  0.00    -0.047 A 
ATOM      5  C3  UNL d   1      -3.736   6.000  -2.915  0.00  0.00    -0.047 A 
ATOM      6  C4  UNL d   1      -3.083   5.999  -4.129  0.00  0.00    -0.004 A 
ENDROOT
TORSDOF 0
ENDMDL
