MODEL 1
REMARK minimizedAffinity 0.302846134
REMARK minimizedRMSD -1
REMARK  0 active torsions:
REMARK  status: ('A' for Active; 'I' for Inactive)
ROOT
ATOM      1  C   UNL d   1       0.665   4.343  -5.971  0.00  0.00     0.172 C 
ATOM      2  N   UNL d   1       2.055   4.725  -5.883  0.00  0.00    -0.070 N 
ATOM      3  C1  UNL d   1       2.541   6.000  -5.997  0.00  0.00    -0.004 A 
ATOM      4  C2  UNL d   1       3.911   5.944  -5.855  0.00  0.00    -0.047 A 
ATOM      5  C3  UNL d   1       4.260   4.588  -5.650  0.00  0.00    -0.047 A 
ATOM      6  C4  UNL d   1       3.092   3.855  -5.672  0.00  0.00    -0.004 A 
ENDROOT
TORSDOF 0
ENDMDL
