MODEL 1
REMARK minimizedAffinity -2.82550597
REMARK minimizedRMSD -1
REMARK  0 active torsions:
REMARK  status: ('A' for Active; 'I' for Inactive)
ROOT
ATOM      1  N1  IND d   1       0.740  -2.752   1.714  0.00  0.00    -0.196 N 
ATOM      2  C2  IND d   1       2.087  -2.963   1.625  0.00  0.00     0.054 A 
ATOM      3  C3  IND d   1       2.685  -1.931   0.989  0.00  0.00    -0.031 A 
ATOM      4  C4  IND d   1       1.658   0.257   0.101  0.00  0.00     0.051 A 
ATOM      5  C5  IND d   1       0.460   0.889  -0.080  0.00  0.00    -0.031 A 
ATOM      6  C6  IND d   1      -0.730   0.330   0.338  0.00  0.00     0.015 A 
ATOM      7  C7  IND d   1      -0.765  -0.883   0.967  0.00  0.00    -0.016 A 
ATOM      8  C8  IND d   1       0.449  -1.531   1.146  0.00  0.00    -0.047 A 
ATOM      9  C9  IND d   1       1.655  -0.987   0.685  0.00  0.00    -0.096 A 
ATOM     10  HN1 IND d   1       0.169  -3.290   2.065  0.00  0.00     0.298 HD
ENDROOT
TORSDOF 0
ENDMDL
