MODEL 1
REMARK minimizedAffinity -1.00363994
REMARK minimizedRMSD -1
REMARK  0 active torsions:
REMARK  status: ('A' for Active; 'I' for Inactive)
ROOT
ATOM      1  N1  IND d   1      -1.422  -0.082   0.934  0.00  0.00    -0.196 N 
ATOM      2  C2  IND d   1      -1.727  -1.159   1.719  0.00  0.00     0.054 A 
ATOM      3  C3  IND d   1      -0.625  -1.911   1.935  0.00  0.00    -0.031 A 
ATOM      4  C4  IND d   1       1.804  -1.508   1.181  0.00  0.00     0.051 A 
ATOM      5  C5  IND d   1       2.569  -0.676   0.414  0.00  0.00    -0.031 A 
ATOM      6  C6  IND d   1       2.033   0.421  -0.231  0.00  0.00     0.015 A 
ATOM      7  C7  IND d   1       0.708   0.733  -0.122  0.00  0.00    -0.016 A 
ATOM      8  C8  IND d   1      -0.074  -0.113   0.651  0.00  0.00    -0.047 A 
ATOM      9  C9  IND d   1       0.456  -1.251   1.273  0.00  0.00    -0.096 A 
ATOM     10  HN1 IND d   1      -1.978   0.514   0.662  0.00  0.00     0.298 HD
ENDROOT
TORSDOF 0
ENDMDL
