MODEL 1
REMARK minimizedAffinity -2.91354704
REMARK minimizedRMSD -1
REMARK  0 active torsions:
REMARK  status: ('A' for Active; 'I' for Inactive)
ROOT
ATOM      1  N1  IND d   1      -2.839   1.234  -2.491  0.00  0.00    -0.196 N 
ATOM      2  C2  IND d   1      -3.367   1.168  -3.751  0.00  0.00     0.054 A 
ATOM      3  C3  IND d   1      -2.820   2.120  -4.540  0.00  0.00    -0.031 A 
ATOM      4  C4  IND d   1      -0.970   3.827  -4.001  0.00  0.00     0.051 A 
ATOM      5  C5  IND d   1      -0.204   4.296  -2.971  0.00  0.00    -0.031 A 
ATOM      6  C6  IND d   1      -0.276   3.755  -1.704  0.00  0.00     0.015 A 
ATOM      7  C7  IND d   1      -1.113   2.713  -1.421  0.00  0.00    -0.016 A 
ATOM      8  C8  IND d   1      -1.898   2.239  -2.462  0.00  0.00    -0.047 A 
ATOM      9  C9  IND d   1      -1.860   2.812  -3.740  0.00  0.00    -0.096 A 
ATOM     10  HN1 IND d   1      -3.059   0.732  -1.829  0.00  0.00     0.298 HD
ENDROOT
TORSDOF 0
ENDMDL
