MODEL 1
REMARK minimizedAffinity -2.99217296
REMARK minimizedRMSD -1
REMARK  0 active torsions:
REMARK  status: ('A' for Active; 'I' for Inactive)
ROOT
ATOM      1  N1  IND d   1      -1.589   4.256  -4.071  0.00  0.00    -0.196 N 
ATOM      2  C2  IND d   1      -0.289   4.666  -3.972  0.00  0.00     0.054 A 
ATOM      3  C3  IND d   1       0.392   3.868  -3.119  0.00  0.00    -0.031 A 
ATOM      4  C4  IND d   1      -0.402   1.771  -1.853  0.00  0.00     0.051 A 
ATOM      5  C5  IND d   1      -1.519   1.026  -1.598  0.00  0.00    -0.031 A 
ATOM      6  C6  IND d   1      -2.740   1.324  -2.167  0.00  0.00     0.015 A 
ATOM      7  C7  IND d   1      -2.888   2.376  -3.026  0.00  0.00    -0.016 A 
ATOM      8  C8  IND d   1      -1.758   3.139  -3.283  0.00  0.00    -0.047 A 
ATOM      9  C9  IND d   1      -0.526   2.867  -2.674  0.00  0.00    -0.096 A 
ATOM     10  HN1 IND d   1      -2.199   4.633  -4.546  0.00  0.00     0.298 HD
ENDROOT
TORSDOF 0
ENDMDL
