MODEL 1
REMARK minimizedAffinity -4.81181812
REMARK minimizedRMSD -1
REMARK  0 active torsions:
REMARK  status: ('A' for Active; 'I' for Inactive)
ROOT
ATOM      1  N1  IND d   1       0.139   1.378  -0.092  0.00  0.00    -0.196 N 
ATOM      2  C2  IND d   1      -1.069   1.788   0.399  0.00  0.00     0.054 A 
ATOM      3  C3  IND d   1      -1.677   0.776   1.058  0.00  0.00    -0.031 A 
ATOM      4  C4  IND d   1      -0.826  -1.605   1.542  0.00  0.00     0.051 A 
ATOM      5  C5  IND d   1       0.206  -2.457   1.266  0.00  0.00    -0.031 A 
ATOM      6  C6  IND d   1       1.293  -2.065   0.510  0.00  0.00     0.015 A 
ATOM      7  C7  IND d   1       1.393  -0.798   0.010  0.00  0.00    -0.016 A 
ATOM      8  C8  IND d   1       0.343   0.067   0.282  0.00  0.00    -0.047 A 
ATOM      9  C9  IND d   1      -0.782  -0.337   1.012  0.00  0.00    -0.096 A 
ATOM     10  HN1 IND d   1       0.681   1.857  -0.556  0.00  0.00     0.298 HD
ENDROOT
TORSDOF 0
ENDMDL
