MODEL 1
REMARK minimizedAffinity 1.69899726
REMARK minimizedRMSD -1
REMARK  0 active torsions:
REMARK  status: ('A' for Active; 'I' for Inactive)
ROOT
ATOM      1  N1  IND d   1      -0.671   1.419   0.038  0.00  0.00    -0.196 N 
ATOM      2  C2  IND d   1       0.443   1.256  -0.737  0.00  0.00     0.054 A 
ATOM      3  C3  IND d   1       0.968   0.024  -0.553  0.00  0.00    -0.031 A 
ATOM      4  C4  IND d   1       0.105  -1.922   0.895  0.00  0.00     0.051 A 
ATOM      5  C5  IND d   1      -0.858  -2.238   1.812  0.00  0.00    -0.031 A 
ATOM      6  C6  IND d   1      -1.829  -1.333   2.190  0.00  0.00     0.015 A 
ATOM      7  C7  IND d   1      -1.880  -0.077   1.655  0.00  0.00    -0.016 A 
ATOM      8  C8  IND d   1      -0.900   0.249   0.728  0.00  0.00    -0.047 A 
ATOM      9  C9  IND d   1       0.113  -0.650   0.372  0.00  0.00    -0.096 A 
ATOM     10  HN1 IND d   1      -1.148   2.132   0.087  0.00  0.00     0.298 HD
ENDROOT
TORSDOF 0
ENDMDL
