MODEL 1
REMARK minimizedAffinity -4.17037487
REMARK minimizedRMSD -1
REMARK  0 active torsions:
REMARK  status: ('A' for Active; 'I' for Inactive)
ROOT
ATOM      1  N1  IND d   1      -0.900   0.332   0.302  0.00  0.00    -0.196 N 
ATOM      2  C2  IND d   1      -0.018   0.841  -0.610  0.00  0.00     0.054 A 
ATOM      3  C3  IND d   1       1.143   0.150  -0.578  0.00  0.00    -0.031 A 
ATOM      4  C4  IND d   1       1.780  -1.915   0.820  0.00  0.00     0.051 A 
ATOM      5  C5  IND d   1       1.317  -2.723   1.821  0.00  0.00    -0.031 A 
ATOM      6  C6  IND d   1       0.065  -2.551   2.376  0.00  0.00     0.015 A 
ATOM      7  C7  IND d   1      -0.779  -1.569   1.941  0.00  0.00    -0.016 A 
ATOM      8  C8  IND d   1      -0.309  -0.743   0.930  0.00  0.00    -0.047 A 
ATOM      9  C9  IND d   1       0.976  -0.885   0.392  0.00  0.00    -0.096 A 
ATOM     10  HN1 IND d   1      -1.690   0.633   0.458  0.00  0.00     0.298 HD
ENDROOT
TORSDOF 0
ENDMDL
