MODEL 1
REMARK minimizedAffinity -2.14722872
REMARK minimizedRMSD -1
REMARK  0 active torsions:
REMARK  status: ('A' for Active; 'I' for Inactive)
ROOT
ATOM      1  N1  IND d   1      -1.506   0.324   0.385  0.00  0.00    -0.196 N 
ATOM      2  C2  IND d   1      -1.373   1.581  -0.135  0.00  0.00     0.054 A 
ATOM      3  C3  IND d   1      -0.072   1.848  -0.391  0.00  0.00    -0.031 A 
ATOM      4  C4  IND d   1       1.992   0.332  -0.129  0.00  0.00     0.051 A 
ATOM      5  C5  IND d   1       2.377  -0.891   0.342  0.00  0.00    -0.031 A 
ATOM      6  C6  IND d   1       1.469  -1.792   0.860  0.00  0.00     0.015 A 
ATOM      7  C7  IND d   1       0.134  -1.505   0.916  0.00  0.00    -0.016 A 
ATOM      8  C8  IND d   1      -0.260  -0.261   0.444  0.00  0.00    -0.047 A 
ATOM      9  C9  IND d   1       0.663   0.674  -0.043  0.00  0.00    -0.096 A 
ATOM     10  HN1 IND d   1      -2.244  -0.041   0.634  0.00  0.00     0.298 HD
ENDROOT
TORSDOF 0
ENDMDL
