MODEL 1
REMARK minimizedAffinity -5.57058001
REMARK minimizedRMSD -1
REMARK  0 active torsions:
REMARK  status: ('A' for Active; 'I' for Inactive)
ROOT
ATOM      1  N1  IND d   1      -1.067   0.889   0.211  0.00  0.00    -0.196 N 
ATOM      2  C2  IND d   1      -0.133   1.135  -0.756  0.00  0.00     0.054 A 
ATOM      3  C3  IND d   1       0.909   0.282  -0.631  0.00  0.00    -0.031 A 
ATOM      4  C4  IND d   1       1.242  -1.661   1.025  0.00  0.00     0.051 A 
ATOM      5  C5  IND d   1       0.677  -2.252   2.119  0.00  0.00    -0.031 A 
ATOM      6  C6  IND d   1      -0.524  -1.820   2.643  0.00  0.00     0.015 A 
ATOM      7  C7  IND d   1      -1.214  -0.782   2.081  0.00  0.00    -0.016 A 
ATOM      8  C8  IND d   1      -0.639  -0.175   0.974  0.00  0.00    -0.047 A 
ATOM      9  C9  IND d   1       0.601  -0.582   0.464  0.00  0.00    -0.096 A 
ATOM     10  HN1 IND d   1      -1.799   1.326   0.324  0.00  0.00     0.298 HD
ENDROOT
TORSDOF 0
ENDMDL
