MODEL 1
REMARK minimizedAffinity -2.45059991
REMARK minimizedRMSD -1
REMARK  0 active torsions:
REMARK  status: ('A' for Active; 'I' for Inactive)
ROOT
ATOM      1  N1  IND d   1      -1.528   1.528   0.487  0.00  0.00    -0.196 N 
ATOM      2  C2  IND d   1      -0.804   1.795  -0.642  0.00  0.00     0.054 A 
ATOM      3  C3  IND d   1      -0.042   0.730  -0.975  0.00  0.00    -0.031 A 
ATOM      4  C4  IND d   1       0.099  -1.590   0.132  0.00  0.00     0.051 A 
ATOM      5  C5  IND d   1      -0.348  -2.297   1.214  0.00  0.00    -0.031 A 
ATOM      6  C6  IND d   1      -1.231  -1.754   2.125  0.00  0.00     0.015 A 
ATOM      7  C7  IND d   1      -1.711  -0.483   1.982  0.00  0.00    -0.016 A 
ATOM      8  C8  IND d   1      -1.254   0.240   0.889  0.00  0.00    -0.047 A 
ATOM      9  C9  IND d   1      -0.325  -0.291  -0.016  0.00  0.00    -0.096 A 
ATOM     10  HN1 IND d   1      -2.064   2.074   0.880  0.00  0.00     0.298 HD
ENDROOT
TORSDOF 0
ENDMDL
