MODEL 1
REMARK minimizedAffinity -5.623981
REMARK minimizedRMSD -1
REMARK  0 active torsions:
REMARK  status: ('A' for Active; 'I' for Inactive)
ROOT
ATOM      1  N1  IND d   1      -1.432   0.181  -0.074  0.00  0.00    -0.196 N 
ATOM      2  C2  IND d   1      -0.705   0.222  -1.231  0.00  0.00     0.054 A 
ATOM      3  C3  IND d   1       0.342  -0.631  -1.159  0.00  0.00    -0.031 A 
ATOM      4  C4  IND d   1       0.993  -2.266   0.719  0.00  0.00     0.051 A 
ATOM      5  C5  IND d   1       0.653  -2.638   1.990  0.00  0.00    -0.031 A 
ATOM      6  C6  IND d   1      -0.423  -2.080   2.649  0.00  0.00     0.015 A 
ATOM      7  C7  IND d   1      -1.209  -1.133   2.056  0.00  0.00    -0.016 A 
ATOM      8  C8  IND d   1      -0.862  -0.748   0.769  0.00  0.00    -0.047 A 
ATOM      9  C9  IND d   1       0.254  -1.280   0.110  0.00  0.00    -0.096 A 
ATOM     10  HN1 IND d   1      -2.128   0.656   0.098  0.00  0.00     0.298 HD
ENDROOT
TORSDOF 0
ENDMDL
