MODEL 1
REMARK minimizedAffinity -4.97311544
REMARK minimizedRMSD -1
REMARK  0 active torsions:
REMARK  status: ('A' for Active; 'I' for Inactive)
ROOT
ATOM      1  N1  IND d   1       0.557  -2.244   1.402  0.00  0.00    -0.196 N 
ATOM      2  C2  IND d   1       1.867  -2.560   1.174  0.00  0.00     0.054 A 
ATOM      3  C3  IND d   1       2.460  -1.598   0.431  0.00  0.00    -0.031 A 
ATOM      4  C4  IND d   1       1.497   0.627  -0.434  0.00  0.00     0.051 A 
ATOM      5  C5  IND d   1       0.334   1.341  -0.509  0.00  0.00    -0.031 A 
ATOM      6  C6  IND d   1      -0.837   0.888   0.063  0.00  0.00     0.015 A 
ATOM      7  C7  IND d   1      -0.886  -0.295   0.745  0.00  0.00    -0.016 A 
ATOM      8  C8  IND d   1       0.291  -1.026   0.817  0.00  0.00    -0.047 A 
ATOM      9  C9  IND d   1       1.473  -0.592   0.202  0.00  0.00    -0.096 A 
ATOM     10  HN1 IND d   1      -0.006  -2.725   1.839  0.00  0.00     0.298 HD
ENDROOT
TORSDOF 0
ENDMDL
