MODEL 1
REMARK minimizedAffinity -1.06194437
REMARK minimizedRMSD -1
REMARK  0 active torsions:
REMARK  status: ('A' for Active; 'I' for Inactive)
ROOT
ATOM      1  N1  IND d   1      -1.860   0.052  -0.103  0.00  0.00    -0.196 N 
ATOM      2  C2  IND d   1      -0.548   0.173   0.262  0.00  0.00     0.054 A 
ATOM      3  C3  IND d   1       0.107   0.983  -0.600  0.00  0.00    -0.031 A 
ATOM      4  C4  IND d   1      -0.799   2.298  -2.618  0.00  0.00     0.051 A 
ATOM      5  C5  IND d   1      -1.928   2.479  -3.368  0.00  0.00    -0.031 A 
ATOM      6  C6  IND d   1      -3.116   1.849  -3.059  0.00  0.00     0.015 A 
ATOM      7  C7  IND d   1      -3.224   1.021  -1.978  0.00  0.00    -0.016 A 
ATOM      8  C8  IND d   1      -2.078   0.829  -1.219  0.00  0.00    -0.047 A 
ATOM      9  C9  IND d   1      -0.858   1.432  -1.552  0.00  0.00    -0.096 A 
ATOM     10  HN1 IND d   1      -2.450  -0.429   0.297  0.00  0.00     0.298 HD
ENDROOT
TORSDOF 0
ENDMDL
