MODEL 1
REMARK minimizedAffinity -4.68558741
REMARK minimizedRMSD -1
REMARK  0 active torsions:
REMARK  status: ('A' for Active; 'I' for Inactive)
ROOT
ATOM      1  N1  IND d   1      -0.950  -0.354   0.557  0.00  0.00    -0.196 N 
ATOM      2  C2  IND d   1      -1.121   0.833  -0.100  0.00  0.00     0.054 A 
ATOM      3  C3  IND d   1       0.057   1.266  -0.603  0.00  0.00    -0.031 A 
ATOM      4  C4  IND d   1       2.370   0.137  -0.554  0.00  0.00     0.051 A 
ATOM      5  C5  IND d   1       3.031  -0.942  -0.038  0.00  0.00    -0.031 A 
ATOM      6  C6  IND d   1       2.386  -1.901   0.715  0.00  0.00     0.015 A 
ATOM      7  C7  IND d   1       1.046  -1.822   0.973  0.00  0.00    -0.016 A 
ATOM      8  C8  IND d   1       0.373  -0.724   0.456  0.00  0.00    -0.047 A 
ATOM      9  C9  IND d   1       1.031   0.275  -0.273  0.00  0.00    -0.096 A 
ATOM     10  HN1 IND d   1      -1.566  -0.795   0.964  0.00  0.00     0.298 HD
ENDROOT
TORSDOF 0
ENDMDL
