MODEL 1
REMARK minimizedAffinity -3.90192294
REMARK minimizedRMSD -1
REMARK  0 active torsions:
REMARK  status: ('A' for Active; 'I' for Inactive)
ROOT
ATOM      1  N1  IND d   1      -0.745   2.269  -1.978  0.00  0.00    -0.196 N 
ATOM      2  C2  IND d   1      -2.091   2.262  -1.742  0.00  0.00     0.054 A 
ATOM      3  C3  IND d   1      -2.411   1.283  -0.867  0.00  0.00    -0.031 A 
ATOM      4  C4  IND d   1      -0.872  -0.360   0.382  0.00  0.00     0.051 A 
ATOM      5  C5  IND d   1       0.432  -0.762   0.468  0.00  0.00    -0.031 A 
ATOM      6  C6  IND d   1       1.430  -0.160  -0.270  0.00  0.00     0.015 A 
ATOM      7  C7  IND d   1       1.163   0.879  -1.117  0.00  0.00    -0.016 A 
ATOM      8  C8  IND d   1      -0.161   1.285  -1.211  0.00  0.00    -0.047 A 
ATOM      9  C9  IND d   1      -1.185   0.649  -0.497  0.00  0.00    -0.096 A 
ATOM     10  HN1 IND d   1      -0.332   2.800  -2.514  0.00  0.00     0.298 HD
ENDROOT
TORSDOF 0
ENDMDL
