MODEL 1
REMARK minimizedAffinity -2.96337819
REMARK minimizedRMSD -1
REMARK  0 active torsions:
REMARK  status: ('A' for Active; 'I' for Inactive)
ROOT
ATOM      1  N1  IND d   1       0.089   1.119  -0.911  0.00  0.00    -0.196 N 
ATOM      2  C2  IND d   1      -1.209   0.912  -0.534  0.00  0.00     0.054 A 
ATOM      3  C3  IND d   1      -1.302  -0.184   0.251  0.00  0.00    -0.031 A 
ATOM      4  C4  IND d   1       0.560  -1.729   1.130  0.00  0.00     0.051 A 
ATOM      5  C5  IND d   1       1.903  -1.964   1.028  0.00  0.00    -0.031 A 
ATOM      6  C6  IND d   1       2.727  -1.166   0.262  0.00  0.00     0.015 A 
ATOM      7  C7  IND d   1       2.238  -0.091  -0.426  0.00  0.00    -0.016 A 
ATOM      8  C8  IND d   1       0.874   0.146  -0.330  0.00  0.00    -0.047 A 
ATOM      9  C9  IND d   1       0.026  -0.686   0.412  0.00  0.00    -0.096 A 
ATOM     10  HN1 IND d   1       0.369   1.750  -1.424  0.00  0.00     0.298 HD
ENDROOT
TORSDOF 0
ENDMDL
