MODEL 1
REMARK minimizedAffinity -5.03731155
REMARK minimizedRMSD -1
REMARK  0 active torsions:
REMARK  status: ('A' for Active; 'I' for Inactive)
ROOT
ATOM      1  N1  IND d   1      -1.879   1.985  -2.000  0.00  0.00    -0.196 N 
ATOM      2  C2  IND d   1      -2.487   1.187  -2.929  0.00  0.00     0.054 A 
ATOM      3  C3  IND d   1      -2.336   1.708  -4.167  0.00  0.00    -0.031 A 
ATOM      4  C4  IND d   1      -1.043   3.805  -4.913  0.00  0.00     0.051 A 
ATOM      5  C5  IND d   1      -0.354   4.877  -4.420  0.00  0.00    -0.031 A 
ATOM      6  C6  IND d   1      -0.130   5.042  -3.069  0.00  0.00     0.015 A 
ATOM      7  C7  IND d   1      -0.581   4.130  -2.156  0.00  0.00    -0.016 A 
ATOM      8  C8  IND d   1      -1.288   3.044  -2.652  0.00  0.00    -0.047 A 
ATOM      9  C9  IND d   1      -1.554   2.894  -4.019  0.00  0.00    -0.096 A 
ATOM     10  HN1 IND d   1      -1.868   1.848  -1.151  0.00  0.00     0.298 HD
ENDROOT
TORSDOF 0
ENDMDL
