MODEL 1
REMARK minimizedAffinity -2.50186348
REMARK minimizedRMSD -1
REMARK  0 active torsions:
REMARK  status: ('A' for Active; 'I' for Inactive)
ROOT
ATOM      1  C   UNL d   1      -1.023   0.917   2.512  0.00  0.00     0.023 A 
ATOM      2  C1  UNL d   1      -1.858   0.307   1.576  0.00  0.00     0.003 A 
ATOM      3  C2  UNL d   1      -1.399   0.067   0.280  0.00  0.00     0.048 A 
ATOM      4  C3  UNL d   1      -0.102   0.438  -0.074  0.00  0.00     0.023 A 
ATOM      5  C4  UNL d   1       0.738   1.048   0.859  0.00  0.00     0.048 A 
ATOM      6  C5  UNL d   1       0.273   1.287   2.154  0.00  0.00     0.003 A 
ATOM      7  I   UNL d   1       0.585   0.081  -2.003  0.00  0.00    -0.146 I 
ENDROOT
TORSDOF 0
ENDMDL
