MODEL 1
REMARK minimizedAffinity -0.0731449127
REMARK minimizedRMSD -1
REMARK  0 active torsions:
REMARK  status: ('A' for Active; 'I' for Inactive)
ROOT
ATOM      1  C   UNL d   1       1.016   0.152  -4.196  0.00  0.00     0.023 A 
ATOM      2  C1  UNL d   1       0.151  -0.616  -3.416  0.00  0.00     0.003 A 
ATOM      3  C2  UNL d   1       0.417  -0.807  -2.059  0.00  0.00     0.048 A 
ATOM      4  C3  UNL d   1       1.549  -0.227  -1.488  0.00  0.00     0.023 A 
ATOM      5  C4  UNL d   1       2.416   0.543  -2.264  0.00  0.00     0.048 A 
ATOM      6  C5  UNL d   1       2.147   0.731  -3.621  0.00  0.00     0.003 A 
ATOM      7  I   UNL d   1       1.946  -0.510   0.532  0.00  0.00    -0.146 I 
ENDROOT
TORSDOF 0
ENDMDL
