MODEL 1
REMARK minimizedAffinity -2.65000939
REMARK minimizedRMSD -1
REMARK  0 active torsions:
REMARK  status: ('A' for Active; 'I' for Inactive)
ROOT
ATOM      1  C   UNL d   1      -1.160   1.157   2.734  0.00  0.00     0.023 A 
ATOM      2  C1  UNL d   1       0.043   1.683   2.262  0.00  0.00     0.003 A 
ATOM      3  C2  UNL d   1       0.555   1.264   1.033  0.00  0.00     0.048 A 
ATOM      4  C3  UNL d   1      -0.141   0.321   0.279  0.00  0.00     0.023 A 
ATOM      5  C4  UNL d   1      -1.346  -0.208   0.746  0.00  0.00     0.048 A 
ATOM      6  C5  UNL d   1      -1.853   0.212   1.976  0.00  0.00     0.003 A 
ATOM      7  I   UNL d   1       0.619  -0.303  -1.552  0.00  0.00    -0.146 I 
ENDROOT
TORSDOF 0
ENDMDL
