MODEL 1
REMARK minimizedAffinity -3.98305702
REMARK minimizedRMSD -1
REMARK  0 active torsions:
REMARK  status: ('A' for Active; 'I' for Inactive)
ROOT
ATOM      1  C   UNL d   1      -1.492   0.005   2.029  0.00  0.00     0.023 A 
ATOM      2  C1  UNL d   1      -2.135   0.470   0.882  0.00  0.00     0.003 A 
ATOM      3  C2  UNL d   1      -1.520   0.343  -0.365  0.00  0.00     0.048 A 
ATOM      4  C3  UNL d   1      -0.261  -0.250  -0.458  0.00  0.00     0.023 A 
ATOM      5  C4  UNL d   1       0.386  -0.718   0.687  0.00  0.00     0.048 A 
ATOM      6  C5  UNL d   1      -0.233  -0.588   1.932  0.00  0.00     0.003 A 
ATOM      7  I   UNL d   1       0.657  -0.440  -2.313  0.00  0.00    -0.146 I 
ENDROOT
TORSDOF 0
ENDMDL
