MODEL 1
REMARK minimizedAffinity -3.07664919
REMARK minimizedRMSD -1
REMARK  0 active torsions:
REMARK  status: ('A' for Active; 'I' for Inactive)
ROOT
ATOM      1  C   UNL d   1       1.442   1.037   2.122  0.00  0.00     0.023 A 
ATOM      2  C1  UNL d   1       2.161  -0.018   1.560  0.00  0.00     0.003 A 
ATOM      3  C2  UNL d   1       1.704  -0.634   0.394  0.00  0.00     0.048 A 
ATOM      4  C3  UNL d   1       0.526  -0.189  -0.207  0.00  0.00     0.023 A 
ATOM      5  C4  UNL d   1      -0.196   0.866   0.351  0.00  0.00     0.048 A 
ATOM      6  C5  UNL d   1       0.264   1.478   1.518  0.00  0.00     0.003 A 
ATOM      7  I   UNL d   1      -0.157  -1.104  -1.944  0.00  0.00    -0.146 I 
ENDROOT
TORSDOF 0
ENDMDL
