MODEL 1
REMARK minimizedAffinity -2.18566847
REMARK minimizedRMSD -1
REMARK  0 active torsions:
REMARK  status: ('A' for Active; 'I' for Inactive)
ROOT
ATOM      1  C   UNL d   1       0.808  -0.230   1.329  0.00  0.00     0.023 A 
ATOM      2  C1  UNL d   1       0.145   0.773   0.621  0.00  0.00     0.003 A 
ATOM      3  C2  UNL d   1       0.285   0.859  -0.765  0.00  0.00     0.048 A 
ATOM      4  C3  UNL d   1       1.088  -0.062  -1.438  0.00  0.00     0.023 A 
ATOM      5  C4  UNL d   1       1.752  -1.067  -0.734  0.00  0.00     0.048 A 
ATOM      6  C5  UNL d   1       1.610  -1.149   0.653  0.00  0.00     0.003 A 
ATOM      7  I   UNL d   1       1.297   0.065  -3.502  0.00  0.00    -0.146 I 
ENDROOT
TORSDOF 0
ENDMDL
