MODEL 1
REMARK minimizedAffinity -3.56794238
REMARK minimizedRMSD -1
REMARK  0 active torsions:
REMARK  status: ('A' for Active; 'I' for Inactive)
ROOT
ATOM      1  C   UNL d   1      -0.788  -1.140  -0.586  0.00  0.00     0.023 A 
ATOM      2  C1  UNL d   1      -1.838  -0.557   0.124  0.00  0.00     0.003 A 
ATOM      3  C2  UNL d   1      -1.588   0.086   1.338  0.00  0.00     0.048 A 
ATOM      4  C3  UNL d   1      -0.286   0.144   1.835  0.00  0.00     0.023 A 
ATOM      5  C4  UNL d   1       0.767  -0.437   1.127  0.00  0.00     0.048 A 
ATOM      6  C5  UNL d   1       0.512  -1.080  -0.086  0.00  0.00     0.003 A 
ATOM      7  I   UNL d   1       0.088   1.101   3.642  0.00  0.00    -0.146 I 
ENDROOT
TORSDOF 0
ENDMDL
