MODEL 1
REMARK minimizedAffinity 9.95614338
REMARK minimizedRMSD -1
REMARK  0 active torsions:
REMARK  status: ('A' for Active; 'I' for Inactive)
ROOT
ATOM      1  C   UNL d   1       5.997   2.610  -2.751  0.00  0.00     0.077 C 
ATOM      2  C1  UNL d   1       5.304   1.969  -1.586  0.00  0.00    -0.074 A 
ATOM      3  C2  UNL d   1       5.740   2.196  -0.277  0.00  0.00    -0.005 A 
ATOM      4  C3  UNL d   1       5.079   1.601   0.798  0.00  0.00     0.006 A 
ATOM      5  C4  UNL d   1       3.977   0.774   0.574  0.00  0.00    -0.005 A 
ATOM      6  C5  UNL d   1       3.527   0.536  -0.728  0.00  0.00    -0.074 A 
ATOM      7  C6  UNL d   1       2.338  -0.343  -0.986  0.00  0.00     0.077 C 
ATOM      8  C7  UNL d   1       4.192   1.143  -1.802  0.00  0.00    -0.001 A 
ENDROOT
TORSDOF 0
ENDMDL
