MODEL 1
REMARK minimizedAffinity 16.6510162
REMARK minimizedRMSD -1
REMARK  0 active torsions:
REMARK  status: ('A' for Active; 'I' for Inactive)
ROOT
ATOM      1  C   UNL d   1       5.999   2.889  -2.998  0.00  0.00     0.077 C 
ATOM      2  C1  UNL d   1       5.427   2.324  -1.731  0.00  0.00    -0.074 A 
ATOM      3  C2  UNL d   1       6.000   2.618  -0.490  0.00  0.00    -0.005 A 
ATOM      4  C3  UNL d   1       5.451   2.093   0.680  0.00  0.00     0.006 A 
ATOM      5  C4  UNL d   1       4.327   1.269   0.621  0.00  0.00    -0.005 A 
ATOM      6  C5  UNL d   1       3.740   0.964  -0.612  0.00  0.00    -0.074 A 
ATOM      7  C6  UNL d   1       2.525   0.089  -0.692  0.00  0.00     0.077 C 
ATOM      8  C7  UNL d   1       4.292   1.502  -1.782  0.00  0.00    -0.001 A 
ENDROOT
TORSDOF 0
ENDMDL
