MODEL 1
REMARK minimizedAffinity 5.48319578
REMARK minimizedRMSD -1
REMARK  0 active torsions:
REMARK  status: ('A' for Active; 'I' for Inactive)
ROOT
ATOM      1  C   UNL d   1       1.562  -0.252  -0.193  0.00  0.00     0.077 C 
ATOM      2  C1  UNL d   1       2.738   0.667  -0.049  0.00  0.00    -0.074 A 
ATOM      3  C2  UNL d   1       3.133   1.138   1.207  0.00  0.00    -0.005 A 
ATOM      4  C3  UNL d   1       4.235   1.985   1.327  0.00  0.00     0.006 A 
ATOM      5  C4  UNL d   1       4.952   2.369   0.193  0.00  0.00    -0.005 A 
ATOM      6  C5  UNL d   1       4.573   1.907  -1.071  0.00  0.00    -0.074 A 
ATOM      7  C6  UNL d   1       5.340   2.301  -2.299  0.00  0.00     0.077 C 
ATOM      8  C7  UNL d   1       3.469   1.051  -1.183  0.00  0.00    -0.001 A 
ENDROOT
TORSDOF 0
ENDMDL
