MODEL 1
REMARK minimizedAffinity 14.9547367
REMARK minimizedRMSD -1
REMARK  0 active torsions:
REMARK  status: ('A' for Active; 'I' for Inactive)
ROOT
ATOM      1  C   UNL d   1       2.023   0.191  -0.764  0.00  0.00     0.077 C 
ATOM      2  C1  UNL d   1       3.178   1.062  -0.369  0.00  0.00    -0.074 A 
ATOM      3  C2  UNL d   1       3.456   1.321   0.977  0.00  0.00    -0.005 A 
ATOM      4  C3  UNL d   1       4.539   2.125   1.330  0.00  0.00     0.006 A 
ATOM      5  C4  UNL d   1       5.354   2.679   0.342  0.00  0.00    -0.005 A 
ATOM      6  C5  UNL d   1       5.092   2.431  -1.009  0.00  0.00    -0.074 A 
ATOM      7  C6  UNL d   1       5.964   3.011  -2.084  0.00  0.00     0.077 C 
ATOM      8  C7  UNL d   1       4.006   1.616  -1.355  0.00  0.00    -0.001 A 
ENDROOT
TORSDOF 0
ENDMDL
