MODEL 1
REMARK minimizedAffinity 21.6333714
REMARK minimizedRMSD -1
REMARK  0 active torsions:
REMARK  status: ('A' for Active; 'I' for Inactive)
ROOT
ATOM      1  C   UNL d   1       2.629   0.793  -0.229  0.00  0.00     0.077 C 
ATOM      2  C1  UNL d   1       1.863   1.795   0.582  0.00  0.00    -0.074 A 
ATOM      3  C2  UNL d   1       0.889   2.605  -0.010  0.00  0.00    -0.005 A 
ATOM      4  C3  UNL d   1       0.178   3.527   0.759  0.00  0.00     0.006 A 
ATOM      5  C4  UNL d   1       0.433   3.647   2.125  0.00  0.00    -0.005 A 
ATOM      6  C5  UNL d   1       1.403   2.845   2.735  0.00  0.00    -0.074 A 
ATOM      7  C6  UNL d   1       1.683   2.954   4.205  0.00  0.00     0.077 C 
ATOM      8  C7  UNL d   1       2.108   1.916   1.957  0.00  0.00    -0.001 A 
ENDROOT
TORSDOF 0
ENDMDL
