MODEL 1
REMARK minimizedAffinity 5.62337303
REMARK minimizedRMSD -1
REMARK  0 active torsions:
REMARK  status: ('A' for Active; 'I' for Inactive)
ROOT
ATOM      1  C   UNL d   1       6.000   2.578  -2.648  0.00  0.00     0.077 C 
ATOM      2  C1  UNL d   1       4.924   1.739  -2.025  0.00  0.00    -0.074 A 
ATOM      3  C2  UNL d   1       4.244   0.772  -2.772  0.00  0.00    -0.005 A 
ATOM      4  C3  UNL d   1       3.252  -0.008  -2.176  0.00  0.00     0.006 A 
ATOM      5  C4  UNL d   1       2.931   0.172  -0.830  0.00  0.00    -0.005 A 
ATOM      6  C5  UNL d   1       3.601   1.134  -0.068  0.00  0.00    -0.074 A 
ATOM      7  C6  UNL d   1       3.275   1.333   1.383  0.00  0.00     0.077 C 
ATOM      8  C7  UNL d   1       4.601   1.908  -0.672  0.00  0.00    -0.001 A 
ENDROOT
TORSDOF 0
ENDMDL
