MODEL 1
REMARK minimizedAffinity 12.4176235
REMARK minimizedRMSD -1
REMARK  0 active torsions:
REMARK  status: ('A' for Active; 'I' for Inactive)
ROOT
ATOM      1  C   UNL d   1       6.000   2.860  -2.911  0.00  0.00     0.077 C 
ATOM      2  C1  UNL d   1       5.407   2.272  -1.665  0.00  0.00    -0.074 A 
ATOM      3  C2  UNL d   1       5.996   2.492  -0.416  0.00  0.00    -0.005 A 
ATOM      4  C3  UNL d   1       5.427   1.946   0.735  0.00  0.00     0.006 A 
ATOM      5  C4  UNL d   1       4.266   1.177   0.649  0.00  0.00    -0.005 A 
ATOM      6  C5  UNL d   1       3.663   0.948  -0.592  0.00  0.00    -0.074 A 
ATOM      7  C6  UNL d   1       2.409   0.132  -0.701  0.00  0.00     0.077 C 
ATOM      8  C7  UNL d   1       4.236   1.505  -1.743  0.00  0.00    -0.001 A 
ENDROOT
TORSDOF 0
ENDMDL
