MODEL 1
REMARK minimizedAffinity 14.2671738
REMARK minimizedRMSD -1
REMARK  0 active torsions:
REMARK  status: ('A' for Active; 'I' for Inactive)
ROOT
ATOM      1  C   UNL d   1      -6.000  -0.761   0.196  0.00  0.00     0.077 C 
ATOM      2  C1  UNL d   1      -4.597  -0.275  -0.020  0.00  0.00    -0.074 A 
ATOM      3  C2  UNL d   1      -4.289   1.087   0.055  0.00  0.00    -0.005 A 
ATOM      4  C3  UNL d   1      -2.978   1.522  -0.139  0.00  0.00     0.006 A 
ATOM      5  C4  UNL d   1      -1.964   0.602  -0.408  0.00  0.00    -0.005 A 
ATOM      6  C5  UNL d   1      -2.254  -0.764  -0.486  0.00  0.00    -0.074 A 
ATOM      7  C6  UNL d   1      -1.174  -1.767  -0.765  0.00  0.00     0.077 C 
ATOM      8  C7  UNL d   1      -3.572  -1.195  -0.283  0.00  0.00    -0.001 A 
ENDROOT
TORSDOF 0
ENDMDL
