MODEL 1
REMARK minimizedAffinity 7.72976875
REMARK minimizedRMSD -1
REMARK  0 active torsions:
REMARK  status: ('A' for Active; 'I' for Inactive)
ROOT
ATOM      1  C   UNL d   1       5.921   2.506  -2.423  0.00  0.00     0.077 C 
ATOM      2  C1  UNL d   1       5.181   2.080  -1.190  0.00  0.00    -0.074 A 
ATOM      3  C2  UNL d   1       5.633   2.444   0.082  0.00  0.00    -0.005 A 
ATOM      4  C3  UNL d   1       4.929   2.049   1.219  0.00  0.00     0.006 A 
ATOM      5  C4  UNL d   1       3.766   1.287   1.095  0.00  0.00    -0.005 A 
ATOM      6  C5  UNL d   1       3.298   0.914  -0.169  0.00  0.00    -0.074 A 
ATOM      7  C6  UNL d   1       2.045   0.104  -0.320  0.00  0.00     0.077 C 
ATOM      8  C7  UNL d   1       4.008   1.321  -1.306  0.00  0.00    -0.001 A 
ENDROOT
TORSDOF 0
ENDMDL
