MODEL 1
REMARK minimizedAffinity 9.76884365
REMARK minimizedRMSD -1
REMARK  0 active torsions:
REMARK  status: ('A' for Active; 'I' for Inactive)
ROOT
ATOM      1  C4' PXY d   1       3.374  -5.751  -4.223  0.00  0.00     0.077 C 
ATOM      2  C1' PXY d   1       5.998  -2.183  -0.508  0.00  0.00     0.077 C 
ATOM      3  C1  PXY d   1       5.310  -3.128  -1.474  0.00  0.00    -0.082 A 
ATOM      4  C2  PXY d   1       5.395  -2.909  -2.776  0.00  0.00     0.003 A 
ATOM      5  C3  PXY d   1       4.753  -3.736  -3.662  0.00  0.00     0.003 A 
ATOM      6  C4  PXY d   1       4.060  -4.828  -3.212  0.00  0.00    -0.082 A 
ATOM      7  C5  PXY d   1       3.977  -5.064  -1.886  0.00  0.00     0.003 A 
ATOM      8  C6  PXY d   1       4.602  -4.189  -1.001  0.00  0.00     0.003 A 
ENDROOT
TORSDOF 0
ENDMDL
