MODEL 1
REMARK minimizedAffinity 15.0929642
REMARK minimizedRMSD -1
REMARK  0 active torsions:
REMARK  status: ('A' for Active; 'I' for Inactive)
ROOT
ATOM      1  C4' PXY d   1      -1.216   2.336   2.832  0.00  0.00     0.077 C 
ATOM      2  C1' PXY d   1       0.906   5.336  -1.631  0.00  0.00     0.077 C 
ATOM      3  C1  PXY d   1       0.359   4.541  -0.461  0.00  0.00    -0.082 A 
ATOM      4  C2  PXY d   1      -0.939   4.559  -0.207  0.00  0.00     0.003 A 
ATOM      5  C3  PXY d   1      -1.446   3.872   0.866  0.00  0.00     0.003 A 
ATOM      6  C4  PXY d   1      -0.622   3.116   1.656  0.00  0.00    -0.082 A 
ATOM      7  C5  PXY d   1       0.703   3.083   1.397  0.00  0.00     0.003 A 
ATOM      8  C6  PXY d   1       1.203   3.821   0.328  0.00  0.00     0.003 A 
ENDROOT
TORSDOF 0
ENDMDL
