MODEL 1
REMARK minimizedAffinity 4.94520998
REMARK minimizedRMSD -1
REMARK  0 active torsions:
REMARK  status: ('A' for Active; 'I' for Inactive)
ROOT
ATOM      1  C4' PXY d   1       1.155   1.078   2.946  0.00  0.00     0.077 C 
ATOM      2  C1' PXY d   1      -1.505   5.042  -0.314  0.00  0.00     0.077 C 
ATOM      3  C1  PXY d   1      -0.817   4.003   0.550  0.00  0.00    -0.082 A 
ATOM      4  C2  PXY d   1       0.491   3.830   0.448  0.00  0.00     0.003 A 
ATOM      5  C3  PXY d   1       1.124   2.873   1.199  0.00  0.00     0.003 A 
ATOM      6  C4  PXY d   1       0.420   2.121   2.101  0.00  0.00    -0.082 A 
ATOM      7  C5  PXY d   1      -0.913   2.299   2.218  0.00  0.00     0.003 A 
ATOM      8  C6  PXY d   1      -1.544   3.248   1.418  0.00  0.00     0.003 A 
ENDROOT
TORSDOF 0
ENDMDL
