MODEL 1
REMARK minimizedAffinity 3.08572125
REMARK minimizedRMSD -1
REMARK  0 active torsions:
REMARK  status: ('A' for Active; 'I' for Inactive)
ROOT
ATOM      1  C4' PXY d   1      -0.145   3.429   0.543  0.00  0.00     0.077 C 
ATOM      2  C1' PXY d   1      -1.161  -1.457  -2.375  0.00  0.00     0.077 C 
ATOM      3  C1  PXY d   1      -0.907  -0.171  -1.613  0.00  0.00    -0.082 A 
ATOM      4  C2  PXY d   1       0.337   0.232  -1.408  0.00  0.00     0.003 A 
ATOM      5  C3  PXY d   1       0.586   1.376  -0.693  0.00  0.00     0.003 A 
ATOM      6  C4  PXY d   1      -0.450   2.142  -0.229  0.00  0.00    -0.082 A 
ATOM      7  C5  PXY d   1      -1.721   1.743  -0.444  0.00  0.00     0.003 A 
ATOM      8  C6  PXY d   1      -1.952   0.558  -1.136  0.00  0.00     0.003 A 
ENDROOT
TORSDOF 0
ENDMDL
