MODEL 1
REMARK minimizedAffinity 1.42305696
REMARK minimizedRMSD -1
REMARK  0 active torsions:
REMARK  status: ('A' for Active; 'I' for Inactive)
ROOT
ATOM      1  C4' PXY d   1      -0.955   4.431  -0.014  0.00  0.00     0.077 C 
ATOM      2  C1' PXY d   1      -3.711  -0.035   2.409  0.00  0.00     0.077 C 
ATOM      3  C1  PXY d   1      -2.988   1.130   1.762  0.00  0.00    -0.082 A 
ATOM      4  C2  PXY d   1      -2.263   1.947   2.510  0.00  0.00     0.003 A 
ATOM      5  C3  PXY d   1      -1.629   3.024   1.946  0.00  0.00     0.003 A 
ATOM      6  C4  PXY d   1      -1.694   3.236   0.595  0.00  0.00    -0.082 A 
ATOM      7  C5  PXY d   1      -2.423   2.402  -0.176  0.00  0.00     0.003 A 
ATOM      8  C6  PXY d   1      -3.093   1.338   0.422  0.00  0.00     0.003 A 
ENDROOT
TORSDOF 0
ENDMDL
