MODEL 1
REMARK minimizedAffinity 9.42441082
REMARK minimizedRMSD -1
REMARK  0 active torsions:
REMARK  status: ('A' for Active; 'I' for Inactive)
ROOT
ATOM      1  C4' PXY d   1      -0.032   3.026   0.753  0.00  0.00     0.077 C 
ATOM      2  C1' PXY d   1       1.127  -1.022   4.712  0.00  0.00     0.077 C 
ATOM      3  C1  PXY d   1       0.811   0.036   3.674  0.00  0.00    -0.082 A 
ATOM      4  C2  PXY d   1       1.774   0.491   2.890  0.00  0.00     0.003 A 
ATOM      5  C3  PXY d   1       1.512   1.471   1.967  0.00  0.00     0.003 A 
ATOM      6  C4  PXY d   1       0.239   1.952   1.809  0.00  0.00    -0.082 A 
ATOM      7  C5  PXY d   1      -0.751   1.484   2.598  0.00  0.00     0.003 A 
ATOM      8  C6  PXY d   1      -0.456   0.519   3.557  0.00  0.00     0.003 A 
ENDROOT
TORSDOF 0
ENDMDL
