MODEL 1
REMARK minimizedAffinity 13.8302813
REMARK minimizedRMSD -1
REMARK  0 active torsions:
REMARK  status: ('A' for Active; 'I' for Inactive)
ROOT
ATOM      1  C4' PXY d   1       4.481  -2.903  -4.097  0.00  0.00     0.077 C 
ATOM      2  C1' PXY d   1       5.604  -5.998   0.654  0.00  0.00     0.077 C 
ATOM      3  C1  PXY d   1       5.305  -5.197  -0.598  0.00  0.00    -0.082 A 
ATOM      4  C2  PXY d   1       5.972  -4.079  -0.834  0.00  0.00     0.003 A 
ATOM      5  C3  PXY d   1       5.692  -3.326  -1.945  0.00  0.00     0.003 A 
ATOM      6  C4  PXY d   1       4.756  -3.749  -2.851  0.00  0.00    -0.082 A 
ATOM      7  C5  PXY d   1       4.079  -4.894  -2.622  0.00  0.00     0.003 A 
ATOM      8  C6  PXY d   1       4.349  -5.623  -1.468  0.00  0.00     0.003 A 
ENDROOT
TORSDOF 0
ENDMDL
