MODEL 1
REMARK minimizedAffinity 9.66563797
REMARK minimizedRMSD -1
REMARK  0 active torsions:
REMARK  status: ('A' for Active; 'I' for Inactive)
ROOT
ATOM      1  C4' PXY d   1       1.502   1.876   1.696  0.00  0.00     0.077 C 
ATOM      2  C1' PXY d   1      -1.480   6.000  -1.045  0.00  0.00     0.077 C 
ATOM      3  C1  PXY d   1      -0.687   4.923  -0.331  0.00  0.00    -0.082 A 
ATOM      4  C2  PXY d   1      -1.273   3.781  -0.013  0.00  0.00     0.003 A 
ATOM      5  C3  PXY d   1      -0.580   2.809   0.661  0.00  0.00     0.003 A 
ATOM      6  C4  PXY d   1       0.743   2.988   0.967  0.00  0.00    -0.082 A 
ATOM      7  C5  PXY d   1       1.351   4.146   0.637  0.00  0.00     0.003 A 
ATOM      8  C6  PXY d   1       0.618   5.137  -0.011  0.00  0.00     0.003 A 
ENDROOT
TORSDOF 0
ENDMDL
