MODEL 1
REMARK minimizedAffinity 12.218771
REMARK minimizedRMSD -1
REMARK  0 active torsions:
REMARK  status: ('A' for Active; 'I' for Inactive)
ROOT
ATOM      1  C4' PXY d   1       1.043  -0.159  -0.550  0.00  0.00     0.077 C 
ATOM      2  C1' PXY d   1       5.862  -3.351  -0.482  0.00  0.00     0.077 C 
ATOM      3  C1  PXY d   1       4.591  -2.524  -0.497  0.00  0.00    -0.082 A 
ATOM      4  C2  PXY d   1       4.570  -1.369  -1.142  0.00  0.00     0.003 A 
ATOM      5  C3  PXY d   1       3.439  -0.594  -1.139  0.00  0.00     0.003 A 
ATOM      6  C4  PXY d   1       2.301  -1.031  -0.515  0.00  0.00    -0.082 A 
ATOM      7  C5  PXY d   1       2.312  -2.214   0.136  0.00  0.00     0.003 A 
ATOM      8  C6  PXY d   1       3.483  -2.966   0.156  0.00  0.00     0.003 A 
ENDROOT
TORSDOF 0
ENDMDL
