MODEL 1
REMARK minimizedAffinity 3.46055841
REMARK minimizedRMSD -1
REMARK  0 active torsions:
REMARK  status: ('A' for Active; 'I' for Inactive)
ROOT
ATOM      1  C4' PXY d   1       3.075  -2.162   5.979  0.00  0.00     0.077 C 
ATOM      2  C1' PXY d   1      -0.626   1.276   3.168  0.00  0.00     0.077 C 
ATOM      3  C1  PXY d   1       0.337   0.374   3.916  0.00  0.00    -0.082 A 
ATOM      4  C2  PXY d   1       1.620   0.376   3.593  0.00  0.00     0.003 A 
ATOM      5  C3  PXY d   1       2.499  -0.457   4.237  0.00  0.00     0.003 A 
ATOM      6  C4  PXY d   1       2.069  -1.261   5.257  0.00  0.00    -0.082 A 
ATOM      7  C5  PXY d   1       0.763  -1.262   5.600  0.00  0.00     0.003 A 
ATOM      8  C6  PXY d   1      -0.120  -0.439   4.906  0.00  0.00     0.003 A 
ENDROOT
TORSDOF 0
ENDMDL
