MODEL 1
REMARK minimizedAffinity -3.57734728
REMARK minimizedRMSD -1
REMARK  0 active torsions:
REMARK  status: ('A' for Active; 'I' for Inactive)
ROOT
ATOM      1  C   UNL d   1       0.390  -1.863   0.130  0.00  0.00     0.023 A 
ATOM      2  C1  UNL d   1      -0.885  -1.334  -0.075  0.00  0.00     0.003 A 
ATOM      3  C2  UNL d   1      -1.094   0.043   0.019  0.00  0.00     0.048 A 
ATOM      4  C3  UNL d   1      -0.024   0.886   0.317  0.00  0.00     0.023 A 
ATOM      5  C4  UNL d   1       1.253   0.362   0.521  0.00  0.00     0.048 A 
ATOM      6  C5  UNL d   1       1.457  -1.016   0.427  0.00  0.00     0.003 A 
ATOM      7  I   UNL d   1      -0.333   2.937   0.457  0.00  0.00    -0.146 I 
ENDROOT
TORSDOF 0
ENDMDL
