MODEL 1
REMARK minimizedAffinity -1.20445776
REMARK minimizedRMSD -1
REMARK  0 active torsions:
REMARK  status: ('A' for Active; 'I' for Inactive)
ROOT
ATOM      1  C   UNL d   1       0.572   1.943   0.262  0.00  0.00     0.023 A 
ATOM      2  C1  UNL d   1       1.710   1.182  -0.005  0.00  0.00     0.003 A 
ATOM      3  C2  UNL d   1       1.588  -0.173  -0.320  0.00  0.00     0.048 A 
ATOM      4  C3  UNL d   1       0.324  -0.760  -0.367  0.00  0.00     0.023 A 
ATOM      5  C4  UNL d   1      -0.817  -0.003  -0.101  0.00  0.00     0.048 A 
ATOM      6  C5  UNL d   1      -0.690   1.351   0.214  0.00  0.00     0.003 A 
ATOM      7  I   UNL d   1       0.140  -2.777  -0.835  0.00  0.00    -0.146 I 
ENDROOT
TORSDOF 0
ENDMDL
