MODEL 1
REMARK minimizedAffinity -4.84870863
REMARK minimizedRMSD -1
REMARK  0 active torsions:
REMARK  status: ('A' for Active; 'I' for Inactive)
ROOT
ATOM      1  C   UNL d   1       1.575   3.400   0.689  0.00  0.00     0.023 A 
ATOM      2  C1  UNL d   1       0.226   3.112   0.482  0.00  0.00     0.003 A 
ATOM      3  C2  UNL d   1      -0.188   1.790   0.309  0.00  0.00     0.048 A 
ATOM      4  C3  UNL d   1       0.752   0.760   0.347  0.00  0.00     0.023 A 
ATOM      5  C4  UNL d   1       2.102   1.044   0.556  0.00  0.00     0.048 A 
ATOM      6  C5  UNL d   1       2.512   2.368   0.727  0.00  0.00     0.003 A 
ATOM      7  I   UNL d   1       0.138  -1.209   0.092  0.00  0.00    -0.146 I 
ENDROOT
TORSDOF 0
ENDMDL
