MODEL 1
REMARK minimizedAffinity -4.56743574
REMARK minimizedRMSD -1
REMARK  0 active torsions:
REMARK  status: ('A' for Active; 'I' for Inactive)
ROOT
ATOM      1  C   UNL d   1      -0.682   2.554   0.034  0.00  0.00     0.023 A 
ATOM      2  C1  UNL d   1       0.567   2.036  -0.308  0.00  0.00     0.003 A 
ATOM      3  C2  UNL d   1       0.733   0.658  -0.465  0.00  0.00     0.048 A 
ATOM      4  C3  UNL d   1      -0.354  -0.195  -0.279  0.00  0.00     0.023 A 
ATOM      5  C4  UNL d   1      -1.606   0.319   0.062  0.00  0.00     0.048 A 
ATOM      6  C5  UNL d   1      -1.767   1.697   0.219  0.00  0.00     0.003 A 
ATOM      7  I   UNL d   1      -0.109  -2.246  -0.512  0.00  0.00    -0.146 I 
ENDROOT
TORSDOF 0
ENDMDL
