MODEL 1
REMARK minimizedAffinity -4.14693689
REMARK minimizedRMSD -1
REMARK  0 active torsions:
REMARK  status: ('A' for Active; 'I' for Inactive)
ROOT
ATOM      1  C   UNL d   1       2.369  -1.316   0.737  0.00  0.00     0.023 A 
ATOM      2  C1  UNL d   1       1.011  -1.624   0.822  0.00  0.00     0.003 A 
ATOM      3  C2  UNL d   1       0.053  -0.638   0.577  0.00  0.00     0.048 A 
ATOM      4  C3  UNL d   1       0.460   0.654   0.244  0.00  0.00     0.023 A 
ATOM      5  C4  UNL d   1       1.818   0.967   0.157  0.00  0.00     0.048 A 
ATOM      6  C5  UNL d   1       2.772  -0.022   0.404  0.00  0.00     0.003 A 
ATOM      7  I   UNL d   1      -0.964   2.123  -0.122  0.00  0.00    -0.146 I 
ENDROOT
TORSDOF 0
ENDMDL
