MODEL 1
REMARK minimizedAffinity -2.2480166
REMARK minimizedRMSD -1
REMARK  0 active torsions:
REMARK  status: ('A' for Active; 'I' for Inactive)
ROOT
ATOM      1  C   UNL d   1      -0.374   2.583   0.539  0.00  0.00     0.023 A 
ATOM      2  C1  UNL d   1       0.796   2.021   0.028  0.00  0.00     0.003 A 
ATOM      3  C2  UNL d   1       0.867   0.646  -0.208  0.00  0.00     0.048 A 
ATOM      4  C3  UNL d   1      -0.237  -0.160   0.067  0.00  0.00     0.023 A 
ATOM      5  C4  UNL d   1      -1.410   0.397   0.578  0.00  0.00     0.048 A 
ATOM      6  C5  UNL d   1      -1.476   1.772   0.814  0.00  0.00     0.003 A 
ATOM      7  I   UNL d   1      -0.134  -2.206  -0.284  0.00  0.00    -0.146 I 
ENDROOT
TORSDOF 0
ENDMDL
