MODEL 1
REMARK minimizedAffinity -4.59800673
REMARK minimizedRMSD -1
REMARK  0 active torsions:
REMARK  status: ('A' for Active; 'I' for Inactive)
ROOT
ATOM      1  C   UNL d   1      -0.395   2.699   0.321  0.00  0.00     0.023 A 
ATOM      2  C1  UNL d   1       0.775   2.173  -0.229  0.00  0.00     0.003 A 
ATOM      3  C2  UNL d   1       0.828   0.829  -0.606  0.00  0.00     0.048 A 
ATOM      4  C3  UNL d   1      -0.292   0.017  -0.430  0.00  0.00     0.023 A 
ATOM      5  C4  UNL d   1      -1.464   0.539   0.119  0.00  0.00     0.048 A 
ATOM      6  C5  UNL d   1      -1.513   1.882   0.495  0.00  0.00     0.003 A 
ATOM      7  I   UNL d   1      -0.214  -1.983  -0.990  0.00  0.00    -0.146 I 
ENDROOT
TORSDOF 0
ENDMDL
