MODEL 1
REMARK minimizedAffinity -3.54574466
REMARK minimizedRMSD -1
REMARK  0 active torsions:
REMARK  status: ('A' for Active; 'I' for Inactive)
ROOT
ATOM      1  C   UNL d   1       0.471   2.880   0.724  0.00  0.00     0.023 A 
ATOM      2  C1  UNL d   1      -0.805   2.366   0.492  0.00  0.00     0.003 A 
ATOM      3  C2  UNL d   1      -0.966   1.019   0.162  0.00  0.00     0.048 A 
ATOM      4  C3  UNL d   1       0.152   0.191   0.066  0.00  0.00     0.023 A 
ATOM      5  C4  UNL d   1       1.430   0.701   0.298  0.00  0.00     0.048 A 
ATOM      6  C5  UNL d   1       1.587   2.049   0.627  0.00  0.00     0.003 A 
ATOM      7  I   UNL d   1      -0.086  -1.814  -0.426  0.00  0.00    -0.146 I 
ENDROOT
TORSDOF 0
ENDMDL
