MODEL 1
REMARK minimizedAffinity -1.64783299
REMARK minimizedRMSD -1
REMARK  0 active torsions:
REMARK  status: ('A' for Active; 'I' for Inactive)
ROOT
ATOM      1  C   UNL d   1      -0.030   1.252   0.707  0.00  0.00     0.023 A 
ATOM      2  C1  UNL d   1       1.012   0.540   0.112  0.00  0.00     0.003 A 
ATOM      3  C2  UNL d   1       0.735  -0.595  -0.653  0.00  0.00     0.048 A 
ATOM      4  C3  UNL d   1      -0.585  -1.011  -0.821  0.00  0.00     0.023 A 
ATOM      5  C4  UNL d   1      -1.631  -0.301  -0.228  0.00  0.00     0.048 A 
ATOM      6  C5  UNL d   1      -1.349   0.832   0.537  0.00  0.00     0.003 A 
ATOM      7  I   UNL d   1      -0.999  -2.699  -1.960  0.00  0.00    -0.146 I 
ENDROOT
TORSDOF 0
ENDMDL
