MODEL 1
REMARK minimizedAffinity -3.58946991
REMARK minimizedRMSD -1
REMARK  0 active torsions:
REMARK  status: ('A' for Active; 'I' for Inactive)
ROOT
ATOM      1  C   UNL d   1       0.151   2.676   0.909  0.00  0.00     0.023 A 
ATOM      2  C1  UNL d   1       1.289   1.903   0.678  0.00  0.00     0.003 A 
ATOM      3  C2  UNL d   1       1.160   0.562   0.310  0.00  0.00     0.048 A 
ATOM      4  C3  UNL d   1      -0.109   0.001   0.173  0.00  0.00     0.023 A 
ATOM      5  C4  UNL d   1      -1.250   0.771   0.402  0.00  0.00     0.048 A 
ATOM      6  C5  UNL d   1      -1.117   2.111   0.771  0.00  0.00     0.003 A 
ATOM      7  I   UNL d   1      -0.302  -1.995  -0.375  0.00  0.00    -0.146 I 
ENDROOT
TORSDOF 0
ENDMDL
