MODEL 1
REMARK minimizedAffinity 3.48109818
REMARK minimizedRMSD -1
REMARK  1 active torsions:
REMARK  status: ('A' for Active; 'I' for Inactive)
REMARK    1  A    between atoms: C1_2  and  C2_3 
ROOT
ATOM      1  C2  UNL d   1       3.877   1.966  -3.732  0.00  0.00    -0.077 A 
ATOM      2  C3  UNL d   1       5.200   1.504  -3.743  0.00  0.00     0.002 A 
ATOM      3  C4  UNL d   1       6.000   1.679  -4.874  0.00  0.00     0.002 A 
ATOM      4  C5  UNL d   1       5.487   2.319  -6.000  0.00  0.00    -0.004 A 
ATOM      5  C6  UNL d   1       4.171   2.781  -5.999  0.00  0.00     0.002 A 
ATOM      6  C7  UNL d   1       3.370   2.606  -4.870  0.00  0.00     0.002 A 
ENDROOT
BRANCH   1   7
ATOM      7  C1  UNL d   1       3.028   1.823  -2.495  0.00  0.00     0.055 C 
ATOM      8  C   UNL d   1       3.378   0.556  -1.728  0.00  0.00     0.019 C 
ENDBRANCH   1   7
TORSDOF 1
ENDMDL
