MODEL 1
REMARK minimizedAffinity 8.07990265
REMARK minimizedRMSD -1
REMARK  1 active torsions:
REMARK  status: ('A' for Active; 'I' for Inactive)
REMARK    1  A    between atoms: C1_2  and  C2_3 
ROOT
ATOM      1  C2  UNL d   1      -4.708   0.351   2.701  0.00  0.00    -0.077 A 
ATOM      2  C3  UNL d   1      -5.912   1.060   2.585  0.00  0.00     0.002 A 
ATOM      3  C4  UNL d   1      -5.996   2.178   1.752  0.00  0.00     0.002 A 
ATOM      4  C5  UNL d   1      -4.882   2.593   1.026  0.00  0.00    -0.004 A 
ATOM      5  C6  UNL d   1      -3.679   1.896   1.136  0.00  0.00     0.002 A 
ATOM      6  C7  UNL d   1      -3.593   0.779   1.969  0.00  0.00     0.002 A 
ENDROOT
BRANCH   1   7
ATOM      7  C1  UNL d   1      -4.628  -0.883   3.560  0.00  0.00     0.055 C 
ATOM      8  C   UNL d   1      -6.000  -1.280   4.086  0.00  0.00     0.019 C 
ENDBRANCH   1   7
TORSDOF 1
ENDMDL
