MODEL 1
REMARK minimizedAffinity 7.78769636
REMARK minimizedRMSD -1
REMARK  1 active torsions:
REMARK  status: ('A' for Active; 'I' for Inactive)
REMARK    1  A    between atoms: C1_2  and  C2_3 
ROOT
ATOM      1  C2  UNL d   1      -3.246   3.506  -5.867  0.00  0.00    -0.077 A 
ATOM      2  C3  UNL d   1      -2.487   4.684  -5.822  0.00  0.00     0.002 A 
ATOM      3  C4  UNL d   1      -3.113   5.921  -5.654  0.00  0.00     0.002 A 
ATOM      4  C5  UNL d   1      -4.499   5.991  -5.525  0.00  0.00    -0.004 A 
ATOM      5  C6  UNL d   1      -5.262   4.825  -5.570  0.00  0.00     0.002 A 
ATOM      6  C7  UNL d   1      -4.638   3.588  -5.740  0.00  0.00     0.002 A 
ENDROOT
BRANCH   1   7
ATOM      7  C1  UNL d   1      -2.568   2.167  -5.999  0.00  0.00     0.055 C 
ATOM      8  C   UNL d   1      -1.053   2.307  -5.973  0.00  0.00     0.019 C 
ENDBRANCH   1   7
TORSDOF 1
ENDMDL
