MODEL 1
REMARK minimizedAffinity 10.119401
REMARK minimizedRMSD -1
REMARK  1 active torsions:
REMARK  status: ('A' for Active; 'I' for Inactive)
REMARK    1  A    between atoms: C1_2  and  C2_3 
ROOT
ATOM      1  C2  UNL d   1       3.803   0.388  -3.974  0.00  0.00    -0.077 A 
ATOM      2  C3  UNL d   1       4.908   1.089  -4.478  0.00  0.00     0.002 A 
ATOM      3  C4  UNL d   1       6.000   1.372  -3.655  0.00  0.00     0.002 A 
ATOM      4  C5  UNL d   1       5.999   0.954  -2.326  0.00  0.00    -0.004 A 
ATOM      5  C6  UNL d   1       4.905   0.258  -1.815  0.00  0.00     0.002 A 
ATOM      6  C7  UNL d   1       3.812  -0.024  -2.635  0.00  0.00     0.002 A 
ENDROOT
BRANCH   1   7
ATOM      7  C1  UNL d   1       2.645   0.039  -4.872  0.00  0.00     0.055 C 
ATOM      8  C   UNL d   1       1.583   1.129  -4.856  0.00  0.00     0.019 C 
ENDBRANCH   1   7
TORSDOF 1
ENDMDL
