MODEL 1
REMARK minimizedAffinity 6.39459944
REMARK minimizedRMSD -1
REMARK  1 active torsions:
REMARK  status: ('A' for Active; 'I' for Inactive)
REMARK    1  A    between atoms: C1_2  and  C2_3 
ROOT
ATOM      1  C2  UNL d   1       1.695   0.591  -2.246  0.00  0.00    -0.077 A 
ATOM      2  C3  UNL d   1       2.839  -0.154  -1.925  0.00  0.00     0.002 A 
ATOM      3  C4  UNL d   1       3.026  -0.637  -0.629  0.00  0.00     0.002 A 
ATOM      4  C5  UNL d   1       2.072  -0.385   0.355  0.00  0.00    -0.004 A 
ATOM      5  C6  UNL d   1       0.932   0.356   0.046  0.00  0.00     0.002 A 
ATOM      6  C7  UNL d   1       0.744   0.841  -1.249  0.00  0.00     0.002 A 
ENDROOT
BRANCH   1   7
ATOM      7  C1  UNL d   1       1.467   1.071  -3.656  0.00  0.00     0.055 C 
ATOM      8  C   UNL d   1       1.012  -0.065  -4.561  0.00  0.00     0.019 C 
ENDBRANCH   1   7
TORSDOF 1
ENDMDL
