MODEL 1
REMARK minimizedAffinity 4.28789377
REMARK minimizedRMSD -1
REMARK  1 active torsions:
REMARK  status: ('A' for Active; 'I' for Inactive)
REMARK    1  A    between atoms: C1_2  and  C2_3 
ROOT
ATOM      1  C2  UNL d   1       2.716   2.180   1.860  0.00  0.00    -0.077 A 
ATOM      2  C3  UNL d   1       3.015   2.911   0.701  0.00  0.00     0.002 A 
ATOM      3  C4  UNL d   1       2.283   2.707  -0.470  0.00  0.00     0.002 A 
ATOM      4  C5  UNL d   1       1.246   1.778  -0.493  0.00  0.00    -0.004 A 
ATOM      5  C6  UNL d   1       0.942   1.045   0.653  0.00  0.00     0.002 A 
ATOM      6  C7  UNL d   1       1.673   1.246   1.825  0.00  0.00     0.002 A 
ENDROOT
BRANCH   1   7
ATOM      7  C1  UNL d   1       3.472   2.433   3.138  0.00  0.00     0.055 C 
ATOM      8  C   UNL d   1       4.871   1.837   3.081  0.00  0.00     0.019 C 
ENDBRANCH   1   7
TORSDOF 1
ENDMDL
