MODEL 1
REMARK minimizedAffinity 3.17796087
REMARK minimizedRMSD -1
REMARK  1 active torsions:
REMARK  status: ('A' for Active; 'I' for Inactive)
REMARK    1  A    between atoms: C1_2  and  C2_3 
ROOT
ATOM      1  C2  UNL d   1      -0.112   3.001  -5.948  0.00  0.00    -0.077 A 
ATOM      2  C3  UNL d   1       1.095   3.712  -6.000  0.00  0.00     0.002 A 
ATOM      3  C4  UNL d   1       2.315   3.033  -5.999  0.00  0.00     0.002 A 
ATOM      4  C5  UNL d   1       2.339   1.640  -5.950  0.00  0.00    -0.004 A 
ATOM      5  C6  UNL d   1       1.144   0.925  -5.896  0.00  0.00     0.002 A 
ATOM      6  C7  UNL d   1      -0.076   1.602  -5.895  0.00  0.00     0.002 A 
ENDROOT
BRANCH   1   7
ATOM      7  C1  UNL d   1      -1.430   3.729  -5.998  0.00  0.00     0.055 C 
ATOM      8  C   UNL d   1      -1.509   4.806  -4.926  0.00  0.00     0.019 C 
ENDBRANCH   1   7
TORSDOF 1
ENDMDL
