MODEL 1
REMARK minimizedAffinity 12.8021593
REMARK minimizedRMSD -1
REMARK  1 active torsions:
REMARK  status: ('A' for Active; 'I' for Inactive)
REMARK    1  A    between atoms: C1_2  and  C2_3 
ROOT
ATOM      1  C2  UNL d   1       4.638   4.621   5.000  0.00  0.00    -0.077 A 
ATOM      2  C3  UNL d   1       4.049   5.410   5.997  0.00  0.00     0.002 A 
ATOM      3  C4  UNL d   1       2.796   5.990   5.791  0.00  0.00     0.002 A 
ATOM      4  C5  UNL d   1       2.120   5.784   4.590  0.00  0.00    -0.004 A 
ATOM      5  C6  UNL d   1       2.699   5.002   3.590  0.00  0.00     0.002 A 
ATOM      6  C7  UNL d   1       3.952   4.423   3.795  0.00  0.00     0.002 A 
ENDROOT
BRANCH   1   7
ATOM      7  C1  UNL d   1       5.968   3.954   5.240  0.00  0.00     0.055 C 
ATOM      8  C   UNL d   1       5.929   2.485   4.846  0.00  0.00     0.019 C 
ENDBRANCH   1   7
TORSDOF 1
ENDMDL
