MODEL 1
REMARK minimizedAffinity 2.29638863
REMARK minimizedRMSD -1
REMARK  1 active torsions:
REMARK  status: ('A' for Active; 'I' for Inactive)
REMARK    1  A    between atoms: C1_2  and  C2_3 
ROOT
ATOM      1  C2  UNL d   1      -3.125   4.058  -5.986  0.00  0.00    -0.077 A 
ATOM      2  C3  UNL d   1      -4.146   5.018  -5.988  0.00  0.00     0.002 A 
ATOM      3  C4  UNL d   1      -5.485   4.626  -5.952  0.00  0.00     0.002 A 
ATOM      4  C5  UNL d   1      -5.815   3.273  -5.910  0.00  0.00    -0.004 A 
ATOM      5  C6  UNL d   1      -4.807   2.310  -5.910  0.00  0.00     0.002 A 
ATOM      6  C7  UNL d   1      -3.468   2.700  -5.947  0.00  0.00     0.002 A 
ENDROOT
BRANCH   1   7
ATOM      7  C1  UNL d   1      -1.679   4.480  -5.975  0.00  0.00     0.055 C 
ATOM      8  C   UNL d   1      -1.545   5.996  -5.994  0.00  0.00     0.019 C 
ENDBRANCH   1   7
TORSDOF 1
ENDMDL
