MODEL 1
REMARK minimizedAffinity 0.00910023041
REMARK minimizedRMSD -1
REMARK  1 active torsions:
REMARK  status: ('A' for Active; 'I' for Inactive)
REMARK    1  A    between atoms: C1_2  and  C2_3 
ROOT
ATOM      1  C2  UNL d   1       3.001   5.278   3.200  0.00  0.00    -0.077 A 
ATOM      2  C3  UNL d   1       1.950   5.921   3.870  0.00  0.00     0.002 A 
ATOM      3  C4  UNL d   1       1.943   5.996   5.264  0.00  0.00     0.002 A 
ATOM      4  C5  UNL d   1       2.985   5.436   5.999  0.00  0.00    -0.004 A 
ATOM      5  C6  UNL d   1       4.033   4.792   5.342  0.00  0.00     0.002 A 
ATOM      6  C7  UNL d   1       4.042   4.715   3.949  0.00  0.00     0.002 A 
ENDROOT
BRANCH   1   7
ATOM      7  C1  UNL d   1       3.035   5.239   1.694  0.00  0.00     0.055 C 
ATOM      8  C   UNL d   1       2.902   3.815   1.175  0.00  0.00     0.019 C 
ENDBRANCH   1   7
TORSDOF 1
ENDMDL
