MODEL 1
REMARK minimizedAffinity 15.3604956
REMARK minimizedRMSD -1
REMARK  1 active torsions:
REMARK  status: ('A' for Active; 'I' for Inactive)
REMARK    1  A    between atoms: C1_2  and  C2_3 
ROOT
ATOM      1  C2  UNL d   1       3.433   1.948  -5.840  0.00  0.00    -0.077 A 
ATOM      2  C3  UNL d   1       3.103   3.308  -5.919  0.00  0.00     0.002 A 
ATOM      3  C4  UNL d   1       4.108   4.275  -5.996  0.00  0.00     0.002 A 
ATOM      4  C5  UNL d   1       5.447   3.892  -5.999  0.00  0.00    -0.004 A 
ATOM      5  C6  UNL d   1       5.785   2.542  -5.920  0.00  0.00     0.002 A 
ATOM      6  C7  UNL d   1       4.783   1.574  -5.841  0.00  0.00     0.002 A 
ENDROOT
BRANCH   1   7
ATOM      7  C1  UNL d   1       2.350   0.901  -5.807  0.00  0.00     0.055 C 
ATOM      8  C   UNL d   1       1.183   1.339  -4.935  0.00  0.00     0.019 C 
ENDBRANCH   1   7
TORSDOF 1
ENDMDL
