MODEL 1
REMARK minimizedAffinity -0.586231649
REMARK minimizedRMSD -1
REMARK  1 active torsions:
REMARK  status: ('A' for Active; 'I' for Inactive)
REMARK    1  A    between atoms: C1_2  and  C2_3 
ROOT
ATOM      1  C2  UNL d   1      -0.440  -1.396  -3.226  0.00  0.00    -0.073 A 
ATOM      2  C3  UNL d   1       0.272  -2.575  -2.975  0.00  0.00    -0.002 A 
ATOM      3  C4  UNL d   1       0.411  -3.050  -1.671  0.00  0.00     0.004 A 
ATOM      4  C5  UNL d   1      -0.165  -2.357  -0.606  0.00  0.00    -0.004 A 
ATOM      5  C6  UNL d   1      -0.889  -1.184  -0.837  0.00  0.00    -0.075 A 
ATOM      6  C7  UNL d   1      -1.512  -0.425   0.298  0.00  0.00     0.076 C 
ATOM      7  C8  UNL d   1      -1.022  -0.711  -2.150  0.00  0.00     0.001 A 
ENDROOT
BRANCH   1   8
ATOM      8  C1  UNL d   1      -0.598  -0.882  -4.633  0.00  0.00     0.053 C 
ATOM      9  C   UNL d   1       0.388   0.232  -4.948  0.00  0.00     0.018 C 
ENDBRANCH   1   8
TORSDOF 1
ENDMDL
