MODEL 1
REMARK minimizedAffinity -6.61252022
REMARK minimizedRMSD -1
REMARK  1 active torsions:
REMARK  status: ('A' for Active; 'I' for Inactive)
REMARK    1  A    between atoms: C1_2  and  C2_3 
ROOT
ATOM      1  C2  UNL d   1      -0.623  -0.882  -0.252  0.00  0.00    -0.073 A 
ATOM      2  C3  UNL d   1       0.014  -0.577   0.956  0.00  0.00    -0.002 A 
ATOM      3  C4  UNL d   1      -0.702   0.003   2.005  0.00  0.00     0.004 A 
ATOM      4  C5  UNL d   1      -2.061   0.277   1.859  0.00  0.00    -0.004 A 
ATOM      5  C6  UNL d   1      -2.719  -0.032   0.663  0.00  0.00    -0.075 A 
ATOM      6  C7  UNL d   1      -4.181   0.259   0.489  0.00  0.00     0.076 C 
ATOM      7  C8  UNL d   1      -1.992  -0.611  -0.386  0.00  0.00     0.001 A 
ENDROOT
BRANCH   1   8
ATOM      8  C1  UNL d   1       0.145  -1.514  -1.384  0.00  0.00     0.053 C 
ATOM      9  C   UNL d   1      -0.720  -1.711  -2.619  0.00  0.00     0.018 C 
ENDBRANCH   1   8
TORSDOF 1
ENDMDL
