MODEL 1
REMARK minimizedAffinity 6.74551725
REMARK minimizedRMSD -1
REMARK  1 active torsions:
REMARK  status: ('A' for Active; 'I' for Inactive)
REMARK    1  A    between atoms: N_2  and  C1_3 
ROOT
ATOM      1  C1  UNL d   1       2.211  -2.239   3.041  0.00  0.00     0.143 A 
ATOM      2  C2  UNL d   1       3.564  -2.207   3.394  0.00  0.00    -0.057 A 
ATOM      3  C3  UNL d   1       4.173  -3.292   4.035  0.00  0.00     0.033 A 
ATOM      4  C4  UNL d   1       3.430  -4.421   4.363  0.00  0.00    -0.042 A 
ATOM      5  C5  UNL d   1       2.077  -4.465   4.045  0.00  0.00     0.033 A 
ATOM      6  C6  UNL d   1       1.476  -3.380   3.398  0.00  0.00    -0.057 A 
ENDROOT
BRANCH   1   7
ATOM      7  N   UNL d   1       1.524  -1.154   2.491  0.00  0.00    -0.732 N 
ATOM      8  C   UNL d   1       2.073  -0.428   1.366  0.00  0.00     0.284 C 
ATOM      9  H3  UNL d   1       0.522  -1.318   2.431  0.00  0.00     0.395 HD
ENDBRANCH   1   7
TORSDOF 1
ENDMDL
