MODEL 1
REMARK minimizedAffinity 0.102517389
REMARK minimizedRMSD -1
REMARK  1 active torsions:
REMARK  status: ('A' for Active; 'I' for Inactive)
REMARK    1  A    between atoms: N_2  and  C1_3 
ROOT
ATOM      1  C1  UNL d   1       1.664  -4.173   4.251  0.00  0.00     0.143 A 
ATOM      2  C2  UNL d   1       2.898  -4.136   3.591  0.00  0.00    -0.057 A 
ATOM      3  C3  UNL d   1       3.350  -2.970   2.962  0.00  0.00     0.033 A 
ATOM      4  C4  UNL d   1       2.561  -1.825   2.956  0.00  0.00    -0.042 A 
ATOM      5  C5  UNL d   1       1.320  -1.846   3.583  0.00  0.00     0.033 A 
ATOM      6  C6  UNL d   1       0.877  -3.011   4.216  0.00  0.00    -0.057 A 
ENDROOT
BRANCH   1   7
ATOM      7  N   UNL d   1       1.116  -5.329   4.811  0.00  0.00    -0.732 N 
ATOM      8  C   UNL d   1       0.286  -5.253   5.994  0.00  0.00     0.284 C 
ATOM      9  H3  UNL d   1       0.776  -5.978   4.105  0.00  0.00     0.395 HD
ENDBRANCH   1   7
TORSDOF 1
ENDMDL
