MODEL 1
REMARK minimizedAffinity 6.88405609
REMARK minimizedRMSD -1
REMARK  1 active torsions:
REMARK  status: ('A' for Active; 'I' for Inactive)
REMARK    1  A    between atoms: N_2  and  C1_3 
ROOT
ATOM      1  C1  UNL d   1       1.647  -2.255   2.707  0.00  0.00     0.143 A 
ATOM      2  C2  UNL d   1       1.247  -3.579   2.497  0.00  0.00    -0.057 A 
ATOM      3  C3  UNL d   1       1.495  -4.573   3.452  0.00  0.00     0.033 A 
ATOM      4  C4  UNL d   1       2.176  -4.264   4.625  0.00  0.00    -0.042 A 
ATOM      5  C5  UNL d   1       2.605  -2.960   4.843  0.00  0.00     0.033 A 
ATOM      6  C6  UNL d   1       2.349  -1.971   3.889  0.00  0.00    -0.057 A 
ENDROOT
BRANCH   1   7
ATOM      7  N   UNL d   1       1.517  -1.243   1.753  0.00  0.00    -0.732 N 
ATOM      8  C   UNL d   1       2.261  -0.008   1.882  0.00  0.00     0.284 C 
ATOM      9  H3  UNL d   1       1.476  -1.606   0.803  0.00  0.00     0.395 HD
ENDBRANCH   1   7
TORSDOF 1
ENDMDL
