MODEL 1
REMARK minimizedAffinity 2.82482576
REMARK minimizedRMSD -1
REMARK  1 active torsions:
REMARK  status: ('A' for Active; 'I' for Inactive)
REMARK    1  A    between atoms: N_2  and  C1_3 
ROOT
ATOM      1  C1  UNL d   1       3.832  -5.845  -3.338  0.00  0.00     0.143 A 
ATOM      2  C2  UNL d   1       5.202  -5.870  -3.619  0.00  0.00    -0.057 A 
ATOM      3  C3  UNL d   1       5.673  -5.932  -4.936  0.00  0.00     0.033 A 
ATOM      4  C4  UNL d   1       4.777  -5.999  -5.998  0.00  0.00    -0.042 A 
ATOM      5  C5  UNL d   1       3.411  -6.000  -5.742  0.00  0.00     0.033 A 
ATOM      6  C6  UNL d   1       2.947  -5.932  -4.425  0.00  0.00    -0.057 A 
ENDROOT
BRANCH   1   7
ATOM      7  N   UNL d   1       3.301  -5.884  -2.047  0.00  0.00    -0.732 N 
ATOM      8  C   UNL d   1       1.874  -5.999  -1.839  0.00  0.00     0.284 C 
ATOM      9  H3  UNL d   1       3.860  -6.451  -1.414  0.00  0.00     0.395 HD
ENDBRANCH   1   7
TORSDOF 1
ENDMDL
