MODEL 1
REMARK minimizedAffinity 7.05596876
REMARK minimizedRMSD -1
REMARK  1 active torsions:
REMARK  status: ('A' for Active; 'I' for Inactive)
REMARK    1  A    between atoms: N_2  and  C1_3 
ROOT
ATOM      1  C1  UNL d   1       1.235  -1.946   3.415  0.00  0.00     0.143 A 
ATOM      2  C2  UNL d   1       2.537  -2.199   2.968  0.00  0.00    -0.057 A 
ATOM      3  C3  UNL d   1       2.943  -3.490   2.607  0.00  0.00     0.033 A 
ATOM      4  C4  UNL d   1       2.059  -4.559   2.715  0.00  0.00    -0.042 A 
ATOM      5  C5  UNL d   1       0.768  -4.335   3.180  0.00  0.00     0.033 A 
ATOM      6  C6  UNL d   1       0.367  -3.043   3.532  0.00  0.00    -0.057 A 
ENDROOT
BRANCH   1   7
ATOM      7  N   UNL d   1       0.801  -0.703   3.881  0.00  0.00    -0.732 N 
ATOM      8  C   UNL d   1       0.961  -0.342   5.274  0.00  0.00     0.284 C 
ATOM      9  H3  UNL d   1       1.009   0.050   3.230  0.00  0.00     0.395 HD
ENDBRANCH   1   7
TORSDOF 1
ENDMDL
