MODEL 1
REMARK minimizedAffinity 1.92837691
REMARK minimizedRMSD -1
REMARK  1 active torsions:
REMARK  status: ('A' for Active; 'I' for Inactive)
REMARK    1  A    between atoms: N_2  and  C1_3 
ROOT
ATOM      1  C1  UNL d   1       1.552  -2.222   2.882  0.00  0.00     0.143 A 
ATOM      2  C2  UNL d   1       1.927  -3.480   2.398  0.00  0.00    -0.057 A 
ATOM      3  C3  UNL d   1       2.022  -4.587   3.251  0.00  0.00     0.033 A 
ATOM      4  C4  UNL d   1       1.770  -4.448   4.612  0.00  0.00    -0.042 A 
ATOM      5  C5  UNL d   1       1.421  -3.201   5.118  0.00  0.00     0.033 A 
ATOM      6  C6  UNL d   1       1.321  -2.101   4.261  0.00  0.00    -0.057 A 
ENDROOT
BRANCH   1   7
ATOM      7  N   UNL d   1       1.536  -1.063   2.102  0.00  0.00    -0.732 N 
ATOM      8  C   UNL d   1       2.670  -0.716   1.273  0.00  0.00     0.284 C 
ATOM      9  H3  UNL d   1       0.633  -0.905   1.660  0.00  0.00     0.395 HD
ENDBRANCH   1   7
TORSDOF 1
ENDMDL
