MODEL 1
REMARK minimizedAffinity 2.55789328
REMARK minimizedRMSD -1
REMARK  1 active torsions:
REMARK  status: ('A' for Active; 'I' for Inactive)
REMARK    1  A    between atoms: N_2  and  C1_3 
ROOT
ATOM      1  C1  UNL d   1       1.812  -2.837   3.541  0.00  0.00     0.143 A 
ATOM      2  C2  UNL d   1       2.545  -2.559   2.382  0.00  0.00    -0.057 A 
ATOM      3  C3  UNL d   1       2.669  -1.251   1.898  0.00  0.00     0.033 A 
ATOM      4  C4  UNL d   1       2.034  -0.199   2.550  0.00  0.00    -0.042 A 
ATOM      5  C5  UNL d   1       1.279  -0.455   3.689  0.00  0.00     0.033 A 
ATOM      6  C6  UNL d   1       1.165  -1.763   4.171  0.00  0.00    -0.057 A 
ENDROOT
BRANCH   1   7
ATOM      7  N   UNL d   1       1.571  -4.128   4.017  0.00  0.00    -0.732 N 
ATOM      8  C   UNL d   1       1.072  -4.338   5.359  0.00  0.00     0.284 C 
ATOM      9  H3  UNL d   1       1.140  -4.727   3.316  0.00  0.00     0.395 HD
ENDBRANCH   1   7
TORSDOF 1
ENDMDL
