MODEL 1
REMARK minimizedAffinity 3.53336334
REMARK minimizedRMSD -1
REMARK  1 active torsions:
REMARK  status: ('A' for Active; 'I' for Inactive)
REMARK    1  A    between atoms: N_2  and  C1_3 
ROOT
ATOM      1  C1  UNL d   1      -3.283   1.875  -2.984  0.00  0.00     0.143 A 
ATOM      2  C2  UNL d   1      -2.729   0.619  -2.710  0.00  0.00    -0.057 A 
ATOM      3  C3  UNL d   1      -2.211   0.314  -1.445  0.00  0.00     0.033 A 
ATOM      4  C4  UNL d   1      -2.212   1.273  -0.437  0.00  0.00    -0.042 A 
ATOM      5  C5  UNL d   1      -2.735   2.535  -0.694  0.00  0.00     0.033 A 
ATOM      6  C6  UNL d   1      -3.257   2.831  -1.957  0.00  0.00    -0.057 A 
ENDROOT
BRANCH   1   7
ATOM      7  N   UNL d   1      -3.723   2.271  -4.249  0.00  0.00    -0.732 N 
ATOM      8  C   UNL d   1      -4.945   3.032  -4.399  0.00  0.00     0.284 C 
ATOM      9  H3  UNL d   1      -2.961   2.587  -4.844  0.00  0.00     0.395 HD
ENDBRANCH   1   7
TORSDOF 1
ENDMDL
