MODEL 1
REMARK minimizedAffinity 5.52555084
REMARK minimizedRMSD -1
REMARK  1 active torsions:
REMARK  status: ('A' for Active; 'I' for Inactive)
REMARK    1  A    between atoms: N_2  and  C1_3 
ROOT
ATOM      1  C1  UNL d   1       1.840  -1.513   2.854  0.00  0.00     0.143 A 
ATOM      2  C2  UNL d   1       1.774  -1.517   4.251  0.00  0.00    -0.057 A 
ATOM      3  C3  UNL d   1       1.867  -2.710   4.979  0.00  0.00     0.033 A 
ATOM      4  C4  UNL d   1       2.000  -3.927   4.317  0.00  0.00    -0.042 A 
ATOM      5  C5  UNL d   1       2.043  -3.948   2.928  0.00  0.00     0.033 A 
ATOM      6  C6  UNL d   1       1.956  -2.753   2.207  0.00  0.00    -0.057 A 
ENDROOT
BRANCH   1   7
ATOM      7  N   UNL d   1       1.654  -0.371   2.070  0.00  0.00    -0.732 N 
ATOM      8  C   UNL d   1       2.788   0.410   1.626  0.00  0.00     0.284 C 
ATOM      9  H3  UNL d   1       0.934  -0.499   1.362  0.00  0.00     0.395 HD
ENDBRANCH   1   7
TORSDOF 1
ENDMDL
