MODEL 1
REMARK minimizedAffinity 2.65651941
REMARK minimizedRMSD -1
REMARK  1 active torsions:
REMARK  status: ('A' for Active; 'I' for Inactive)
REMARK    1  A    between atoms: N_2  and  C1_3 
ROOT
ATOM      1  C1  UNL d   1       1.597  -3.874   4.100  0.00  0.00     0.143 A 
ATOM      2  C2  UNL d   1       0.445  -4.467   4.627  0.00  0.00    -0.057 A 
ATOM      3  C3  UNL d   1       0.526  -5.491   5.579  0.00  0.00     0.033 A 
ATOM      4  C4  UNL d   1       1.765  -5.962   5.999  0.00  0.00    -0.042 A 
ATOM      5  C5  UNL d   1       2.924  -5.404   5.470  0.00  0.00     0.033 A 
ATOM      6  C6  UNL d   1       2.837  -4.377   4.526  0.00  0.00    -0.057 A 
ENDROOT
BRANCH   1   7
ATOM      7  N   UNL d   1       1.584  -2.920   3.080  0.00  0.00    -0.732 N 
ATOM      8  C   UNL d   1       2.026  -1.565   3.331  0.00  0.00     0.284 C 
ATOM      9  H3  UNL d   1       1.895  -3.300   2.189  0.00  0.00     0.395 HD
ENDBRANCH   1   7
TORSDOF 1
ENDMDL
