MODEL 1
REMARK minimizedAffinity 15.9078484
REMARK minimizedRMSD -1
REMARK  1 active torsions:
REMARK  status: ('A' for Active; 'I' for Inactive)
REMARK    1  A    between atoms: N_2  and  C1_3 
ROOT
ATOM      1  C1  UNL d   1       2.152  -0.153   2.577  0.00  0.00     0.143 A 
ATOM      2  C2  UNL d   1       2.084   1.125   3.142  0.00  0.00    -0.057 A 
ATOM      3  C3  UNL d   1       2.592   2.244   2.471  0.00  0.00     0.033 A 
ATOM      4  C4  UNL d   1       3.206   2.099   1.231  0.00  0.00    -0.042 A 
ATOM      5  C5  UNL d   1       3.307   0.835   0.661  0.00  0.00     0.033 A 
ATOM      6  C6  UNL d   1       2.792  -0.277   1.333  0.00  0.00    -0.057 A 
ENDROOT
BRANCH   1   7
ATOM      7  N   UNL d   1       1.754  -1.317   3.237  0.00  0.00    -0.732 N 
ATOM      8  C   UNL d   1       1.390  -2.501   2.489  0.00  0.00     0.284 C 
ATOM      9  H3  UNL d   1       2.314  -1.505   4.066  0.00  0.00     0.395 HD
ENDBRANCH   1   7
TORSDOF 1
ENDMDL
