MODEL 1
REMARK minimizedAffinity 8.44045925
REMARK minimizedRMSD -1
REMARK  1 active torsions:
REMARK  status: ('A' for Active; 'I' for Inactive)
REMARK    1  A    between atoms: N_2  and  C1_3 
ROOT
ATOM      1  C1  UNL d   1       2.282   0.111   2.549  0.00  0.00     0.143 A 
ATOM      2  C2  UNL d   1       2.269   1.297   3.291  0.00  0.00    -0.057 A 
ATOM      3  C3  UNL d   1       2.761   2.494   2.756  0.00  0.00     0.033 A 
ATOM      4  C4  UNL d   1       3.303   2.519   1.475  0.00  0.00    -0.042 A 
ATOM      5  C5  UNL d   1       3.349   1.347   0.729  0.00  0.00     0.033 A 
ATOM      6  C6  UNL d   1       2.850   0.157   1.266  0.00  0.00    -0.057 A 
ENDROOT
BRANCH   1   7
ATOM      7  N   UNL d   1       1.898  -1.131   3.061  0.00  0.00    -0.732 N 
ATOM      8  C   UNL d   1       1.480  -2.196   2.175  0.00  0.00     0.284 C 
ATOM      9  H3  UNL d   1       2.495  -1.437   3.826  0.00  0.00     0.395 HD
ENDBRANCH   1   7
TORSDOF 1
ENDMDL
