MODEL 1
REMARK minimizedAffinity 5.58022928
REMARK minimizedRMSD -1
REMARK  1 active torsions:
REMARK  status: ('A' for Active; 'I' for Inactive)
REMARK    1  A    between atoms: N_2  and  C1_3 
ROOT
ATOM      1  C1  UNL d   1       1.614  -0.176   2.538  0.00  0.00     0.143 A 
ATOM      2  C2  UNL d   1       1.511   0.645   3.666  0.00  0.00    -0.057 A 
ATOM      3  C3  UNL d   1       2.175   1.876   3.730  0.00  0.00     0.033 A 
ATOM      4  C4  UNL d   1       2.980   2.295   2.676  0.00  0.00    -0.042 A 
ATOM      5  C5  UNL d   1       3.116   1.484   1.555  0.00  0.00     0.033 A 
ATOM      6  C6  UNL d   1       2.445   0.259   1.494  0.00  0.00    -0.057 A 
ENDROOT
BRANCH   1   7
ATOM      7  N   UNL d   1       1.058  -1.455   2.453  0.00  0.00    -0.732 N 
ATOM      8  C   UNL d   1       1.823  -2.619   2.846  0.00  0.00     0.284 C 
ATOM      9  H3  UNL d   1       0.085  -1.476   2.753  0.00  0.00     0.395 HD
ENDBRANCH   1   7
TORSDOF 1
ENDMDL
