MODEL 1
REMARK minimizedAffinity -2.71637034
REMARK minimizedRMSD -1
REMARK  0 active torsions:
REMARK  status: ('A' for Active; 'I' for Inactive)
ROOT
ATOM      1  C   UNL d   1       2.406   2.814   2.519  0.00  0.00     0.172 C 
ATOM      2  N   UNL d   1       1.292   2.330   1.738  0.00  0.00    -0.070 N 
ATOM      3  C1  UNL d   1       1.242   1.133   1.075  0.00  0.00    -0.004 A 
ATOM      4  C2  UNL d   1       0.015   1.045   0.453  0.00  0.00    -0.047 A 
ATOM      5  C3  UNL d   1      -0.697   2.231   0.752  0.00  0.00    -0.047 A 
ATOM      6  C4  UNL d   1       0.117   3.009   1.549  0.00  0.00    -0.004 A 
ENDROOT
TORSDOF 0
ENDMDL
