MODEL 1
REMARK minimizedAffinity 0.395691395
REMARK minimizedRMSD -1
REMARK  0 active torsions:
REMARK  status: ('A' for Active; 'I' for Inactive)
ROOT
ATOM      1  C   UNL d   1       2.475   3.094   2.277  0.00  0.00     0.172 C 
ATOM      2  N   UNL d   1       3.882   3.057   2.598  0.00  0.00    -0.070 N 
ATOM      3  C1  UNL d   1       4.756   2.065   2.240  0.00  0.00    -0.004 A 
ATOM      4  C2  UNL d   1       5.999   2.400   2.734  0.00  0.00    -0.047 A 
ATOM      5  C3  UNL d   1       5.867   3.635   3.412  0.00  0.00    -0.047 A 
ATOM      6  C4  UNL d   1       4.546   4.019   3.312  0.00  0.00    -0.004 A 
ENDROOT
TORSDOF 0
ENDMDL
