MODEL 1
REMARK minimizedAffinity -2.34309793
REMARK minimizedRMSD -1
REMARK  0 active torsions:
REMARK  status: ('A' for Active; 'I' for Inactive)
ROOT
ATOM      1  C   UNL d   1       1.818   3.105   2.982  0.00  0.00     0.172 C 
ATOM      2  N   UNL d   1       0.418   2.989   2.648  0.00  0.00    -0.070 N 
ATOM      3  C1  UNL d   1      -0.088   2.771   1.394  0.00  0.00    -0.004 A 
ATOM      4  C2  UNL d   1      -1.461   2.723   1.495  0.00  0.00    -0.047 A 
ATOM      5  C3  UNL d   1      -1.792   2.919   2.857  0.00  0.00    -0.047 A 
ATOM      6  C4  UNL d   1      -0.610   3.081   3.548  0.00  0.00    -0.004 A 
ENDROOT
TORSDOF 0
ENDMDL
