MODEL 1
REMARK minimizedAffinity 1.5531882
REMARK minimizedRMSD -1
REMARK  0 active torsions:
REMARK  status: ('A' for Active; 'I' for Inactive)
ROOT
ATOM      1  C   UNL d   1      -2.739   2.969  -5.999  0.00  0.00     0.172 C 
ATOM      2  N   UNL d   1      -3.713   3.967  -5.625  0.00  0.00    -0.070 N 
ATOM      3  C1  UNL d   1      -4.822   3.750  -4.851  0.00  0.00    -0.004 A 
ATOM      4  C2  UNL d   1      -5.490   4.949  -4.725  0.00  0.00    -0.047 A 
ATOM      5  C3  UNL d   1      -4.758   5.920  -5.449  0.00  0.00    -0.047 A 
ATOM      6  C4  UNL d   1      -3.663   5.285  -5.996  0.00  0.00    -0.004 A 
ENDROOT
TORSDOF 0
ENDMDL
