MODEL 1
REMARK minimizedAffinity -1.11115336
REMARK minimizedRMSD -1
REMARK  0 active torsions:
REMARK  status: ('A' for Active; 'I' for Inactive)
ROOT
ATOM      1  C   UNL d   1      -2.448   2.687  -5.986  0.00  0.00     0.172 C 
ATOM      2  N   UNL d   1      -3.357   3.810  -5.990  0.00  0.00    -0.070 N 
ATOM      3  C1  UNL d   1      -4.724   3.730  -5.997  0.00  0.00    -0.004 A 
ATOM      4  C2  UNL d   1      -5.222   5.015  -5.999  0.00  0.00    -0.047 A 
ATOM      5  C3  UNL d   1      -4.116   5.898  -5.995  0.00  0.00    -0.047 A 
ATOM      6  C4  UNL d   1      -2.974   5.125  -5.989  0.00  0.00    -0.004 A 
ENDROOT
TORSDOF 0
ENDMDL
