MODEL 1
REMARK minimizedAffinity -1.8110559
REMARK minimizedRMSD -1
REMARK  0 active torsions:
REMARK  status: ('A' for Active; 'I' for Inactive)
ROOT
ATOM      1  C   UNL d   1      -2.043   2.744  -5.976  0.00  0.00     0.172 C 
ATOM      2  N   UNL d   1      -3.130   3.694  -5.986  0.00  0.00    -0.070 N 
ATOM      3  C1  UNL d   1      -4.463   3.382  -5.993  0.00  0.00    -0.004 A 
ATOM      4  C2  UNL d   1      -5.173   4.564  -6.000  0.00  0.00    -0.047 A 
ATOM      5  C3  UNL d   1      -4.234   5.622  -5.997  0.00  0.00    -0.047 A 
ATOM      6  C4  UNL d   1      -2.977   5.056  -5.988  0.00  0.00    -0.004 A 
ENDROOT
TORSDOF 0
ENDMDL
