MODEL 1
REMARK minimizedAffinity 1.69004738
REMARK minimizedRMSD -1
REMARK  0 active torsions:
REMARK  status: ('A' for Active; 'I' for Inactive)
ROOT
ATOM      1  C   UNL d   1       2.498   2.627   2.249  0.00  0.00     0.172 C 
ATOM      2  N   UNL d   1       3.878   3.051   2.285  0.00  0.00    -0.070 N 
ATOM      3  C1  UNL d   1       4.810   2.818   1.309  0.00  0.00    -0.004 A 
ATOM      4  C2  UNL d   1       6.000   3.380   1.719  0.00  0.00    -0.047 A 
ATOM      5  C3  UNL d   1       5.775   3.971   2.985  0.00  0.00    -0.047 A 
ATOM      6  C4  UNL d   1       4.453   3.752   3.312  0.00  0.00    -0.004 A 
ENDROOT
TORSDOF 0
ENDMDL
