MODEL 1
REMARK minimizedAffinity 4.14806652
REMARK minimizedRMSD -1
REMARK  0 active torsions:
REMARK  status: ('A' for Active; 'I' for Inactive)
ROOT
ATOM      1  C   UNL d   1      -3.660  -5.492  -0.377  0.00  0.00     0.172 C 
ATOM      2  N   UNL d   1      -2.567  -4.645  -0.796  0.00  0.00    -0.070 N 
ATOM      3  C1  UNL d   1      -1.934  -3.714  -0.016  0.00  0.00    -0.004 A 
ATOM      4  C2  UNL d   1      -0.952  -3.121  -0.779  0.00  0.00    -0.047 A 
ATOM      5  C3  UNL d   1      -0.996  -3.716  -2.063  0.00  0.00    -0.047 A 
ATOM      6  C4  UNL d   1      -2.005  -4.656  -2.045  0.00  0.00    -0.004 A 
ENDROOT
TORSDOF 0
ENDMDL
