MODEL 1
REMARK minimizedAffinity 2.34263563
REMARK minimizedRMSD -1
REMARK  0 active torsions:
REMARK  status: ('A' for Active; 'I' for Inactive)
ROOT
ATOM      1  C   UNL d   1      -0.781   2.246  -0.520  0.00  0.00     0.172 C 
ATOM      2  N   UNL d   1      -0.660   2.769   0.821  0.00  0.00    -0.070 N 
ATOM      3  C1  UNL d   1       0.488   3.252   1.390  0.00  0.00    -0.004 A 
ATOM      4  C2  UNL d   1       0.188   3.653   2.673  0.00  0.00    -0.047 A 
ATOM      5  C3  UNL d   1      -1.189   3.403   2.884  0.00  0.00    -0.047 A 
ATOM      6  C4  UNL d   1      -1.689   2.855   1.721  0.00  0.00    -0.004 A 
ENDROOT
TORSDOF 0
ENDMDL
