MODEL 1
REMARK minimizedAffinity 4.28358793
REMARK minimizedRMSD -1
REMARK  0 active torsions:
REMARK  status: ('A' for Active; 'I' for Inactive)
ROOT
ATOM      1  C   UNL d   1      -1.176  -0.516   0.410  0.00  0.00     0.172 C 
ATOM      2  N   UNL d   1      -1.222  -1.688  -0.432  0.00  0.00    -0.070 N 
ATOM      3  C1  UNL d   1      -0.896  -1.729  -1.762  0.00  0.00    -0.004 A 
ATOM      4  C2  UNL d   1      -1.071  -3.025  -2.199  0.00  0.00    -0.047 A 
ATOM      5  C3  UNL d   1      -1.517  -3.788  -1.094  0.00  0.00    -0.047 A 
ATOM      6  C4  UNL d   1      -1.602  -2.936  -0.014  0.00  0.00    -0.004 A 
ENDROOT
TORSDOF 0
ENDMDL
