MODEL 1
REMARK minimizedAffinity 1.47292185
REMARK minimizedRMSD -1
REMARK  0 active torsions:
REMARK  status: ('A' for Active; 'I' for Inactive)
ROOT
ATOM      1  C   UNL d   1      -3.923  -4.810  -0.373  0.00  0.00     0.172 C 
ATOM      2  N   UNL d   1      -2.755  -4.026  -0.701  0.00  0.00    -0.070 N 
ATOM      3  C1  UNL d   1      -2.728  -2.668  -0.874  0.00  0.00    -0.004 A 
ATOM      4  C2  UNL d   1      -1.433  -2.306  -1.175  0.00  0.00    -0.047 A 
ATOM      5  C3  UNL d   1      -0.655  -3.488  -1.185  0.00  0.00    -0.047 A 
ATOM      6  C4  UNL d   1      -1.498  -4.538  -0.889  0.00  0.00    -0.004 A 
ENDROOT
TORSDOF 0
ENDMDL
