MODEL 1
REMARK minimizedAffinity 4.36823368
REMARK minimizedRMSD -1
REMARK  0 active torsions:
REMARK  status: ('A' for Active; 'I' for Inactive)
ROOT
ATOM      1  C   UNL d   1      -1.401   3.001   1.108  0.00  0.00     0.172 C 
ATOM      2  N   UNL d   1      -1.492   1.578   0.879  0.00  0.00    -0.070 N 
ATOM      3  C1  UNL d   1      -0.442   0.748   0.591  0.00  0.00    -0.004 A 
ATOM      4  C2  UNL d   1      -0.942  -0.529   0.445  0.00  0.00    -0.047 A 
ATOM      5  C3  UNL d   1      -2.340  -0.463   0.653  0.00  0.00    -0.047 A 
ATOM      6  C4  UNL d   1      -2.654   0.853   0.920  0.00  0.00    -0.004 A 
ENDROOT
TORSDOF 0
ENDMDL
