MODEL 1
REMARK minimizedAffinity 2.12985611
REMARK minimizedRMSD -1
REMARK  0 active torsions:
REMARK  status: ('A' for Active; 'I' for Inactive)
ROOT
ATOM      1  C   UNL d   1      -1.871   3.364   3.719  0.00  0.00     0.172 C 
ATOM      2  N   UNL d   1      -0.512   3.376   3.233  0.00  0.00    -0.070 N 
ATOM      3  C1  UNL d   1      -0.135   3.345   1.917  0.00  0.00    -0.004 A 
ATOM      4  C2  UNL d   1       1.243   3.370   1.872  0.00  0.00    -0.047 A 
ATOM      5  C3  UNL d   1       1.709   3.417   3.207  0.00  0.00    -0.047 A 
ATOM      6  C4  UNL d   1       0.602   3.419   4.029  0.00  0.00    -0.004 A 
ENDROOT
TORSDOF 0
ENDMDL
