MODEL 1
REMARK minimizedAffinity -0.683865428
REMARK minimizedRMSD -1
REMARK  0 active torsions:
REMARK  status: ('A' for Active; 'I' for Inactive)
ROOT
ATOM      1  C   UNL d   1       0.531   0.856   0.718  0.00  0.00     0.172 C 
ATOM      2  N   UNL d   1      -0.906   0.713   0.752  0.00  0.00    -0.070 N 
ATOM      3  C1  UNL d   1      -1.811   1.627   0.283  0.00  0.00    -0.004 A 
ATOM      4  C2  UNL d   1      -3.074   1.120   0.498  0.00  0.00    -0.047 A 
ATOM      5  C3  UNL d   1      -2.923  -0.143   1.120  0.00  0.00    -0.047 A 
ATOM      6  C4  UNL d   1      -1.570  -0.369   1.266  0.00  0.00    -0.004 A 
ENDROOT
TORSDOF 0
ENDMDL
