MODEL 1
REMARK minimizedAffinity 1.16913939
REMARK minimizedRMSD -1
REMARK  0 active torsions:
REMARK  status: ('A' for Active; 'I' for Inactive)
ROOT
ATOM      1  C   UNL d   1      -1.732  -3.399  -1.829  0.00  0.00     0.172 C 
ATOM      2  N   UNL d   1      -2.665  -4.242  -1.118  0.00  0.00    -0.070 N 
ATOM      3  C1  UNL d   1      -2.379  -4.987  -0.006  0.00  0.00    -0.004 A 
ATOM      4  C2  UNL d   1      -3.530  -5.646   0.367  0.00  0.00    -0.047 A 
ATOM      5  C3  UNL d   1      -4.543  -5.285  -0.553  0.00  0.00    -0.047 A 
ATOM      6  C4  UNL d   1      -3.979  -4.415  -1.462  0.00  0.00    -0.004 A 
ENDROOT
TORSDOF 0
ENDMDL
