MODEL 1
REMARK minimizedAffinity 1.09123647
REMARK minimizedRMSD -1
REMARK  0 active torsions:
REMARK  status: ('A' for Active; 'I' for Inactive)
ROOT
ATOM      1  C   UNL d   1       1.346   0.365   0.615  0.00  0.00     0.172 C 
ATOM      2  N   UNL d   1      -0.032   0.697   0.894  0.00  0.00    -0.070 N 
ATOM      3  C1  UNL d   1      -1.057  -0.200   1.031  0.00  0.00    -0.004 A 
ATOM      4  C2  UNL d   1      -2.208   0.511   1.293  0.00  0.00    -0.047 A 
ATOM      5  C3  UNL d   1      -1.863   1.883   1.312  0.00  0.00    -0.047 A 
ATOM      6  C4  UNL d   1      -0.509   1.970   1.063  0.00  0.00    -0.004 A 
ENDROOT
TORSDOF 0
ENDMDL
