MODEL 1
REMARK minimizedAffinity 7.43467665
REMARK minimizedRMSD -1
REMARK  0 active torsions:
REMARK  status: ('A' for Active; 'I' for Inactive)
ROOT
ATOM      1  C   UNL d   1       2.434   0.193  -2.642  0.00  0.00     0.172 C 
ATOM      2  N   UNL d   1       2.050   0.073  -1.255  0.00  0.00    -0.070 N 
ATOM      3  C1  UNL d   1       1.704  -1.090  -0.620  0.00  0.00    -0.004 A 
ATOM      4  C2  UNL d   1       1.406  -0.783   0.691  0.00  0.00    -0.047 A 
ATOM      5  C3  UNL d   1       1.579   0.613   0.848  0.00  0.00    -0.047 A 
ATOM      6  C4  UNL d   1       1.977   1.118  -0.371  0.00  0.00    -0.004 A 
ENDROOT
TORSDOF 0
ENDMDL
