MODEL 1
REMARK minimizedAffinity -3.87486076
REMARK minimizedRMSD -1
REMARK  0 active torsions:
REMARK  status: ('A' for Active; 'I' for Inactive)
ROOT
ATOM      1  C2' OXE d   1      -0.107   0.792   1.773  0.00  0.00     0.078 C 
ATOM      2  C1' OXE d   1       1.643   2.962   1.440  0.00  0.00     0.078 C 
ATOM      3  C1  OXE d   1       0.537   3.100   2.456  0.00  0.00    -0.078 A 
ATOM      4  C2  OXE d   1      -0.343   2.051   2.579  0.00  0.00    -0.078 A 
ATOM      5  C3  OXE d   1      -1.348   2.104   3.540  0.00  0.00     0.003 A 
ATOM      6  C4  OXE d   1      -1.566   3.277   4.275  0.00  0.00    -0.002 A 
ATOM      7  C5  OXE d   1      -0.705   4.371   4.136  0.00  0.00    -0.002 A 
ATOM      8  C6  OXE d   1       0.374   4.283   3.264  0.00  0.00     0.003 A 
ENDROOT
TORSDOF 0
ENDMDL
