MODEL 1
REMARK minimizedAffinity -1.24658716
REMARK minimizedRMSD -1
REMARK  0 active torsions:
REMARK  status: ('A' for Active; 'I' for Inactive)
ROOT
ATOM      1  C2' OXE d   1       1.729   1.759   1.649  0.00  0.00     0.078 C 
ATOM      2  C1' OXE d   1      -0.831   1.074   0.722  0.00  0.00     0.078 C 
ATOM      3  C1  OXE d   1      -0.736   1.902   1.979  0.00  0.00    -0.078 A 
ATOM      4  C2  OXE d   1       0.521   2.194   2.451  0.00  0.00    -0.078 A 
ATOM      5  C3  OXE d   1       0.665   3.001   3.576  0.00  0.00     0.003 A 
ATOM      6  C4  OXE d   1      -0.457   3.390   4.318  0.00  0.00    -0.002 A 
ATOM      7  C5  OXE d   1      -1.745   3.070   3.876  0.00  0.00    -0.002 A 
ATOM      8  C6  OXE d   1      -1.903   2.365   2.688  0.00  0.00     0.003 A 
ENDROOT
TORSDOF 0
ENDMDL
