MODEL 1
REMARK minimizedAffinity 10.9759779
REMARK minimizedRMSD -1
REMARK  0 active torsions:
REMARK  status: ('A' for Active; 'I' for Inactive)
ROOT
ATOM      1  C2' OXE d   1       2.190   4.111   3.749  0.00  0.00     0.078 C 
ATOM      2  C1' OXE d   1      -0.355   3.340   4.648  0.00  0.00     0.078 C 
ATOM      3  C1  OXE d   1       0.185   2.672   3.408  0.00  0.00    -0.078 A 
ATOM      4  C2  OXE d   1       1.411   3.089   2.949  0.00  0.00    -0.078 A 
ATOM      5  C3  OXE d   1       1.980   2.468   1.841  0.00  0.00     0.003 A 
ATOM      6  C4  OXE d   1       1.249   1.531   1.101  0.00  0.00    -0.002 A 
ATOM      7  C5  OXE d   1      -0.018   1.121   1.529  0.00  0.00    -0.002 A 
ATOM      8  C6  OXE d   1      -0.545   1.649   2.702  0.00  0.00     0.003 A 
ENDROOT
TORSDOF 0
ENDMDL
