MODEL 1
REMARK minimizedAffinity 0.404782265
REMARK minimizedRMSD -1
REMARK  0 active torsions:
REMARK  status: ('A' for Active; 'I' for Inactive)
ROOT
ATOM      1  C2' OXE d   1      -1.290   3.865   4.193  0.00  0.00     0.078 C 
ATOM      2  C1' OXE d   1       1.067   5.067   3.253  0.00  0.00     0.078 C 
ATOM      3  C1  OXE d   1       0.605   3.800   2.577  0.00  0.00    -0.078 A 
ATOM      4  C2  OXE d   1      -0.523   3.194   3.074  0.00  0.00    -0.078 A 
ATOM      5  C3  OXE d   1      -1.023   2.053   2.452  0.00  0.00     0.003 A 
ATOM      6  C4  OXE d   1      -0.303   1.432   1.424  0.00  0.00    -0.002 A 
ATOM      7  C5  OXE d   1       0.870   2.012   0.930  0.00  0.00    -0.002 A 
ATOM      8  C6  OXE d   1       1.314   3.216   1.465  0.00  0.00     0.003 A 
ENDROOT
TORSDOF 0
ENDMDL
