MODEL 1
REMARK minimizedAffinity -3.78371096
REMARK minimizedRMSD -1
REMARK  0 active torsions:
REMARK  status: ('A' for Active; 'I' for Inactive)
ROOT
ATOM      1  C2' OXE d   1       1.206   5.075   3.211  0.00  0.00     0.078 C 
ATOM      2  C1' OXE d   1      -0.994   3.592   4.129  0.00  0.00     0.078 C 
ATOM      3  C1  OXE d   1      -0.295   3.114   2.880  0.00  0.00    -0.078 A 
ATOM      4  C2  OXE d   1       0.751   3.873   2.412  0.00  0.00    -0.078 A 
ATOM      5  C3  OXE d   1       1.464   3.448   1.295  0.00  0.00     0.003 A 
ATOM      6  C4  OXE d   1       1.031   2.340   0.556  0.00  0.00    -0.002 A 
ATOM      7  C5  OXE d   1      -0.057   1.577   0.993  0.00  0.00    -0.002 A 
ATOM      8  C6  OXE d   1      -0.703   1.925   2.174  0.00  0.00     0.003 A 
ENDROOT
TORSDOF 0
ENDMDL
