MODEL 1
REMARK minimizedAffinity 6.71872187
REMARK minimizedRMSD -1
REMARK  0 active torsions:
REMARK  status: ('A' for Active; 'I' for Inactive)
ROOT
ATOM      1  C2' OXE d   1       4.491   4.584  -5.999  0.00  0.00     0.078 C 
ATOM      2  C1' OXE d   1       5.195   1.867  -6.000  0.00  0.00     0.078 C 
ATOM      3  C1  OXE d   1       4.455   2.402  -4.799  0.00  0.00    -0.078 A 
ATOM      4  C2  OXE d   1       4.155   3.743  -4.787  0.00  0.00    -0.078 A 
ATOM      5  C3  OXE d   1       3.425   4.276  -3.729  0.00  0.00     0.003 A 
ATOM      6  C4  OXE d   1       3.128   3.493  -2.607  0.00  0.00    -0.002 A 
ATOM      7  C5  OXE d   1       3.459   2.134  -2.582  0.00  0.00    -0.002 A 
ATOM      8  C6  OXE d   1       4.083   1.564  -3.686  0.00  0.00     0.003 A 
ENDROOT
TORSDOF 0
ENDMDL
