MODEL 1
REMARK minimizedAffinity 4.03052568
REMARK minimizedRMSD -1
REMARK  0 active torsions:
REMARK  status: ('A' for Active; 'I' for Inactive)
ROOT
ATOM      1  C2' OXE d   1      -0.465   3.078   4.709  0.00  0.00     0.078 C 
ATOM      2  C1' OXE d   1       2.088   3.372   3.580  0.00  0.00     0.078 C 
ATOM      3  C1  OXE d   1       1.099   2.488   2.862  0.00  0.00    -0.078 A 
ATOM      4  C2  OXE d   1      -0.132   2.313   3.447  0.00  0.00    -0.078 A 
ATOM      5  C3  OXE d   1      -1.101   1.551   2.799  0.00  0.00     0.003 A 
ATOM      6  C4  OXE d   1      -0.782   0.839   1.636  0.00  0.00    -0.002 A 
ATOM      7  C5  OXE d   1       0.479   0.972   1.046  0.00  0.00    -0.002 A 
ATOM      8  C6  OXE d   1       1.415   1.824   1.622  0.00  0.00     0.003 A 
ENDROOT
TORSDOF 0
ENDMDL
