MODEL 1
REMARK minimizedAffinity 8.18783474
REMARK minimizedRMSD -1
REMARK  0 active torsions:
REMARK  status: ('A' for Active; 'I' for Inactive)
ROOT
ATOM      1  C2' OXE d   1       2.394   3.944   3.462  0.00  0.00     0.078 C 
ATOM      2  C1' OXE d   1      -0.277   3.448   4.171  0.00  0.00     0.078 C 
ATOM      3  C1  OXE d   1       0.248   2.804   2.913  0.00  0.00    -0.078 A 
ATOM      4  C2  OXE d   1       1.542   3.090   2.549  0.00  0.00    -0.078 A 
ATOM      5  C3  OXE d   1       2.093   2.478   1.426  0.00  0.00     0.003 A 
ATOM      6  C4  OXE d   1       1.295   1.697   0.581  0.00  0.00    -0.002 A 
ATOM      7  C5  OXE d   1      -0.037   1.426   0.912  0.00  0.00    -0.002 A 
ATOM      8  C6  OXE d   1      -0.562   1.936   2.094  0.00  0.00     0.003 A 
ENDROOT
TORSDOF 0
ENDMDL
