MODEL 1
REMARK minimizedAffinity 0.872025549
REMARK minimizedRMSD -1
REMARK  0 active torsions:
REMARK  status: ('A' for Active; 'I' for Inactive)
ROOT
ATOM      1  C2' OXE d   1      -2.477  -3.009   3.263  0.00  0.00     0.078 C 
ATOM      2  C1' OXE d   1      -4.999  -1.785   3.401  0.00  0.00     0.078 C 
ATOM      3  C1  OXE d   1      -3.937  -1.114   2.566  0.00  0.00    -0.078 A 
ATOM      4  C2  OXE d   1      -2.692  -1.696   2.542  0.00  0.00    -0.078 A 
ATOM      5  C3  OXE d   1      -1.691  -1.148   1.745  0.00  0.00     0.003 A 
ATOM      6  C4  OXE d   1      -1.895   0.072   1.089  0.00  0.00    -0.002 A 
ATOM      7  C5  OXE d   1      -3.143   0.702   1.133  0.00  0.00    -0.002 A 
ATOM      8  C6  OXE d   1      -4.185   0.101   1.831  0.00  0.00     0.003 A 
ENDROOT
TORSDOF 0
ENDMDL
