MODEL 1
REMARK minimizedAffinity 4.12575293
REMARK minimizedRMSD -1
REMARK  0 active torsions:
REMARK  status: ('A' for Active; 'I' for Inactive)
ROOT
ATOM      1  C2' OXE d   1       1.574   2.616   1.815  0.00  0.00     0.078 C 
ATOM      2  C1' OXE d   1      -0.957   1.402   1.786  0.00  0.00     0.078 C 
ATOM      3  C1  OXE d   1      -0.735   2.542   2.748  0.00  0.00    -0.078 A 
ATOM      4  C2  OXE d   1       0.520   3.100   2.788  0.00  0.00    -0.078 A 
ATOM      5  C3  OXE d   1       0.764   4.191   3.618  0.00  0.00     0.003 A 
ATOM      6  C4  OXE d   1      -0.213   4.626   4.522  0.00  0.00    -0.002 A 
ATOM      7  C5  OXE d   1      -1.486   4.045   4.525  0.00  0.00    -0.002 A 
ATOM      8  C6  OXE d   1      -1.776   3.033   3.617  0.00  0.00     0.003 A 
ENDROOT
TORSDOF 0
ENDMDL
