MODEL 1
REMARK minimizedAffinity 6.37075615
REMARK minimizedRMSD -1
REMARK  0 active torsions:
REMARK  status: ('A' for Active; 'I' for Inactive)
ROOT
ATOM      1  C2' OXE d   1      -0.997  -2.659   3.244  0.00  0.00     0.078 C 
ATOM      2  C1' OXE d   1      -0.698  -0.428   1.566  0.00  0.00     0.078 C 
ATOM      3  C1  OXE d   1      -2.027  -0.618   2.254  0.00  0.00    -0.078 A 
ATOM      4  C2  OXE d   1      -2.180  -1.738   3.036  0.00  0.00    -0.078 A 
ATOM      5  C3  OXE d   1      -3.367  -1.933   3.736  0.00  0.00     0.003 A 
ATOM      6  C4  OXE d   1      -4.459  -1.082   3.530  0.00  0.00    -0.002 A 
ATOM      7  C5  OXE d   1      -4.338   0.042   2.706  0.00  0.00    -0.002 A 
ATOM      8  C6  OXE d   1      -3.118   0.311   2.096  0.00  0.00     0.003 A 
ENDROOT
TORSDOF 0
ENDMDL
