MODEL 1
REMARK minimizedAffinity 0.299779952
REMARK minimizedRMSD -1
REMARK  0 active torsions:
REMARK  status: ('A' for Active; 'I' for Inactive)
ROOT
ATOM      1  C2' OXE d   1       1.707   2.449   2.535  0.00  0.00     0.078 C 
ATOM      2  C1' OXE d   1      -1.005   2.024   3.120  0.00  0.00     0.078 C 
ATOM      3  C1  OXE d   1      -0.588   2.015   1.671  0.00  0.00    -0.078 A 
ATOM      4  C2  OXE d   1       0.733   2.270   1.391  0.00  0.00    -0.078 A 
ATOM      5  C3  OXE d   1       1.181   2.219   0.074  0.00  0.00     0.003 A 
ATOM      6  C4  OXE d   1       0.271   2.063  -0.979  0.00  0.00    -0.002 A 
ATOM      7  C5  OXE d   1      -1.086   1.841  -0.718  0.00  0.00    -0.002 A 
ATOM      8  C6  OXE d   1      -1.523   1.772   0.600  0.00  0.00     0.003 A 
ENDROOT
TORSDOF 0
ENDMDL
