MODEL 1
REMARK minimizedAffinity 12.5336523
REMARK minimizedRMSD -1
REMARK  0 active torsions:
REMARK  status: ('A' for Active; 'I' for Inactive)
ROOT
ATOM      1  C2' OXE d   1      -0.697   3.411   4.421  0.00  0.00     0.078 C 
ATOM      2  C1' OXE d   1       1.053   4.150   2.354  0.00  0.00     0.078 C 
ATOM      3  C1  OXE d   1       0.098   3.011   2.094  0.00  0.00    -0.078 A 
ATOM      4  C2  OXE d   1      -0.722   2.626   3.127  0.00  0.00    -0.078 A 
ATOM      5  C3  OXE d   1      -1.660   1.618   2.924  0.00  0.00     0.003 A 
ATOM      6  C4  OXE d   1      -1.670   0.890   1.728  0.00  0.00    -0.002 A 
ATOM      7  C5  OXE d   1      -0.815   1.239   0.677  0.00  0.00    -0.002 A 
ATOM      8  C6  OXE d   1       0.043   2.323   0.828  0.00  0.00     0.003 A 
ENDROOT
TORSDOF 0
ENDMDL
