MODEL 1
REMARK minimizedAffinity 7.82809782
REMARK minimizedRMSD -1
REMARK  0 active torsions:
REMARK  status: ('A' for Active; 'I' for Inactive)
ROOT
ATOM      1  C2' OXE d   1      -0.556   3.386   5.452  0.00  0.00     0.078 C 
ATOM      2  C1' OXE d   1       1.804   4.269   4.214  0.00  0.00     0.078 C 
ATOM      3  C1  OXE d   1       0.922   3.316   3.447  0.00  0.00    -0.078 A 
ATOM      4  C2  OXE d   1      -0.207   2.852   4.079  0.00  0.00    -0.078 A 
ATOM      5  C3  OXE d   1      -1.084   2.014   3.396  0.00  0.00     0.003 A 
ATOM      6  C4  OXE d   1      -0.748   1.518   2.130  0.00  0.00    -0.002 A 
ATOM      7  C5  OXE d   1       0.417   1.946   1.485  0.00  0.00    -0.002 A 
ATOM      8  C6  OXE d   1       1.239   2.876   2.111  0.00  0.00     0.003 A 
ENDROOT
TORSDOF 0
ENDMDL
