MODEL 1
REMARK minimizedAffinity 10.2650776
REMARK minimizedRMSD -1
REMARK  0 active torsions:
REMARK  status: ('A' for Active; 'I' for Inactive)
ROOT
ATOM      1  C2' OXE d   1       1.117  -4.230  -2.838  0.00  0.00     0.078 C 
ATOM      2  C1' OXE d   1      -0.545  -4.100  -0.579  0.00  0.00     0.078 C 
ATOM      3  C1  OXE d   1       0.672  -3.209  -0.610  0.00  0.00    -0.078 A 
ATOM      4  C2  OXE d   1       1.505  -3.313  -1.698  0.00  0.00    -0.078 A 
ATOM      5  C3  OXE d   1       2.612  -2.476  -1.801  0.00  0.00     0.003 A 
ATOM      6  C4  OXE d   1       2.969  -1.639  -0.738  0.00  0.00    -0.002 A 
ATOM      7  C5  OXE d   1       2.157  -1.547   0.397  0.00  0.00    -0.002 A 
ATOM      8  C6  OXE d   1       0.985  -2.292   0.458  0.00  0.00     0.003 A 
ENDROOT
TORSDOF 0
ENDMDL
