MODEL 1
REMARK minimizedAffinity 4.78111935
REMARK minimizedRMSD -1
REMARK  0 active torsions:
REMARK  status: ('A' for Active; 'I' for Inactive)
ROOT
ATOM      1  C2' OXE d   1       2.215  -5.763  -3.199  0.00  0.00     0.078 C 
ATOM      2  C1' OXE d   1       2.249  -6.000  -5.996  0.00  0.00     0.078 C 
ATOM      3  C1  OXE d   1       3.569  -5.816  -5.290  0.00  0.00    -0.078 A 
ATOM      4  C2  OXE d   1       3.539  -5.655  -3.926  0.00  0.00    -0.078 A 
ATOM      5  C3  OXE d   1       4.732  -5.536  -3.219  0.00  0.00     0.003 A 
ATOM      6  C4  OXE d   1       5.951  -5.427  -3.900  0.00  0.00    -0.002 A 
ATOM      7  C5  OXE d   1       6.000  -5.549  -5.292  0.00  0.00    -0.002 A 
ATOM      8  C6  OXE d   1       4.825  -5.786  -5.997  0.00  0.00     0.003 A 
ENDROOT
TORSDOF 0
ENDMDL
