MODEL 1
REMARK minimizedAffinity 7.03618383
REMARK minimizedRMSD -1
REMARK  0 active torsions:
REMARK  status: ('A' for Active; 'I' for Inactive)
ROOT
ATOM      1  C2' OXE d   1       4.624   3.861   5.067  0.00  0.00     0.078 C 
ATOM      2  C1' OXE d   1       4.829   5.529   2.819  0.00  0.00     0.078 C 
ATOM      3  C1  OXE d   1       3.479   4.934   3.133  0.00  0.00    -0.078 A 
ATOM      4  C2  OXE d   1       3.398   4.082   4.208  0.00  0.00    -0.078 A 
ATOM      5  C3  OXE d   1       2.165   3.549   4.574  0.00  0.00     0.003 A 
ATOM      6  C4  OXE d   1       1.038   3.750   3.768  0.00  0.00    -0.002 A 
ATOM      7  C5  OXE d   1       1.108   4.583   2.646  0.00  0.00    -0.002 A 
ATOM      8  C6  OXE d   1       2.308   5.215   2.340  0.00  0.00     0.003 A 
ENDROOT
TORSDOF 0
ENDMDL
