MODEL 1
REMARK minimizedAffinity -1.54170024
REMARK minimizedRMSD -1
REMARK  0 active torsions:
REMARK  status: ('A' for Active; 'I' for Inactive)
ROOT
ATOM      1  C2' OXE d   1       1.730   3.939   2.986  0.00  0.00     0.078 C 
ATOM      2  C1' OXE d   1      -0.582   2.829   4.128  0.00  0.00     0.078 C 
ATOM      3  C1  OXE d   1      -0.206   2.391   2.735  0.00  0.00    -0.078 A 
ATOM      4  C2  OXE d   1       0.901   2.974   2.166  0.00  0.00    -0.078 A 
ATOM      5  C3  OXE d   1       1.323   2.566   0.904  0.00  0.00     0.003 A 
ATOM      6  C4  OXE d   1       0.545   1.681   0.148  0.00  0.00    -0.002 A 
ATOM      7  C5  OXE d   1      -0.608   1.106   0.693  0.00  0.00    -0.002 A 
ATOM      8  C6  OXE d   1      -0.972   1.417   1.998  0.00  0.00     0.003 A 
ENDROOT
TORSDOF 0
ENDMDL
