MODEL 1
REMARK minimizedAffinity -5.01932812
REMARK minimizedRMSD -1
REMARK  1 active torsions:
REMARK  status: ('A' for Active; 'I' for Inactive)
REMARK    1  A    between atoms: C1_2  and  C2_3 
ROOT
ATOM      1  C2  UNL d   1      -0.464  -0.444   0.374  0.00  0.00    -0.077 A 
ATOM      2  C3  UNL d   1       0.793  -1.002   0.102  0.00  0.00     0.002 A 
ATOM      3  C4  UNL d   1       0.973  -2.386   0.128  0.00  0.00     0.002 A 
ATOM      4  C5  UNL d   1      -0.101  -3.224   0.421  0.00  0.00    -0.004 A 
ATOM      5  C6  UNL d   1      -1.355  -2.679   0.694  0.00  0.00     0.002 A 
ATOM      6  C7  UNL d   1      -1.536  -1.296   0.670  0.00  0.00     0.002 A 
ENDROOT
BRANCH   1   7
ATOM      7  C1  UNL d   1      -0.671   1.046   0.298  0.00  0.00     0.055 C 
ATOM      8  C   UNL d   1       0.648   1.779   0.104  0.00  0.00     0.019 C 
ENDBRANCH   1   7
TORSDOF 1
ENDMDL
