MODEL 1
REMARK minimizedAffinity -5.28303528
REMARK minimizedRMSD -1
REMARK  1 active torsions:
REMARK  status: ('A' for Active; 'I' for Inactive)
REMARK    1  A    between atoms: C1_2  and  C2_3 
ROOT
ATOM      1  C2  UNL d   1       0.359   1.014   0.194  0.00  0.00    -0.077 A 
ATOM      2  C3  UNL d   1       1.726   1.119   0.487  0.00  0.00     0.002 A 
ATOM      3  C4  UNL d   1       2.295   2.363   0.767  0.00  0.00     0.002 A 
ATOM      4  C5  UNL d   1       1.504   3.510   0.760  0.00  0.00    -0.004 A 
ATOM      5  C6  UNL d   1       0.144   3.417   0.468  0.00  0.00     0.002 A 
ATOM      6  C7  UNL d   1      -0.426   2.174   0.186  0.00  0.00     0.002 A 
ENDROOT
BRANCH   1   7
ATOM      7  C1  UNL d   1      -0.266  -0.332  -0.060  0.00  0.00     0.055 C 
ATOM      8  C   UNL d   1      -1.150  -0.760   1.103  0.00  0.00     0.019 C 
ENDBRANCH   1   7
TORSDOF 1
ENDMDL
