MODEL 1
REMARK minimizedAffinity -4.7650876
REMARK minimizedRMSD -1
REMARK  1 active torsions:
REMARK  status: ('A' for Active; 'I' for Inactive)
REMARK    1  A    between atoms: C1_2  and  C2_3 
ROOT
ATOM      1  C2  UNL d   1      -0.059  -1.197   0.633  0.00  0.00    -0.077 A 
ATOM      2  C3  UNL d   1      -1.011  -0.541   1.427  0.00  0.00     0.002 A 
ATOM      3  C4  UNL d   1      -1.518   0.700   1.039  0.00  0.00     0.002 A 
ATOM      4  C5  UNL d   1      -1.084   1.294  -0.144  0.00  0.00    -0.004 A 
ATOM      5  C6  UNL d   1      -0.136   0.650  -0.939  0.00  0.00     0.002 A 
ATOM      6  C7  UNL d   1       0.373  -0.590  -0.553  0.00  0.00     0.002 A 
ENDROOT
BRANCH   1   7
ATOM      7  C1  UNL d   1       0.453  -2.559   1.025  0.00  0.00     0.055 C 
ATOM      8  C   UNL d   1       0.336  -3.546  -0.127  0.00  0.00     0.019 C 
ENDBRANCH   1   7
TORSDOF 1
ENDMDL
