MODEL 1
REMARK minimizedAffinity -4.29356813
REMARK minimizedRMSD -1
REMARK  1 active torsions:
REMARK  status: ('A' for Active; 'I' for Inactive)
REMARK    1  A    between atoms: C1_2  and  C2_3 
ROOT
ATOM      1  C2  UNL d   1       0.119   0.931   0.265  0.00  0.00    -0.077 A 
ATOM      2  C3  UNL d   1       0.959   1.600   1.166  0.00  0.00     0.002 A 
ATOM      3  C4  UNL d   1       1.491   2.849   0.842  0.00  0.00     0.002 A 
ATOM      4  C5  UNL d   1       1.185   3.442  -0.381  0.00  0.00    -0.004 A 
ATOM      5  C6  UNL d   1       0.352   2.784  -1.285  0.00  0.00     0.002 A 
ATOM      6  C7  UNL d   1      -0.180   1.535  -0.963  0.00  0.00     0.002 A 
ENDROOT
BRANCH   1   7
ATOM      7  C1  UNL d   1      -0.495  -0.394   0.633  0.00  0.00     0.055 C 
ATOM      8  C   UNL d   1       0.090  -1.526  -0.200  0.00  0.00     0.019 C 
ENDBRANCH   1   7
TORSDOF 1
ENDMDL
