MODEL 1
REMARK minimizedAffinity -6.11887217
REMARK minimizedRMSD -1
REMARK  1 active torsions:
REMARK  status: ('A' for Active; 'I' for Inactive)
REMARK    1  A    between atoms: C1_2  and  C2_3 
ROOT
ATOM      1  C2  UNL d   1      -0.121  -2.232  -0.837  0.00  0.00    -0.077 A 
ATOM      2  C3  UNL d   1      -0.482  -3.122   0.184  0.00  0.00     0.002 A 
ATOM      3  C4  UNL d   1      -0.818  -2.644   1.452  0.00  0.00     0.002 A 
ATOM      4  C5  UNL d   1      -0.800  -1.275   1.710  0.00  0.00    -0.004 A 
ATOM      5  C6  UNL d   1      -0.440  -0.382   0.702  0.00  0.00     0.002 A 
ATOM      6  C7  UNL d   1      -0.103  -0.858  -0.566  0.00  0.00     0.002 A 
ENDROOT
BRANCH   1   7
ATOM      7  C1  UNL d   1       0.194  -2.742  -2.219  0.00  0.00     0.055 C 
ATOM      8  C   UNL d   1       0.370  -1.597  -3.205  0.00  0.00     0.019 C 
ENDBRANCH   1   7
TORSDOF 1
ENDMDL
