MODEL 1
REMARK minimizedAffinity -4.8261261
REMARK minimizedRMSD -1
REMARK  1 active torsions:
REMARK  status: ('A' for Active; 'I' for Inactive)
REMARK    1  A    between atoms: C1_2  and  C2_3 
ROOT
ATOM      1  C2  UNL d   1      -0.424  -1.783   0.190  0.00  0.00    -0.077 A 
ATOM      2  C3  UNL d   1       0.188  -1.167  -0.911  0.00  0.00     0.002 A 
ATOM      3  C4  UNL d   1       0.107   0.216  -1.082  0.00  0.00     0.002 A 
ATOM      4  C5  UNL d   1      -0.582   0.995  -0.156  0.00  0.00    -0.004 A 
ATOM      5  C6  UNL d   1      -1.197   0.392   0.941  0.00  0.00     0.002 A 
ATOM      6  C7  UNL d   1      -1.117  -0.990   1.114  0.00  0.00     0.002 A 
ENDROOT
BRANCH   1   7
ATOM      7  C1  UNL d   1      -0.296  -3.268   0.403  0.00  0.00     0.055 C 
ATOM      8  C   UNL d   1       1.164  -3.695   0.458  0.00  0.00     0.019 C 
ENDBRANCH   1   7
TORSDOF 1
ENDMDL
