MODEL 1
REMARK minimizedAffinity -5.5310483
REMARK minimizedRMSD -1
REMARK  1 active torsions:
REMARK  status: ('A' for Active; 'I' for Inactive)
REMARK    1  A    between atoms: C1_2  and  C2_3 
ROOT
ATOM      1  C2  UNL d   1       0.218   3.661   1.896  0.00  0.00    -0.077 A 
ATOM      2  C3  UNL d   1      -0.315   2.492   1.335  0.00  0.00     0.002 A 
ATOM      3  C4  UNL d   1       0.281   1.912   0.213  0.00  0.00     0.002 A 
ATOM      4  C5  UNL d   1       1.415   2.491  -0.353  0.00  0.00    -0.004 A 
ATOM      5  C6  UNL d   1       1.951   3.655   0.196  0.00  0.00     0.002 A 
ATOM      6  C7  UNL d   1       1.356   4.236   1.317  0.00  0.00     0.002 A 
ENDROOT
BRANCH   1   7
ATOM      7  C1  UNL d   1      -0.394   4.261   3.135  0.00  0.00     0.055 C 
ATOM      8  C   UNL d   1      -1.468   5.280   2.784  0.00  0.00     0.019 C 
ENDBRANCH   1   7
TORSDOF 1
ENDMDL
