MODEL 1
REMARK minimizedAffinity -3.21073437
REMARK minimizedRMSD -1
REMARK  1 active torsions:
REMARK  status: ('A' for Active; 'I' for Inactive)
REMARK    1  A    between atoms: C1_2  and  C2_3 
ROOT
ATOM      1  C2  UNL d   1      -0.085  -0.740  -0.382  0.00  0.00    -0.077 A 
ATOM      2  C3  UNL d   1       0.377   0.468  -0.923  0.00  0.00     0.002 A 
ATOM      3  C4  UNL d   1      -0.132   1.686  -0.468  0.00  0.00     0.002 A 
ATOM      4  C5  UNL d   1      -1.103   1.707   0.531  0.00  0.00    -0.004 A 
ATOM      5  C6  UNL d   1      -1.570   0.511   1.074  0.00  0.00     0.002 A 
ATOM      6  C7  UNL d   1      -1.063  -0.707   0.620  0.00  0.00     0.002 A 
ENDROOT
BRANCH   1   7
ATOM      7  C1  UNL d   1       0.499  -2.053  -0.836  0.00  0.00     0.055 C 
ATOM      8  C   UNL d   1       0.325  -3.132   0.223  0.00  0.00     0.019 C 
ENDBRANCH   1   7
TORSDOF 1
ENDMDL
