MODEL 1
REMARK minimizedAffinity -6.10109425
REMARK minimizedRMSD -1
REMARK  1 active torsions:
REMARK  status: ('A' for Active; 'I' for Inactive)
REMARK    1  A    between atoms: C1_2  and  C2_3 
ROOT
ATOM      1  C2  UNL d   1      -0.091  -1.157  -0.153  0.00  0.00    -0.077 A 
ATOM      2  C3  UNL d   1       0.362  -1.064  -1.476  0.00  0.00     0.002 A 
ATOM      3  C4  UNL d   1       0.556  -2.218  -2.238  0.00  0.00     0.002 A 
ATOM      4  C5  UNL d   1       0.296  -3.471  -1.687  0.00  0.00    -0.004 A 
ATOM      5  C6  UNL d   1      -0.153  -3.573  -0.371  0.00  0.00     0.002 A 
ATOM      6  C7  UNL d   1      -0.347  -2.421   0.392  0.00  0.00     0.002 A 
ENDROOT
BRANCH   1   7
ATOM      7  C1  UNL d   1      -0.348   0.089   0.654  0.00  0.00     0.055 C 
ATOM      8  C   UNL d   1       0.025   1.341  -0.126  0.00  0.00     0.019 C 
ENDBRANCH   1   7
TORSDOF 1
ENDMDL
