MODEL 1
REMARK minimizedAffinity -5.1560936
REMARK minimizedRMSD -1
REMARK  1 active torsions:
REMARK  status: ('A' for Active; 'I' for Inactive)
REMARK    1  A    between atoms: C1_2  and  C2_3 
ROOT
ATOM      1  C2  UNL d   1      -0.381  -1.736  -0.418  0.00  0.00    -0.077 A 
ATOM      2  C3  UNL d   1      -0.869  -0.727   0.425  0.00  0.00     0.002 A 
ATOM      3  C4  UNL d   1      -0.854   0.606   0.012  0.00  0.00     0.002 A 
ATOM      4  C5  UNL d   1      -0.358   0.943  -1.245  0.00  0.00    -0.004 A 
ATOM      5  C6  UNL d   1       0.132  -0.053  -2.090  0.00  0.00     0.002 A 
ATOM      6  C7  UNL d   1       0.120  -1.386  -1.678  0.00  0.00     0.002 A 
ENDROOT
BRANCH   1   7
ATOM      7  C1  UNL d   1      -0.440  -3.180   0.006  0.00  0.00     0.055 C 
ATOM      8  C   UNL d   1      -1.838  -3.564   0.469  0.00  0.00     0.019 C 
ENDBRANCH   1   7
TORSDOF 1
ENDMDL
