MODEL 1
REMARK minimizedAffinity 6.12982368
REMARK minimizedRMSD -1
REMARK  1 active torsions:
REMARK  status: ('A' for Active; 'I' for Inactive)
REMARK    1  A    between atoms: C1_2  and  C2_3 
ROOT
ATOM      1  C2  UNL d   1      -1.674  -4.185  -5.422  0.00  0.00    -0.077 A 
ATOM      2  C3  UNL d   1      -2.816  -3.612  -6.000  0.00  0.00     0.002 A 
ATOM      3  C4  UNL d   1      -4.061  -4.229  -5.867  0.00  0.00     0.002 A 
ATOM      4  C5  UNL d   1      -4.177  -5.420  -5.154  0.00  0.00    -0.004 A 
ATOM      5  C6  UNL d   1      -3.048  -6.000  -4.577  0.00  0.00     0.002 A 
ATOM      6  C7  UNL d   1      -1.802  -5.384  -4.710  0.00  0.00     0.002 A 
ENDROOT
BRANCH   1   7
ATOM      7  C1  UNL d   1      -0.339  -3.495  -5.523  0.00  0.00     0.055 C 
ATOM      8  C   UNL d   1       0.775  -4.487  -5.824  0.00  0.00     0.019 C 
ENDBRANCH   1   7
TORSDOF 1
ENDMDL
