MODEL 1
REMARK minimizedAffinity -1.27830529
REMARK minimizedRMSD -1
REMARK  1 active torsions:
REMARK  status: ('A' for Active; 'I' for Inactive)
REMARK    1  A    between atoms: C1_2  and  C2_3 
ROOT
ATOM      1  C2  UNL d   1      -0.512   5.115  -2.741  0.00  0.00    -0.077 A 
ATOM      2  C3  UNL d   1       0.882   5.247  -2.689  0.00  0.00     0.002 A 
ATOM      3  C4  UNL d   1       1.643   4.396  -1.884  0.00  0.00     0.002 A 
ATOM      4  C5  UNL d   1       1.018   3.406  -1.129  0.00  0.00    -0.004 A 
ATOM      5  C6  UNL d   1      -0.369   3.268  -1.172  0.00  0.00     0.002 A 
ATOM      6  C7  UNL d   1      -1.131   4.119  -1.975  0.00  0.00     0.002 A 
ENDROOT
BRANCH   1   7
ATOM      7  C1  UNL d   1      -1.329   6.000  -3.646  0.00  0.00     0.055 C 
ATOM      8  C   UNL d   1      -2.590   5.292  -4.120  0.00  0.00     0.019 C 
ENDBRANCH   1   7
TORSDOF 1
ENDMDL
