MODEL 1
REMARK minimizedAffinity -3.58136845
REMARK minimizedRMSD -1
REMARK  1 active torsions:
REMARK  status: ('A' for Active; 'I' for Inactive)
REMARK    1  A    between atoms: C1_2  and  C2_3 
ROOT
ATOM      1  C2  UNL d   1       1.524   0.254   0.677  0.00  0.00    -0.077 A 
ATOM      2  C3  UNL d   1       0.880   1.499   0.690  0.00  0.00     0.002 A 
ATOM      3  C4  UNL d   1       0.326   1.995   1.872  0.00  0.00     0.002 A 
ATOM      4  C5  UNL d   1       0.414   1.255   3.049  0.00  0.00    -0.004 A 
ATOM      5  C6  UNL d   1       1.050   0.015   3.046  0.00  0.00     0.002 A 
ATOM      6  C7  UNL d   1       1.603  -0.483   1.865  0.00  0.00     0.002 A 
ENDROOT
BRANCH   1   7
ATOM      7  C1  UNL d   1       2.165  -0.261  -0.585  0.00  0.00     0.055 C 
ATOM      8  C   UNL d   1       1.973  -1.764  -0.731  0.00  0.00     0.019 C 
ENDBRANCH   1   7
TORSDOF 1
ENDMDL
