MODEL 1
REMARK minimizedAffinity 5.85001278
REMARK minimizedRMSD -1
REMARK  0 active torsions:
REMARK  status: ('A' for Active; 'I' for Inactive)
ROOT
ATOM      1  O1  BZF d   1      -0.219   0.871  -5.404  0.00  0.00    -0.204 OA
ATOM      2  C2  BZF d   1      -0.358  -0.367  -5.999  0.00  0.00     0.174 A 
ATOM      3  C3  BZF d   1      -1.099  -1.188  -5.227  0.00  0.00    -0.012 A 
ATOM      4  C3A BZF d   1      -1.521  -0.386  -4.121  0.00  0.00    -0.107 A 
ATOM      5  C4  BZF d   1      -2.295  -0.632  -3.023  0.00  0.00     0.055 A 
ATOM      6  C5  BZF d   1      -2.454   0.347  -2.094  0.00  0.00    -0.016 A 
ATOM      7  C6  BZF d   1      -1.851   1.580  -2.228  0.00  0.00     0.022 A 
ATOM      8  C7  BZF d   1      -1.079   1.873  -3.302  0.00  0.00     0.029 A 
ATOM      9  C7A BZF d   1      -0.942   0.897  -4.259  0.00  0.00     0.058 A 
ENDROOT
TORSDOF 0
ENDMDL
