MODEL 1
REMARK minimizedAffinity -0.25408408
REMARK minimizedRMSD -1
REMARK  0 active torsions:
REMARK  status: ('A' for Active; 'I' for Inactive)
ROOT
ATOM      1  O1  BZF d   1      -2.583  -0.799   2.435  0.00  0.00    -0.204 OA
ATOM      2  C2  BZF d   1      -3.351  -1.713   3.130  0.00  0.00     0.174 A 
ATOM      3  C3  BZF d   1      -2.592  -2.411   4.000  0.00  0.00    -0.012 A 
ATOM      4  C3A BZF d   1      -1.285  -1.837   3.904  0.00  0.00    -0.107 A 
ATOM      5  C4  BZF d   1      -0.100  -2.091   4.533  0.00  0.00     0.055 A 
ATOM      6  C5  BZF d   1       1.008  -1.399   4.158  0.00  0.00    -0.016 A 
ATOM      7  C6  BZF d   1       0.968  -0.452   3.156  0.00  0.00     0.022 A 
ATOM      8  C7  BZF d   1      -0.186  -0.162   2.507  0.00  0.00     0.029 A 
ATOM      9  C7A BZF d   1      -1.314  -0.836   2.906  0.00  0.00     0.058 A 
ENDROOT
TORSDOF 0
ENDMDL
