MODEL 1
REMARK minimizedAffinity 8.53330994
REMARK minimizedRMSD -1
REMARK  0 active torsions:
REMARK  status: ('A' for Active; 'I' for Inactive)
ROOT
ATOM      1  O1  BZF d   1      -2.245   3.529  -1.263  0.00  0.00    -0.204 OA
ATOM      2  C2  BZF d   1      -1.850   4.191  -2.409  0.00  0.00     0.174 A 
ATOM      3  C3  BZF d   1      -1.081   5.257  -2.104  0.00  0.00    -0.012 A 
ATOM      4  C3A BZF d   1      -0.915   5.207  -0.684  0.00  0.00    -0.107 A 
ATOM      5  C4  BZF d   1      -0.239   5.988   0.210  0.00  0.00     0.055 A 
ATOM      6  C5  BZF d   1      -0.338   5.710   1.537  0.00  0.00    -0.016 A 
ATOM      7  C6  BZF d   1      -1.107   4.664   2.004  0.00  0.00     0.022 A 
ATOM      8  C7  BZF d   1      -1.791   3.859   1.155  0.00  0.00     0.029 A 
ATOM      9  C7A BZF d   1      -1.666   4.117  -0.188  0.00  0.00     0.058 A 
ENDROOT
TORSDOF 0
ENDMDL
