MODEL 1
REMARK minimizedAffinity 10.7090235
REMARK minimizedRMSD -1
REMARK  0 active torsions:
REMARK  status: ('A' for Active; 'I' for Inactive)
ROOT
ATOM      1  O1  BZF d   1       0.017  -2.225   3.177  0.00  0.00    -0.204 OA
ATOM      2  C2  BZF d   1       1.186  -1.537   3.436  0.00  0.00     0.174 A 
ATOM      3  C3  BZF d   1       1.101  -0.265   2.994  0.00  0.00    -0.012 A 
ATOM      4  C3A BZF d   1      -0.236  -0.126   2.505  0.00  0.00    -0.107 A 
ATOM      5  C4  BZF d   1      -0.930   0.912   1.952  0.00  0.00     0.055 A 
ATOM      6  C5  BZF d   1      -2.199   0.699   1.513  0.00  0.00    -0.016 A 
ATOM      7  C6  BZF d   1      -2.801  -0.538   1.606  0.00  0.00     0.022 A 
ATOM      8  C7  BZF d   1      -2.154  -1.597   2.151  0.00  0.00     0.029 A 
ATOM      9  C7A BZF d   1      -0.884  -1.377   2.626  0.00  0.00     0.058 A 
ENDROOT
TORSDOF 0
ENDMDL
