MODEL 1
REMARK minimizedAffinity 0.526213348
REMARK minimizedRMSD -1
REMARK  0 active torsions:
REMARK  status: ('A' for Active; 'I' for Inactive)
ROOT
ATOM      1  O1  BZF d   1       5.833  -0.469  -2.576  0.00  0.00    -0.204 OA
ATOM      2  C2  BZF d   1       5.263  -1.186  -1.542  0.00  0.00     0.174 A 
ATOM      3  C3  BZF d   1       4.648  -2.292  -2.009  0.00  0.00    -0.012 A 
ATOM      4  C3A BZF d   1       4.925  -2.312  -3.413  0.00  0.00    -0.107 A 
ATOM      5  C4  BZF d   1       4.598  -3.172  -4.422  0.00  0.00     0.055 A 
ATOM      6  C5  BZF d   1       4.962  -2.865  -5.695  0.00  0.00    -0.016 A 
ATOM      7  C6  BZF d   1       5.648  -1.707  -5.995  0.00  0.00     0.022 A 
ATOM      8  C7  BZF d   1       5.999  -0.825  -5.026  0.00  0.00     0.029 A 
ATOM      9  C7A BZF d   1       5.661  -1.149  -3.735  0.00  0.00     0.058 A 
ENDROOT
TORSDOF 0
ENDMDL
