MODEL 1
REMARK minimizedAffinity 5.75277758
REMARK minimizedRMSD -1
REMARK  0 active torsions:
REMARK  status: ('A' for Active; 'I' for Inactive)
ROOT
ATOM      1  O1  BZF d   1       4.084  -0.088   4.211  0.00  0.00    -0.204 OA
ATOM      2  C2  BZF d   1       4.226  -0.808   5.381  0.00  0.00     0.174 A 
ATOM      3  C3  BZF d   1       3.222  -1.697   5.521  0.00  0.00    -0.012 A 
ATOM      4  C3A BZF d   1       2.450  -1.585   4.321  0.00  0.00    -0.107 A 
ATOM      5  C4  BZF d   1       1.333  -2.221   3.861  0.00  0.00     0.055 A 
ATOM      6  C5  BZF d   1       0.788  -1.826   2.680  0.00  0.00    -0.016 A 
ATOM      7  C6  BZF d   1       1.331  -0.798   1.937  0.00  0.00     0.022 A 
ATOM      8  C7  BZF d   1       2.442  -0.142   2.350  0.00  0.00     0.029 A 
ATOM      9  C7A BZF d   1       3.014  -0.560   3.527  0.00  0.00     0.058 A 
ENDROOT
TORSDOF 0
ENDMDL
