MODEL 1
REMARK minimizedAffinity 2.19676042
REMARK minimizedRMSD -1
REMARK  0 active torsions:
REMARK  status: ('A' for Active; 'I' for Inactive)
ROOT
ATOM      1  O1  BZF d   1       0.587   1.192   0.724  0.00  0.00    -0.204 OA
ATOM      2  C2  BZF d   1       1.947   1.292   0.503  0.00  0.00     0.174 A 
ATOM      3  C3  BZF d   1       2.623   0.414   1.271  0.00  0.00    -0.012 A 
ATOM      4  C3A BZF d   1       1.617  -0.342   1.952  0.00  0.00    -0.107 A 
ATOM      5  C4  BZF d   1       1.662  -1.375   2.845  0.00  0.00     0.055 A 
ATOM      6  C5  BZF d   1       0.501  -1.840   3.376  0.00  0.00    -0.016 A 
ATOM      7  C6  BZF d   1      -0.721  -1.293   3.041  0.00  0.00     0.022 A 
ATOM      8  C7  BZF d   1      -0.816  -0.271   2.156  0.00  0.00     0.029 A 
ATOM      9  C7A BZF d   1       0.353   0.179   1.593  0.00  0.00     0.058 A 
ENDROOT
TORSDOF 0
ENDMDL
