MODEL 1
REMARK minimizedAffinity 2.95792913
REMARK minimizedRMSD -1
REMARK  0 active torsions:
REMARK  status: ('A' for Active; 'I' for Inactive)
ROOT
ATOM      1  O1  BZF d   1       0.648  -2.952   3.963  0.00  0.00    -0.204 OA
ATOM      2  C2  BZF d   1       1.775  -2.241   4.326  0.00  0.00     0.174 A 
ATOM      3  C3  BZF d   1       1.735  -0.991   3.823  0.00  0.00    -0.012 A 
ATOM      4  C3A BZF d   1       0.462  -0.886   3.177  0.00  0.00    -0.107 A 
ATOM      5  C4  BZF d   1      -0.169   0.121   2.505  0.00  0.00     0.055 A 
ATOM      6  C5  BZF d   1      -1.377  -0.123   1.932  0.00  0.00    -0.016 A 
ATOM      7  C6  BZF d   1      -1.979  -1.362   2.008  0.00  0.00     0.022 A 
ATOM      8  C7  BZF d   1      -1.394  -2.390   2.669  0.00  0.00     0.029 A 
ATOM      9  C7A BZF d   1      -0.188  -2.137   3.276  0.00  0.00     0.058 A 
ENDROOT
TORSDOF 0
ENDMDL
