MODEL 1
REMARK minimizedAffinity -1.94139481
REMARK minimizedRMSD -1
REMARK  0 active torsions:
REMARK  status: ('A' for Active; 'I' for Inactive)
ROOT
ATOM      1  O1  BZF d   1       1.508  -2.332  -2.361  0.00  0.00    -0.204 OA
ATOM      2  C2  BZF d   1       1.144  -3.662  -2.271  0.00  0.00     0.174 A 
ATOM      3  C3  BZF d   1       0.049  -3.910  -3.017  0.00  0.00    -0.012 A 
ATOM      4  C3A BZF d   1      -0.239  -2.677  -3.684  0.00  0.00    -0.107 A 
ATOM      5  C4  BZF d   1      -1.200  -2.294  -4.576  0.00  0.00     0.055 A 
ATOM      6  C5  BZF d   1      -1.248  -0.997  -4.979  0.00  0.00    -0.016 A 
ATOM      7  C6  BZF d   1      -0.355  -0.057  -4.508  0.00  0.00     0.022 A 
ATOM      8  C7  BZF d   1       0.618  -0.390  -3.626  0.00  0.00     0.029 A 
ATOM      9  C7A BZF d   1       0.690  -1.707  -3.242  0.00  0.00     0.058 A 
ENDROOT
TORSDOF 0
ENDMDL
