MODEL 1
REMARK minimizedAffinity 2.2304194
REMARK minimizedRMSD -1
REMARK  2 active torsions:
REMARK  status: ('A' for Active; 'I' for Inactive)
REMARK    1  A    between atoms: C1_2  and  C2_3 
REMARK    2  A    between atoms: C2_3  and  C3_4 
ROOT
ATOM      1  C3  UNL d   1       2.331  -1.527   2.778  0.00  0.00    -0.075 A 
ATOM      2  C4  UNL d   1       3.598  -1.793   3.316  0.00  0.00     0.002 A 
ATOM      3  C5  UNL d   1       3.825  -2.955   4.054  0.00  0.00     0.002 A 
ATOM      4  C6  UNL d   1       2.787  -3.859   4.271  0.00  0.00    -0.004 A 
ATOM      5  C7  UNL d   1       1.520  -3.597   3.756  0.00  0.00     0.002 A 
ATOM      6  C8  UNL d   1       1.291  -2.437   3.013  0.00  0.00     0.002 A 
ENDROOT
BRANCH   1   7
ATOM      7  C2  UNL d   1       2.087  -0.285   1.954  0.00  0.00     0.056 C 
BRANCH   7   8
ATOM      8  C1  UNL d   1       3.314   0.622   1.814  0.00  0.00     0.007 C 
ATOM      9  C   UNL d   1       3.283   1.484   0.559  0.00  0.00     0.009 C 
ENDBRANCH   7   8
ENDBRANCH   1   7
TORSDOF 2
ENDMDL
