MODEL 1
REMARK minimizedAffinity 1.42281818
REMARK minimizedRMSD -1
REMARK  2 active torsions:
REMARK  status: ('A' for Active; 'I' for Inactive)
REMARK    1  A    between atoms: C1_2  and  C2_3 
REMARK    2  A    between atoms: C2_3  and  C3_4 
ROOT
ATOM      1  C3  UNL d   1       2.457  -1.852   3.352  0.00  0.00    -0.075 A 
ATOM      2  C4  UNL d   1       3.797  -1.850   3.764  0.00  0.00     0.002 A 
ATOM      3  C5  UNL d   1       4.300  -2.892   4.543  0.00  0.00     0.002 A 
ATOM      4  C6  UNL d   1       3.469  -3.942   4.928  0.00  0.00    -0.004 A 
ATOM      5  C7  UNL d   1       2.132  -3.946   4.538  0.00  0.00     0.002 A 
ATOM      6  C8  UNL d   1       1.627  -2.907   3.755  0.00  0.00     0.002 A 
ENDROOT
BRANCH   1   7
ATOM      7  C2  UNL d   1       1.914  -0.742   2.484  0.00  0.00     0.056 C 
BRANCH   7   8
ATOM      8  C1  UNL d   1       2.990   0.035   1.718  0.00  0.00     0.007 C 
ATOM      9  C   UNL d   1       2.440   1.238   0.964  0.00  0.00     0.009 C 
ENDBRANCH   7   8
ENDBRANCH   1   7
TORSDOF 2
ENDMDL
