MODEL 1
REMARK minimizedAffinity 0.628571808
REMARK minimizedRMSD -1
REMARK  2 active torsions:
REMARK  status: ('A' for Active; 'I' for Inactive)
REMARK    1  A    between atoms: C1_2  and  C2_3 
REMARK    2  A    between atoms: C2_3  and  C3_4 
ROOT
ATOM      1  C3  UNL d   1       1.929  -0.078   1.922  0.00  0.00    -0.075 A 
ATOM      2  C4  UNL d   1       2.372   1.202   1.558  0.00  0.00     0.002 A 
ATOM      3  C5  UNL d   1       1.666   1.954   0.618  0.00  0.00     0.002 A 
ATOM      4  C6  UNL d   1       0.517   1.435   0.026  0.00  0.00    -0.004 A 
ATOM      5  C7  UNL d   1       0.078   0.158   0.368  0.00  0.00     0.002 A 
ATOM      6  C8  UNL d   1       0.779  -0.596   1.311  0.00  0.00     0.002 A 
ENDROOT
BRANCH   1   7
ATOM      7  C2  UNL d   1       2.671  -0.886   2.960  0.00  0.00     0.056 C 
BRANCH   7   8
ATOM      8  C1  UNL d   1       1.797  -1.356   4.127  0.00  0.00     0.007 C 
ATOM      9  C   UNL d   1       1.398  -2.822   4.025  0.00  0.00     0.009 C 
ENDBRANCH   7   8
ENDBRANCH   1   7
TORSDOF 2
ENDMDL
