MODEL 1
REMARK minimizedAffinity -1.39126623
REMARK minimizedRMSD -1
REMARK  2 active torsions:
REMARK  status: ('A' for Active; 'I' for Inactive)
REMARK    1  A    between atoms: C1_2  and  C2_3 
REMARK    2  A    between atoms: C2_3  and  C3_4 
ROOT
ATOM      1  C3  UNL d   1       1.750   0.018   2.491  0.00  0.00    -0.075 A 
ATOM      2  C4  UNL d   1       0.873  -0.857   1.835  0.00  0.00     0.002 A 
ATOM      3  C5  UNL d   1       0.529  -2.080   2.412  0.00  0.00     0.002 A 
ATOM      4  C6  UNL d   1       1.064  -2.447   3.645  0.00  0.00    -0.004 A 
ATOM      5  C7  UNL d   1       1.950  -1.592   4.298  0.00  0.00     0.002 A 
ATOM      6  C8  UNL d   1       2.292  -0.366   3.725  0.00  0.00     0.002 A 
ENDROOT
BRANCH   1   7
ATOM      7  C2  UNL d   1       2.103   1.356   1.885  0.00  0.00     0.056 C 
BRANCH   7   8
ATOM      8  C1  UNL d   1       1.530   1.576   0.482  0.00  0.00     0.007 C 
ATOM      9  C   UNL d   1       0.252   2.405   0.478  0.00  0.00     0.009 C 
ENDBRANCH   7   8
ENDBRANCH   1   7
TORSDOF 2
ENDMDL
