MODEL 1
REMARK minimizedAffinity 4.13671637
REMARK minimizedRMSD -1
REMARK  2 active torsions:
REMARK  status: ('A' for Active; 'I' for Inactive)
REMARK    1  A    between atoms: C1_2  and  C2_3 
REMARK    2  A    between atoms: C2_3  and  C3_4 
ROOT
ATOM      1  C3  UNL d   1       0.541   2.508   0.417  0.00  0.00    -0.075 A 
ATOM      2  C4  UNL d   1       1.870   2.110   0.623  0.00  0.00     0.002 A 
ATOM      3  C5  UNL d   1       2.161   0.838   1.116  0.00  0.00     0.002 A 
ATOM      4  C6  UNL d   1       1.129  -0.048   1.419  0.00  0.00    -0.004 A 
ATOM      5  C7  UNL d   1      -0.196   0.342   1.234  0.00  0.00     0.002 A 
ATOM      6  C8  UNL d   1      -0.490   1.613   0.736  0.00  0.00     0.002 A 
ENDROOT
BRANCH   1   7
ATOM      7  C2  UNL d   1       0.221   3.873  -0.144  0.00  0.00     0.056 C 
BRANCH   7   8
ATOM      8  C1  UNL d   1      -1.083   4.476   0.388  0.00  0.00     0.007 C 
ATOM      9  C   UNL d   1      -1.084   5.999   0.389  0.00  0.00     0.009 C 
ENDBRANCH   7   8
ENDBRANCH   1   7
TORSDOF 2
ENDMDL
