MODEL 1
REMARK minimizedAffinity 0.155841187
REMARK minimizedRMSD -1
REMARK  2 active torsions:
REMARK  status: ('A' for Active; 'I' for Inactive)
REMARK    1  A    between atoms: C1_2  and  C2_3 
REMARK    2  A    between atoms: C2_3  and  C3_4 
ROOT
ATOM      1  C3  UNL d   1       1.830  -1.202   3.928  0.00  0.00    -0.075 A 
ATOM      2  C4  UNL d   1       2.024  -2.200   4.894  0.00  0.00     0.002 A 
ATOM      3  C5  UNL d   1       1.550  -3.495   4.680  0.00  0.00     0.002 A 
ATOM      4  C6  UNL d   1       0.868  -3.805   3.506  0.00  0.00    -0.004 A 
ATOM      5  C7  UNL d   1       0.655  -2.817   2.546  0.00  0.00     0.002 A 
ATOM      6  C8  UNL d   1       1.132  -1.522   2.756  0.00  0.00     0.002 A 
ENDROOT
BRANCH   1   7
ATOM      7  C2  UNL d   1       2.367   0.193   4.140  0.00  0.00     0.056 C 
BRANCH   7   8
ATOM      8  C1  UNL d   1       2.561   0.990   2.846  0.00  0.00     0.007 C 
ATOM      9  C   UNL d   1       2.611   2.496   3.070  0.00  0.00     0.009 C 
ENDBRANCH   7   8
ENDBRANCH   1   7
TORSDOF 2
ENDMDL
