MODEL 1
REMARK minimizedAffinity 9.48262787
REMARK minimizedRMSD -1
REMARK  1 active torsions:
REMARK  status: ('A' for Active; 'I' for Inactive)
REMARK    1  A    between atoms: C1_2  and  C2_3 
ROOT
ATOM      1  C2  UNL d   1       3.324   0.122  -0.403  0.00  0.00    -0.081 A 
ATOM      2  C3  UNL d   1       2.359   0.491   0.542  0.00  0.00     0.006 A 
ATOM      3  C4  UNL d   1       2.722   1.215   1.680  0.00  0.00     0.002 A 
ATOM      4  C5  UNL d   1       4.054   1.588   1.889  0.00  0.00    -0.080 A 
ATOM      5  C6  UNL d   1       4.452   2.392   3.091  0.00  0.00     0.076 C 
ATOM      6  C7  UNL d   1       5.021   1.205   0.954  0.00  0.00     0.002 A 
ATOM      7  C8  UNL d   1       4.659   0.480  -0.184  0.00  0.00     0.006 A 
ENDROOT
BRANCH   1   8
ATOM      8  C1  UNL d   1       2.926  -0.602  -1.663  0.00  0.00     0.054 C 
ATOM      9  C   UNL d   1       2.673  -2.079  -1.396  0.00  0.00     0.018 C 
ENDBRANCH   1   8
TORSDOF 1
ENDMDL
