MODEL 1
REMARK minimizedAffinity 5.42221308
REMARK minimizedRMSD -1
REMARK  1 active torsions:
REMARK  status: ('A' for Active; 'I' for Inactive)
REMARK    1  A    between atoms: C1_2  and  C2_3 
ROOT
ATOM      1  C2  UNL d   1       4.859   1.858  -0.196  0.00  0.00    -0.081 A 
ATOM      2  C3  UNL d   1       5.638   2.209   0.913  0.00  0.00     0.006 A 
ATOM      3  C4  UNL d   1       5.997   3.540   1.134  0.00  0.00     0.002 A 
ATOM      4  C5  UNL d   1       5.577   4.544   0.254  0.00  0.00    -0.080 A 
ATOM      5  C6  UNL d   1       5.930   5.981   0.496  0.00  0.00     0.076 C 
ATOM      6  C7  UNL d   1       4.814   4.191  -0.864  0.00  0.00     0.002 A 
ATOM      7  C8  UNL d   1       4.455   2.860  -1.086  0.00  0.00     0.006 A 
ENDROOT
BRANCH   1   8
ATOM      8  C1  UNL d   1       4.416   0.432  -0.402  0.00  0.00     0.054 C 
ATOM      9  C   UNL d   1       2.899   0.316  -0.386  0.00  0.00     0.018 C 
ENDBRANCH   1   8
TORSDOF 1
ENDMDL
