MODEL 1
REMARK minimizedAffinity 13.5843487
REMARK minimizedRMSD -1
REMARK  1 active torsions:
REMARK  status: ('A' for Active; 'I' for Inactive)
REMARK    1  A    between atoms: C1_2  and  C2_3 
ROOT
ATOM      1  C2  UNL d   1       1.692   0.088   0.171  0.00  0.00    -0.081 A 
ATOM      2  C3  UNL d   1       0.802   0.695  -0.725  0.00  0.00     0.006 A 
ATOM      3  C4  UNL d   1      -0.430   1.181  -0.280  0.00  0.00     0.002 A 
ATOM      4  C5  UNL d   1      -0.789   1.075   1.068  0.00  0.00    -0.080 A 
ATOM      5  C6  UNL d   1      -2.096   1.620   1.564  0.00  0.00     0.076 C 
ATOM      6  C7  UNL d   1       0.092   0.454   1.959  0.00  0.00     0.002 A 
ATOM      7  C8  UNL d   1       1.323  -0.033   1.515  0.00  0.00     0.006 A 
ENDROOT
BRANCH   1   8
ATOM      8  C1  UNL d   1       3.048  -0.378  -0.293  0.00  0.00     0.054 C 
ATOM      9  C   UNL d   1       4.039   0.775  -0.354  0.00  0.00     0.018 C 
ENDBRANCH   1   8
TORSDOF 1
ENDMDL
