MODEL 1
REMARK minimizedAffinity 16.5879288
REMARK minimizedRMSD -1
REMARK  1 active torsions:
REMARK  status: ('A' for Active; 'I' for Inactive)
REMARK    1  A    between atoms: C1_2  and  C2_3 
ROOT
ATOM      1  C2  UNL d   1       3.300  -1.076  -1.236  0.00  0.00    -0.081 A 
ATOM      2  C3  UNL d   1       4.252  -0.656  -2.172  0.00  0.00     0.006 A 
ATOM      3  C4  UNL d   1       4.731   0.657  -2.155  0.00  0.00     0.002 A 
ATOM      4  C5  UNL d   1       4.271   1.567  -1.198  0.00  0.00    -0.080 A 
ATOM      5  C6  UNL d   1       4.799   2.970  -1.150  0.00  0.00     0.076 C 
ATOM      6  C7  UNL d   1       3.307   1.153  -0.274  0.00  0.00     0.002 A 
ATOM      7  C8  UNL d   1       2.827  -0.159  -0.291  0.00  0.00     0.006 A 
ENDROOT
BRANCH   1   8
ATOM      8  C1  UNL d   1       2.830  -2.508  -1.211  0.00  0.00     0.054 C 
ATOM      9  C   UNL d   1       2.625  -3.048  -2.619  0.00  0.00     0.018 C 
ENDBRANCH   1   8
TORSDOF 1
ENDMDL
