MODEL 1
REMARK minimizedAffinity 5.44756603
REMARK minimizedRMSD -1
REMARK  1 active torsions:
REMARK  status: ('A' for Active; 'I' for Inactive)
REMARK    1  A    between atoms: C1_2  and  C2_3 
ROOT
ATOM      1  C2  UNL d   1      -4.665   1.072  -1.517  0.00  0.00    -0.081 A 
ATOM      2  C3  UNL d   1      -5.317   1.909  -2.430  0.00  0.00     0.006 A 
ATOM      3  C4  UNL d   1      -4.804   2.088  -3.717  0.00  0.00     0.002 A 
ATOM      4  C5  UNL d   1      -3.636   1.429  -4.114  0.00  0.00    -0.080 A 
ATOM      5  C6  UNL d   1      -3.092   1.589  -5.503  0.00  0.00     0.076 C 
ATOM      6  C7  UNL d   1      -2.975   0.606  -3.196  0.00  0.00     0.002 A 
ATOM      7  C8  UNL d   1      -3.487   0.427  -1.909  0.00  0.00     0.006 A 
ENDROOT
BRANCH   1   8
ATOM      8  C1  UNL d   1      -5.250   0.825  -0.150  0.00  0.00     0.054 C 
ATOM      9  C   UNL d   1      -4.263   1.189   0.949  0.00  0.00     0.018 C 
ENDBRANCH   1   8
TORSDOF 1
ENDMDL
