MODEL 1
REMARK minimizedAffinity 11.2797756
REMARK minimizedRMSD -1
REMARK  1 active torsions:
REMARK  status: ('A' for Active; 'I' for Inactive)
REMARK    1  A    between atoms: C1_2  and  C2_3 
ROOT
ATOM      1  C2  UNL d   1       3.440   0.519  -0.514  0.00  0.00    -0.081 A 
ATOM      2  C3  UNL d   1       2.565  -0.545  -0.770  0.00  0.00     0.006 A 
ATOM      3  C4  UNL d   1       1.408  -0.709  -0.006  0.00  0.00     0.002 A 
ATOM      4  C5  UNL d   1       1.101   0.190   1.021  0.00  0.00    -0.080 A 
ATOM      5  C6  UNL d   1      -0.154   0.042   1.829  0.00  0.00     0.076 C 
ATOM      6  C7  UNL d   1       1.983   1.242   1.288  0.00  0.00     0.002 A 
ATOM      7  C8  UNL d   1       3.141   1.407   0.525  0.00  0.00     0.006 A 
ENDROOT
BRANCH   1   8
ATOM      8  C1  UNL d   1       4.655   0.737  -1.378  0.00  0.00     0.054 C 
ATOM      9  C   UNL d   1       5.151   2.173  -1.284  0.00  0.00     0.018 C 
ENDBRANCH   1   8
TORSDOF 1
ENDMDL
