MODEL 1
REMARK minimizedAffinity 15.3439398
REMARK minimizedRMSD -1
REMARK  1 active torsions:
REMARK  status: ('A' for Active; 'I' for Inactive)
REMARK    1  A    between atoms: C1_2  and  C2_3 
ROOT
ATOM      1  C2  UNL d   1       5.746   1.938   0.142  0.00  0.00    -0.081 A 
ATOM      2  C3  UNL d   1       5.904   2.998   1.043  0.00  0.00     0.006 A 
ATOM      3  C4  UNL d   1       5.999   4.313   0.581  0.00  0.00     0.002 A 
ATOM      4  C5  UNL d   1       5.930   4.590  -0.789  0.00  0.00    -0.080 A 
ATOM      5  C6  UNL d   1       6.000   5.999  -1.297  0.00  0.00     0.076 C 
ATOM      6  C7  UNL d   1       5.789   3.529  -1.690  0.00  0.00     0.002 A 
ATOM      7  C8  UNL d   1       5.695   2.215  -1.228  0.00  0.00     0.006 A 
ENDROOT
BRANCH   1   8
ATOM      8  C1  UNL d   1       5.578   0.526   0.642  0.00  0.00     0.054 C 
ATOM      9  C   UNL d   1       4.148   0.039   0.455  0.00  0.00     0.018 C 
ENDBRANCH   1   8
TORSDOF 1
ENDMDL
