MODEL 1
REMARK minimizedAffinity -3.28925538
REMARK minimizedRMSD -1
REMARK  0 active torsions:
REMARK  status: ('A' for Active; 'I' for Inactive)
ROOT
ATOM      1  C   UNL d   1       0.453  -0.698  -0.354  0.00  0.00     0.172 C 
ATOM      2  N   UNL d   1       0.079   0.333   0.586  0.00  0.00    -0.070 N 
ATOM      3  C1  UNL d   1       0.706   0.595   1.775  0.00  0.00    -0.004 A 
ATOM      4  C2  UNL d   1       0.051   1.649   2.374  0.00  0.00    -0.047 A 
ATOM      5  C3  UNL d   1      -1.006   2.034   1.515  0.00  0.00    -0.047 A 
ATOM      6  C4  UNL d   1      -0.965   1.203   0.416  0.00  0.00    -0.004 A 
ENDROOT
TORSDOF 0
ENDMDL
