MODEL 1
REMARK minimizedAffinity -2.03809643
REMARK minimizedRMSD -1
REMARK  0 active torsions:
REMARK  status: ('A' for Active; 'I' for Inactive)
ROOT
ATOM      1  C   UNL d   1       0.351   1.152   2.296  0.00  0.00     0.172 C 
ATOM      2  N   UNL d   1       0.146   0.401   1.080  0.00  0.00    -0.070 N 
ATOM      3  C1  UNL d   1      -0.340  -0.877   1.002  0.00  0.00    -0.004 A 
ATOM      4  C2  UNL d   1      -0.385  -1.231  -0.329  0.00  0.00    -0.047 A 
ATOM      5  C3  UNL d   1       0.092  -0.129  -1.077  0.00  0.00    -0.047 A 
ATOM      6  C4  UNL d   1       0.414   0.868  -0.180  0.00  0.00    -0.004 A 
ENDROOT
TORSDOF 0
ENDMDL
