MODEL 1
REMARK minimizedAffinity -2.74513221
REMARK minimizedRMSD -1
REMARK  0 active torsions:
REMARK  status: ('A' for Active; 'I' for Inactive)
ROOT
ATOM      1  C   UNL d   1       0.209  -0.966  -0.565  0.00  0.00     0.172 C 
ATOM      2  N   UNL d   1       0.106   0.094   0.411  0.00  0.00    -0.070 N 
ATOM      3  C1  UNL d   1       0.888   0.231   1.526  0.00  0.00    -0.004 A 
ATOM      4  C2  UNL d   1       0.476   1.364   2.194  0.00  0.00    -0.047 A 
ATOM      5  C3  UNL d   1      -0.591   1.927   1.453  0.00  0.00    -0.047 A 
ATOM      6  C4  UNL d   1      -0.799   1.121   0.355  0.00  0.00    -0.004 A 
ENDROOT
TORSDOF 0
ENDMDL
