MODEL 1
REMARK minimizedAffinity -3.21030545
REMARK minimizedRMSD -1
REMARK  0 active torsions:
REMARK  status: ('A' for Active; 'I' for Inactive)
ROOT
ATOM      1  C   UNL d   1       2.434   2.934   2.873  0.00  0.00     0.172 C 
ATOM      2  N   UNL d   1       1.103   2.731   2.352  0.00  0.00    -0.070 N 
ATOM      3  C1  UNL d   1       0.296   1.657   2.619  0.00  0.00    -0.004 A 
ATOM      4  C2  UNL d   1      -0.887   1.837   1.936  0.00  0.00    -0.047 A 
ATOM      5  C3  UNL d   1      -0.788   3.061   1.233  0.00  0.00    -0.047 A 
ATOM      6  C4  UNL d   1       0.454   3.594   1.508  0.00  0.00    -0.004 A 
ENDROOT
TORSDOF 0
ENDMDL
