MODEL 1
REMARK minimizedAffinity -2.5408318
REMARK minimizedRMSD -1
REMARK  0 active torsions:
REMARK  status: ('A' for Active; 'I' for Inactive)
ROOT
ATOM      1  C   UNL d   1       0.969  -0.975  -0.280  0.00  0.00     0.172 C 
ATOM      2  N   UNL d   1       0.538  -0.139   0.816  0.00  0.00    -0.070 N 
ATOM      3  C1  UNL d   1       0.012   1.119   0.702  0.00  0.00    -0.004 A 
ATOM      4  C2  UNL d   1      -0.270   1.576   1.971  0.00  0.00    -0.047 A 
ATOM      5  C3  UNL d   1       0.100   0.556   2.880  0.00  0.00    -0.047 A 
ATOM      6  C4  UNL d   1       0.598  -0.494   2.138  0.00  0.00    -0.004 A 
ENDROOT
TORSDOF 0
ENDMDL
