MODEL 1
REMARK minimizedAffinity -3.88979435
REMARK minimizedRMSD -1
REMARK  0 active torsions:
REMARK  status: ('A' for Active; 'I' for Inactive)
ROOT
ATOM      1  C   UNL d   1       2.318   3.308   2.773  0.00  0.00     0.172 C 
ATOM      2  N   UNL d   1       1.038   2.993   2.183  0.00  0.00    -0.070 N 
ATOM      3  C1  UNL d   1       0.373   1.802   2.307  0.00  0.00    -0.004 A 
ATOM      4  C2  UNL d   1      -0.806   1.902   1.601  0.00  0.00    -0.047 A 
ATOM      5  C3  UNL d   1      -0.852   3.197   1.034  0.00  0.00    -0.047 A 
ATOM      6  C4  UNL d   1       0.302   3.852   1.410  0.00  0.00    -0.004 A 
ENDROOT
TORSDOF 0
ENDMDL
