MODEL 1
REMARK minimizedAffinity -4.2383337
REMARK minimizedRMSD -1
REMARK  0 active torsions:
REMARK  status: ('A' for Active; 'I' for Inactive)
ROOT
ATOM      1  C   UNL d   1       0.454  -0.498   0.831  0.00  0.00     0.172 C 
ATOM      2  N   UNL d   1      -0.237   0.754   1.027  0.00  0.00    -0.070 N 
ATOM      3  C1  UNL d   1       0.204   1.798   1.795  0.00  0.00    -0.004 A 
ATOM      4  C2  UNL d   1      -0.736   2.803   1.722  0.00  0.00    -0.047 A 
ATOM      5  C3  UNL d   1      -1.779   2.347   0.881  0.00  0.00    -0.047 A 
ATOM      6  C4  UNL d   1      -1.445   1.076   0.465  0.00  0.00    -0.004 A 
ENDROOT
TORSDOF 0
ENDMDL
