MODEL 1
REMARK minimizedAffinity -2.73180962
REMARK minimizedRMSD -1
REMARK  0 active torsions:
REMARK  status: ('A' for Active; 'I' for Inactive)
ROOT
ATOM      1  C   UNL d   1       0.846   2.311   2.368  0.00  0.00     0.172 C 
ATOM      2  N   UNL d   1      -0.320   2.172   1.528  0.00  0.00    -0.070 N 
ATOM      3  C1  UNL d   1      -0.371   1.493   0.339  0.00  0.00    -0.004 A 
ATOM      4  C2  UNL d   1      -1.656   1.596  -0.150  0.00  0.00    -0.047 A 
ATOM      5  C3  UNL d   1      -2.401   2.363   0.776  0.00  0.00    -0.047 A 
ATOM      6  C4  UNL d   1      -1.550   2.707   1.805  0.00  0.00    -0.004 A 
ENDROOT
TORSDOF 0
ENDMDL
