MODEL 1
REMARK minimizedAffinity -3.83009338
REMARK minimizedRMSD -1
REMARK  0 active torsions:
REMARK  status: ('A' for Active; 'I' for Inactive)
ROOT
ATOM      1  C   UNL d   1       0.509   0.089  -0.902  0.00  0.00     0.172 C 
ATOM      2  N   UNL d   1       0.014   0.973   0.127  0.00  0.00    -0.070 N 
ATOM      3  C1  UNL d   1       0.578   1.154   1.362  0.00  0.00    -0.004 A 
ATOM      4  C2  UNL d   1      -0.189   2.074   2.045  0.00  0.00    -0.047 A 
ATOM      5  C3  UNL d   1      -1.250   2.458   1.191  0.00  0.00    -0.047 A 
ATOM      6  C4  UNL d   1      -1.100   1.761   0.011  0.00  0.00    -0.004 A 
ENDROOT
TORSDOF 0
ENDMDL
