MODEL 1
REMARK minimizedAffinity 1.98628998
REMARK minimizedRMSD -1
REMARK  0 active torsions:
REMARK  status: ('A' for Active; 'I' for Inactive)
ROOT
ATOM      1  C2' OXE d   1       2.163   1.645  -5.930  0.00  0.00     0.078 C 
ATOM      2  C1' OXE d   1       4.748   2.737  -5.975  0.00  0.00     0.078 C 
ATOM      3  C1  OXE d   1       3.581   3.692  -5.962  0.00  0.00    -0.078 A 
ATOM      4  C2  OXE d   1       2.319   3.149  -5.987  0.00  0.00    -0.078 A 
ATOM      5  C3  OXE d   1       1.208   3.984  -5.922  0.00  0.00     0.003 A 
ATOM      6  C4  OXE d   1       1.361   5.375  -5.985  0.00  0.00    -0.002 A 
ATOM      7  C5  OXE d   1       2.637   5.948  -6.000  0.00  0.00    -0.002 A 
ATOM      8  C6  OXE d   1       3.755   5.124  -5.946  0.00  0.00     0.003 A 
ENDROOT
TORSDOF 0
ENDMDL
