MODEL 1
REMARK minimizedAffinity 17.4164677
REMARK minimizedRMSD -1
REMARK  0 active torsions:
REMARK  status: ('A' for Active; 'I' for Inactive)
ROOT
ATOM      1  C2' OXE d   1       4.849   1.642  -0.134  0.00  0.00     0.078 C 
ATOM      2  C1' OXE d   1       5.868   3.022   2.089  0.00  0.00     0.078 C 
ATOM      3  C1  OXE d   1       4.373   2.837   1.999  0.00  0.00    -0.078 A 
ATOM      4  C2  OXE d   1       3.880   2.202   0.885  0.00  0.00    -0.078 A 
ATOM      5  C3  OXE d   1       2.514   1.958   0.778  0.00  0.00     0.003 A 
ATOM      6  C4  OXE d   1       1.624   2.488   1.720  0.00  0.00    -0.002 A 
ATOM      7  C5  OXE d   1       2.102   3.172   2.842  0.00  0.00    -0.002 A 
ATOM      8  C6  OXE d   1       3.474   3.318   3.018  0.00  0.00     0.003 A 
ENDROOT
TORSDOF 0
ENDMDL
