MODEL 1
REMARK minimizedAffinity 4.25583506
REMARK minimizedRMSD -1
REMARK  0 active torsions:
REMARK  status: ('A' for Active; 'I' for Inactive)
ROOT
ATOM      1  C2' OXE d   1       2.899  -3.079  -1.864  0.00  0.00     0.078 C 
ATOM      2  C1' OXE d   1       3.842  -3.408   0.759  0.00  0.00     0.078 C 
ATOM      3  C1  OXE d   1       4.460  -4.259  -0.322  0.00  0.00    -0.078 A 
ATOM      4  C2  OXE d   1       3.960  -4.125  -1.595  0.00  0.00    -0.078 A 
ATOM      5  C3  OXE d   1       4.531  -4.847  -2.639  0.00  0.00     0.003 A 
ATOM      6  C4  OXE d   1       5.504  -5.819  -2.380  0.00  0.00    -0.002 A 
ATOM      7  C5  OXE d   1       5.999  -6.000  -1.084  0.00  0.00    -0.002 A 
ATOM      8  C6  OXE d   1       5.519  -5.200  -0.053  0.00  0.00     0.003 A 
ENDROOT
TORSDOF 0
ENDMDL
