MODEL 1
REMARK minimizedAffinity -1.52539289
REMARK minimizedRMSD -1
REMARK  0 active torsions:
REMARK  status: ('A' for Active; 'I' for Inactive)
ROOT
ATOM      1  C2' OXE d   1       5.000   5.271  -5.930  0.00  0.00     0.078 C 
ATOM      2  C1' OXE d   1       5.804   2.582  -5.906  0.00  0.00     0.078 C 
ATOM      3  C1  OXE d   1       4.325   2.874  -5.945  0.00  0.00    -0.078 A 
ATOM      4  C2  OXE d   1       3.939   4.192  -5.910  0.00  0.00    -0.078 A 
ATOM      5  C3  OXE d   1       2.589   4.518  -6.000  0.00  0.00     0.003 A 
ATOM      6  C4  OXE d   1       1.614   3.513  -5.971  0.00  0.00    -0.002 A 
ATOM      7  C5  OXE d   1       1.984   2.164  -5.967  0.00  0.00    -0.002 A 
ATOM      8  C6  OXE d   1       3.333   1.828  -5.997  0.00  0.00     0.003 A 
ENDROOT
TORSDOF 0
ENDMDL
