MODEL 1
REMARK minimizedAffinity 9.07457733
REMARK minimizedRMSD -1
REMARK  0 active torsions:
REMARK  status: ('A' for Active; 'I' for Inactive)
ROOT
ATOM      1  C2' OXE d   1       1.207   4.840  -5.955  0.00  0.00     0.078 C 
ATOM      2  C1' OXE d   1      -0.217   2.626  -4.980  0.00  0.00     0.078 C 
ATOM      3  C1  OXE d   1       1.255   2.450  -5.257  0.00  0.00    -0.078 A 
ATOM      4  C2  OXE d   1       1.934   3.525  -5.778  0.00  0.00    -0.078 A 
ATOM      5  C3  OXE d   1       3.305   3.432  -6.000  0.00  0.00     0.003 A 
ATOM      6  C4  OXE d   1       3.968   2.209  -5.843  0.00  0.00    -0.002 A 
ATOM      7  C5  OXE d   1       3.287   1.091  -5.351  0.00  0.00    -0.002 A 
ATOM      8  C6  OXE d   1       1.943   1.205  -5.014  0.00  0.00     0.003 A 
ENDROOT
TORSDOF 0
ENDMDL
