MODEL 1
REMARK minimizedAffinity 6.07363224
REMARK minimizedRMSD -1
REMARK  0 active torsions:
REMARK  status: ('A' for Active; 'I' for Inactive)
ROOT
ATOM      1  C2' OXE d   1       5.010   1.614  -5.924  0.00  0.00     0.078 C 
ATOM      2  C1' OXE d   1       5.166   4.416  -5.993  0.00  0.00     0.078 C 
ATOM      3  C1  OXE d   1       3.795   3.788  -5.968  0.00  0.00    -0.078 A 
ATOM      4  C2  OXE d   1       3.728   2.416  -5.981  0.00  0.00    -0.078 A 
ATOM      5  C3  OXE d   1       2.489   1.785  -5.903  0.00  0.00     0.003 A 
ATOM      6  C4  OXE d   1       1.307   2.534  -5.967  0.00  0.00    -0.002 A 
ATOM      7  C5  OXE d   1       1.353   3.932  -5.994  0.00  0.00    -0.002 A 
ATOM      8  C6  OXE d   1       2.586   4.574  -5.952  0.00  0.00     0.003 A 
ENDROOT
TORSDOF 0
ENDMDL
