MODEL 1
REMARK minimizedAffinity 0.382237256
REMARK minimizedRMSD -1
REMARK  0 active torsions:
REMARK  status: ('A' for Active; 'I' for Inactive)
ROOT
ATOM      1  C2' OXE d   1       1.902   2.127  -5.978  0.00  0.00     0.078 C 
ATOM      2  C1' OXE d   1       4.697   1.870  -5.910  0.00  0.00     0.078 C 
ATOM      3  C1  OXE d   1       4.119   3.263  -5.918  0.00  0.00    -0.078 A 
ATOM      4  C2  OXE d   1       2.752   3.380  -5.998  0.00  0.00    -0.078 A 
ATOM      5  C3  OXE d   1       2.164   4.641  -5.953  0.00  0.00     0.003 A 
ATOM      6  C4  OXE d   1       2.957   5.794  -5.982  0.00  0.00    -0.002 A 
ATOM      7  C5  OXE d   1       4.352   5.698  -5.941  0.00  0.00    -0.002 A 
ATOM      8  C6  OXE d   1       4.946   4.443  -5.865  0.00  0.00     0.003 A 
ENDROOT
TORSDOF 0
ENDMDL
