MODEL 1
REMARK minimizedAffinity 2.76327515
REMARK minimizedRMSD -1
REMARK  0 active torsions:
REMARK  status: ('A' for Active; 'I' for Inactive)
ROOT
ATOM      1  C2' OXE d   1      -6.000   3.391  -5.619  0.00  0.00     0.078 C 
ATOM      2  C1' OXE d   1      -5.926   0.773  -4.607  0.00  0.00     0.078 C 
ATOM      3  C1  OXE d   1      -4.962   1.779  -4.028  0.00  0.00    -0.078 A 
ATOM      4  C2  OXE d   1      -4.973   3.045  -4.562  0.00  0.00    -0.078 A 
ATOM      5  C3  OXE d   1      -4.143   4.026  -4.027  0.00  0.00     0.003 A 
ATOM      6  C4  OXE d   1      -3.190   3.695  -3.056  0.00  0.00    -0.002 A 
ATOM      7  C5  OXE d   1      -3.135   2.401  -2.527  0.00  0.00    -0.002 A 
ATOM      8  C6  OXE d   1      -4.041   1.444  -2.971  0.00  0.00     0.003 A 
ENDROOT
TORSDOF 0
ENDMDL
