MODEL 1
REMARK minimizedAffinity 10.3436041
REMARK minimizedRMSD -1
REMARK  0 active torsions:
REMARK  status: ('A' for Active; 'I' for Inactive)
ROOT
ATOM      1  C2' OXE d   1      -1.966   1.452   4.140  0.00  0.00     0.078 C 
ATOM      2  C1' OXE d   1      -3.914   2.630   5.782  0.00  0.00     0.078 C 
ATOM      3  C1  OXE d   1      -4.336   2.171   4.409  0.00  0.00    -0.078 A 
ATOM      4  C2  OXE d   1      -3.365   1.638   3.595  0.00  0.00    -0.078 A 
ATOM      5  C3  OXE d   1      -3.712   1.149   2.339  0.00  0.00     0.003 A 
ATOM      6  C4  OXE d   1      -5.006   1.334   1.838  0.00  0.00    -0.002 A 
ATOM      7  C5  OXE d   1      -6.000   1.910   2.636  0.00  0.00    -0.002 A 
ATOM      8  C6  OXE d   1      -5.692   2.295   3.936  0.00  0.00     0.003 A 
ENDROOT
TORSDOF 0
ENDMDL
