MODEL 1
REMARK minimizedAffinity 6.90793324
REMARK minimizedRMSD -1
REMARK  0 active torsions:
REMARK  status: ('A' for Active; 'I' for Inactive)
ROOT
ATOM      1  C   UNL d   1       4.924  -5.091   5.998  0.00  0.00     0.023 A 
ATOM      2  C1  UNL d   1       4.505  -5.930   4.965  0.00  0.00     0.003 A 
ATOM      3  C2  UNL d   1       3.781  -5.409   3.890  0.00  0.00     0.048 A 
ATOM      4  C3  UNL d   1       3.481  -4.048   3.854  0.00  0.00     0.023 A 
ATOM      5  C4  UNL d   1       3.899  -3.204   4.885  0.00  0.00     0.048 A 
ATOM      6  C5  UNL d   1       4.621  -3.730   5.957  0.00  0.00     0.003 A 
ATOM      7  I   UNL d   1       2.405  -3.270   2.255  0.00  0.00    -0.146 I 
ENDROOT
TORSDOF 0
ENDMDL
