MODEL 1
REMARK minimizedAffinity 7.66577816
REMARK minimizedRMSD -1
REMARK  0 active torsions:
REMARK  status: ('A' for Active; 'I' for Inactive)
ROOT
ATOM      1  C   UNL d   1      -1.248  -0.814   3.842  0.00  0.00     0.023 A 
ATOM      2  C1  UNL d   1      -1.585  -1.700   2.819  0.00  0.00     0.003 A 
ATOM      3  C2  UNL d   1      -0.603  -2.509   2.244  0.00  0.00     0.048 A 
ATOM      4  C3  UNL d   1       0.713  -2.429   2.698  0.00  0.00     0.023 A 
ATOM      5  C4  UNL d   1       1.054  -1.545   3.723  0.00  0.00     0.048 A 
ATOM      6  C5  UNL d   1       0.069  -0.736   4.294  0.00  0.00     0.003 A 
ATOM      7  I   UNL d   1       2.175  -3.634   1.844  0.00  0.00    -0.146 I 
ENDROOT
TORSDOF 0
ENDMDL
