MODEL 1
REMARK minimizedAffinity 12.2816486
REMARK minimizedRMSD -1
REMARK  0 active torsions:
REMARK  status: ('A' for Active; 'I' for Inactive)
ROOT
ATOM      1  C   UNL d   1       1.558   1.108  -0.721  0.00  0.00     0.023 A 
ATOM      2  C1  UNL d   1       1.352   1.042  -2.099  0.00  0.00     0.003 A 
ATOM      3  C2  UNL d   1       2.437   0.865  -2.961  0.00  0.00     0.048 A 
ATOM      4  C3  UNL d   1       3.725   0.753  -2.438  0.00  0.00     0.023 A 
ATOM      5  C4  UNL d   1       3.935   0.817  -1.059  0.00  0.00     0.048 A 
ATOM      6  C5  UNL d   1       2.848   0.996  -0.202  0.00  0.00     0.003 A 
ATOM      7  I   UNL d   1       5.340   0.489  -3.718  0.00  0.00    -0.146 I 
ENDROOT
TORSDOF 0
ENDMDL
