MODEL 1
REMARK minimizedAffinity 11.9073906
REMARK minimizedRMSD -1
REMARK  0 active torsions:
REMARK  status: ('A' for Active; 'I' for Inactive)
ROOT
ATOM      1  C   UNL d   1       1.391  -2.620   0.939  0.00  0.00     0.023 A 
ATOM      2  C1  UNL d   1       2.205  -3.741   1.100  0.00  0.00     0.003 A 
ATOM      3  C2  UNL d   1       2.936  -3.911   2.278  0.00  0.00     0.048 A 
ATOM      4  C3  UNL d   1       2.846  -2.957   3.291  0.00  0.00     0.023 A 
ATOM      5  C4  UNL d   1       2.032  -1.834   3.134  0.00  0.00     0.048 A 
ATOM      6  C5  UNL d   1       1.304  -1.668   1.955  0.00  0.00     0.003 A 
ATOM      7  I   UNL d   1       3.932  -3.209   5.045  0.00  0.00    -0.146 I 
ENDROOT
TORSDOF 0
ENDMDL
