MODEL 1
REMARK minimizedAffinity 11.4018517
REMARK minimizedRMSD -1
REMARK  0 active torsions:
REMARK  status: ('A' for Active; 'I' for Inactive)
ROOT
ATOM      1  C   UNL d   1       0.892   1.611  -1.169  0.00  0.00     0.023 A 
ATOM      2  C1  UNL d   1       0.199   0.444  -1.492  0.00  0.00     0.003 A 
ATOM      3  C2  UNL d   1       0.346  -0.698  -0.704  0.00  0.00     0.048 A 
ATOM      4  C3  UNL d   1       1.187  -0.667   0.408  0.00  0.00     0.023 A 
ATOM      5  C4  UNL d   1       1.882   0.498   0.736  0.00  0.00     0.048 A 
ATOM      6  C5  UNL d   1       1.733   1.638  -0.056  0.00  0.00     0.003 A 
ATOM      7  I   UNL d   1       1.408  -2.367   1.584  0.00  0.00    -0.146 I 
ENDROOT
TORSDOF 0
ENDMDL
