MODEL 1
REMARK minimizedAffinity 5.90680075
REMARK minimizedRMSD -1
REMARK  0 active torsions:
REMARK  status: ('A' for Active; 'I' for Inactive)
ROOT
ATOM      1  C   UNL d   1       3.000  -2.913   1.988  0.00  0.00     0.023 A 
ATOM      2  C1  UNL d   1       2.512  -4.063   1.368  0.00  0.00     0.003 A 
ATOM      3  C2  UNL d   1       3.370  -4.875   0.624  0.00  0.00     0.048 A 
ATOM      4  C3  UNL d   1       4.717  -4.532   0.506  0.00  0.00     0.023 A 
ATOM      5  C4  UNL d   1       5.210  -3.382   1.125  0.00  0.00     0.048 A 
ATOM      6  C5  UNL d   1       4.348  -2.573   1.867  0.00  0.00     0.003 A 
ATOM      7  I   UNL d   1       5.997  -5.739  -0.600  0.00  0.00    -0.146 I 
ENDROOT
TORSDOF 0
ENDMDL
