MODEL 1
REMARK minimizedAffinity 13.1877203
REMARK minimizedRMSD -1
REMARK  0 active torsions:
REMARK  status: ('A' for Active; 'I' for Inactive)
ROOT
ATOM      1  C   UNL d   1       0.754   0.689  -0.795  0.00  0.00     0.023 A 
ATOM      2  C1  UNL d   1       0.061  -0.521  -0.822  0.00  0.00     0.003 A 
ATOM      3  C2  UNL d   1       0.476  -1.584  -0.017  0.00  0.00     0.048 A 
ATOM      4  C3  UNL d   1       1.585  -1.429   0.814  0.00  0.00     0.023 A 
ATOM      5  C4  UNL d   1       2.281  -0.219   0.845  0.00  0.00     0.048 A 
ATOM      6  C5  UNL d   1       1.863   0.840   0.038  0.00  0.00     0.003 A 
ATOM      7  I   UNL d   1       2.205  -3.008   2.014  0.00  0.00    -0.146 I 
ENDROOT
TORSDOF 0
ENDMDL
