MODEL 1
REMARK minimizedAffinity -4.80495262
REMARK minimizedRMSD -1
REMARK  1 active torsions:
REMARK  status: ('A' for Active; 'I' for Inactive)
REMARK    1  A    between atoms: N_2  and  C1_3 
ROOT
ATOM      1  C1  UNL d   1      -1.312   3.037  -0.622  0.00  0.00     0.143 A 
ATOM      2  C2  UNL d   1      -0.417   3.070  -1.697  0.00  0.00    -0.057 A 
ATOM      3  C3  UNL d   1      -0.719   3.768  -2.873  0.00  0.00     0.033 A 
ATOM      4  C4  UNL d   1      -1.939   4.423  -3.005  0.00  0.00    -0.042 A 
ATOM      5  C5  UNL d   1      -2.855   4.382  -1.960  0.00  0.00     0.033 A 
ATOM      6  C6  UNL d   1      -2.544   3.689  -0.786  0.00  0.00    -0.057 A 
ENDROOT
BRANCH   1   7
ATOM      7  N   UNL d   1      -1.111   2.279   0.534  0.00  0.00    -0.732 N 
ATOM      8  C   UNL d   1      -0.501   0.969   0.460  0.00  0.00     0.284 C 
ATOM      9  H3  UNL d   1      -0.790   2.844   1.317  0.00  0.00     0.395 HD
ENDBRANCH   1   7
TORSDOF 1
ENDMDL
