MODEL 1
REMARK minimizedAffinity -4.98837042
REMARK minimizedRMSD -1
REMARK  1 active torsions:
REMARK  status: ('A' for Active; 'I' for Inactive)
REMARK    1  A    between atoms: N_2  and  C1_3 
ROOT
ATOM      1  C1  UNL d   1      -3.706   3.243  -2.571  0.00  0.00     0.143 A 
ATOM      2  C2  UNL d   1      -3.423   1.881  -2.431  0.00  0.00    -0.057 A 
ATOM      3  C3  UNL d   1      -2.131   1.435  -2.127  0.00  0.00     0.033 A 
ATOM      4  C4  UNL d   1      -1.089   2.346  -1.986  0.00  0.00    -0.042 A 
ATOM      5  C5  UNL d   1      -1.342   3.704  -2.146  0.00  0.00     0.033 A 
ATOM      6  C6  UNL d   1      -2.636   4.143  -2.443  0.00  0.00    -0.057 A 
ENDROOT
BRANCH   1   7
ATOM      7  N   UNL d   1      -4.948   3.743  -2.970  0.00  0.00    -0.732 N 
ATOM      8  C   UNL d   1      -5.997   2.847  -3.407  0.00  0.00     0.284 C 
ATOM      9  H3  UNL d   1      -5.271   4.502  -2.373  0.00  0.00     0.395 HD
ENDBRANCH   1   7
TORSDOF 1
ENDMDL
