MODEL 1
REMARK minimizedAffinity -4.15202379
REMARK minimizedRMSD -1
REMARK  1 active torsions:
REMARK  status: ('A' for Active; 'I' for Inactive)
REMARK    1  A    between atoms: N_2  and  C1_3 
ROOT
ATOM      1  C1  UNL d   1      -0.012  -0.362  -0.432  0.00  0.00     0.143 A 
ATOM      2  C2  UNL d   1       1.144  -1.071  -0.091  0.00  0.00    -0.057 A 
ATOM      3  C3  UNL d   1       1.358  -1.525   1.216  0.00  0.00     0.033 A 
ATOM      4  C4  UNL d   1       0.429  -1.252   2.215  0.00  0.00    -0.042 A 
ATOM      5  C5  UNL d   1      -0.716  -0.527   1.904  0.00  0.00     0.033 A 
ATOM      6  C6  UNL d   1      -0.927  -0.082   0.595  0.00  0.00    -0.057 A 
ENDROOT
BRANCH   1   7
ATOM      7  N   UNL d   1      -0.236   0.201  -1.691  0.00  0.00    -0.732 N 
ATOM      8  C   UNL d   1      -1.218   1.249  -1.866  0.00  0.00     0.284 C 
ATOM      9  H3  UNL d   1       0.627   0.350  -2.209  0.00  0.00     0.395 HD
ENDBRANCH   1   7
TORSDOF 1
ENDMDL
