MODEL 1
REMARK minimizedAffinity -0.713115454
REMARK minimizedRMSD -1
REMARK  1 active torsions:
REMARK  status: ('A' for Active; 'I' for Inactive)
REMARK    1  A    between atoms: N_2  and  C1_3 
ROOT
ATOM      1  C1  UNL d   1      -1.094   0.915  -1.167  0.00  0.00     0.143 A 
ATOM      2  C2  UNL d   1      -1.630   0.702   0.107  0.00  0.00    -0.057 A 
ATOM      3  C3  UNL d   1      -0.909   0.017   1.094  0.00  0.00     0.033 A 
ATOM      4  C4  UNL d   1       0.353  -0.494   0.812  0.00  0.00    -0.042 A 
ATOM      5  C5  UNL d   1       0.896  -0.317  -0.456  0.00  0.00     0.033 A 
ATOM      6  C6  UNL d   1       0.174   0.374  -1.434  0.00  0.00    -0.057 A 
ENDROOT
BRANCH   1   7
ATOM      7  N   UNL d   1      -1.799   1.501  -2.220  0.00  0.00    -0.732 N 
ATOM      8  C   UNL d   1      -1.803   2.938  -2.396  0.00  0.00     0.284 C 
ATOM      9  H3  UNL d   1      -1.710   0.977  -3.088  0.00  0.00     0.395 HD
ENDBRANCH   1   7
TORSDOF 1
ENDMDL
