MODEL 1
REMARK minimizedAffinity -1.69074309
REMARK minimizedRMSD -1
REMARK  1 active torsions:
REMARK  status: ('A' for Active; 'I' for Inactive)
REMARK    1  A    between atoms: N_2  and  C1_3 
ROOT
ATOM      1  C1  UNL d   1      -1.089   1.690  -2.052  0.00  0.00     0.143 A 
ATOM      2  C2  UNL d   1      -0.006   2.451  -2.503  0.00  0.00    -0.057 A 
ATOM      3  C3  UNL d   1      -0.167   3.789  -2.884  0.00  0.00     0.033 A 
ATOM      4  C4  UNL d   1      -1.425   4.382  -2.847  0.00  0.00    -0.042 A 
ATOM      5  C5  UNL d   1      -2.521   3.636  -2.426  0.00  0.00     0.033 A 
ATOM      6  C6  UNL d   1      -2.352   2.303  -2.041  0.00  0.00    -0.057 A 
ENDROOT
BRANCH   1   7
ATOM      7  N   UNL d   1      -1.011   0.327  -1.753  0.00  0.00    -0.732 N 
ATOM      8  C   UNL d   1      -0.439  -0.122  -0.502  0.00  0.00     0.284 C 
ATOM      9  H3  UNL d   1      -1.847  -0.181  -2.034  0.00  0.00     0.395 HD
ENDBRANCH   1   7
TORSDOF 1
ENDMDL
