MODEL 1
REMARK minimizedAffinity 0.672650576
REMARK minimizedRMSD -1
REMARK  1 active torsions:
REMARK  status: ('A' for Active; 'I' for Inactive)
REMARK    1  A    between atoms: N_2  and  C1_3 
ROOT
ATOM      1  C1  UNL d   1       0.906  -0.476   0.243  0.00  0.00     0.143 A 
ATOM      2  C2  UNL d   1      -0.233  -0.992   0.870  0.00  0.00    -0.057 A 
ATOM      3  C3  UNL d   1      -0.291  -1.144   2.260  0.00  0.00     0.033 A 
ATOM      4  C4  UNL d   1       0.805  -0.809   3.049  0.00  0.00    -0.042 A 
ATOM      5  C5  UNL d   1       1.957  -0.317   2.445  0.00  0.00     0.033 A 
ATOM      6  C6  UNL d   1       2.006  -0.161   1.056  0.00  0.00    -0.057 A 
ENDROOT
BRANCH   1   7
ATOM      7  N   UNL d   1       1.061  -0.392  -1.143  0.00  0.00    -0.732 N 
ATOM      8  C   UNL d   1       2.036  -1.215  -1.826  0.00  0.00     0.284 C 
ATOM      9  H3  UNL d   1       0.171  -0.312  -1.629  0.00  0.00     0.395 HD
ENDBRANCH   1   7
TORSDOF 1
ENDMDL
