MODEL 1
REMARK minimizedAffinity -1.5054909
REMARK minimizedRMSD -1
REMARK  0 active torsions:
REMARK  status: ('A' for Active; 'I' for Inactive)
ROOT
ATOM      1  C2' OXE d   1       2.097   1.394  -1.622  0.00  0.00     0.078 C 
ATOM      2  C1' OXE d   1       1.948  -1.330  -2.284  0.00  0.00     0.078 C 
ATOM      3  C1  OXE d   1       1.572  -0.925  -0.881  0.00  0.00    -0.078 A 
ATOM      4  C2  OXE d   1       1.693   0.403  -0.552  0.00  0.00    -0.078 A 
ATOM      5  C3  OXE d   1       1.307   0.838   0.713  0.00  0.00     0.003 A 
ATOM      6  C4  OXE d   1       0.944  -0.086   1.700  0.00  0.00    -0.002 A 
ATOM      7  C5  OXE d   1       0.853  -1.448   1.398  0.00  0.00    -0.002 A 
ATOM      8  C6  OXE d   1       1.122  -1.879   0.103  0.00  0.00     0.003 A 
ENDROOT
TORSDOF 0
ENDMDL
