MODEL 1
REMARK minimizedAffinity -1.21300089
REMARK minimizedRMSD -1
REMARK  0 active torsions:
REMARK  status: ('A' for Active; 'I' for Inactive)
ROOT
ATOM      1  C2' OXE d   1      -6.000   3.351  -4.517  0.00  0.00     0.078 C 
ATOM      2  C1' OXE d   1      -4.667   2.443  -2.220  0.00  0.00     0.078 C 
ATOM      3  C1  OXE d   1      -3.838   3.070  -3.313  0.00  0.00    -0.078 A 
ATOM      4  C2  OXE d   1      -4.492   3.469  -4.453  0.00  0.00    -0.078 A 
ATOM      5  C3  OXE d   1      -3.783   4.102  -5.469  0.00  0.00     0.003 A 
ATOM      6  C4  OXE d   1      -2.388   4.198  -5.406  0.00  0.00    -0.002 A 
ATOM      7  C5  OXE d   1      -1.697   3.763  -4.271  0.00  0.00    -0.002 A 
ATOM      8  C6  OXE d   1      -2.410   3.236  -3.200  0.00  0.00     0.003 A 
ENDROOT
TORSDOF 0
ENDMDL
