MODEL 1
REMARK minimizedAffinity -0.429838687
REMARK minimizedRMSD -1
REMARK  0 active torsions:
REMARK  status: ('A' for Active; 'I' for Inactive)
ROOT
ATOM      1  C2' OXE d   1       3.536  -1.257  -1.774  0.00  0.00     0.078 C 
ATOM      2  C1' OXE d   1       3.018   1.467  -1.334  0.00  0.00     0.078 C 
ATOM      3  C1  OXE d   1       2.207   0.462  -0.554  0.00  0.00    -0.078 A 
ATOM      4  C2  OXE d   1       2.435  -0.869  -0.811  0.00  0.00    -0.078 A 
ATOM      5  C3  OXE d   1       1.753  -1.838  -0.080  0.00  0.00     0.003 A 
ATOM      6  C4  OXE d   1       0.730  -1.471   0.802  0.00  0.00    -0.002 A 
ATOM      7  C5  OXE d   1       0.454  -0.122   1.048  0.00  0.00    -0.002 A 
ATOM      8  C6  OXE d   1       1.211   0.855   0.411  0.00  0.00     0.003 A 
ENDROOT
TORSDOF 0
ENDMDL
