MODEL 1
REMARK minimizedAffinity 2.44747686
REMARK minimizedRMSD -1
REMARK  0 active torsions:
REMARK  status: ('A' for Active; 'I' for Inactive)
ROOT
ATOM      1  C2' OXE d   1       3.571  -1.148  -1.392  0.00  0.00     0.078 C 
ATOM      2  C1' OXE d   1       2.861   1.437  -0.561  0.00  0.00     0.078 C 
ATOM      3  C1  OXE d   1       2.132   0.273   0.061  0.00  0.00    -0.078 A 
ATOM      4  C2  OXE d   1       2.453  -0.986  -0.385  0.00  0.00    -0.078 A 
ATOM      5  C3  OXE d   1       1.850  -2.098   0.195  0.00  0.00     0.003 A 
ATOM      6  C4  OXE d   1       0.809  -1.939   1.119  0.00  0.00    -0.002 A 
ATOM      7  C5  OXE d   1       0.439  -0.663   1.558  0.00  0.00    -0.002 A 
ATOM      8  C6  OXE d   1       1.118   0.449   1.072  0.00  0.00     0.003 A 
ENDROOT
TORSDOF 0
ENDMDL
