MODEL 1
REMARK minimizedAffinity 4.96822262
REMARK minimizedRMSD -1
REMARK  0 active torsions:
REMARK  status: ('A' for Active; 'I' for Inactive)
ROOT
ATOM      1  C2' OXE d   1       3.836  -0.416  -1.326  0.00  0.00     0.078 C 
ATOM      2  C1' OXE d   1       2.644   1.797  -0.076  0.00  0.00     0.078 C 
ATOM      3  C1  OXE d   1       1.991   0.450   0.106  0.00  0.00    -0.078 A 
ATOM      4  C2  OXE d   1       2.554  -0.619  -0.547  0.00  0.00    -0.078 A 
ATOM      5  C3  OXE d   1       2.023  -1.894  -0.369  0.00  0.00     0.003 A 
ATOM      6  C4  OXE d   1       0.832  -2.072   0.345  0.00  0.00    -0.002 A 
ATOM      7  C5  OXE d   1       0.219  -0.989   0.985  0.00  0.00    -0.002 A 
ATOM      8  C6  OXE d   1       0.808   0.268   0.912  0.00  0.00     0.003 A 
ENDROOT
TORSDOF 0
ENDMDL
