MODEL 1
REMARK minimizedAffinity 3.72183061
REMARK minimizedRMSD -1
REMARK  0 active torsions:
REMARK  status: ('A' for Active; 'I' for Inactive)
ROOT
ATOM      1  C2' OXE d   1       3.545  -0.082  -2.188  0.00  0.00     0.078 C 
ATOM      2  C1' OXE d   1       1.355   1.646  -1.877  0.00  0.00     0.078 C 
ATOM      3  C1  OXE d   1       1.579   0.596  -0.817  0.00  0.00    -0.078 A 
ATOM      4  C2  OXE d   1       2.625  -0.275  -1.002  0.00  0.00    -0.078 A 
ATOM      5  C3  OXE d   1       2.910  -1.227  -0.027  0.00  0.00     0.003 A 
ATOM      6  C4  OXE d   1       2.048  -1.405   1.062  0.00  0.00    -0.002 A 
ATOM      7  C5  OXE d   1       0.954  -0.554   1.248  0.00  0.00    -0.002 A 
ATOM      8  C6  OXE d   1       0.730   0.476   0.342  0.00  0.00     0.003 A 
ENDROOT
TORSDOF 0
ENDMDL
