MODEL 1
REMARK minimizedAffinity 2.95574665
REMARK minimizedRMSD -1
REMARK  0 active torsions:
REMARK  status: ('A' for Active; 'I' for Inactive)
ROOT
ATOM      1  C2' OXE d   1       3.345   0.810  -1.798  0.00  0.00     0.078 C 
ATOM      2  C1' OXE d   1       2.518  -1.873  -1.798  0.00  0.00     0.078 C 
ATOM      3  C1  OXE d   1       2.182  -1.033  -0.591  0.00  0.00    -0.078 A 
ATOM      4  C2  OXE d   1       2.631   0.266  -0.579  0.00  0.00    -0.078 A 
ATOM      5  C3  OXE d   1       2.302   1.100   0.485  0.00  0.00     0.003 A 
ATOM      6  C4  OXE d   1       1.650   0.586   1.613  0.00  0.00    -0.002 A 
ATOM      7  C5  OXE d   1       1.218  -0.744   1.639  0.00  0.00    -0.002 A 
ATOM      8  C6  OXE d   1       1.438  -1.554   0.530  0.00  0.00     0.003 A 
ENDROOT
TORSDOF 0
ENDMDL
