MODEL 1
REMARK minimizedAffinity 6.25089836
REMARK minimizedRMSD -1
REMARK  0 active torsions:
REMARK  status: ('A' for Active; 'I' for Inactive)
ROOT
ATOM      1  C2' OXE d   1      -3.597   0.673   2.319  0.00  0.00     0.078 C 
ATOM      2  C1' OXE d   1      -3.804  -2.077   1.797  0.00  0.00     0.078 C 
ATOM      3  C1  OXE d   1      -2.434  -1.517   2.086  0.00  0.00    -0.078 A 
ATOM      4  C2  OXE d   1      -2.336  -0.162   2.294  0.00  0.00    -0.078 A 
ATOM      5  C3  OXE d   1      -1.104   0.398   2.619  0.00  0.00     0.003 A 
ATOM      6  C4  OXE d   1       0.060  -0.380   2.585  0.00  0.00    -0.002 A 
ATOM      7  C5  OXE d   1      -0.012  -1.755   2.335  0.00  0.00    -0.002 A 
ATOM      8  C6  OXE d   1      -1.254  -2.345   2.127  0.00  0.00     0.003 A 
ENDROOT
TORSDOF 0
ENDMDL
