MODEL 1
REMARK minimizedAffinity 2.30924082
REMARK minimizedRMSD -1
REMARK  0 active torsions:
REMARK  status: ('A' for Active; 'I' for Inactive)
ROOT
ATOM      1  C2' OXE d   1       2.634   1.219  -0.220  0.00  0.00     0.078 C 
ATOM      2  C1' OXE d   1       2.639  -1.496  -0.933  0.00  0.00     0.078 C 
ATOM      3  C1  OXE d   1       1.591  -1.028   0.045  0.00  0.00    -0.078 A 
ATOM      4  C2  OXE d   1       1.625   0.292   0.424  0.00  0.00    -0.078 A 
ATOM      5  C3  OXE d   1       0.648   0.789   1.282  0.00  0.00     0.003 A 
ATOM      6  C4  OXE d   1      -0.275  -0.077   1.882  0.00  0.00    -0.002 A 
ATOM      7  C5  OXE d   1      -0.302  -1.433   1.540  0.00  0.00    -0.002 A 
ATOM      8  C6  OXE d   1       0.595  -1.915   0.593  0.00  0.00     0.003 A 
ENDROOT
TORSDOF 0
ENDMDL
