MODEL 1
REMARK minimizedAffinity 1.58294344
REMARK minimizedRMSD -1
REMARK  0 active torsions:
REMARK  status: ('A' for Active; 'I' for Inactive)
ROOT
ATOM      1  C2' OXE d   1       3.028  -1.504  -1.746  0.00  0.00     0.078 C 
ATOM      2  C1' OXE d   1       2.828   1.251  -1.243  0.00  0.00     0.078 C 
ATOM      3  C1  OXE d   1       1.925   0.326  -0.466  0.00  0.00    -0.078 A 
ATOM      4  C2  OXE d   1       1.997  -1.016  -0.752  0.00  0.00    -0.078 A 
ATOM      5  C3  OXE d   1       1.225  -1.918  -0.025  0.00  0.00     0.003 A 
ATOM      6  C4  OXE d   1       0.266  -1.458   0.885  0.00  0.00    -0.002 A 
ATOM      7  C5  OXE d   1       0.149  -0.092   1.163  0.00  0.00    -0.002 A 
ATOM      8  C6  OXE d   1       0.998   0.808   0.529  0.00  0.00     0.003 A 
ENDROOT
TORSDOF 0
ENDMDL
