MODEL 1
REMARK minimizedAffinity 2.8736639
REMARK minimizedRMSD -1
REMARK  0 active torsions:
REMARK  status: ('A' for Active; 'I' for Inactive)
ROOT
ATOM      1  C2' OXE d   1       2.384   1.141  -0.817  0.00  0.00     0.078 C 
ATOM      2  C1' OXE d   1       1.808  -1.592  -1.098  0.00  0.00     0.078 C 
ATOM      3  C1  OXE d   1       1.311  -0.892   0.142  0.00  0.00    -0.078 A 
ATOM      4  C2  OXE d   1       1.637   0.434   0.294  0.00  0.00    -0.078 A 
ATOM      5  C3  OXE d   1       1.158   1.141   1.393  0.00  0.00     0.003 A 
ATOM      6  C4  OXE d   1       0.477   0.477   2.421  0.00  0.00    -0.002 A 
ATOM      7  C5  OXE d   1       0.168  -0.883   2.305  0.00  0.00    -0.002 A 
ATOM      8  C6  OXE d   1       0.540  -1.570   1.155  0.00  0.00     0.003 A 
ENDROOT
TORSDOF 0
ENDMDL
