MODEL 1
REMARK minimizedAffinity -2.99116349
REMARK minimizedRMSD -1
REMARK  0 active torsions:
REMARK  status: ('A' for Active; 'I' for Inactive)
ROOT
ATOM      1  C2' OXE d   1      -0.319  -0.740   1.569  0.00  0.00     0.078 C 
ATOM      2  C1' OXE d   1       1.124   1.577   0.914  0.00  0.00     0.078 C 
ATOM      3  C1  OXE d   1       1.496   0.294   0.212  0.00  0.00    -0.078 A 
ATOM      4  C2  OXE d   1       0.816  -0.844   0.573  0.00  0.00    -0.078 A 
ATOM      5  C3  OXE d   1       1.082  -2.043  -0.082  0.00  0.00     0.003 A 
ATOM      6  C4  OXE d   1       2.140  -2.132  -0.994  0.00  0.00    -0.002 A 
ATOM      7  C5  OXE d   1       2.872  -0.993  -1.347  0.00  0.00    -0.002 A 
ATOM      8  C6  OXE d   1       2.535   0.234  -0.786  0.00  0.00     0.003 A 
ENDROOT
TORSDOF 0
ENDMDL
