MODEL 1
REMARK minimizedAffinity 3.51614451
REMARK minimizedRMSD -1
REMARK  0 active torsions:
REMARK  status: ('A' for Active; 'I' for Inactive)
ROOT
ATOM      1  C2' OXE d   1       2.007  -1.128  -1.010  0.00  0.00     0.078 C 
ATOM      2  C1' OXE d   1       2.099   1.338   0.329  0.00  0.00     0.078 C 
ATOM      3  C1  OXE d   1       1.194   0.268   0.887  0.00  0.00    -0.078 A 
ATOM      4  C2  OXE d   1       1.120  -0.919   0.199  0.00  0.00    -0.078 A 
ATOM      5  C3  OXE d   1       0.342  -1.959   0.700  0.00  0.00     0.003 A 
ATOM      6  C4  OXE d   1      -0.483  -1.755   1.812  0.00  0.00    -0.002 A 
ATOM      7  C5  OXE d   1      -0.452  -0.540   2.505  0.00  0.00    -0.002 A 
ATOM      8  C6  OXE d   1       0.410   0.465   2.081  0.00  0.00     0.003 A 
ENDROOT
TORSDOF 0
ENDMDL
