MODEL 1
REMARK minimizedAffinity -1.81868064
REMARK minimizedRMSD -1
REMARK  0 active torsions:
REMARK  status: ('A' for Active; 'I' for Inactive)
ROOT
ATOM      1  C2' OXE d   1       2.121  -1.749  -0.910  0.00  0.00     0.078 C 
ATOM      2  C1' OXE d   1       1.503   0.937  -0.382  0.00  0.00     0.078 C 
ATOM      3  C1  OXE d   1       0.901  -0.113   0.518  0.00  0.00    -0.078 A 
ATOM      4  C2  OXE d   1       1.172  -1.428   0.224  0.00  0.00    -0.078 A 
ATOM      5  C3  OXE d   1       0.687  -2.434   1.055  0.00  0.00     0.003 A 
ATOM      6  C4  OXE d   1      -0.199  -2.128   2.095  0.00  0.00    -0.002 A 
ATOM      7  C5  OXE d   1      -0.519  -0.798   2.388  0.00  0.00    -0.002 A 
ATOM      8  C6  OXE d   1       0.055   0.222   1.637  0.00  0.00     0.003 A 
ENDROOT
TORSDOF 0
ENDMDL
