MODEL 1
REMARK minimizedAffinity 1.82348228
REMARK minimizedRMSD -1
REMARK  0 active torsions:
REMARK  status: ('A' for Active; 'I' for Inactive)
ROOT
ATOM      1  C2' OXE d   1       2.394  -2.047  -1.541  0.00  0.00     0.078 C 
ATOM      2  C1' OXE d   1       0.556  -2.479   0.537  0.00  0.00     0.078 C 
ATOM      3  C1  OXE d   1       1.000  -1.062   0.274  0.00  0.00    -0.078 A 
ATOM      4  C2  OXE d   1       1.935  -0.865  -0.714  0.00  0.00    -0.078 A 
ATOM      5  C3  OXE d   1       2.339   0.428  -1.034  0.00  0.00     0.003 A 
ATOM      6  C4  OXE d   1       1.917   1.514  -0.258  0.00  0.00    -0.002 A 
ATOM      7  C5  OXE d   1       0.996   1.331   0.779  0.00  0.00    -0.002 A 
ATOM      8  C6  OXE d   1       0.496   0.058   1.029  0.00  0.00     0.003 A 
ENDROOT
TORSDOF 0
ENDMDL
