MODEL 1
REMARK minimizedAffinity 4.42100859
REMARK minimizedRMSD -1
REMARK  0 active torsions:
REMARK  status: ('A' for Active; 'I' for Inactive)
ROOT
ATOM      1  C2' OXE d   1       0.027  -2.248   0.379  0.00  0.00     0.078 C 
ATOM      2  C1' OXE d   1       2.297  -2.776  -1.187  0.00  0.00     0.078 C 
ATOM      3  C1  OXE d   1       2.235  -1.456  -0.459  0.00  0.00    -0.078 A 
ATOM      4  C2  OXE d   1       1.100  -1.187   0.267  0.00  0.00    -0.078 A 
ATOM      5  C3  OXE d   1       1.016  -0.008   1.002  0.00  0.00     0.003 A 
ATOM      6  C4  OXE d   1       2.008   0.973   0.885  0.00  0.00    -0.002 A 
ATOM      7  C5  OXE d   1       3.155   0.735   0.119  0.00  0.00    -0.002 A 
ATOM      8  C6  OXE d   1       3.303  -0.489  -0.524  0.00  0.00     0.003 A 
ENDROOT
TORSDOF 0
ENDMDL
