MODEL 1
REMARK minimizedAffinity 8.89733124
REMARK minimizedRMSD -1
REMARK  0 active torsions:
REMARK  status: ('A' for Active; 'I' for Inactive)
ROOT
ATOM      1  C2' OXE d   1       0.362   0.049   1.798  0.00  0.00     0.078 C 
ATOM      2  C1' OXE d   1       2.272   1.292   0.160  0.00  0.00     0.078 C 
ATOM      3  C1  OXE d   1       2.131  -0.206   0.063  0.00  0.00    -0.078 A 
ATOM      4  C2  OXE d   1       1.226  -0.811   0.902  0.00  0.00    -0.078 A 
ATOM      5  C3  OXE d   1       1.017  -2.185   0.815  0.00  0.00     0.003 A 
ATOM      6  C4  OXE d   1       1.828  -2.975  -0.009  0.00  0.00    -0.002 A 
ATOM      7  C5  OXE d   1       2.783  -2.383  -0.843  0.00  0.00    -0.002 A 
ATOM      8  C6  OXE d   1       2.917  -0.999  -0.850  0.00  0.00     0.003 A 
ENDROOT
TORSDOF 0
ENDMDL
