MODEL 1
REMARK minimizedAffinity 1.8708564
REMARK minimizedRMSD -1
REMARK  0 active torsions:
REMARK  status: ('A' for Active; 'I' for Inactive)
ROOT
ATOM      1  C2' OXE d   1      -1.081   4.581  -2.905  0.00  0.00     0.078 C 
ATOM      2  C1' OXE d   1      -3.066   2.634  -3.292  0.00  0.00     0.078 C 
ATOM      3  C1  OXE d   1      -1.726   2.412  -3.947  0.00  0.00    -0.078 A 
ATOM      4  C2  OXE d   1      -0.776   3.392  -3.791  0.00  0.00    -0.078 A 
ATOM      5  C3  OXE d   1       0.495   3.212  -4.328  0.00  0.00     0.003 A 
ATOM      6  C4  OXE d   1       0.766   2.115  -5.154  0.00  0.00    -0.002 A 
ATOM      7  C5  OXE d   1      -0.200   1.124  -5.359  0.00  0.00    -0.002 A 
ATOM      8  C6  OXE d   1      -1.435   1.236  -4.729  0.00  0.00     0.003 A 
ENDROOT
TORSDOF 0
ENDMDL
