MODEL 1
REMARK minimizedAffinity -1.26635754
REMARK minimizedRMSD -1
REMARK  0 active torsions:
REMARK  status: ('A' for Active; 'I' for Inactive)
ROOT
ATOM      1  C2' OXE d   1       3.495  -1.411  -2.032  0.00  0.00     0.078 C 
ATOM      2  C1' OXE d   1       3.405   1.384  -1.787  0.00  0.00     0.078 C 
ATOM      3  C1  OXE d   1       2.599   0.566  -0.810  0.00  0.00    -0.078 A 
ATOM      4  C2  OXE d   1       2.612  -0.799  -0.966  0.00  0.00    -0.078 A 
ATOM      5  C3  OXE d   1       1.930  -1.604  -0.058  0.00  0.00     0.003 A 
ATOM      6  C4  OXE d   1       1.107  -1.030   0.919  0.00  0.00    -0.002 A 
ATOM      7  C5  OXE d   1       1.048   0.359   1.070  0.00  0.00    -0.002 A 
ATOM      8  C6  OXE d   1       1.819   1.168   0.243  0.00  0.00     0.003 A 
ENDROOT
TORSDOF 0
ENDMDL
