MODEL 1
REMARK minimizedAffinity -4.31106472
REMARK minimizedRMSD -1
REMARK  1 active torsions:
REMARK  status: ('A' for Active; 'I' for Inactive)
REMARK    1  A    between atoms: C3_4  and  O_7 
ROOT
ATOM      1  C   UNL d   1       2.284  -1.039  -2.435  0.00  0.00    -0.033 A 
ATOM      2  C1  UNL d   1       1.767  -2.137  -1.745  0.00  0.00     0.039 A 
ATOM      3  C2  UNL d   1       0.859  -1.944  -0.702  0.00  0.00    -0.080 A 
ATOM      4  C3  UNL d   1       0.476  -0.650  -0.360  0.00  0.00     0.150 A 
ATOM      5  C4  UNL d   1       0.984   0.448  -1.045  0.00  0.00    -0.007 A 
ATOM      6  C5  UNL d   1       1.892   0.254  -2.086  0.00  0.00     0.039 A 
ENDROOT
BRANCH   4   7
ATOM      7  O   UNL d   1      -0.403  -0.412   0.654  0.00  0.00    -0.526 OA
ATOM      8  H5  UNL d   1      -0.648  -1.263   1.055  0.00  0.00     0.418 HD
ENDBRANCH   4   7
TORSDOF 1
ENDMDL
