MODEL 1
REMARK minimizedAffinity -5.29697037
REMARK minimizedRMSD -1
REMARK  1 active torsions:
REMARK  status: ('A' for Active; 'I' for Inactive)
REMARK    1  A    between atoms: C3_4  and  O_7 
ROOT
ATOM      1  C   UNL d   1       1.642   0.478  -2.722  0.00  0.00    -0.033 A 
ATOM      2  C1  UNL d   1       1.621   1.507  -1.778  0.00  0.00     0.039 A 
ATOM      3  C2  UNL d   1       0.888   1.359  -0.599  0.00  0.00    -0.080 A 
ATOM      4  C3  UNL d   1       0.182   0.180  -0.376  0.00  0.00     0.150 A 
ATOM      5  C4  UNL d   1       0.202  -0.850  -1.310  0.00  0.00    -0.007 A 
ATOM      6  C5  UNL d   1       0.934  -0.701  -2.488  0.00  0.00     0.039 A 
ENDROOT
BRANCH   4   7
ATOM      7  O   UNL d   1      -0.551  -0.008   0.758  0.00  0.00    -0.526 OA
ATOM      8  H5  UNL d   1      -0.496   0.798   1.297  0.00  0.00     0.418 HD
ENDBRANCH   4   7
TORSDOF 1
ENDMDL
