MODEL 1
REMARK minimizedAffinity -5.23410797
REMARK minimizedRMSD -1
REMARK  1 active torsions:
REMARK  status: ('A' for Active; 'I' for Inactive)
REMARK    1  A    between atoms: C3_4  and  O_7 
ROOT
ATOM      1  C   UNL d   1       2.720  -1.972  -2.134  0.00  0.00    -0.033 A 
ATOM      2  C1  UNL d   1       2.846  -0.637  -2.521  0.00  0.00     0.039 A 
ATOM      3  C2  UNL d   1       1.756   0.229  -2.413  0.00  0.00    -0.080 A 
ATOM      4  C3  UNL d   1       0.548  -0.252  -1.916  0.00  0.00     0.150 A 
ATOM      5  C4  UNL d   1       0.417  -1.580  -1.524  0.00  0.00    -0.007 A 
ATOM      6  C5  UNL d   1       1.506  -2.444  -1.634  0.00  0.00     0.039 A 
ENDROOT
BRANCH   4   7
ATOM      7  O   UNL d   1      -0.545   0.554  -1.796  0.00  0.00    -0.526 OA
ATOM      8  H5  UNL d   1      -0.315   1.437  -2.131  0.00  0.00     0.418 HD
ENDBRANCH   4   7
TORSDOF 1
ENDMDL
