MODEL 1
REMARK minimizedAffinity -4.19537115
REMARK minimizedRMSD -1
REMARK  1 active torsions:
REMARK  status: ('A' for Active; 'I' for Inactive)
REMARK    1  A    between atoms: C3_4  and  O_7 
ROOT
ATOM      1  C   UNL d   1      -0.387  -1.156   0.557  0.00  0.00    -0.033 A 
ATOM      2  C1  UNL d   1      -0.064   0.201   0.479  0.00  0.00     0.039 A 
ATOM      3  C2  UNL d   1       0.625   0.694  -0.630  0.00  0.00    -0.080 A 
ATOM      4  C3  UNL d   1       0.984  -0.177  -1.654  0.00  0.00     0.150 A 
ATOM      5  C4  UNL d   1       0.663  -1.529  -1.586  0.00  0.00    -0.007 A 
ATOM      6  C5  UNL d   1      -0.024  -2.020  -0.476  0.00  0.00     0.039 A 
ENDROOT
BRANCH   4   7
ATOM      7  O   UNL d   1       1.662   0.257  -2.754  0.00  0.00    -0.526 OA
ATOM      8  H5  UNL d   1       1.840   1.207  -2.651  0.00  0.00     0.418 HD
ENDBRANCH   4   7
TORSDOF 1
ENDMDL
