MODEL 1
REMARK minimizedAffinity -4.72272873
REMARK minimizedRMSD -1
REMARK  1 active torsions:
REMARK  status: ('A' for Active; 'I' for Inactive)
REMARK    1  A    between atoms: C3_4  and  O_7 
ROOT
ATOM      1  C   UNL d   1      -0.192   0.498   0.553  0.00  0.00    -0.033 A 
ATOM      2  C1  UNL d   1       1.030   1.154   0.388  0.00  0.00     0.039 A 
ATOM      3  C2  UNL d   1       1.617   1.232  -0.877  0.00  0.00    -0.080 A 
ATOM      4  C3  UNL d   1       0.973   0.652  -1.966  0.00  0.00     0.150 A 
ATOM      5  C4  UNL d   1      -0.246   0.000  -1.809  0.00  0.00    -0.007 A 
ATOM      6  C5  UNL d   1      -0.830  -0.078  -0.546  0.00  0.00     0.039 A 
ENDROOT
BRANCH   4   7
ATOM      7  O   UNL d   1       1.509   0.698  -3.219  0.00  0.00    -0.526 OA
ATOM      8  H5  UNL d   1       2.366   1.154  -3.170  0.00  0.00     0.418 HD
ENDBRANCH   4   7
TORSDOF 1
ENDMDL
