MODEL 1
REMARK minimizedAffinity -4.53946257
REMARK minimizedRMSD -1
REMARK  1 active torsions:
REMARK  status: ('A' for Active; 'I' for Inactive)
REMARK    1  A    between atoms: C3_4  and  O_7 
ROOT
ATOM      1  C   UNL d   1      -0.308   0.345   0.115  0.00  0.00    -0.033 A 
ATOM      2  C1  UNL d   1       0.864   1.094  -0.009  0.00  0.00     0.039 A 
ATOM      3  C2  UNL d   1       1.607   1.039  -1.189  0.00  0.00    -0.080 A 
ATOM      4  C3  UNL d   1       1.169   0.233  -2.236  0.00  0.00     0.150 A 
ATOM      5  C4  UNL d   1       0.001  -0.513  -2.121  0.00  0.00    -0.007 A 
ATOM      6  C5  UNL d   1      -0.740  -0.458  -0.941  0.00  0.00     0.039 A 
ENDROOT
BRANCH   4   7
ATOM      7  O   UNL d   1       1.864   0.143  -3.406  0.00  0.00    -0.526 OA
ATOM      8  H5  UNL d   1       2.664   0.690  -3.331  0.00  0.00     0.418 HD
ENDBRANCH   4   7
TORSDOF 1
ENDMDL
