MODEL 1
REMARK minimizedAffinity -4.81255913
REMARK minimizedRMSD -1
REMARK  1 active torsions:
REMARK  status: ('A' for Active; 'I' for Inactive)
REMARK    1  A    between atoms: C3_4  and  O_7 
ROOT
ATOM      1  C   UNL d   1      -0.467   0.397  -0.048  0.00  0.00    -0.033 A 
ATOM      2  C1  UNL d   1      -0.682  -0.462  -1.127  0.00  0.00     0.039 A 
ATOM      3  C2  UNL d   1       0.166  -0.419  -2.235  0.00  0.00    -0.080 A 
ATOM      4  C3  UNL d   1       1.224   0.485  -2.252  0.00  0.00     0.150 A 
ATOM      5  C4  UNL d   1       1.447   1.342  -1.178  0.00  0.00    -0.007 A 
ATOM      6  C5  UNL d   1       0.598   1.298  -0.073  0.00  0.00     0.039 A 
ENDROOT
BRANCH   4   7
ATOM      7  O   UNL d   1       2.075   0.567  -3.313  0.00  0.00    -0.526 OA
ATOM      8  H5  UNL d   1       1.782  -0.064  -3.992  0.00  0.00     0.418 HD
ENDBRANCH   4   7
TORSDOF 1
ENDMDL
