MODEL 1
REMARK minimizedAffinity -3.03951335
REMARK minimizedRMSD -1
REMARK  1 active torsions:
REMARK  status: ('A' for Active; 'I' for Inactive)
REMARK    1  A    between atoms: C3_4  and  O_7 
ROOT
ATOM      1  C   UNL d   1      -2.986   0.852   2.066  0.00  0.00    -0.033 A 
ATOM      2  C1  UNL d   1      -3.353  -0.140   1.154  0.00  0.00     0.039 A 
ATOM      3  C2  UNL d   1      -2.370  -0.867   0.479  0.00  0.00    -0.080 A 
ATOM      4  C3  UNL d   1      -1.028  -0.594   0.725  0.00  0.00     0.150 A 
ATOM      5  C4  UNL d   1      -0.656   0.389   1.636  0.00  0.00    -0.007 A 
ATOM      6  C5  UNL d   1      -1.638   1.115   2.309  0.00  0.00     0.039 A 
ENDROOT
BRANCH   4   7
ATOM      7  O   UNL d   1      -0.033  -1.274   0.087  0.00  0.00    -0.526 OA
ATOM      8  H5  UNL d   1      -0.439  -1.902  -0.533  0.00  0.00     0.418 HD
ENDBRANCH   4   7
TORSDOF 1
ENDMDL
