MODEL 1
REMARK minimizedAffinity -4.22924185
REMARK minimizedRMSD -1
REMARK  1 active torsions:
REMARK  status: ('A' for Active; 'I' for Inactive)
REMARK    1  A    between atoms: C3_4  and  O_7 
ROOT
ATOM      1  C   UNL d   1       0.057   0.438   0.631  0.00  0.00    -0.033 A 
ATOM      2  C1  UNL d   1      -0.188  -0.762  -0.039  0.00  0.00     0.039 A 
ATOM      3  C2  UNL d   1       0.302  -0.955  -1.332  0.00  0.00    -0.080 A 
ATOM      4  C3  UNL d   1       1.036   0.058  -1.943  0.00  0.00     0.150 A 
ATOM      5  C4  UNL d   1       1.287   1.255  -1.280  0.00  0.00    -0.007 A 
ATOM      6  C5  UNL d   1       0.796   1.446   0.011  0.00  0.00     0.039 A 
ENDROOT
BRANCH   4   7
ATOM      7  O   UNL d   1       1.530  -0.082  -3.205  0.00  0.00    -0.526 OA
ATOM      8  H5  UNL d   1       1.254  -0.948  -3.550  0.00  0.00     0.418 HD
ENDBRANCH   4   7
TORSDOF 1
ENDMDL
