MODEL 1
REMARK minimizedAffinity -1.96194553
REMARK minimizedRMSD -1
REMARK  1 active torsions:
REMARK  status: ('A' for Active; 'I' for Inactive)
REMARK    1  A    between atoms: C3_4  and  O_7 
ROOT
ATOM      1  C   UNL d   1      -3.518   0.627   1.751  0.00  0.00    -0.033 A 
ATOM      2  C1  UNL d   1      -2.223   1.058   2.043  0.00  0.00     0.039 A 
ATOM      3  C2  UNL d   1      -1.124   0.380   1.511  0.00  0.00    -0.080 A 
ATOM      4  C3  UNL d   1      -1.334  -0.723   0.689  0.00  0.00     0.150 A 
ATOM      5  C4  UNL d   1      -2.622  -1.155   0.390  0.00  0.00    -0.007 A 
ATOM      6  C5  UNL d   1      -3.718  -0.478   0.923  0.00  0.00     0.039 A 
ENDROOT
BRANCH   4   7
ATOM      7  O   UNL d   1      -0.292  -1.419   0.150  0.00  0.00    -0.526 OA
ATOM      8  H5  UNL d   1       0.538  -1.024   0.466  0.00  0.00     0.418 HD
ENDBRANCH   4   7
TORSDOF 1
ENDMDL
