MODEL 1
REMARK minimizedAffinity -4.8726244
REMARK minimizedRMSD -1
REMARK  1 active torsions:
REMARK  status: ('A' for Active; 'I' for Inactive)
REMARK    1  A    between atoms: C3_4  and  O_7 
ROOT
ATOM      1  C   UNL d   1       0.281   0.255   0.166  0.00  0.00    -0.033 A 
ATOM      2  C1  UNL d   1       1.154   1.217  -0.345  0.00  0.00     0.039 A 
ATOM      3  C2  UNL d   1       1.592   1.133  -1.668  0.00  0.00    -0.080 A 
ATOM      4  C3  UNL d   1       1.151   0.082  -2.468  0.00  0.00     0.150 A 
ATOM      5  C4  UNL d   1       0.278  -0.878  -1.966  0.00  0.00    -0.007 A 
ATOM      6  C5  UNL d   1      -0.158  -0.792  -0.645  0.00  0.00     0.039 A 
ENDROOT
BRANCH   4   7
ATOM      7  O   UNL d   1       1.555  -0.045  -3.764  0.00  0.00    -0.526 OA
ATOM      8  H5  UNL d   1       2.178   0.674  -3.964  0.00  0.00     0.418 HD
ENDBRANCH   4   7
TORSDOF 1
ENDMDL
