MODEL 1
REMARK minimizedAffinity -2.15136886
REMARK minimizedRMSD -1
REMARK  1 active torsions:
REMARK  status: ('A' for Active; 'I' for Inactive)
REMARK    1  A    between atoms: C3_4  and  O_7 
ROOT
ATOM      1  C   UNL d   1      -3.860   0.264   1.992  0.00  0.00    -0.033 A 
ATOM      2  C1  UNL d   1      -2.662   0.825   2.440  0.00  0.00     0.039 A 
ATOM      3  C2  UNL d   1      -1.442   0.341   1.963  0.00  0.00    -0.080 A 
ATOM      4  C3  UNL d   1      -1.433  -0.701   1.040  0.00  0.00     0.150 A 
ATOM      5  C4  UNL d   1      -2.622  -1.262   0.587  0.00  0.00    -0.007 A 
ATOM      6  C5  UNL d   1      -3.840  -0.779   1.065  0.00  0.00     0.039 A 
ENDROOT
BRANCH   4   7
ATOM      7  O   UNL d   1      -0.266  -1.209   0.550  0.00  0.00    -0.526 OA
ATOM      8  H5  UNL d   1       0.474  -0.743   0.974  0.00  0.00     0.418 HD
ENDBRANCH   4   7
TORSDOF 1
ENDMDL
