MODEL 1
REMARK minimizedAffinity -5.03545952
REMARK minimizedRMSD -1
REMARK  1 active torsions:
REMARK  status: ('A' for Active; 'I' for Inactive)
REMARK    1  A    between atoms: C3_4  and  O_7 
ROOT
ATOM      1  C   UNL d   1       0.336   0.414   0.474  0.00  0.00    -0.033 A 
ATOM      2  C1  UNL d   1       0.945   1.531  -0.101  0.00  0.00     0.039 A 
ATOM      3  C2  UNL d   1       1.287   1.522  -1.455  0.00  0.00    -0.080 A 
ATOM      4  C3  UNL d   1       1.012   0.393  -2.222  0.00  0.00     0.150 A 
ATOM      5  C4  UNL d   1       0.402  -0.721  -1.656  0.00  0.00    -0.007 A 
ATOM      6  C5  UNL d   1       0.063  -0.711  -0.304  0.00  0.00     0.039 A 
ENDROOT
BRANCH   4   7
ATOM      7  O   UNL d   1       1.331   0.336  -3.546  0.00  0.00    -0.526 OA
ATOM      8  H5  UNL d   1       1.773   1.166  -3.792  0.00  0.00     0.418 HD
ENDBRANCH   4   7
TORSDOF 1
ENDMDL
