MODEL 1
REMARK minimizedAffinity -4.68797779
REMARK minimizedRMSD -1
REMARK  1 active torsions:
REMARK  status: ('A' for Active; 'I' for Inactive)
REMARK    1  A    between atoms: C1_2  and  C2_3 
ROOT
ATOM      1  C2  UNL d   1      -0.602  -0.258   0.133  0.00  0.00    -0.077 A 
ATOM      2  C3  UNL d   1      -1.503   0.027   1.169  0.00  0.00     0.002 A 
ATOM      3  C4  UNL d   1      -2.467   1.025   1.013  0.00  0.00     0.002 A 
ATOM      4  C5  UNL d   1      -2.542   1.743  -0.178  0.00  0.00    -0.004 A 
ATOM      5  C6  UNL d   1      -1.649   1.469  -1.214  0.00  0.00     0.002 A 
ATOM      6  C7  UNL d   1      -0.684   0.473  -1.059  0.00  0.00     0.002 A 
ENDROOT
BRANCH   1   7
ATOM      7  C1  UNL d   1       0.406  -1.367   0.282  0.00  0.00     0.055 C 
ATOM      8  C   UNL d   1       1.812  -0.885  -0.046  0.00  0.00     0.019 C 
ENDBRANCH   1   7
TORSDOF 1
ENDMDL
