MODEL 1
REMARK minimizedAffinity -1.39261794
REMARK minimizedRMSD -1
REMARK  1 active torsions:
REMARK  status: ('A' for Active; 'I' for Inactive)
REMARK    1  A    between atoms: C1_2  and  C2_3 
ROOT
ATOM      1  C2  UNL d   1      -0.768   0.114   0.730  0.00  0.00    -0.077 A 
ATOM      2  C3  UNL d   1      -1.452  -0.288  -0.426  0.00  0.00     0.002 A 
ATOM      3  C4  UNL d   1      -0.754  -0.826  -1.509  0.00  0.00     0.002 A 
ATOM      4  C5  UNL d   1       0.630  -0.970  -1.445  0.00  0.00    -0.004 A 
ATOM      5  C6  UNL d   1       1.320  -0.572  -0.301  0.00  0.00     0.002 A 
ATOM      6  C7  UNL d   1       0.624  -0.033   0.782  0.00  0.00     0.002 A 
ENDROOT
BRANCH   1   7
ATOM      7  C1  UNL d   1      -1.525   0.648   1.918  0.00  0.00     0.055 C 
ATOM      8  C   UNL d   1      -3.024   0.668   1.657  0.00  0.00     0.019 C 
ENDBRANCH   1   7
TORSDOF 1
ENDMDL
