MODEL 1
REMARK minimizedAffinity -5.1767683
REMARK minimizedRMSD -1
REMARK  1 active torsions:
REMARK  status: ('A' for Active; 'I' for Inactive)
REMARK    1  A    between atoms: C1_2  and  C2_3 
ROOT
ATOM      1  C2  UNL d   1       1.272  -1.354  -0.268  0.00  0.00    -0.077 A 
ATOM      2  C3  UNL d   1       0.272  -0.376  -0.350  0.00  0.00     0.002 A 
ATOM      3  C4  UNL d   1       0.603   0.979  -0.288  0.00  0.00     0.002 A 
ATOM      4  C5  UNL d   1       1.934   1.368  -0.149  0.00  0.00    -0.004 A 
ATOM      5  C6  UNL d   1       2.936   0.402  -0.065  0.00  0.00     0.002 A 
ATOM      6  C7  UNL d   1       2.607  -0.953  -0.125  0.00  0.00     0.002 A 
ENDROOT
BRANCH   1   7
ATOM      7  C1  UNL d   1       0.922  -2.815  -0.384  0.00  0.00     0.055 C 
ATOM      8  C   UNL d   1      -0.372  -3.014  -1.159  0.00  0.00     0.019 C 
ENDBRANCH   1   7
TORSDOF 1
ENDMDL
