MODEL 1
REMARK minimizedAffinity -1.21384215
REMARK minimizedRMSD -1
REMARK  1 active torsions:
REMARK  status: ('A' for Active; 'I' for Inactive)
REMARK    1  A    between atoms: C1_2  and  C2_3 
ROOT
ATOM      1  C2  UNL d   1       0.822  -0.698  -0.547  0.00  0.00    -0.077 A 
ATOM      2  C3  UNL d   1      -0.394  -0.605  -1.238  0.00  0.00     0.002 A 
ATOM      3  C4  UNL d   1      -1.049   0.623  -1.352  0.00  0.00     0.002 A 
ATOM      4  C5  UNL d   1      -0.494   1.766  -0.781  0.00  0.00    -0.004 A 
ATOM      5  C6  UNL d   1       0.714   1.683  -0.090  0.00  0.00     0.002 A 
ATOM      6  C7  UNL d   1       1.369   0.457   0.026  0.00  0.00     0.002 A 
ENDROOT
BRANCH   1   7
ATOM      7  C1  UNL d   1       1.554  -2.012  -0.465  0.00  0.00     0.055 C 
ATOM      8  C   UNL d   1       3.030  -1.845  -0.797  0.00  0.00     0.019 C 
ENDBRANCH   1   7
TORSDOF 1
ENDMDL
