MODEL 1
REMARK minimizedAffinity -1.88517249
REMARK minimizedRMSD -1
REMARK  0 active torsions:
REMARK  status: ('A' for Active; 'I' for Inactive)
ROOT
ATOM      1  C2' OXE d   1      -0.265  -0.151   0.578  0.00  0.00     0.078 C 
ATOM      2  C1' OXE d   1       0.841  -2.668   0.009  0.00  0.00     0.078 C 
ATOM      3  C1  OXE d   1       1.468  -1.461  -0.642  0.00  0.00    -0.078 A 
ATOM      4  C2  OXE d   1       0.891  -0.238  -0.395  0.00  0.00    -0.078 A 
ATOM      5  C3  OXE d   1       1.464   0.914  -0.926  0.00  0.00     0.003 A 
ATOM      6  C4  OXE d   1       2.527   0.824  -1.833  0.00  0.00    -0.002 A 
ATOM      7  C5  OXE d   1       3.104  -0.415  -2.130  0.00  0.00    -0.002 A 
ATOM      8  C6  OXE d   1       2.615  -1.560  -1.511  0.00  0.00     0.003 A 
ENDROOT
TORSDOF 0
ENDMDL
