MODEL 1
REMARK minimizedAffinity -6.62239981
REMARK minimizedRMSD -1
REMARK  0 active torsions:
REMARK  status: ('A' for Active; 'I' for Inactive)
ROOT
ATOM      1  C2' OXE d   1       0.991   1.547  -0.018  0.00  0.00     0.078 C 
ATOM      2  C1' OXE d   1       2.267   0.703  -2.371  0.00  0.00     0.078 C 
ATOM      3  C1  OXE d   1       1.582  -0.343  -1.529  0.00  0.00    -0.078 A 
ATOM      4  C2  OXE d   1       1.000   0.072  -0.355  0.00  0.00    -0.078 A 
ATOM      5  C3  OXE d   1       0.307  -0.844   0.433  0.00  0.00     0.003 A 
ATOM      6  C4  OXE d   1       0.329  -2.208   0.119  0.00  0.00    -0.002 A 
ATOM      7  C5  OXE d   1       0.950  -2.658  -1.051  0.00  0.00    -0.002 A 
ATOM      8  C6  OXE d   1       1.543  -1.735  -1.906  0.00  0.00     0.003 A 
ENDROOT
TORSDOF 0
ENDMDL
