MODEL 1
REMARK minimizedAffinity -2.74451566
REMARK minimizedRMSD -1
REMARK  0 active torsions:
REMARK  status: ('A' for Active; 'I' for Inactive)
ROOT
ATOM      1  C2' OXE d   1       1.666   0.004  -2.429  0.00  0.00     0.078 C 
ATOM      2  C1' OXE d   1       0.343  -2.270  -1.450  0.00  0.00     0.078 C 
ATOM      3  C1  OXE d   1       0.134  -0.966  -0.721  0.00  0.00    -0.078 A 
ATOM      4  C2  OXE d   1       0.822   0.131  -1.179  0.00  0.00    -0.078 A 
ATOM      5  C3  OXE d   1       0.624   1.370  -0.577  0.00  0.00     0.003 A 
ATOM      6  C4  OXE d   1      -0.151   1.478   0.585  0.00  0.00    -0.002 A 
ATOM      7  C5  OXE d   1      -0.829   0.364   1.091  0.00  0.00    -0.002 A 
ATOM      8  C6  OXE d   1      -0.732  -0.854   0.427  0.00  0.00     0.003 A 
ENDROOT
TORSDOF 0
ENDMDL
