MODEL 1
REMARK minimizedAffinity -2.91409826
REMARK minimizedRMSD -1
REMARK  0 active torsions:
REMARK  status: ('A' for Active; 'I' for Inactive)
ROOT
ATOM      1  C2' OXE d   1      -0.741   0.398   1.180  0.00  0.00     0.078 C 
ATOM      2  C1' OXE d   1       1.414   2.147   0.763  0.00  0.00     0.078 C 
ATOM      3  C1  OXE d   1       1.214   1.028  -0.229  0.00  0.00    -0.078 A 
ATOM      4  C2  OXE d   1       0.184   0.150   0.009  0.00  0.00    -0.078 A 
ATOM      5  C3  OXE d   1      -0.078  -0.868  -0.904  0.00  0.00     0.003 A 
ATOM      6  C4  OXE d   1       0.789  -1.097  -1.979  0.00  0.00    -0.002 A 
ATOM      7  C5  OXE d   1       1.866  -0.237  -2.217  0.00  0.00    -0.002 A 
ATOM      8  C6  OXE d   1       2.067   0.853  -1.378  0.00  0.00     0.003 A 
ENDROOT
TORSDOF 0
ENDMDL
