MODEL 1
REMARK minimizedAffinity -4.15868235
REMARK minimizedRMSD -1
REMARK  0 active torsions:
REMARK  status: ('A' for Active; 'I' for Inactive)
ROOT
ATOM      1  C2' OXE d   1       0.715   1.328  -0.330  0.00  0.00     0.078 C 
ATOM      2  C1' OXE d   1      -0.198  -1.066   0.817  0.00  0.00     0.078 C 
ATOM      3  C1  OXE d   1       0.631  -1.159  -0.439  0.00  0.00    -0.078 A 
ATOM      4  C2  OXE d   1       1.035   0.019  -1.020  0.00  0.00    -0.078 A 
ATOM      5  C3  OXE d   1       1.848  -0.012  -2.149  0.00  0.00     0.003 A 
ATOM      6  C4  OXE d   1       2.131  -1.226  -2.786  0.00  0.00    -0.002 A 
ATOM      7  C5  OXE d   1       1.696  -2.436  -2.233  0.00  0.00    -0.002 A 
ATOM      8  C6  OXE d   1       0.983  -2.422  -1.039  0.00  0.00     0.003 A 
ENDROOT
TORSDOF 0
ENDMDL
