MODEL 1
REMARK minimizedAffinity -4.21157169
REMARK minimizedRMSD -1
REMARK  0 active torsions:
REMARK  status: ('A' for Active; 'I' for Inactive)
ROOT
ATOM      1  C2' OXE d   1       0.277  -2.440  -1.684  0.00  0.00     0.078 C 
ATOM      2  C1' OXE d   1       1.259  -0.066  -2.815  0.00  0.00     0.078 C 
ATOM      3  C1  OXE d   1       1.032  -0.094  -1.324  0.00  0.00    -0.078 A 
ATOM      4  C2  OXE d   1       0.507  -1.244  -0.786  0.00  0.00    -0.078 A 
ATOM      5  C3  OXE d   1       0.330  -1.342   0.591  0.00  0.00     0.003 A 
ATOM      6  C4  OXE d   1       0.537  -0.227   1.413  0.00  0.00    -0.002 A 
ATOM      7  C5  OXE d   1       1.034   0.966   0.880  0.00  0.00    -0.002 A 
ATOM      8  C6  OXE d   1       1.326   1.036  -0.478  0.00  0.00     0.003 A 
ENDROOT
TORSDOF 0
ENDMDL
