MODEL 1
REMARK minimizedAffinity -3.90993977
REMARK minimizedRMSD -1
REMARK  0 active torsions:
REMARK  status: ('A' for Active; 'I' for Inactive)
ROOT
ATOM      1  C2' OXE d   1       1.363  -0.130  -2.634  0.00  0.00     0.078 C 
ATOM      2  C1' OXE d   1       0.505  -2.543  -1.484  0.00  0.00     0.078 C 
ATOM      3  C1  OXE d   1       0.433  -1.296  -0.639  0.00  0.00    -0.078 A 
ATOM      4  C2  OXE d   1       0.898  -0.128  -1.194  0.00  0.00    -0.078 A 
ATOM      5  C3  OXE d   1       0.804   1.061  -0.477  0.00  0.00     0.003 A 
ATOM      6  C4  OXE d   1       0.383   1.053   0.858  0.00  0.00    -0.002 A 
ATOM      7  C5  OXE d   1      -0.058  -0.133   1.456  0.00  0.00    -0.002 A 
ATOM      8  C6  OXE d   1      -0.080  -1.306   0.709  0.00  0.00     0.003 A 
ENDROOT
TORSDOF 0
ENDMDL
