MODEL 1
REMARK minimizedAffinity -5.03620815
REMARK minimizedRMSD -1
REMARK  0 active torsions:
REMARK  status: ('A' for Active; 'I' for Inactive)
ROOT
ATOM      1  C2' OXE d   1       0.575   2.439  -0.364  0.00  0.00     0.078 C 
ATOM      2  C1' OXE d   1      -0.972   0.239   0.440  0.00  0.00     0.078 C 
ATOM      3  C1  OXE d   1       0.114   0.000  -0.579  0.00  0.00    -0.078 A 
ATOM      4  C2  OXE d   1       0.835   1.091  -1.001  0.00  0.00    -0.078 A 
ATOM      5  C3  OXE d   1       1.885   0.918  -1.899  0.00  0.00     0.003 A 
ATOM      6  C4  OXE d   1       2.113  -0.330  -2.492  0.00  0.00    -0.002 A 
ATOM      7  C5  OXE d   1       1.363  -1.446  -2.106  0.00  0.00    -0.002 A 
ATOM      8  C6  OXE d   1       0.391  -1.307  -1.122  0.00  0.00     0.003 A 
ENDROOT
TORSDOF 0
ENDMDL
