MODEL 1
REMARK minimizedAffinity -6.41964722
REMARK minimizedRMSD -1
REMARK  0 active torsions:
REMARK  status: ('A' for Active; 'I' for Inactive)
ROOT
ATOM      1  C2' OXE d   1       0.896   1.719   0.306  0.00  0.00     0.078 C 
ATOM      2  C1' OXE d   1      -0.316  -0.716   1.001  0.00  0.00     0.078 C 
ATOM      3  C1  OXE d   1       0.494  -0.671  -0.270  0.00  0.00    -0.078 A 
ATOM      4  C2  OXE d   1       1.045   0.537  -0.626  0.00  0.00    -0.078 A 
ATOM      5  C3  OXE d   1       1.848   0.621  -1.761  0.00  0.00     0.003 A 
ATOM      6  C4  OXE d   1       1.973  -0.475  -2.623  0.00  0.00    -0.002 A 
ATOM      7  C5  OXE d   1       1.387  -1.703  -2.300  0.00  0.00    -0.002 A 
ATOM      8  C6  OXE d   1       0.682  -1.829  -1.108  0.00  0.00     0.003 A 
ENDROOT
TORSDOF 0
ENDMDL
