MODEL 1
REMARK minimizedAffinity -4.04085159
REMARK minimizedRMSD -1
REMARK  0 active torsions:
REMARK  status: ('A' for Active; 'I' for Inactive)
ROOT
ATOM      1  C2' OXE d   1       0.628  -2.591  -1.522  0.00  0.00     0.078 C 
ATOM      2  C1' OXE d   1       1.559  -0.428  -3.050  0.00  0.00     0.078 C 
ATOM      3  C1  OXE d   1       1.115  -0.150  -1.636  0.00  0.00    -0.078 A 
ATOM      4  C2  OXE d   1       0.617  -1.206  -0.911  0.00  0.00    -0.078 A 
ATOM      5  C3  OXE d   1       0.244  -1.015   0.417  0.00  0.00     0.003 A 
ATOM      6  C4  OXE d   1       0.227   0.271   0.970  0.00  0.00    -0.002 A 
ATOM      7  C5  OXE d   1       0.693   1.366   0.236  0.00  0.00    -0.002 A 
ATOM      8  C6  OXE d   1       1.179   1.166  -1.052  0.00  0.00     0.003 A 
ENDROOT
TORSDOF 0
ENDMDL
