MODEL 1
REMARK minimizedAffinity -2.62782717
REMARK minimizedRMSD -1
REMARK  0 active torsions:
REMARK  status: ('A' for Active; 'I' for Inactive)
ROOT
ATOM      1  C2' OXE d   1       0.741   2.103   0.356  0.00  0.00     0.078 C 
ATOM      2  C1' OXE d   1      -0.977   0.048   1.192  0.00  0.00     0.078 C 
ATOM      3  C1  OXE d   1      -0.158  -0.184  -0.052  0.00  0.00    -0.078 A 
ATOM      4  C2  OXE d   1       0.646   0.846  -0.481  0.00  0.00    -0.078 A 
ATOM      5  C3  OXE d   1       1.464   0.665  -1.592  0.00  0.00     0.003 A 
ATOM      6  C4  OXE d   1       1.361  -0.498  -2.366  0.00  0.00    -0.002 A 
ATOM      7  C5  OXE d   1       0.520  -1.543  -1.970  0.00  0.00    -0.002 A 
ATOM      8  C6  OXE d   1      -0.213  -1.419  -0.794  0.00  0.00     0.003 A 
ENDROOT
TORSDOF 0
ENDMDL
