MODEL 1
REMARK minimizedAffinity -4.51321554
REMARK minimizedRMSD -1
REMARK  0 active torsions:
REMARK  status: ('A' for Active; 'I' for Inactive)
ROOT
ATOM      1  C2' OXE d   1       0.288  -2.576  -1.297  0.00  0.00     0.078 C 
ATOM      2  C1' OXE d   1       1.370  -0.292  -2.518  0.00  0.00     0.078 C 
ATOM      3  C1  OXE d   1       0.825  -0.150  -1.118  0.00  0.00    -0.078 A 
ATOM      4  C2  OXE d   1       0.255  -1.262  -0.547  0.00  0.00    -0.078 A 
ATOM      5  C3  OXE d   1      -0.213  -1.201   0.763  0.00  0.00     0.003 A 
ATOM      6  C4  OXE d   1      -0.249   0.021   1.446  0.00  0.00    -0.002 A 
ATOM      7  C5  OXE d   1       0.290   1.175   0.867  0.00  0.00    -0.002 A 
ATOM      8  C6  OXE d   1       0.868   1.097  -0.395  0.00  0.00     0.003 A 
ENDROOT
TORSDOF 0
ENDMDL
