MODEL 1
REMARK minimizedAffinity -4.51813078
REMARK minimizedRMSD -1
REMARK  0 active torsions:
REMARK  status: ('A' for Active; 'I' for Inactive)
ROOT
ATOM      1  C2' OXE d   1       1.754  -0.524  -2.830  0.00  0.00     0.078 C 
ATOM      2  C1' OXE d   1       0.397  -2.607  -1.525  0.00  0.00     0.078 C 
ATOM      3  C1  OXE d   1       0.436  -1.260  -0.848  0.00  0.00    -0.078 A 
ATOM      4  C2  OXE d   1       1.142  -0.259  -1.472  0.00  0.00    -0.078 A 
ATOM      5  C3  OXE d   1       1.164   1.018  -0.917  0.00  0.00     0.003 A 
ATOM      6  C4  OXE d   1       0.605   1.252   0.344  0.00  0.00    -0.002 A 
ATOM      7  C5  OXE d   1      -0.085   0.236   1.015  0.00  0.00    -0.002 A 
ATOM      8  C6  OXE d   1      -0.214  -1.011   0.414  0.00  0.00     0.003 A 
ENDROOT
TORSDOF 0
ENDMDL
