MODEL 1
REMARK minimizedAffinity -2.27989006
REMARK minimizedRMSD -1
REMARK  0 active torsions:
REMARK  status: ('A' for Active; 'I' for Inactive)
ROOT
ATOM      1  C2' OXE d   1       0.646  -2.214  -1.799  0.00  0.00     0.078 C 
ATOM      2  C1' OXE d   1       2.359  -0.020  -2.156  0.00  0.00     0.078 C 
ATOM      3  C1  OXE d   1       1.323   0.068  -1.064  0.00  0.00    -0.078 A 
ATOM      4  C2  OXE d   1       0.458  -0.992  -0.926  0.00  0.00    -0.078 A 
ATOM      5  C3  OXE d   1      -0.481  -0.986   0.101  0.00  0.00     0.003 A 
ATOM      6  C4  OXE d   1      -0.654   0.153   0.897  0.00  0.00    -0.002 A 
ATOM      7  C5  OXE d   1       0.190   1.258   0.747  0.00  0.00    -0.002 A 
ATOM      8  C6  OXE d   1       1.209   1.215  -0.198  0.00  0.00     0.003 A 
ENDROOT
TORSDOF 0
ENDMDL
