MODEL 1
REMARK minimizedAffinity -5.19686317
REMARK minimizedRMSD -1
REMARK  0 active torsions:
REMARK  status: ('A' for Active; 'I' for Inactive)
ROOT
ATOM      1  C2' OXE d   1       1.516   2.356  -0.944  0.00  0.00     0.078 C 
ATOM      2  C1' OXE d   1       1.233   0.268  -2.799  0.00  0.00     0.078 C 
ATOM      3  C1  OXE d   1       0.820   0.003  -1.373  0.00  0.00    -0.078 A 
ATOM      4  C2  OXE d   1       1.005   1.015  -0.462  0.00  0.00    -0.078 A 
ATOM      5  C3  OXE d   1       0.590   0.841   0.855  0.00  0.00     0.003 A 
ATOM      6  C4  OXE d   1       0.128  -0.405   1.294  0.00  0.00    -0.002 A 
ATOM      7  C5  OXE d   1      -0.031  -1.462   0.391  0.00  0.00    -0.002 A 
ATOM      8  C6  OXE d   1       0.269  -1.262  -0.952  0.00  0.00     0.003 A 
ENDROOT
TORSDOF 0
ENDMDL
