MODEL 1
REMARK minimizedAffinity -4.01853657
REMARK minimizedRMSD -1
REMARK  0 active torsions:
REMARK  status: ('A' for Active; 'I' for Inactive)
ROOT
ATOM      1  C2' OXE d   1       1.504   1.444   0.780  0.00  0.00     0.078 C 
ATOM      2  C1' OXE d   1      -0.457  -0.564   0.724  0.00  0.00     0.078 C 
ATOM      3  C1  OXE d   1       0.205  -0.190  -0.579  0.00  0.00    -0.078 A 
ATOM      4  C2  OXE d   1       1.130   0.826  -0.550  0.00  0.00    -0.078 A 
ATOM      5  C3  OXE d   1       1.809   1.173  -1.714  0.00  0.00     0.003 A 
ATOM      6  C4  OXE d   1       1.450   0.603  -2.941  0.00  0.00    -0.002 A 
ATOM      7  C5  OXE d   1       0.482  -0.406  -2.999  0.00  0.00    -0.002 A 
ATOM      8  C6  OXE d   1      -0.118  -0.843  -1.824  0.00  0.00     0.003 A 
ENDROOT
TORSDOF 0
ENDMDL
