MODEL 1
REMARK minimizedAffinity 0.0993122905
REMARK minimizedRMSD -1
REMARK  0 active torsions:
REMARK  status: ('A' for Active; 'I' for Inactive)
ROOT
ATOM      1  C1  BNZ d   1       3.875  -1.794   5.996  0.00  0.00     0.000 A 
ATOM      2  C2  BNZ d   1       5.174  -2.226   5.984  0.00  0.00     0.000 A 
ATOM      3  C3  BNZ d   1       5.976  -2.004   4.899  0.00  0.00     0.000 A 
ATOM      4  C4  BNZ d   1       5.468  -1.385   3.814  0.00  0.00     0.000 A 
ATOM      5  C5  BNZ d   1       4.157  -0.951   3.807  0.00  0.00     0.000 A 
ATOM      6  C6  BNZ d   1       3.364  -1.142   4.916  0.00  0.00     0.000 A 
ENDROOT
TORSDOF 0
ENDMDL
