MODEL 1
REMARK minimizedAffinity 1.34155023
REMARK minimizedRMSD -1
REMARK  0 active torsions:
REMARK  status: ('A' for Active; 'I' for Inactive)
ROOT
ATOM      1  C1  BNZ d   1       1.794  -1.094   2.306  0.00  0.00     0.000 A 
ATOM      2  C2  BNZ d   1       1.481  -2.158   3.109  0.00  0.00     0.000 A 
ATOM      3  C3  BNZ d   1       2.427  -2.734   3.910  0.00  0.00     0.000 A 
ATOM      4  C4  BNZ d   1       3.694  -2.270   3.877  0.00  0.00     0.000 A 
ATOM      5  C5  BNZ d   1       4.027  -1.204   3.066  0.00  0.00     0.000 A 
ATOM      6  C6  BNZ d   1       3.063  -0.603   2.291  0.00  0.00     0.000 A 
ENDROOT
TORSDOF 0
ENDMDL
