MODEL 1
REMARK minimizedAffinity -0.136014983
REMARK minimizedRMSD -1
REMARK  0 active torsions:
REMARK  status: ('A' for Active; 'I' for Inactive)
ROOT
ATOM      1  C1  BNZ d   1       4.868  -5.751  -4.811  0.00  0.00     0.000 A 
ATOM      2  C2  BNZ d   1       4.172  -5.821  -3.634  0.00  0.00     0.000 A 
ATOM      3  C3  BNZ d   1       2.812  -5.964  -3.632  0.00  0.00     0.000 A 
ATOM      4  C4  BNZ d   1       2.148  -5.997  -4.805  0.00  0.00     0.000 A 
ATOM      5  C5  BNZ d   1       2.834  -5.917  -6.000  0.00  0.00     0.000 A 
ATOM      6  C6  BNZ d   1       4.206  -5.812  -5.998  0.00  0.00     0.000 A 
ENDROOT
TORSDOF 0
ENDMDL
