MODEL 1
REMARK minimizedAffinity 3.65162516
REMARK minimizedRMSD -1
REMARK  0 active torsions:
REMARK  status: ('A' for Active; 'I' for Inactive)
ROOT
ATOM      1  C1  BNZ d   1      -5.233   3.723   0.418  0.00  0.00     0.000 A 
ATOM      2  C2  BNZ d   1      -5.999   3.509   1.533  0.00  0.00     0.000 A 
ATOM      3  C3  BNZ d   1      -5.459   2.947   2.656  0.00  0.00     0.000 A 
ATOM      4  C4  BNZ d   1      -4.166   2.565   2.649  0.00  0.00     0.000 A 
ATOM      5  C5  BNZ d   1      -3.383   2.765   1.530  0.00  0.00     0.000 A 
ATOM      6  C6  BNZ d   1      -3.920   3.366   0.415  0.00  0.00     0.000 A 
ENDROOT
TORSDOF 0
ENDMDL
