MODEL 1
REMARK minimizedAffinity 0.43186447
REMARK minimizedRMSD -1
REMARK  0 active torsions:
REMARK  status: ('A' for Active; 'I' for Inactive)
ROOT
ATOM      1  C1  BNZ d   1       2.982  -3.027   2.674  0.00  0.00     0.000 A 
ATOM      2  C2  BNZ d   1       2.917  -1.952   1.828  0.00  0.00     0.000 A 
ATOM      3  C3  BNZ d   1       2.333  -0.782   2.225  0.00  0.00     0.000 A 
ATOM      4  C4  BNZ d   1       1.779  -0.701   3.452  0.00  0.00     0.000 A 
ATOM      5  C5  BNZ d   1       1.828  -1.779   4.314  0.00  0.00     0.000 A 
ATOM      6  C6  BNZ d   1       2.452  -2.942   3.924  0.00  0.00     0.000 A 
ENDROOT
TORSDOF 0
ENDMDL
