MODEL 1
REMARK minimizedAffinity 5.7350359
REMARK minimizedRMSD -1
REMARK  0 active torsions:
REMARK  status: ('A' for Active; 'I' for Inactive)
ROOT
ATOM      1  C1  BNZ d   1      -5.921   3.413   0.726  0.00  0.00     0.000 A 
ATOM      2  C2  BNZ d   1      -5.997   2.955   2.014  0.00  0.00     0.000 A 
ATOM      3  C3  BNZ d   1      -4.869   2.599   2.699  0.00  0.00     0.000 A 
ATOM      4  C4  BNZ d   1      -3.671   2.665   2.082  0.00  0.00     0.000 A 
ATOM      5  C5  BNZ d   1      -3.578   3.116   0.781  0.00  0.00     0.000 A 
ATOM      6  C6  BNZ d   1      -4.712   3.510   0.108  0.00  0.00     0.000 A 
ENDROOT
TORSDOF 0
ENDMDL
