MODEL 1
REMARK minimizedAffinity 5.00073576
REMARK minimizedRMSD -1
REMARK  0 active torsions:
REMARK  status: ('A' for Active; 'I' for Inactive)
ROOT
ATOM      1  C1  BNZ d   1      -5.999   3.415   1.001  0.00  0.00     0.000 A 
ATOM      2  C2  BNZ d   1      -5.921   2.957   2.290  0.00  0.00     0.000 A 
ATOM      3  C3  BNZ d   1      -4.748   2.460   2.786  0.00  0.00     0.000 A 
ATOM      4  C4  BNZ d   1      -3.667   2.385   1.982  0.00  0.00     0.000 A 
ATOM      5  C5  BNZ d   1      -3.733   2.834   0.678  0.00  0.00     0.000 A 
ATOM      6  C6  BNZ d   1      -4.904   3.369   0.194  0.00  0.00     0.000 A 
ENDROOT
TORSDOF 0
ENDMDL
