MODEL 1
REMARK minimizedAffinity 2.12804103
REMARK minimizedRMSD -1
REMARK  0 active torsions:
REMARK  status: ('A' for Active; 'I' for Inactive)
ROOT
ATOM      1  C1  BNZ d   1       3.097  -3.216   4.344  0.00  0.00     0.000 A 
ATOM      2  C2  BNZ d   1       3.063  -3.165   2.976  0.00  0.00     0.000 A 
ATOM      3  C3  BNZ d   1       2.590  -2.058   2.329  0.00  0.00     0.000 A 
ATOM      4  C4  BNZ d   1       2.116  -1.020   3.048  0.00  0.00     0.000 A 
ATOM      5  C5  BNZ d   1       2.135  -1.060   4.428  0.00  0.00     0.000 A 
ATOM      6  C6  BNZ d   1       2.648  -2.160   5.077  0.00  0.00     0.000 A 
ENDROOT
TORSDOF 0
ENDMDL
