MODEL 1
REMARK minimizedAffinity 2.03457904
REMARK minimizedRMSD -1
REMARK  0 active torsions:
REMARK  status: ('A' for Active; 'I' for Inactive)
ROOT
ATOM      1  C1  BNZ d   1      -4.923   2.644   0.017  0.00  0.00     0.000 A 
ATOM      2  C2  BNZ d   1      -3.666   2.696   0.558  0.00  0.00     0.000 A 
ATOM      3  C3  BNZ d   1      -3.473   3.123   1.842  0.00  0.00     0.000 A 
ATOM      4  C4  BNZ d   1      -4.531   3.536   2.569  0.00  0.00     0.000 A 
ATOM      5  C5  BNZ d   1      -5.804   3.498   2.035  0.00  0.00     0.000 A 
ATOM      6  C6  BNZ d   1      -5.999   3.031   0.755  0.00  0.00     0.000 A 
ENDROOT
TORSDOF 0
ENDMDL
