MODEL 1
REMARK minimizedAffinity 7.6284008
REMARK minimizedRMSD -1
REMARK  0 active torsions:
REMARK  status: ('A' for Active; 'I' for Inactive)
ROOT
ATOM      1  C2' OXE d   1       4.866   4.115   1.836  0.00  0.00     0.078 C 
ATOM      2  C1' OXE d   1       2.595   3.160   3.181  0.00  0.00     0.078 C 
ATOM      3  C1  OXE d   1       3.556   4.031   3.952  0.00  0.00    -0.078 A 
ATOM      4  C2  OXE d   1       4.688   4.455   3.300  0.00  0.00    -0.078 A 
ATOM      5  C3  OXE d   1       5.579   5.306   3.948  0.00  0.00     0.003 A 
ATOM      6  C4  OXE d   1       5.412   5.607   5.305  0.00  0.00    -0.002 A 
ATOM      7  C5  OXE d   1       4.286   5.152   6.000  0.00  0.00    -0.002 A 
ATOM      8  C6  OXE d   1       3.329   4.400   5.328  0.00  0.00     0.003 A 
ENDROOT
TORSDOF 0
ENDMDL
