MODEL 1
REMARK minimizedAffinity 8.53360748
REMARK minimizedRMSD -1
REMARK  0 active torsions:
REMARK  status: ('A' for Active; 'I' for Inactive)
ROOT
ATOM      1  C2' OXE d   1       2.183   2.970   2.944  0.00  0.00     0.078 C 
ATOM      2  C1' OXE d   1       4.599   3.945   1.897  0.00  0.00     0.078 C 
ATOM      3  C1  OXE d   1       4.293   4.232   3.346  0.00  0.00    -0.078 A 
ATOM      4  C2  OXE d   1       3.087   3.792   3.837  0.00  0.00    -0.078 A 
ATOM      5  C3  OXE d   1       2.779   3.983   5.181  0.00  0.00     0.003 A 
ATOM      6  C4  OXE d   1       3.616   4.752   5.998  0.00  0.00    -0.002 A 
ATOM      7  C5  OXE d   1       4.830   5.245   5.507  0.00  0.00    -0.002 A 
ATOM      8  C6  OXE d   1       5.203   4.958   4.198  0.00  0.00     0.003 A 
ENDROOT
TORSDOF 0
ENDMDL
