MODEL 1
REMARK minimizedAffinity 4.91972303
REMARK minimizedRMSD -1
REMARK  0 active torsions:
REMARK  status: ('A' for Active; 'I' for Inactive)
ROOT
ATOM      1  C2' OXE d   1      -3.011   0.361  -5.567  0.00  0.00     0.078 C 
ATOM      2  C1' OXE d   1      -1.921   0.375  -2.980  0.00  0.00     0.078 C 
ATOM      3  C1  OXE d   1      -3.326   0.896  -3.154  0.00  0.00    -0.078 A 
ATOM      4  C2  OXE d   1      -3.834   0.929  -4.431  0.00  0.00    -0.078 A 
ATOM      5  C3  OXE d   1      -5.145   1.349  -4.640  0.00  0.00     0.003 A 
ATOM      6  C4  OXE d   1      -5.896   1.881  -3.586  0.00  0.00    -0.002 A 
ATOM      7  C5  OXE d   1      -5.383   1.894  -2.284  0.00  0.00    -0.002 A 
ATOM      8  C6  OXE d   1      -4.118   1.367  -2.045  0.00  0.00     0.003 A 
ENDROOT
TORSDOF 0
ENDMDL
