MODEL 1
REMARK minimizedAffinity 11.9458485
REMARK minimizedRMSD -1
REMARK  0 active torsions:
REMARK  status: ('A' for Active; 'I' for Inactive)
ROOT
ATOM      1  C2' OXE d   1       4.126   6.000   1.996  0.00  0.00     0.078 C 
ATOM      2  C1' OXE d   1       5.065   3.357   2.095  0.00  0.00     0.078 C 
ATOM      3  C1  OXE d   1       4.736   4.035   3.401  0.00  0.00    -0.078 A 
ATOM      4  C2  OXE d   1       4.321   5.344   3.346  0.00  0.00    -0.078 A 
ATOM      5  C3  OXE d   1       3.952   6.000   4.517  0.00  0.00     0.003 A 
ATOM      6  C4  OXE d   1       4.145   5.390   5.763  0.00  0.00    -0.002 A 
ATOM      7  C5  OXE d   1       4.604   4.071   5.843  0.00  0.00    -0.002 A 
ATOM      8  C6  OXE d   1       4.863   3.367   4.672  0.00  0.00     0.003 A 
ENDROOT
TORSDOF 0
ENDMDL
