MODEL 1
REMARK minimizedAffinity 11.0927696
REMARK minimizedRMSD -1
REMARK  0 active torsions:
REMARK  status: ('A' for Active; 'I' for Inactive)
ROOT
ATOM      1  C2' OXE d   1       5.520   1.572  -2.587  0.00  0.00     0.078 C 
ATOM      2  C1' OXE d   1       4.261  -0.542  -3.938  0.00  0.00     0.078 C 
ATOM      3  C1  OXE d   1       3.864  -0.287  -2.506  0.00  0.00    -0.078 A 
ATOM      4  C2  OXE d   1       4.519   0.719  -1.837  0.00  0.00    -0.078 A 
ATOM      5  C3  OXE d   1       4.152   1.032  -0.532  0.00  0.00     0.003 A 
ATOM      6  C4  OXE d   1       3.233   0.232   0.157  0.00  0.00    -0.002 A 
ATOM      7  C5  OXE d   1       2.583  -0.823  -0.492  0.00  0.00    -0.002 A 
ATOM      8  C6  OXE d   1       2.856  -1.069  -1.833  0.00  0.00     0.003 A 
ENDROOT
TORSDOF 0
ENDMDL
