MODEL 1
REMARK minimizedAffinity 10.43221
REMARK minimizedRMSD -1
REMARK  0 active torsions:
REMARK  status: ('A' for Active; 'I' for Inactive)
ROOT
ATOM      1  C2' OXE d   1       4.883  -0.450  -4.149  0.00  0.00     0.078 C 
ATOM      2  C1' OXE d   1       5.835   1.795  -2.758  0.00  0.00     0.078 C 
ATOM      3  C1  OXE d   1       4.680   1.033  -2.158  0.00  0.00    -0.078 A 
ATOM      4  C2  OXE d   1       4.190  -0.037  -2.869  0.00  0.00    -0.078 A 
ATOM      5  C3  OXE d   1       3.161  -0.807  -2.335  0.00  0.00     0.003 A 
ATOM      6  C4  OXE d   1       2.519  -0.411  -1.155  0.00  0.00    -0.002 A 
ATOM      7  C5  OXE d   1       2.976   0.698  -0.435  0.00  0.00    -0.002 A 
ATOM      8  C6  OXE d   1       4.080   1.404  -0.900  0.00  0.00     0.003 A 
ENDROOT
TORSDOF 0
ENDMDL
