MODEL 1
REMARK minimizedAffinity 6.55772305
REMARK minimizedRMSD -1
REMARK  0 active torsions:
REMARK  status: ('A' for Active; 'I' for Inactive)
ROOT
ATOM      1  C2' OXE d   1       1.615   0.679   0.715  0.00  0.00     0.078 C 
ATOM      2  C1' OXE d   1       3.269  -1.587   0.617  0.00  0.00     0.078 C 
ATOM      3  C1  OXE d   1       1.952  -1.644  -0.116  0.00  0.00    -0.078 A 
ATOM      4  C2  OXE d   1       1.128  -0.548  -0.024  0.00  0.00    -0.078 A 
ATOM      5  C3  OXE d   1      -0.073  -0.528  -0.726  0.00  0.00     0.003 A 
ATOM      6  C4  OXE d   1      -0.520  -1.671  -1.399  0.00  0.00    -0.002 A 
ATOM      7  C5  OXE d   1       0.285  -2.813  -1.473  0.00  0.00    -0.002 A 
ATOM      8  C6  OXE d   1       1.540  -2.800  -0.874  0.00  0.00     0.003 A 
ENDROOT
TORSDOF 0
ENDMDL
