MODEL 1
REMARK minimizedAffinity 3.75152349
REMARK minimizedRMSD -1
REMARK  0 active torsions:
REMARK  status: ('A' for Active; 'I' for Inactive)
ROOT
ATOM      1  C2' OXE d   1      -0.006  -0.945  -1.412  0.00  0.00     0.078 C 
ATOM      2  C1' OXE d   1      -1.219  -1.246   1.102  0.00  0.00     0.078 C 
ATOM      3  C1  OXE d   1      -0.485   0.042   0.825  0.00  0.00    -0.078 A 
ATOM      4  C2  OXE d   1       0.145   0.162  -0.390  0.00  0.00    -0.078 A 
ATOM      5  C3  OXE d   1       0.790   1.351  -0.718  0.00  0.00     0.003 A 
ATOM      6  C4  OXE d   1       0.935   2.366   0.236  0.00  0.00    -0.002 A 
ATOM      7  C5  OXE d   1       0.334   2.247   1.494  0.00  0.00    -0.002 A 
ATOM      8  C6  OXE d   1      -0.413   1.113   1.789  0.00  0.00     0.003 A 
ENDROOT
TORSDOF 0
ENDMDL
