MODEL 1
REMARK minimizedAffinity 2.44118595
REMARK minimizedRMSD -1
REMARK  0 active torsions:
REMARK  status: ('A' for Active; 'I' for Inactive)
ROOT
ATOM      1  C   UNL d   1       4.873   3.327  -1.491  0.00  0.00     0.078 C 
ATOM      2  C1  UNL d   1       4.834   1.899  -1.034  0.00  0.00    -0.077 A 
ATOM      3  C2  UNL d   1       3.645   1.160  -1.079  0.00  0.00    -0.001 A 
ATOM      4  C3  UNL d   1       3.621  -0.165  -0.641  0.00  0.00     0.003 A 
ATOM      5  C4  UNL d   1       4.782  -0.762  -0.154  0.00  0.00    -0.005 A 
ATOM      6  C5  UNL d   1       5.969  -0.034  -0.104  0.00  0.00     0.003 A 
ATOM      7  C6  UNL d   1       5.995   1.291  -0.541  0.00  0.00    -0.001 A 
ENDROOT
TORSDOF 0
ENDMDL
