MODEL 1
REMARK minimizedAffinity 1.09504914
REMARK minimizedRMSD -1
REMARK  0 active torsions:
REMARK  status: ('A' for Active; 'I' for Inactive)
ROOT
ATOM      1  C   UNL d   1      -4.952   4.884   3.641  0.00  0.00     0.078 C 
ATOM      2  C1  UNL d   1      -3.691   4.648   2.864  0.00  0.00    -0.077 A 
ATOM      3  C2  UNL d   1      -2.542   5.411   3.106  0.00  0.00    -0.001 A 
ATOM      4  C3  UNL d   1      -1.378   5.188   2.368  0.00  0.00     0.003 A 
ATOM      5  C4  UNL d   1      -1.352   4.202   1.384  0.00  0.00    -0.005 A 
ATOM      6  C5  UNL d   1      -2.491   3.439   1.135  0.00  0.00     0.003 A 
ATOM      7  C6  UNL d   1      -3.656   3.661   1.871  0.00  0.00    -0.001 A 
ENDROOT
TORSDOF 0
ENDMDL
