MODEL 1
REMARK minimizedAffinity 7.45832634
REMARK minimizedRMSD -1
REMARK  0 active torsions:
REMARK  status: ('A' for Active; 'I' for Inactive)
ROOT
ATOM      1  C   UNL d   1       2.280  -2.034  -1.069  0.00  0.00     0.078 C 
ATOM      2  C1  UNL d   1       3.080  -0.775  -0.918  0.00  0.00    -0.077 A 
ATOM      3  C2  UNL d   1       4.242  -0.565  -1.671  0.00  0.00    -0.001 A 
ATOM      4  C3  UNL d   1       4.983   0.608  -1.514  0.00  0.00     0.003 A 
ATOM      5  C4  UNL d   1       4.570   1.579  -0.604  0.00  0.00    -0.005 A 
ATOM      6  C5  UNL d   1       3.417   1.377   0.152  0.00  0.00     0.003 A 
ATOM      7  C6  UNL d   1       2.675   0.205  -0.004  0.00  0.00    -0.001 A 
ENDROOT
TORSDOF 0
ENDMDL
