MODEL 1
REMARK minimizedAffinity 6.24614716
REMARK minimizedRMSD -1
REMARK  0 active torsions:
REMARK  status: ('A' for Active; 'I' for Inactive)
ROOT
ATOM      1  C   UNL d   1       1.748  -0.005  -0.736  0.00  0.00     0.078 C 
ATOM      2  C1  UNL d   1       3.230   0.226  -0.708  0.00  0.00    -0.077 A 
ATOM      3  C2  UNL d   1       4.044  -0.428   0.224  0.00  0.00    -0.001 A 
ATOM      4  C3  UNL d   1       5.420  -0.196   0.244  0.00  0.00     0.003 A 
ATOM      5  C4  UNL d   1       5.994   0.691  -0.664  0.00  0.00    -0.005 A 
ATOM      6  C5  UNL d   1       5.191   1.349  -1.594  0.00  0.00     0.003 A 
ATOM      7  C6  UNL d   1       3.815   1.118  -1.616  0.00  0.00    -0.001 A 
ENDROOT
TORSDOF 0
ENDMDL
