MODEL 1
REMARK minimizedAffinity 3.24769115
REMARK minimizedRMSD -1
REMARK  0 active torsions:
REMARK  status: ('A' for Active; 'I' for Inactive)
ROOT
ATOM      1  C   UNL d   1       4.057   0.478  -1.262  0.00  0.00     0.078 C 
ATOM      2  C1  UNL d   1       3.339  -0.803  -0.955  0.00  0.00    -0.077 A 
ATOM      3  C2  UNL d   1       3.583  -1.498   0.236  0.00  0.00    -0.001 A 
ATOM      4  C3  UNL d   1       2.915  -2.694   0.504  0.00  0.00     0.003 A 
ATOM      5  C4  UNL d   1       1.999  -3.205  -0.414  0.00  0.00    -0.005 A 
ATOM      6  C5  UNL d   1       1.751  -2.521  -1.602  0.00  0.00     0.003 A 
ATOM      7  C6  UNL d   1       2.419  -1.325  -1.872  0.00  0.00    -0.001 A 
ENDROOT
TORSDOF 0
ENDMDL
