MODEL 1
REMARK minimizedAffinity 10.331315
REMARK minimizedRMSD -1
REMARK  0 active torsions:
REMARK  status: ('A' for Active; 'I' for Inactive)
ROOT
ATOM      1  C   UNL d   1       5.324   1.975  -1.590  0.00  0.00     0.078 C 
ATOM      2  C1  UNL d   1       4.436   0.967  -0.923  0.00  0.00    -0.077 A 
ATOM      3  C2  UNL d   1       4.703   0.518   0.376  0.00  0.00    -0.001 A 
ATOM      4  C3  UNL d   1       3.873  -0.428   0.980  0.00  0.00     0.003 A 
ATOM      5  C4  UNL d   1       2.771  -0.933   0.292  0.00  0.00    -0.005 A 
ATOM      6  C5  UNL d   1       2.499  -0.493  -1.001  0.00  0.00     0.003 A 
ATOM      7  C6  UNL d   1       3.328   0.452  -1.607  0.00  0.00    -0.001 A 
ENDROOT
TORSDOF 0
ENDMDL
