MODEL 1
REMARK minimizedAffinity 6.5545969
REMARK minimizedRMSD -1
REMARK  0 active torsions:
REMARK  status: ('A' for Active; 'I' for Inactive)
ROOT
ATOM      1  C   UNL d   1       3.477  -0.347  -0.560  0.00  0.00     0.078 C 
ATOM      2  C1  UNL d   1       4.308   0.882  -0.342  0.00  0.00    -0.077 A 
ATOM      3  C2  UNL d   1       4.412   1.867  -1.332  0.00  0.00    -0.001 A 
ATOM      4  C3  UNL d   1       5.196   3.001  -1.120  0.00  0.00     0.003 A 
ATOM      5  C4  UNL d   1       5.884   3.161   0.081  0.00  0.00    -0.005 A 
ATOM      6  C5  UNL d   1       5.789   2.185   1.072  0.00  0.00     0.003 A 
ATOM      7  C6  UNL d   1       5.005   1.050   0.861  0.00  0.00    -0.001 A 
ENDROOT
TORSDOF 0
ENDMDL
