MODEL 1
REMARK minimizedAffinity -3.4185009
REMARK minimizedRMSD -1
REMARK  0 active torsions:
REMARK  status: ('A' for Active; 'I' for Inactive)
ROOT
ATOM      1  C   UNL d   1      -5.799   2.670  -2.778  0.00  0.00     0.078 C 
ATOM      2  C1  UNL d   1      -4.810   1.884  -3.586  0.00  0.00    -0.077 A 
ATOM      3  C2  UNL d   1      -3.627   1.405  -3.010  0.00  0.00    -0.001 A 
ATOM      4  C3  UNL d   1      -2.710   0.683  -3.777  0.00  0.00     0.003 A 
ATOM      5  C4  UNL d   1      -2.967   0.435  -5.124  0.00  0.00    -0.005 A 
ATOM      6  C5  UNL d   1      -4.140   0.910  -5.706  0.00  0.00     0.003 A 
ATOM      7  C6  UNL d   1      -5.058   1.632  -4.941  0.00  0.00    -0.001 A 
ENDROOT
TORSDOF 0
ENDMDL
