MODEL 1
REMARK minimizedAffinity -2.32434964
REMARK minimizedRMSD -1
REMARK  2 active torsions:
REMARK  status: ('A' for Active; 'I' for Inactive)
REMARK    1  A    between atoms: C1_2  and  C2_3 
REMARK    2  A    between atoms: C2_3  and  C3_4 
ROOT
ATOM      1  C3  UNL d   1      -3.978   2.225  -3.240  0.00  0.00    -0.075 A 
ATOM      2  C4  UNL d   1      -5.116   2.209  -2.421  0.00  0.00     0.002 A 
ATOM      3  C5  UNL d   1      -5.871   3.367  -2.234  0.00  0.00     0.002 A 
ATOM      4  C6  UNL d   1      -5.493   4.556  -2.854  0.00  0.00    -0.004 A 
ATOM      5  C7  UNL d   1      -4.355   4.587  -3.657  0.00  0.00     0.002 A 
ATOM      6  C8  UNL d   1      -3.600   3.429  -3.849  0.00  0.00     0.002 A 
ENDROOT
BRANCH   1   7
ATOM      7  C2  UNL d   1      -3.174   0.968  -3.470  0.00  0.00     0.056 C 
BRANCH   7   8
ATOM      8  C1  UNL d   1      -1.851   1.199  -4.209  0.00  0.00     0.007 C 
ATOM      9  C   UNL d   1      -0.645   0.630  -3.474  0.00  0.00     0.009 C 
ENDBRANCH   7   8
ENDBRANCH   1   7
TORSDOF 2
ENDMDL
