MODEL 1
REMARK minimizedAffinity 2.75392389
REMARK minimizedRMSD -1
REMARK  2 active torsions:
REMARK  status: ('A' for Active; 'I' for Inactive)
REMARK    1  A    between atoms: C1_2  and  C2_3 
REMARK    2  A    between atoms: C2_3  and  C3_4 
ROOT
ATOM      1  C3  UNL d   1       4.967   5.524  -2.733  0.00  0.00    -0.075 A 
ATOM      2  C4  UNL d   1       3.687   5.047  -3.052  0.00  0.00     0.002 A 
ATOM      3  C5  UNL d   1       2.729   4.868  -2.055  0.00  0.00     0.002 A 
ATOM      4  C6  UNL d   1       3.039   5.152  -0.727  0.00  0.00    -0.004 A 
ATOM      5  C7  UNL d   1       4.312   5.611  -0.396  0.00  0.00     0.002 A 
ATOM      6  C8  UNL d   1       5.272   5.796  -1.392  0.00  0.00     0.002 A 
ENDROOT
BRANCH   1   7
ATOM      7  C2  UNL d   1       5.999   5.748  -3.812  0.00  0.00     0.056 C 
BRANCH   7   8
ATOM      8  C1  UNL d   1       5.572   5.252  -5.197  0.00  0.00     0.007 C 
ATOM      9  C   UNL d   1       6.000   3.818  -5.479  0.00  0.00     0.009 C 
ENDBRANCH   7   8
ENDBRANCH   1   7
TORSDOF 2
ENDMDL
