MODEL 1
REMARK minimizedAffinity -3.5198853
REMARK minimizedRMSD -1
REMARK  2 active torsions:
REMARK  status: ('A' for Active; 'I' for Inactive)
REMARK    1  A    between atoms: C1_2  and  C2_3 
REMARK    2  A    between atoms: C2_3  and  C3_4 
ROOT
ATOM      1  C3  UNL d   1       3.587  -3.153  -5.729  0.00  0.00    -0.075 A 
ATOM      2  C4  UNL d   1       4.877  -2.603  -5.703  0.00  0.00     0.002 A 
ATOM      3  C5  UNL d   1       5.999  -3.421  -5.836  0.00  0.00     0.002 A 
ATOM      4  C6  UNL d   1       5.848  -4.797  -5.987  0.00  0.00    -0.004 A 
ATOM      5  C7  UNL d   1       4.572  -5.357  -5.998  0.00  0.00     0.002 A 
ATOM      6  C8  UNL d   1       3.447  -4.540  -5.869  0.00  0.00     0.002 A 
ENDROOT
BRANCH   1   7
ATOM      7  C2  UNL d   1       2.368  -2.270  -5.615  0.00  0.00     0.056 C 
BRANCH   7   8
ATOM      8  C1  UNL d   1       1.142  -2.973  -5.021  0.00  0.00     0.007 C 
ATOM      9  C   UNL d   1       1.265  -3.232  -3.525  0.00  0.00     0.009 C 
ENDBRANCH   7   8
ENDBRANCH   1   7
TORSDOF 2
ENDMDL
