MODEL 1
REMARK minimizedAffinity -1.5805167
REMARK minimizedRMSD -1
REMARK  2 active torsions:
REMARK  status: ('A' for Active; 'I' for Inactive)
REMARK    1  A    between atoms: C1_2  and  C2_3 
REMARK    2  A    between atoms: C2_3  and  C3_4 
ROOT
ATOM      1  C3  UNL d   1       5.145  -2.755  -5.223  0.00  0.00    -0.075 A 
ATOM      2  C4  UNL d   1       5.996  -1.918  -4.487  0.00  0.00     0.002 A 
ATOM      3  C5  UNL d   1       5.479  -0.853  -3.749  0.00  0.00     0.002 A 
ATOM      4  C6  UNL d   1       4.108  -0.605  -3.746  0.00  0.00    -0.004 A 
ATOM      5  C7  UNL d   1       3.254  -1.420  -4.486  0.00  0.00     0.002 A 
ATOM      6  C8  UNL d   1       3.769  -2.489  -5.222  0.00  0.00     0.002 A 
ENDROOT
BRANCH   1   7
ATOM      7  C2  UNL d   1       5.695  -3.927  -6.000  0.00  0.00     0.056 C 
BRANCH   7   8
ATOM      8  C1  UNL d   1       5.999  -5.158  -5.140  0.00  0.00     0.007 C 
ATOM      9  C   UNL d   1       4.755  -5.959  -4.778  0.00  0.00     0.009 C 
ENDBRANCH   7   8
ENDBRANCH   1   7
TORSDOF 2
ENDMDL
