MODEL 1
REMARK minimizedAffinity -0.0230427589
REMARK minimizedRMSD -1
REMARK  2 active torsions:
REMARK  status: ('A' for Active; 'I' for Inactive)
REMARK    1  A    between atoms: C1_2  and  C2_3 
REMARK    2  A    between atoms: C2_3  and  C3_4 
ROOT
ATOM      1  C3  UNL d   1       4.198  -3.613  -4.772  0.00  0.00    -0.075 A 
ATOM      2  C4  UNL d   1       5.255  -3.622  -5.695  0.00  0.00     0.002 A 
ATOM      3  C5  UNL d   1       5.921  -4.810  -5.997  0.00  0.00     0.002 A 
ATOM      4  C6  UNL d   1       5.547  -6.000  -5.375  0.00  0.00    -0.004 A 
ATOM      5  C7  UNL d   1       4.510  -5.999  -4.445  0.00  0.00     0.002 A 
ATOM      6  C8  UNL d   1       3.839  -4.813  -4.144  0.00  0.00     0.002 A 
ENDROOT
BRANCH   1   7
ATOM      7  C2  UNL d   1       3.454  -2.336  -4.463  0.00  0.00     0.056 C 
BRANCH   7   8
ATOM      8  C1  UNL d   1       2.049  -2.556  -3.892  0.00  0.00     0.007 C 
ATOM      9  C   UNL d   1       1.251  -1.267  -3.749  0.00  0.00     0.009 C 
ENDBRANCH   7   8
ENDBRANCH   1   7
TORSDOF 2
ENDMDL
