MODEL 1
REMARK minimizedAffinity 5.17251635
REMARK minimizedRMSD -1
REMARK  2 active torsions:
REMARK  status: ('A' for Active; 'I' for Inactive)
REMARK    1  A    between atoms: C1_2  and  C2_3 
REMARK    2  A    between atoms: C2_3  and  C3_4 
ROOT
ATOM      1  C3  UNL d   1      -4.540   2.561  -3.131  0.00  0.00    -0.075 A 
ATOM      2  C4  UNL d   1      -4.375   1.939  -4.377  0.00  0.00     0.002 A 
ATOM      3  C5  UNL d   1      -3.416   0.940  -4.548  0.00  0.00     0.002 A 
ATOM      4  C6  UNL d   1      -2.604   0.560  -3.482  0.00  0.00    -0.004 A 
ATOM      5  C7  UNL d   1      -2.748   1.183  -2.244  0.00  0.00     0.002 A 
ATOM      6  C8  UNL d   1      -3.710   2.179  -2.069  0.00  0.00     0.002 A 
ENDROOT
BRANCH   1   7
ATOM      7  C2  UNL d   1      -5.597   3.622  -2.932  0.00  0.00     0.056 C 
BRANCH   7   8
ATOM      8  C1  UNL d   1      -5.037   5.041  -2.789  0.00  0.00     0.007 C 
ATOM      9  C   UNL d   1      -5.999   6.000  -2.101  0.00  0.00     0.009 C 
ENDBRANCH   7   8
ENDBRANCH   1   7
TORSDOF 2
ENDMDL
