MODEL 1
REMARK minimizedAffinity 8.29162884
REMARK minimizedRMSD -1
REMARK  2 active torsions:
REMARK  status: ('A' for Active; 'I' for Inactive)
REMARK    1  A    between atoms: C1_2  and  C2_3 
REMARK    2  A    between atoms: C2_3  and  C3_4 
ROOT
ATOM      1  C3  UNL d   1      -3.725   2.564  -2.939  0.00  0.00    -0.075 A 
ATOM      2  C4  UNL d   1      -3.072   2.592  -1.698  0.00  0.00     0.002 A 
ATOM      3  C5  UNL d   1      -2.260   1.530  -1.300  0.00  0.00     0.002 A 
ATOM      4  C6  UNL d   1      -2.098   0.424  -2.132  0.00  0.00    -0.004 A 
ATOM      5  C7  UNL d   1      -2.755   0.378  -3.359  0.00  0.00     0.002 A 
ATOM      6  C8  UNL d   1      -3.565   1.441  -3.761  0.00  0.00     0.002 A 
ENDROOT
BRANCH   1   7
ATOM      7  C2  UNL d   1      -4.583   3.723  -3.387  0.00  0.00     0.056 C 
BRANCH   7   8
ATOM      8  C1  UNL d   1      -5.585   4.202  -2.332  0.00  0.00     0.007 C 
ATOM      9  C   UNL d   1      -5.719   5.718  -2.276  0.00  0.00     0.009 C 
ENDBRANCH   7   8
ENDBRANCH   1   7
TORSDOF 2
ENDMDL
