MODEL 1
REMARK minimizedAffinity 0.71256727
REMARK minimizedRMSD -1
REMARK  0 active torsions:
REMARK  status: ('A' for Active; 'I' for Inactive)
ROOT
ATOM      1  C1  DEN d   1      -0.009  -0.676  -0.469  0.00  0.00     0.130 A 
ATOM      2  C2  DEN d   1       1.212  -1.146   0.178  0.00  0.00    -0.031 A 
ATOM      3  C3  DEN d   1       1.491  -0.260   1.326  0.00  0.00     0.027 A 
ATOM      4  C4  DEN d   1       0.152   1.780   2.163  0.00  0.00     0.027 A 
ATOM      5  C5  DEN d   1      -0.951   2.571   1.930  0.00  0.00    -0.003 A 
ATOM      6  C6  DEN d   1      -1.792   2.357   0.870  0.00  0.00     0.001 A 
ATOM      7  C7  DEN d   1      -1.568   1.300   0.029  0.00  0.00     0.017 A 
ATOM      8  C8  DEN d   1      -0.454   0.503   0.253  0.00  0.00    -0.094 A 
ATOM      9  C9  DEN d   1       0.377   0.727   1.337  0.00  0.00    -0.072 A 
ENDROOT
TORSDOF 0
ENDMDL
