MODEL 1
REMARK minimizedAffinity -1.91119719
REMARK minimizedRMSD -1
REMARK  0 active torsions:
REMARK  status: ('A' for Active; 'I' for Inactive)
ROOT
ATOM      1  C1  DEN d   1      -1.676   2.326   0.894  0.00  0.00     0.130 A 
ATOM      2  C2  DEN d   1      -1.076   2.745   2.158  0.00  0.00    -0.031 A 
ATOM      3  C3  DEN d   1       0.146   1.944   2.370  0.00  0.00     0.027 A 
ATOM      4  C4  DEN d   1       1.166   0.111   0.870  0.00  0.00     0.027 A 
ATOM      5  C5  DEN d   1       1.007  -0.600  -0.299  0.00  0.00    -0.003 A 
ATOM      6  C6  DEN d   1      -0.066  -0.410  -1.129  0.00  0.00     0.001 A 
ATOM      7  C7  DEN d   1      -1.000   0.544  -0.823  0.00  0.00     0.017 A 
ATOM      8  C8  DEN d   1      -0.851   1.260   0.358  0.00  0.00    -0.094 A 
ATOM      9  C9  DEN d   1       0.248   1.062   1.177  0.00  0.00    -0.072 A 
ENDROOT
TORSDOF 0
ENDMDL
