MODEL 1
REMARK minimizedAffinity -3.18676209
REMARK minimizedRMSD -1
REMARK  0 active torsions:
REMARK  status: ('A' for Active; 'I' for Inactive)
ROOT
ATOM      1  C1  DEN d   1      -0.223   1.962   1.519  0.00  0.00     0.130 A 
ATOM      2  C2  DEN d   1       0.031   0.908   2.498  0.00  0.00    -0.031 A 
ATOM      3  C3  DEN d   1       0.484  -0.293   1.769  0.00  0.00     0.027 A 
ATOM      4  C4  DEN d   1       0.821  -0.622  -0.767  0.00  0.00     0.027 A 
ATOM      5  C5  DEN d   1       0.723  -0.016  -2.000  0.00  0.00    -0.003 A 
ATOM      6  C6  DEN d   1       0.275   1.270  -2.148  0.00  0.00     0.001 A 
ATOM      7  C7  DEN d   1      -0.050   2.007  -1.041  0.00  0.00     0.017 A 
ATOM      8  C8  DEN d   1       0.039   1.401   0.206  0.00  0.00    -0.094 A 
ATOM      9  C9  DEN d   1       0.506   0.104   0.336  0.00  0.00    -0.072 A 
ENDROOT
TORSDOF 0
ENDMDL
