MODEL 1
REMARK minimizedAffinity 8.82566166
REMARK minimizedRMSD -1
REMARK  0 active torsions:
REMARK  status: ('A' for Active; 'I' for Inactive)
ROOT
ATOM      1  C1  DEN d   1       0.803   2.536   0.751  0.00  0.00     0.130 A 
ATOM      2  C2  DEN d   1       0.296   3.134   1.983  0.00  0.00    -0.031 A 
ATOM      3  C3  DEN d   1      -0.030   2.041   2.921  0.00  0.00     0.027 A 
ATOM      4  C4  DEN d   1       0.204  -0.506   2.588  0.00  0.00     0.027 A 
ATOM      5  C5  DEN d   1       0.578  -1.493   1.703  0.00  0.00    -0.003 A 
ATOM      6  C6  DEN d   1       1.018  -1.209   0.437  0.00  0.00     0.001 A 
ATOM      7  C7  DEN d   1       1.138   0.095   0.036  0.00  0.00     0.017 A 
ATOM      8  C8  DEN d   1       0.755   1.095   0.920  0.00  0.00    -0.094 A 
ATOM      9  C9  DEN d   1       0.325   0.789   2.200  0.00  0.00    -0.072 A 
ENDROOT
TORSDOF 0
ENDMDL
