MODEL 1
REMARK minimizedAffinity -2.57040167
REMARK minimizedRMSD -1
REMARK  0 active torsions:
REMARK  status: ('A' for Active; 'I' for Inactive)
ROOT
ATOM      1  C1  DEN d   1       0.263  -1.159   0.417  0.00  0.00     0.130 A 
ATOM      2  C2  DEN d   1       0.224   0.050  -0.402  0.00  0.00    -0.031 A 
ATOM      3  C3  DEN d   1      -0.289  -0.319  -1.737  0.00  0.00     0.027 A 
ATOM      4  C4  DEN d   1      -1.027  -2.632  -2.609  0.00  0.00     0.027 A 
ATOM      5  C5  DEN d   1      -1.163  -3.963  -2.283  0.00  0.00    -0.003 A 
ATOM      6  C6  DEN d   1      -0.804  -4.455  -1.056  0.00  0.00     0.001 A 
ATOM      7  C7  DEN d   1      -0.333  -3.602  -0.094  0.00  0.00     0.017 A 
ATOM      8  C8  DEN d   1      -0.186  -2.259  -0.417  0.00  0.00    -0.094 A 
ATOM      9  C9  DEN d   1      -0.567  -1.779  -1.659  0.00  0.00    -0.072 A 
ENDROOT
TORSDOF 0
ENDMDL
