MODEL 1
REMARK minimizedAffinity -2.8079617
REMARK minimizedRMSD -1
REMARK  0 active torsions:
REMARK  status: ('A' for Active; 'I' for Inactive)
ROOT
ATOM      1  C   UNL d   1      -1.207  -0.808  -0.678  0.00  0.00     0.077 C 
ATOM      2  C1  UNL d   1      -0.134   0.121  -0.194  0.00  0.00    -0.074 A 
ATOM      3  C2  UNL d   1      -0.304   1.508  -0.251  0.00  0.00    -0.005 A 
ATOM      4  C3  UNL d   1       0.700   2.360   0.212  0.00  0.00     0.006 A 
ATOM      5  C4  UNL d   1       1.881   1.834   0.736  0.00  0.00    -0.005 A 
ATOM      6  C5  UNL d   1       2.068   0.450   0.803  0.00  0.00    -0.074 A 
ATOM      7  C6  UNL d   1       3.327  -0.132   1.373  0.00  0.00     0.077 C 
ATOM      8  C7  UNL d   1       1.053  -0.399   0.342  0.00  0.00    -0.001 A 
ENDROOT
TORSDOF 0
ENDMDL
