MODEL 1
REMARK minimizedAffinity -3.67377973
REMARK minimizedRMSD -1
REMARK  0 active torsions:
REMARK  status: ('A' for Active; 'I' for Inactive)
ROOT
ATOM      1  C   UNL d   1       1.870   0.977  -0.026  0.00  0.00     0.077 C 
ATOM      2  C1  UNL d   1       0.465   0.602  -0.391  0.00  0.00    -0.074 A 
ATOM      3  C2  UNL d   1      -0.513   0.432   0.594  0.00  0.00    -0.005 A 
ATOM      4  C3  UNL d   1      -1.819   0.093   0.238  0.00  0.00     0.006 A 
ATOM      5  C4  UNL d   1      -2.159  -0.080  -1.104  0.00  0.00    -0.005 A 
ATOM      6  C5  UNL d   1      -1.194   0.087  -2.103  0.00  0.00    -0.074 A 
ATOM      7  C6  UNL d   1      -1.545  -0.086  -3.551  0.00  0.00     0.077 C 
ATOM      8  C7  UNL d   1       0.113   0.435  -1.738  0.00  0.00    -0.001 A 
ENDROOT
TORSDOF 0
ENDMDL
