MODEL 1
REMARK minimizedAffinity -5.40521574
REMARK minimizedRMSD -1
REMARK  0 active torsions:
REMARK  status: ('A' for Active; 'I' for Inactive)
ROOT
ATOM      1  C   UNL d   1       1.948  -1.860   3.000  0.00  0.00     0.077 C 
ATOM      2  C1  UNL d   1       1.527  -0.875   1.951  0.00  0.00    -0.074 A 
ATOM      3  C2  UNL d   1       2.400   0.127   1.514  0.00  0.00    -0.005 A 
ATOM      4  C3  UNL d   1       1.997   1.030   0.530  0.00  0.00     0.006 A 
ATOM      5  C4  UNL d   1       0.720   0.942  -0.025  0.00  0.00    -0.005 A 
ATOM      6  C5  UNL d   1      -0.166  -0.054   0.399  0.00  0.00    -0.074 A 
ATOM      7  C6  UNL d   1      -1.538  -0.169  -0.195  0.00  0.00     0.077 C 
ATOM      8  C7  UNL d   1       0.248  -0.962   1.382  0.00  0.00    -0.001 A 
ENDROOT
TORSDOF 0
ENDMDL
