MODEL 1
REMARK minimizedAffinity -4.49756622
REMARK minimizedRMSD -1
REMARK  0 active torsions:
REMARK  status: ('A' for Active; 'I' for Inactive)
ROOT
ATOM      1  C   UNL d   1       3.036   0.632   1.130  0.00  0.00     0.077 C 
ATOM      2  C1  UNL d   1       1.610   0.376   0.741  0.00  0.00    -0.074 A 
ATOM      3  C2  UNL d   1       0.909   1.285  -0.058  0.00  0.00    -0.005 A 
ATOM      4  C3  UNL d   1      -0.413   1.029  -0.420  0.00  0.00     0.006 A 
ATOM      5  C4  UNL d   1      -1.048  -0.136   0.015  0.00  0.00    -0.005 A 
ATOM      6  C5  UNL d   1      -0.363  -1.056   0.814  0.00  0.00    -0.074 A 
ATOM      7  C6  UNL d   1      -1.026  -2.317   1.281  0.00  0.00     0.077 C 
ATOM      8  C7  UNL d   1       0.969  -0.795   1.167  0.00  0.00    -0.001 A 
ENDROOT
TORSDOF 0
ENDMDL
