MODEL 1
REMARK minimizedAffinity -3.74401903
REMARK minimizedRMSD -1
REMARK  0 active torsions:
REMARK  status: ('A' for Active; 'I' for Inactive)
ROOT
ATOM      1  C   UNL d   1       1.489   2.316   0.045  0.00  0.00     0.077 C 
ATOM      2  C1  UNL d   1       0.454   1.231   0.012  0.00  0.00    -0.074 A 
ATOM      3  C2  UNL d   1       0.589   0.084   0.801  0.00  0.00    -0.005 A 
ATOM      4  C3  UNL d   1      -0.387  -0.912   0.767  0.00  0.00     0.006 A 
ATOM      5  C4  UNL d   1      -1.505  -0.772  -0.056  0.00  0.00    -0.005 A 
ATOM      6  C5  UNL d   1      -1.657   0.368  -0.852  0.00  0.00    -0.074 A 
ATOM      7  C6  UNL d   1      -2.858   0.538  -1.735  0.00  0.00     0.077 C 
ATOM      8  C7  UNL d   1      -0.676   1.368  -0.807  0.00  0.00    -0.001 A 
ENDROOT
TORSDOF 0
ENDMDL
