MODEL 1
REMARK minimizedAffinity -3.73210907
REMARK minimizedRMSD -1
REMARK  0 active torsions:
REMARK  status: ('A' for Active; 'I' for Inactive)
ROOT
ATOM      1  C   UNL d   1      -1.749   0.010  -0.391  0.00  0.00     0.077 C 
ATOM      2  C1  UNL d   1      -0.383   0.113   0.219  0.00  0.00    -0.074 A 
ATOM      3  C2  UNL d   1       0.350   1.302   0.144  0.00  0.00    -0.005 A 
ATOM      4  C3  UNL d   1       1.616   1.385   0.725  0.00  0.00     0.006 A 
ATOM      5  C4  UNL d   1       2.160   0.283   1.384  0.00  0.00    -0.005 A 
ATOM      6  C5  UNL d   1       1.442  -0.914   1.470  0.00  0.00    -0.074 A 
ATOM      7  C6  UNL d   1       2.008  -2.105   2.184  0.00  0.00     0.077 C 
ATOM      8  C7  UNL d   1       0.168  -0.988   0.890  0.00  0.00    -0.001 A 
ENDROOT
TORSDOF 0
ENDMDL
