MODEL 1
REMARK minimizedAffinity -3.73304009
REMARK minimizedRMSD -1
REMARK  0 active torsions:
REMARK  status: ('A' for Active; 'I' for Inactive)
ROOT
ATOM      1  C1  BNZ d   1      -0.560  -2.338   1.620  0.00  0.00     0.000 A 
ATOM      2  C2  BNZ d   1      -1.518  -3.316   1.641  0.00  0.00     0.000 A 
ATOM      3  C3  BNZ d   1      -2.615  -3.238   0.829  0.00  0.00     0.000 A 
ATOM      4  C4  BNZ d   1      -2.772  -2.165   0.028  0.00  0.00     0.000 A 
ATOM      5  C5  BNZ d   1      -1.818  -1.166   0.002  0.00  0.00     0.000 A 
ATOM      6  C6  BNZ d   1      -0.696  -1.267   0.792  0.00  0.00     0.000 A 
ENDROOT
TORSDOF 0
ENDMDL
