MODEL 1
REMARK minimizedAffinity -5.22786665
REMARK minimizedRMSD -1
REMARK  0 active torsions:
REMARK  status: ('A' for Active; 'I' for Inactive)
ROOT
ATOM      1  C1  BNZ d   1      -0.820  -1.487   0.968  0.00  0.00     0.000 A 
ATOM      2  C2  BNZ d   1      -0.525  -0.733  -0.137  0.00  0.00     0.000 A 
ATOM      3  C3  BNZ d   1      -1.494  -0.417  -1.048  0.00  0.00     0.000 A 
ATOM      4  C4  BNZ d   1      -2.746  -0.887  -0.874  0.00  0.00     0.000 A 
ATOM      5  C5  BNZ d   1      -3.057  -1.656   0.229  0.00  0.00     0.000 A 
ATOM      6  C6  BNZ d   1      -2.088  -1.940   1.164  0.00  0.00     0.000 A 
ENDROOT
TORSDOF 0
ENDMDL
