MODEL 1
REMARK minimizedAffinity -4.00201559
REMARK minimizedRMSD -1
REMARK  0 active torsions:
REMARK  status: ('A' for Active; 'I' for Inactive)
ROOT
ATOM      1  C1  BNZ d   1      -1.119  -1.470   1.498  0.00  0.00     0.000 A 
ATOM      2  C2  BNZ d   1      -0.624  -0.481   0.690  0.00  0.00     0.000 A 
ATOM      3  C3  BNZ d   1      -1.275  -0.122  -0.457  0.00  0.00     0.000 A 
ATOM      4  C4  BNZ d   1      -2.397  -0.779  -0.815  0.00  0.00     0.000 A 
ATOM      5  C5  BNZ d   1      -2.904  -1.784  -0.016  0.00  0.00     0.000 A 
ATOM      6  C6  BNZ d   1      -2.267  -2.116   1.158  0.00  0.00     0.000 A 
ENDROOT
TORSDOF 0
ENDMDL
