MODEL 1
REMARK minimizedAffinity -4.91349888
REMARK minimizedRMSD -1
REMARK  0 active torsions:
REMARK  status: ('A' for Active; 'I' for Inactive)
ROOT
ATOM      1  C1  BNZ d   1      -2.385  -2.782   1.138  0.00  0.00     0.000 A 
ATOM      2  C2  BNZ d   1      -3.242  -2.294   0.188  0.00  0.00     0.000 A 
ATOM      3  C3  BNZ d   1      -2.998  -1.097  -0.427  0.00  0.00     0.000 A 
ATOM      4  C4  BNZ d   1      -1.921  -0.373  -0.062  0.00  0.00     0.000 A 
ATOM      5  C5  BNZ d   1      -1.053  -0.847   0.901  0.00  0.00     0.000 A 
ATOM      6  C6  BNZ d   1      -1.280  -2.069   1.489  0.00  0.00     0.000 A 
ENDROOT
TORSDOF 0
ENDMDL
