MODEL 1
REMARK minimizedAffinity -3.88642335
REMARK minimizedRMSD -1
REMARK  0 active torsions:
REMARK  status: ('A' for Active; 'I' for Inactive)
ROOT
ATOM      1  C1  BNZ d   1       0.033  -0.106   0.224  0.00  0.00     0.000 A 
ATOM      2  C2  BNZ d   1      -1.221  -0.585   0.495  0.00  0.00     0.000 A 
ATOM      3  C3  BNZ d   1      -2.218  -0.502  -0.436  0.00  0.00     0.000 A 
ATOM      4  C4  BNZ d   1      -1.972   0.094  -1.620  0.00  0.00     0.000 A 
ATOM      5  C5  BNZ d   1      -0.716   0.590  -1.905  0.00  0.00     0.000 A 
ATOM      6  C6  BNZ d   1       0.296   0.470  -0.981  0.00  0.00     0.000 A 
ENDROOT
TORSDOF 0
ENDMDL
