MODEL 1
REMARK minimizedAffinity -5.18348503
REMARK minimizedRMSD -1
REMARK  0 active torsions:
REMARK  status: ('A' for Active; 'I' for Inactive)
ROOT
ATOM      1  C1  BNZ d   1      -2.292  -2.178   1.111  0.00  0.00     0.000 A 
ATOM      2  C2  BNZ d   1      -3.168  -1.334   0.482  0.00  0.00     0.000 A 
ATOM      3  C3  BNZ d   1      -2.724  -0.198  -0.136  0.00  0.00     0.000 A 
ATOM      4  C4  BNZ d   1      -1.413   0.112  -0.090  0.00  0.00     0.000 A 
ATOM      5  C5  BNZ d   1      -0.518  -0.724   0.548  0.00  0.00     0.000 A 
ATOM      6  C6  BNZ d   1      -0.963  -1.886   1.135  0.00  0.00     0.000 A 
ENDROOT
TORSDOF 0
ENDMDL
