MODEL 1
REMARK minimizedAffinity -4.58206892
REMARK minimizedRMSD -1
REMARK  0 active torsions:
REMARK  status: ('A' for Active; 'I' for Inactive)
ROOT
ATOM      1  C1  BNZ d   1      -0.260  -0.161  -0.816  0.00  0.00     0.000 A 
ATOM      2  C2  BNZ d   1      -1.605  -0.417  -0.788  0.00  0.00     0.000 A 
ATOM      3  C3  BNZ d   1      -2.155  -1.162   0.218  0.00  0.00     0.000 A 
ATOM      4  C4  BNZ d   1      -1.356  -1.682   1.171  0.00  0.00     0.000 A 
ATOM      5  C5  BNZ d   1       0.004  -1.441   1.152  0.00  0.00     0.000 A 
ATOM      6  C6  BNZ d   1       0.549  -0.659   0.159  0.00  0.00     0.000 A 
ENDROOT
TORSDOF 0
ENDMDL
