MODEL 1
REMARK minimizedAffinity -3.27937078
REMARK minimizedRMSD -1
REMARK  0 active torsions:
REMARK  status: ('A' for Active; 'I' for Inactive)
ROOT
ATOM      1  C1  BNZ d   1      -0.955   0.350  -1.543  0.00  0.00     0.000 A 
ATOM      2  C2  BNZ d   1      -2.175  -0.273  -1.557  0.00  0.00     0.000 A 
ATOM      3  C3  BNZ d   1      -2.603  -0.996  -0.479  0.00  0.00     0.000 A 
ATOM      4  C4  BNZ d   1      -1.797  -1.130   0.593  0.00  0.00     0.000 A 
ATOM      5  C5  BNZ d   1      -0.560  -0.516   0.619  0.00  0.00     0.000 A 
ATOM      6  C6  BNZ d   1      -0.148   0.244  -0.452  0.00  0.00     0.000 A 
ENDROOT
TORSDOF 0
ENDMDL
