MODEL 1
REMARK minimizedAffinity -5.26300383
REMARK minimizedRMSD -1
REMARK  0 active torsions:
REMARK  status: ('A' for Active; 'I' for Inactive)
ROOT
ATOM      1  C1  BNZ d   1      -3.346  -1.521   0.401  0.00  0.00     0.000 A 
ATOM      2  C2  BNZ d   1      -2.860  -0.421  -0.253  0.00  0.00     0.000 A 
ATOM      3  C3  BNZ d   1      -1.582   0.014  -0.039  0.00  0.00     0.000 A 
ATOM      4  C4  BNZ d   1      -0.806  -0.627   0.859  0.00  0.00     0.000 A 
ATOM      5  C5  BNZ d   1      -1.284  -1.732   1.534  0.00  0.00     0.000 A 
ATOM      6  C6  BNZ d   1      -2.558  -2.190   1.286  0.00  0.00     0.000 A 
ENDROOT
TORSDOF 0
ENDMDL
