MODEL 1
REMARK minimizedAffinity -5.42971468
REMARK minimizedRMSD -1
REMARK  0 active torsions:
REMARK  status: ('A' for Active; 'I' for Inactive)
ROOT
ATOM      1  C1  BNZ d   1      -0.695  -0.331   0.339  0.00  0.00     0.000 A 
ATOM      2  C2  BNZ d   1      -0.828  -1.519   1.006  0.00  0.00     0.000 A 
ATOM      3  C3  BNZ d   1      -1.990  -2.236   0.933  0.00  0.00     0.000 A 
ATOM      4  C4  BNZ d   1      -3.029  -1.745   0.227  0.00  0.00     0.000 A 
ATOM      5  C5  BNZ d   1      -2.913  -0.544  -0.443  0.00  0.00     0.000 A 
ATOM      6  C6  BNZ d   1      -1.729   0.156  -0.400  0.00  0.00     0.000 A 
ENDROOT
TORSDOF 0
ENDMDL
