MODEL 1
REMARK minimizedAffinity -4.27827168
REMARK minimizedRMSD -1
REMARK  0 active torsions:
REMARK  status: ('A' for Active; 'I' for Inactive)
ROOT
ATOM      1  C1  BNZ d   1      -2.266  -2.368   0.950  0.00  0.00     0.000 A 
ATOM      2  C2  BNZ d   1      -3.055  -1.813  -0.021  0.00  0.00     0.000 A 
ATOM      3  C3  BNZ d   1      -2.639  -0.713  -0.718  0.00  0.00     0.000 A 
ATOM      4  C4  BNZ d   1      -1.453  -0.146  -0.415  0.00  0.00     0.000 A 
ATOM      5  C5  BNZ d   1      -0.650  -0.689   0.568  0.00  0.00     0.000 A 
ATOM      6  C6  BNZ d   1      -1.055  -1.819   1.240  0.00  0.00     0.000 A 
ENDROOT
TORSDOF 0
ENDMDL
