MODEL 1
REMARK minimizedAffinity -3.16739607
REMARK minimizedRMSD -1
REMARK  0 active torsions:
REMARK  status: ('A' for Active; 'I' for Inactive)
ROOT
ATOM      1  C1  BNZ d   1      -2.462   0.050  -0.861  0.00  0.00     0.000 A 
ATOM      2  C2  BNZ d   1      -1.430   0.734  -1.446  0.00  0.00     0.000 A 
ATOM      3  C3  BNZ d   1      -0.143   0.559  -1.020  0.00  0.00     0.000 A 
ATOM      4  C4  BNZ d   1       0.105  -0.268   0.016  0.00  0.00     0.000 A 
ATOM      5  C5  BNZ d   1      -0.925  -0.958   0.623  0.00  0.00     0.000 A 
ATOM      6  C6  BNZ d   1      -2.215  -0.809   0.166  0.00  0.00     0.000 A 
ENDROOT
TORSDOF 0
ENDMDL
