MODEL 1
REMARK minimizedAffinity -5.14310169
REMARK minimizedRMSD -1
REMARK  0 active torsions:
REMARK  status: ('A' for Active; 'I' for Inactive)
ROOT
ATOM      1  C1  BNZ d   1      -2.376  -2.031   0.913  0.00  0.00     0.000 A 
ATOM      2  C2  BNZ d   1      -3.205  -1.421   0.011  0.00  0.00     0.000 A 
ATOM      3  C3  BNZ d   1      -2.753  -0.395  -0.772  0.00  0.00     0.000 A 
ATOM      4  C4  BNZ d   1      -1.487   0.045  -0.623  0.00  0.00     0.000 A 
ATOM      5  C5  BNZ d   1      -0.641  -0.555   0.289  0.00  0.00     0.000 A 
ATOM      6  C6  BNZ d   1      -1.088  -1.612   1.048  0.00  0.00     0.000 A 
ENDROOT
TORSDOF 0
ENDMDL
