MODEL 1
REMARK minimizedAffinity -5.40148211
REMARK minimizedRMSD -1
REMARK  0 active torsions:
REMARK  status: ('A' for Active; 'I' for Inactive)
ROOT
ATOM      1  C1  BNZ d   1      -1.524  -0.165  -0.612  0.00  0.00     0.000 A 
ATOM      2  C2  BNZ d   1      -0.851  -0.668   0.470  0.00  0.00     0.000 A 
ATOM      3  C3  BNZ d   1      -1.322  -1.761   1.141  0.00  0.00     0.000 A 
ATOM      4  C4  BNZ d   1      -2.485  -2.326   0.755  0.00  0.00     0.000 A 
ATOM      5  C5  BNZ d   1      -3.180  -1.825  -0.327  0.00  0.00     0.000 A 
ATOM      6  C6  BNZ d   1      -2.682  -0.748  -1.025  0.00  0.00     0.000 A 
ENDROOT
TORSDOF 0
ENDMDL
