MODEL 1
REMARK minimizedAffinity 5.53076124
REMARK minimizedRMSD -1
REMARK  3 active torsions:
REMARK  status: ('A' for Active; 'I' for Inactive)
REMARK    1  A    between atoms: C3'_2  and  C2'_3 
REMARK    2  A    between atoms: C2'_3  and  C1'_4 
REMARK    3  A    between atoms: C1'_4  and  C1_5 
ROOT
ATOM      1  C1  N4B d   1      -0.144  -0.724   0.435  0.00  0.00    -0.075 A 
ATOM      2  C2  N4B d   1      -0.613  -2.007   0.792  0.00  0.00     0.002 A 
ATOM      3  C3  N4B d   1      -1.948  -2.308   0.672  0.00  0.00     0.002 A 
ATOM      4  C4  N4B d   1      -2.831  -1.339   0.218  0.00  0.00    -0.004 A 
ATOM      5  C5  N4B d   1      -2.366  -0.110  -0.148  0.00  0.00     0.002 A 
ATOM      6  C6  N4B d   1      -1.026   0.204  -0.037  0.00  0.00     0.002 A 
ENDROOT
BRANCH   1   7
ATOM      7  C1' N4B d   1       1.293  -0.321   0.630  0.00  0.00     0.057 C 
BRANCH   7   8
ATOM      8  C2' N4B d   1       1.991  -1.362   1.500  0.00  0.00     0.009 C 
BRANCH   8   9
ATOM      9  C3' N4B d   1       2.504  -0.764   2.799  0.00  0.00     0.004 C 
ATOM     10  C4' N4B d   1       3.011  -1.801   3.756  0.00  0.00     0.003 C 
ENDBRANCH   8   9
ENDBRANCH   7   8
ENDBRANCH   1   7
TORSDOF 3
ENDMDL
