MODEL 1
REMARK minimizedAffinity 1.22213566
REMARK minimizedRMSD -1
REMARK  3 active torsions:
REMARK  status: ('A' for Active; 'I' for Inactive)
REMARK    1  A    between atoms: C3'_2  and  C2'_3 
REMARK    2  A    between atoms: C2'_3  and  C1'_4 
REMARK    3  A    between atoms: C1'_4  and  C1_5 
ROOT
ATOM      1  C1  N4B d   1       2.708  -5.270  -0.317  0.00  0.00    -0.075 A 
ATOM      2  C2  N4B d   1       3.196  -5.298  -1.642  0.00  0.00     0.002 A 
ATOM      3  C3  N4B d   1       4.495  -5.670  -1.888  0.00  0.00     0.002 A 
ATOM      4  C4  N4B d   1       5.326  -5.999  -0.828  0.00  0.00    -0.004 A 
ATOM      5  C5  N4B d   1       4.841  -5.994   0.446  0.00  0.00     0.002 A 
ATOM      6  C6  N4B d   1       3.536  -5.626   0.708  0.00  0.00     0.002 A 
ENDROOT
BRANCH   1   7
ATOM      7  C1' N4B d   1       1.321  -4.788   0.009  0.00  0.00     0.057 C 
BRANCH   7   8
ATOM      8  C2' N4B d   1       0.383  -5.148  -1.139  0.00  0.00     0.009 C 
BRANCH   8   9
ATOM      9  C3' N4B d   1      -0.920  -4.370  -1.073  0.00  0.00     0.004 C 
ATOM     10  C4' N4B d   1      -0.939  -3.362   0.037  0.00  0.00     0.003 C 
ENDBRANCH   8   9
ENDBRANCH   7   8
ENDBRANCH   1   7
TORSDOF 3
ENDMDL
