MODEL 1
REMARK minimizedAffinity 8.26871586
REMARK minimizedRMSD -1
REMARK  3 active torsions:
REMARK  status: ('A' for Active; 'I' for Inactive)
REMARK    1  A    between atoms: C3'_2  and  C2'_3 
REMARK    2  A    between atoms: C2'_3  and  C1'_4 
REMARK    3  A    between atoms: C1'_4  and  C1_5 
ROOT
ATOM      1  C1  N4B d   1       0.737   0.636   2.404  0.00  0.00    -0.075 A 
ATOM      2  C2  N4B d   1       0.044   1.183   1.302  0.00  0.00     0.002 A 
ATOM      3  C3  N4B d   1       0.020   0.512   0.104  0.00  0.00     0.002 A 
ATOM      4  C4  N4B d   1       0.695  -0.693  -0.020  0.00  0.00    -0.004 A 
ATOM      5  C5  N4B d   1       1.341  -1.227   1.057  0.00  0.00     0.002 A 
ATOM      6  C6  N4B d   1       1.369  -0.565   2.268  0.00  0.00     0.002 A 
ENDROOT
BRANCH   1   7
ATOM      7  C1' N4B d   1       0.862   1.375   3.709  0.00  0.00     0.057 C 
BRANCH   7   8
ATOM      8  C2' N4B d   1       0.653   2.866   3.463  0.00  0.00     0.009 C 
BRANCH   8   9
ATOM      9  C3' N4B d   1       1.969   3.602   3.281  0.00  0.00     0.004 C 
ATOM     10  C4' N4B d   1       1.944   4.561   2.128  0.00  0.00     0.003 C 
ENDBRANCH   8   9
ENDBRANCH   7   8
ENDBRANCH   1   7
TORSDOF 3
ENDMDL
