MODEL 1
REMARK minimizedAffinity 5.25580549
REMARK minimizedRMSD -1
REMARK  3 active torsions:
REMARK  status: ('A' for Active; 'I' for Inactive)
REMARK    1  A    between atoms: C3'_2  and  C2'_3 
REMARK    2  A    between atoms: C2'_3  and  C1'_4 
REMARK    3  A    between atoms: C1'_4  and  C1_5 
ROOT
ATOM      1  C1  N4B d   1      -1.087  -1.102   0.241  0.00  0.00    -0.075 A 
ATOM      2  C2  N4B d   1      -1.829  -0.049  -0.339  0.00  0.00     0.002 A 
ATOM      3  C3  N4B d   1      -1.200   1.120  -0.691  0.00  0.00     0.002 A 
ATOM      4  C4  N4B d   1       0.159   1.266  -0.455  0.00  0.00    -0.004 A 
ATOM      5  C5  N4B d   1       0.872   0.235   0.082  0.00  0.00     0.002 A 
ATOM      6  C6  N4B d   1       0.254  -0.947   0.437  0.00  0.00     0.002 A 
ENDROOT
BRANCH   1   7
ATOM      7  C1' N4B d   1      -1.746  -2.367   0.721  0.00  0.00     0.057 C 
BRANCH   7   8
ATOM      8  C2' N4B d   1      -0.732  -3.506   0.679  0.00  0.00     0.009 C 
BRANCH   8   9
ATOM      9  C3' N4B d   1      -0.653  -4.146  -0.696  0.00  0.00     0.004 C 
ATOM     10  C4' N4B d   1       0.613  -4.923  -0.903  0.00  0.00     0.003 C 
ENDBRANCH   8   9
ENDBRANCH   7   8
ENDBRANCH   1   7
TORSDOF 3
ENDMDL
