MODEL 1
REMARK minimizedAffinity 6.28378057
REMARK minimizedRMSD -1
REMARK  3 active torsions:
REMARK  status: ('A' for Active; 'I' for Inactive)
REMARK    1  A    between atoms: C3'_2  and  C2'_3 
REMARK    2  A    between atoms: C2'_3  and  C1'_4 
REMARK    3  A    between atoms: C1'_4  and  C1_5 
ROOT
ATOM      1  C1  N4B d   1      -4.560   5.652  -4.190  0.00  0.00    -0.075 A 
ATOM      2  C2  N4B d   1      -5.545   5.314  -3.235  0.00  0.00     0.002 A 
ATOM      3  C3  N4B d   1      -5.225   5.287  -1.900  0.00  0.00     0.002 A 
ATOM      4  C4  N4B d   1      -3.929   5.574  -1.499  0.00  0.00    -0.004 A 
ATOM      5  C5  N4B d   1      -2.991   5.925  -2.425  0.00  0.00     0.002 A 
ATOM      6  C6  N4B d   1      -3.299   5.960  -3.770  0.00  0.00     0.002 A 
ENDROOT
BRANCH   1   7
ATOM      7  C1' N4B d   1      -4.840   5.611  -5.667  0.00  0.00     0.057 C 
BRANCH   7   8
ATOM      8  C2' N4B d   1      -5.599   4.329  -5.998  0.00  0.00     0.009 C 
BRANCH   8   9
ATOM      9  C3' N4B d   1      -4.689   3.114  -6.000  0.00  0.00     0.004 C 
ATOM     10  C4' N4B d   1      -5.423   1.837  -5.715  0.00  0.00     0.003 C 
ENDBRANCH   8   9
ENDBRANCH   7   8
ENDBRANCH   1   7
TORSDOF 3
ENDMDL
