MODEL 1
REMARK minimizedAffinity 15.1832113
REMARK minimizedRMSD -1
REMARK  0 active torsions:
REMARK  status: ('A' for Active; 'I' for Inactive)
ROOT
ATOM      1  C   UNL d   1      -5.470   5.302   1.025  0.00  0.00     0.077 C 
ATOM      2  C1  UNL d   1      -5.655   4.734   2.401  0.00  0.00    -0.074 A 
ATOM      3  C2  UNL d   1      -5.836   3.360   2.592  0.00  0.00    -0.005 A 
ATOM      4  C3  UNL d   1      -5.997   2.845   3.878  0.00  0.00     0.006 A 
ATOM      5  C4  UNL d   1      -5.980   3.696   4.984  0.00  0.00    -0.005 A 
ATOM      6  C5  UNL d   1      -5.799   5.072   4.812  0.00  0.00    -0.074 A 
ATOM      7  C6  UNL d   1      -5.768   6.000   5.990  0.00  0.00     0.077 C 
ATOM      8  C7  UNL d   1      -5.631   5.582   3.517  0.00  0.00    -0.001 A 
ENDROOT
TORSDOF 0
ENDMDL
