MODEL 1
REMARK minimizedAffinity 9.99750805
REMARK minimizedRMSD -1
REMARK  0 active torsions:
REMARK  status: ('A' for Active; 'I' for Inactive)
ROOT
ATOM      1  C   UNL d   1      -5.473   0.756   0.490  0.00  0.00     0.077 C 
ATOM      2  C1  UNL d   1      -4.862   0.544  -0.863  0.00  0.00    -0.074 A 
ATOM      3  C2  UNL d   1      -3.499   0.266  -1.001  0.00  0.00    -0.005 A 
ATOM      4  C3  UNL d   1      -2.947   0.062  -2.266  0.00  0.00     0.006 A 
ATOM      5  C4  UNL d   1      -3.752   0.134  -3.404  0.00  0.00    -0.005 A 
ATOM      6  C5  UNL d   1      -5.118   0.410  -3.285  0.00  0.00    -0.074 A 
ATOM      7  C6  UNL d   1      -5.999   0.481  -4.497  0.00  0.00     0.077 C 
ATOM      8  C7  UNL d   1      -5.666   0.607  -2.010  0.00  0.00    -0.001 A 
ENDROOT
TORSDOF 0
ENDMDL
