MODEL 1
REMARK minimizedAffinity 6.71063757
REMARK minimizedRMSD -1
REMARK  0 active torsions:
REMARK  status: ('A' for Active; 'I' for Inactive)
ROOT
ATOM      1  C   UNL d   1       3.354   0.582   0.696  0.00  0.00     0.077 C 
ATOM      2  C1  UNL d   1       3.766   1.814  -0.055  0.00  0.00    -0.074 A 
ATOM      3  C2  UNL d   1       3.555   1.920  -1.433  0.00  0.00    -0.005 A 
ATOM      4  C3  UNL d   1       3.935   3.075  -2.116  0.00  0.00     0.006 A 
ATOM      5  C4  UNL d   1       4.528   4.135  -1.429  0.00  0.00    -0.005 A 
ATOM      6  C5  UNL d   1       4.745   4.047  -0.050  0.00  0.00    -0.074 A 
ATOM      7  C6  UNL d   1       5.373   5.181   0.706  0.00  0.00     0.077 C 
ATOM      8  C7  UNL d   1       4.355   2.886   0.630  0.00  0.00    -0.001 A 
ENDROOT
TORSDOF 0
ENDMDL
