MODEL 1
REMARK minimizedAffinity 3.69971991
REMARK minimizedRMSD -1
REMARK  0 active torsions:
REMARK  status: ('A' for Active; 'I' for Inactive)
ROOT
ATOM      1  C   UNL d   1       5.998  -0.763   2.025  0.00  0.00     0.077 C 
ATOM      2  C1  UNL d   1       4.683  -0.467   1.367  0.00  0.00    -0.074 A 
ATOM      3  C2  UNL d   1       3.575  -1.296   1.572  0.00  0.00    -0.005 A 
ATOM      4  C3  UNL d   1       2.355  -1.002   0.962  0.00  0.00     0.006 A 
ATOM      5  C4  UNL d   1       2.232   0.120   0.142  0.00  0.00    -0.005 A 
ATOM      6  C5  UNL d   1       3.329   0.960  -0.074  0.00  0.00    -0.074 A 
ATOM      7  C6  UNL d   1       3.211   2.176  -0.944  0.00  0.00     0.077 C 
ATOM      8  C7  UNL d   1       4.549   0.663   0.549  0.00  0.00    -0.001 A 
ENDROOT
TORSDOF 0
ENDMDL
