MODEL 1
REMARK minimizedAffinity 14.0271378
REMARK minimizedRMSD -1
REMARK  0 active torsions:
REMARK  status: ('A' for Active; 'I' for Inactive)
ROOT
ATOM      1  C   UNL d   1      -1.816  -6.000   2.667  0.00  0.00     0.077 C 
ATOM      2  C1  UNL d   1      -1.491  -5.583   1.264  0.00  0.00    -0.074 A 
ATOM      3  C2  UNL d   1      -0.343  -4.835   0.984  0.00  0.00    -0.005 A 
ATOM      4  C3  UNL d   1      -0.049  -4.463  -0.328  0.00  0.00     0.006 A 
ATOM      5  C4  UNL d   1      -0.898  -4.834  -1.371  0.00  0.00    -0.005 A 
ATOM      6  C5  UNL d   1      -2.050  -5.583  -1.110  0.00  0.00    -0.074 A 
ATOM      7  C6  UNL d   1      -2.968  -5.999  -2.221  0.00  0.00     0.077 C 
ATOM      8  C7  UNL d   1      -2.335  -5.959   0.210  0.00  0.00    -0.001 A 
ENDROOT
TORSDOF 0
ENDMDL
