MODEL 1
REMARK minimizedAffinity 3.10076952
REMARK minimizedRMSD -1
REMARK  0 active torsions:
REMARK  status: ('A' for Active; 'I' for Inactive)
ROOT
ATOM      1  C   UNL d   1       1.253  -2.448  -1.808  0.00  0.00     0.077 C 
ATOM      2  C1  UNL d   1       2.047  -1.500  -0.959  0.00  0.00    -0.074 A 
ATOM      3  C2  UNL d   1       2.403  -1.834   0.352  0.00  0.00    -0.005 A 
ATOM      4  C3  UNL d   1       3.150  -0.946   1.126  0.00  0.00     0.006 A 
ATOM      5  C4  UNL d   1       3.547   0.284   0.598  0.00  0.00    -0.005 A 
ATOM      6  C5  UNL d   1       3.201   0.635  -0.711  0.00  0.00    -0.074 A 
ATOM      7  C6  UNL d   1       3.629   1.947  -1.297  0.00  0.00     0.077 C 
ATOM      8  C7  UNL d   1       2.457  -0.266  -1.485  0.00  0.00    -0.001 A 
ENDROOT
TORSDOF 0
ENDMDL
