MODEL 1
REMARK minimizedAffinity 15.1955357
REMARK minimizedRMSD -1
REMARK  0 active torsions:
REMARK  status: ('A' for Active; 'I' for Inactive)
ROOT
ATOM      1  C   UNL d   1       1.961  -2.216  -3.246  0.00  0.00     0.077 C 
ATOM      2  C1  UNL d   1       2.372  -1.229  -2.194  0.00  0.00    -0.074 A 
ATOM      3  C2  UNL d   1       2.348  -1.573  -0.839  0.00  0.00    -0.005 A 
ATOM      4  C3  UNL d   1       2.742  -0.648   0.128  0.00  0.00     0.006 A 
ATOM      5  C4  UNL d   1       3.163   0.628  -0.250  0.00  0.00    -0.005 A 
ATOM      6  C5  UNL d   1       3.194   0.989  -1.601  0.00  0.00    -0.074 A 
ATOM      7  C6  UNL d   1       3.653   2.352  -2.025  0.00  0.00     0.077 C 
ATOM      8  C7  UNL d   1       2.803   0.051  -2.567  0.00  0.00    -0.001 A 
ENDROOT
TORSDOF 0
ENDMDL
