MODEL 1
REMARK minimizedAffinity 13.0909882
REMARK minimizedRMSD -1
REMARK  0 active torsions:
REMARK  status: ('A' for Active; 'I' for Inactive)
ROOT
ATOM      1  C   UNL d   1       3.013   2.297  -1.299  0.00  0.00     0.077 C 
ATOM      2  C1  UNL d   1       4.059   2.788  -2.255  0.00  0.00    -0.074 A 
ATOM      3  C2  UNL d   1       4.562   1.957  -3.261  0.00  0.00    -0.005 A 
ATOM      4  C3  UNL d   1       5.528   2.431  -4.148  0.00  0.00     0.006 A 
ATOM      5  C4  UNL d   1       6.000   3.740  -4.039  0.00  0.00    -0.005 A 
ATOM      6  C5  UNL d   1       5.508   4.586  -3.041  0.00  0.00    -0.074 A 
ATOM      7  C6  UNL d   1       5.997   5.999  -2.916  0.00  0.00     0.077 C 
ATOM      8  C7  UNL d   1       4.533   4.104  -2.157  0.00  0.00    -0.001 A 
ENDROOT
TORSDOF 0
ENDMDL
