MODEL 1
REMARK minimizedAffinity 9.90948486
REMARK minimizedRMSD -1
REMARK  0 active torsions:
REMARK  status: ('A' for Active; 'I' for Inactive)
ROOT
ATOM      1  C   UNL d   1       2.257   0.389  -0.010  0.00  0.00     0.077 C 
ATOM      2  C1  UNL d   1       2.904   1.347  -0.965  0.00  0.00    -0.074 A 
ATOM      3  C2  UNL d   1       2.771   2.729  -0.798  0.00  0.00    -0.005 A 
ATOM      4  C3  UNL d   1       3.387   3.608  -1.689  0.00  0.00     0.006 A 
ATOM      5  C4  UNL d   1       4.139   3.115  -2.755  0.00  0.00    -0.005 A 
ATOM      6  C5  UNL d   1       4.284   1.736  -2.939  0.00  0.00    -0.074 A 
ATOM      7  C6  UNL d   1       5.098   1.189  -4.074  0.00  0.00     0.077 C 
ATOM      8  C7  UNL d   1       3.668   0.859  -2.035  0.00  0.00    -0.001 A 
ENDROOT
TORSDOF 0
ENDMDL
