MODEL 1
REMARK minimizedAffinity 5.96879387
REMARK minimizedRMSD -1
REMARK  0 active torsions:
REMARK  status: ('A' for Active; 'I' for Inactive)
ROOT
ATOM      1  C   UNL d   1      -5.966   4.181   2.292  0.00  0.00     0.077 C 
ATOM      2  C1  UNL d   1      -5.299   4.557   3.581  0.00  0.00    -0.074 A 
ATOM      3  C2  UNL d   1      -5.999   4.517   4.791  0.00  0.00    -0.005 A 
ATOM      4  C3  UNL d   1      -5.362   4.861   5.984  0.00  0.00     0.006 A 
ATOM      5  C4  UNL d   1      -4.021   5.248   5.978  0.00  0.00    -0.005 A 
ATOM      6  C5  UNL d   1      -3.305   5.293   4.777  0.00  0.00    -0.074 A 
ATOM      7  C6  UNL d   1      -1.861   5.697   4.755  0.00  0.00     0.077 C 
ATOM      8  C7  UNL d   1      -3.950   4.939   3.584  0.00  0.00    -0.001 A 
ENDROOT
TORSDOF 0
ENDMDL
