MODEL 1
REMARK minimizedAffinity -1.15496039
REMARK minimizedRMSD -1
REMARK  1 active torsions:
REMARK  status: ('A' for Active; 'I' for Inactive)
REMARK    1  A    between atoms: C1_2  and  C2_3 
ROOT
ATOM      1  C2  UNL d   1       0.329  -0.559  -0.228  0.00  0.00    -0.073 A 
ATOM      2  C3  UNL d   1      -0.388  -0.951   0.909  0.00  0.00    -0.002 A 
ATOM      3  C4  UNL d   1      -0.961   0.006   1.746  0.00  0.00     0.004 A 
ATOM      4  C5  UNL d   1      -0.829   1.364   1.454  0.00  0.00    -0.004 A 
ATOM      5  C6  UNL d   1      -0.127   1.775   0.316  0.00  0.00    -0.075 A 
ATOM      6  C7  UNL d   1       0.026   3.232  -0.011  0.00  0.00     0.076 C 
ATOM      7  C8  UNL d   1       0.448   0.808  -0.518  0.00  0.00     0.001 A 
ENDROOT
BRANCH   1   8
ATOM      8  C1  UNL d   1       0.944  -1.590  -1.139  0.00  0.00     0.053 C 
ATOM      9  C   UNL d   1       0.297  -1.593  -2.515  0.00  0.00     0.018 C 
ENDBRANCH   1   8
TORSDOF 1
ENDMDL
