MODEL 1
REMARK minimizedAffinity -6.36534882
REMARK minimizedRMSD -1
REMARK  1 active torsions:
REMARK  status: ('A' for Active; 'I' for Inactive)
REMARK    1  A    between atoms: C1_2  and  C2_3 
ROOT
ATOM      1  C2  UNL d   1      -0.052   0.755  -1.432  0.00  0.00    -0.073 A 
ATOM      2  C3  UNL d   1       1.249   0.567  -1.914  0.00  0.00    -0.002 A 
ATOM      3  C4  UNL d   1       1.605  -0.633  -2.531  0.00  0.00     0.004 A 
ATOM      4  C5  UNL d   1       0.665  -1.653  -2.678  0.00  0.00    -0.004 A 
ATOM      5  C6  UNL d   1      -0.642  -1.480  -2.213  0.00  0.00    -0.075 A 
ATOM      6  C7  UNL d   1      -1.665  -2.568  -2.361  0.00  0.00     0.076 C 
ATOM      7  C8  UNL d   1      -0.992  -0.273  -1.592  0.00  0.00     0.001 A 
ENDROOT
BRANCH   1   8
ATOM      8  C1  UNL d   1      -0.443   2.052  -0.771  0.00  0.00     0.053 C 
ATOM      9  C   UNL d   1      -1.150   1.824   0.555  0.00  0.00     0.018 C 
ENDBRANCH   1   8
TORSDOF 1
ENDMDL
