MODEL 1
REMARK minimizedAffinity -5.44739771
REMARK minimizedRMSD -1
REMARK  1 active torsions:
REMARK  status: ('A' for Active; 'I' for Inactive)
REMARK    1  A    between atoms: C1_2  and  C2_3 
ROOT
ATOM      1  C2  UNL d   1      -1.937   2.342   1.345  0.00  0.00    -0.073 A 
ATOM      2  C3  UNL d   1      -1.981   0.945   1.271  0.00  0.00    -0.002 A 
ATOM      3  C4  UNL d   1      -1.323   0.273   0.241  0.00  0.00     0.004 A 
ATOM      4  C5  UNL d   1      -0.609   0.988  -0.721  0.00  0.00    -0.004 A 
ATOM      5  C6  UNL d   1      -0.543   2.383  -0.657  0.00  0.00    -0.075 A 
ATOM      6  C7  UNL d   1       0.218   3.167  -1.685  0.00  0.00     0.076 C 
ATOM      7  C8  UNL d   1      -1.209   3.052   0.379  0.00  0.00     0.001 A 
ENDROOT
BRANCH   1   8
ATOM      8  C1  UNL d   1      -2.641   3.072   2.460  0.00  0.00     0.053 C 
ATOM      9  C   UNL d   1      -1.673   3.873   3.317  0.00  0.00     0.018 C 
ENDBRANCH   1   8
TORSDOF 1
ENDMDL
