MODEL 1
REMARK minimizedAffinity 0.235628113
REMARK minimizedRMSD -1
REMARK  1 active torsions:
REMARK  status: ('A' for Active; 'I' for Inactive)
REMARK    1  A    between atoms: C1_2  and  C2_3 
ROOT
ATOM      1  C2  UNL d   1      -0.189   1.886   0.325  0.00  0.00    -0.073 A 
ATOM      2  C3  UNL d   1      -0.814   1.898   1.577  0.00  0.00    -0.002 A 
ATOM      3  C4  UNL d   1      -1.038   0.704   2.264  0.00  0.00     0.004 A 
ATOM      4  C5  UNL d   1      -0.633  -0.511   1.711  0.00  0.00    -0.004 A 
ATOM      5  C6  UNL d   1       0.004  -0.542   0.467  0.00  0.00    -0.075 A 
ATOM      6  C7  UNL d   1       0.444  -1.841  -0.143  0.00  0.00     0.076 C 
ATOM      7  C8  UNL d   1       0.223   0.661  -0.219  0.00  0.00     0.001 A 
ENDROOT
BRANCH   1   8
ATOM      8  C1  UNL d   1       0.061   3.173  -0.418  0.00  0.00     0.053 C 
ATOM      9  C   UNL d   1       0.598   2.928  -1.819  0.00  0.00     0.018 C 
ENDBRANCH   1   8
TORSDOF 1
ENDMDL
