MODEL 1
REMARK minimizedAffinity -6.1894412
REMARK minimizedRMSD -1
REMARK  1 active torsions:
REMARK  status: ('A' for Active; 'I' for Inactive)
REMARK    1  A    between atoms: C1_2  and  C2_3 
ROOT
ATOM      1  C2  UNL d   1       0.775  -1.492  -2.022  0.00  0.00    -0.073 A 
ATOM      2  C3  UNL d   1       0.660  -0.384  -2.869  0.00  0.00    -0.002 A 
ATOM      3  C4  UNL d   1       0.373   0.877  -2.346  0.00  0.00     0.004 A 
ATOM      4  C5  UNL d   1       0.204   1.046  -0.972  0.00  0.00    -0.004 A 
ATOM      5  C6  UNL d   1       0.326  -0.047  -0.107  0.00  0.00    -0.075 A 
ATOM      6  C7  UNL d   1       0.146   0.117   1.373  0.00  0.00     0.076 C 
ATOM      7  C8  UNL d   1       0.613  -1.311  -0.641  0.00  0.00     0.001 A 
ENDROOT
BRANCH   1   8
ATOM      8  C1  UNL d   1       1.091  -2.854  -2.581  0.00  0.00     0.053 C 
ATOM      9  C   UNL d   1       0.416  -3.965  -1.793  0.00  0.00     0.018 C 
ENDBRANCH   1   8
TORSDOF 1
ENDMDL
