MODEL 1
REMARK minimizedAffinity -4.19012928
REMARK minimizedRMSD -1
REMARK  1 active torsions:
REMARK  status: ('A' for Active; 'I' for Inactive)
REMARK    1  A    between atoms: C1_2  and  C2_3 
ROOT
ATOM      1  C2  UNL d   1      -1.152   0.945   0.186  0.00  0.00    -0.073 A 
ATOM      2  C3  UNL d   1      -0.632   0.508   1.410  0.00  0.00    -0.002 A 
ATOM      3  C4  UNL d   1       0.181  -0.625   1.466  0.00  0.00     0.004 A 
ATOM      4  C5  UNL d   1       0.488  -1.328   0.301  0.00  0.00    -0.004 A 
ATOM      5  C6  UNL d   1      -0.012  -0.900  -0.933  0.00  0.00    -0.075 A 
ATOM      6  C7  UNL d   1       0.307  -1.646  -2.195  0.00  0.00     0.076 C 
ATOM      7  C8  UNL d   1      -0.830   0.237  -0.981  0.00  0.00     0.001 A 
ENDROOT
BRANCH   1   8
ATOM      8  C1  UNL d   1      -2.025   2.171   0.119  0.00  0.00     0.053 C 
ATOM      9  C   UNL d   1      -2.361   2.707   1.502  0.00  0.00     0.018 C 
ENDBRANCH   1   8
TORSDOF 1
ENDMDL
