MODEL 1
REMARK minimizedAffinity -3.81761479
REMARK minimizedRMSD -1
REMARK  1 active torsions:
REMARK  status: ('A' for Active; 'I' for Inactive)
REMARK    1  A    between atoms: C1_2  and  C2_3 
ROOT
ATOM      1  C2  UNL d   1      -1.331   2.773   1.330  0.00  0.00    -0.073 A 
ATOM      2  C3  UNL d   1      -0.739   3.365   0.209  0.00  0.00    -0.002 A 
ATOM      3  C4  UNL d   1      -0.005   2.591  -0.691  0.00  0.00     0.004 A 
ATOM      4  C5  UNL d   1       0.138   1.219  -0.483  0.00  0.00    -0.004 A 
ATOM      5  C6  UNL d   1      -0.456   0.608   0.625  0.00  0.00    -0.075 A 
ATOM      6  C7  UNL d   1      -0.309  -0.866   0.864  0.00  0.00     0.076 C 
ATOM      7  C8  UNL d   1      -1.189   1.392   1.526  0.00  0.00     0.001 A 
ENDROOT
BRANCH   1   8
ATOM      8  C1  UNL d   1      -2.130   3.604   2.302  0.00  0.00     0.053 C 
ATOM      9  C   UNL d   1      -1.289   4.069   3.480  0.00  0.00     0.018 C 
ENDBRANCH   1   8
TORSDOF 1
ENDMDL
