MODEL 1
REMARK minimizedAffinity -5.09024572
REMARK minimizedRMSD -1
REMARK  1 active torsions:
REMARK  status: ('A' for Active; 'I' for Inactive)
REMARK    1  A    between atoms: C1_2  and  C2_3 
ROOT
ATOM      1  C2  UNL d   1      -0.258   0.577   0.197  0.00  0.00    -0.073 A 
ATOM      2  C3  UNL d   1      -0.672   0.703   1.527  0.00  0.00    -0.002 A 
ATOM      3  C4  UNL d   1      -1.120   1.933   2.012  0.00  0.00     0.004 A 
ATOM      4  C5  UNL d   1      -1.165   3.045   1.171  0.00  0.00    -0.004 A 
ATOM      5  C6  UNL d   1      -0.766   2.935  -0.165  0.00  0.00    -0.075 A 
ATOM      6  C7  UNL d   1      -0.806   4.122  -1.082  0.00  0.00     0.076 C 
ATOM      7  C8  UNL d   1      -0.315   1.698  -0.643  0.00  0.00     0.001 A 
ENDROOT
BRANCH   1   8
ATOM      8  C1  UNL d   1       0.221  -0.751  -0.333  0.00  0.00     0.053 C 
ATOM      9  C   UNL d   1       1.716  -0.749  -0.606  0.00  0.00     0.018 C 
ENDBRANCH   1   8
TORSDOF 1
ENDMDL
