MODEL 1
REMARK minimizedAffinity -4.66148376
REMARK minimizedRMSD -1
REMARK  1 active torsions:
REMARK  status: ('A' for Active; 'I' for Inactive)
REMARK    1  A    between atoms: C1_2  and  C2_3 
ROOT
ATOM      1  C2  UNL d   1       0.267  -0.081  -0.329  0.00  0.00    -0.073 A 
ATOM      2  C3  UNL d   1       0.340  -0.719   0.915  0.00  0.00    -0.002 A 
ATOM      3  C4  UNL d   1      -0.373  -0.219   2.006  0.00  0.00     0.004 A 
ATOM      4  C5  UNL d   1      -1.171   0.916   1.863  0.00  0.00    -0.004 A 
ATOM      5  C6  UNL d   1      -1.266   1.560   0.625  0.00  0.00    -0.075 A 
ATOM      6  C7  UNL d   1      -2.118   2.783   0.455  0.00  0.00     0.076 C 
ATOM      7  C8  UNL d   1      -0.545   1.054  -0.465  0.00  0.00     0.001 A 
ENDROOT
BRANCH   1   8
ATOM      8  C1  UNL d   1       1.030  -0.621  -1.511  0.00  0.00     0.053 C 
ATOM      9  C   UNL d   1       1.105  -2.139  -1.496  0.00  0.00     0.018 C 
ENDBRANCH   1   8
TORSDOF 1
ENDMDL
