MODEL 1
REMARK minimizedAffinity -4.16448545
REMARK minimizedRMSD -1
REMARK  1 active torsions:
REMARK  status: ('A' for Active; 'I' for Inactive)
REMARK    1  A    between atoms: C1_2  and  C2_3 
ROOT
ATOM      1  C2  UNL d   1      -0.025   1.889   0.220  0.00  0.00    -0.073 A 
ATOM      2  C3  UNL d   1      -0.685   1.767   1.449  0.00  0.00    -0.002 A 
ATOM      3  C4  UNL d   1      -0.771   0.527   2.083  0.00  0.00     0.004 A 
ATOM      4  C5  UNL d   1      -0.193  -0.601   1.500  0.00  0.00    -0.004 A 
ATOM      5  C6  UNL d   1       0.480  -0.498   0.279  0.00  0.00    -0.075 A 
ATOM      6  C7  UNL d   1       1.105  -1.702  -0.362  0.00  0.00     0.076 C 
ATOM      7  C8  UNL d   1       0.560   0.751  -0.353  0.00  0.00     0.001 A 
ENDROOT
BRANCH   1   8
ATOM      8  C1  UNL d   1       0.077   3.227  -0.465  0.00  0.00     0.053 C 
ATOM      9  C   UNL d   1      -0.104   4.381   0.508  0.00  0.00     0.018 C 
ENDBRANCH   1   8
TORSDOF 1
ENDMDL
