MODEL 1
REMARK minimizedAffinity -5.41405964
REMARK minimizedRMSD -1
REMARK  1 active torsions:
REMARK  status: ('A' for Active; 'I' for Inactive)
REMARK    1  A    between atoms: C1_2  and  C2_3 
ROOT
ATOM      1  C2  UNL d   1       0.461   0.267   0.021  0.00  0.00    -0.073 A 
ATOM      2  C3  UNL d   1      -0.321  -0.039   1.140  0.00  0.00    -0.002 A 
ATOM      3  C4  UNL d   1      -0.980   0.974   1.838  0.00  0.00     0.004 A 
ATOM      4  C5  UNL d   1      -0.870   2.300   1.420  0.00  0.00    -0.004 A 
ATOM      5  C6  UNL d   1      -0.102   2.625   0.297  0.00  0.00    -0.075 A 
ATOM      6  C7  UNL d   1       0.028   4.047  -0.164  0.00  0.00     0.076 C 
ATOM      7  C8  UNL d   1       0.558   1.602  -0.397  0.00  0.00     0.001 A 
ENDROOT
BRANCH   1   8
ATOM      8  C1  UNL d   1       1.169  -0.825  -0.740  0.00  0.00     0.053 C 
ATOM      9  C   UNL d   1       0.201  -1.873  -1.265  0.00  0.00     0.018 C 
ENDBRANCH   1   8
TORSDOF 1
ENDMDL
