MODEL 1
REMARK minimizedAffinity 5.15100718
REMARK minimizedRMSD -1
REMARK  0 active torsions:
REMARK  status: ('A' for Active; 'I' for Inactive)
ROOT
ATOM      1  C1  BNZ d   1       2.250  -3.736  -0.795  0.00  0.00     0.000 A 
ATOM      2  C2  BNZ d   1       1.579  -3.519  -1.969  0.00  0.00     0.000 A 
ATOM      3  C3  BNZ d   1       1.412  -2.252  -2.456  0.00  0.00     0.000 A 
ATOM      4  C4  BNZ d   1       1.882  -1.204  -1.749  0.00  0.00     0.000 A 
ATOM      5  C5  BNZ d   1       2.553  -1.406  -0.559  0.00  0.00     0.000 A 
ATOM      6  C6  BNZ d   1       2.752  -2.685  -0.092  0.00  0.00     0.000 A 
ENDROOT
TORSDOF 0
ENDMDL
