MODEL 1
REMARK minimizedAffinity 2.00839496
REMARK minimizedRMSD -1
REMARK  0 active torsions:
REMARK  status: ('A' for Active; 'I' for Inactive)
ROOT
ATOM      1  C1  BNZ d   1      -2.895   0.447   2.408  0.00  0.00     0.000 A 
ATOM      2  C2  BNZ d   1      -2.416   1.455   3.202  0.00  0.00     0.000 A 
ATOM      3  C3  BNZ d   1      -1.086   1.771   3.205  0.00  0.00     0.000 A 
ATOM      4  C4  BNZ d   1      -0.232   1.054   2.448  0.00  0.00     0.000 A 
ATOM      5  C5  BNZ d   1      -0.698   0.028   1.650  0.00  0.00     0.000 A 
ATOM      6  C6  BNZ d   1      -2.042  -0.262   1.619  0.00  0.00     0.000 A 
ENDROOT
TORSDOF 0
ENDMDL
