MODEL 1
REMARK minimizedAffinity 8.06320763
REMARK minimizedRMSD -1
REMARK  0 active torsions:
REMARK  status: ('A' for Active; 'I' for Inactive)
ROOT
ATOM      1  C1  BNZ d   1       2.338   0.087  -0.357  0.00  0.00     0.000 A 
ATOM      2  C2  BNZ d   1       2.145  -1.253  -0.559  0.00  0.00     0.000 A 
ATOM      3  C3  BNZ d   1       2.993  -2.173  -0.008  0.00  0.00     0.000 A 
ATOM      4  C4  BNZ d   1       4.054  -1.751   0.710  0.00  0.00     0.000 A 
ATOM      5  C5  BNZ d   1       4.268  -0.402   0.914  0.00  0.00     0.000 A 
ATOM      6  C6  BNZ d   1       3.390   0.519   0.390  0.00  0.00     0.000 A 
ENDROOT
TORSDOF 0
ENDMDL
