MODEL 1
REMARK minimizedAffinity 5.09436321
REMARK minimizedRMSD -1
REMARK  0 active torsions:
REMARK  status: ('A' for Active; 'I' for Inactive)
ROOT
ATOM      1  C1  BNZ d   1       1.280  -1.904  -2.364  0.00  0.00     0.000 A 
ATOM      2  C2  BNZ d   1       1.626  -2.970  -1.578  0.00  0.00     0.000 A 
ATOM      3  C3  BNZ d   1       2.379  -2.794  -0.451  0.00  0.00     0.000 A 
ATOM      4  C4  BNZ d   1       2.818  -1.558  -0.134  0.00  0.00     0.000 A 
ATOM      5  C5  BNZ d   1       2.485  -0.475  -0.922  0.00  0.00     0.000 A 
ATOM      6  C6  BNZ d   1       1.694  -0.651  -2.034  0.00  0.00     0.000 A 
ENDROOT
TORSDOF 0
ENDMDL
