MODEL 1
REMARK minimizedAffinity 6.80489206
REMARK minimizedRMSD -1
REMARK  0 active torsions:
REMARK  status: ('A' for Active; 'I' for Inactive)
ROOT
ATOM      1  C1  BNZ d   1      -2.900  -2.776  -4.441  0.00  0.00     0.000 A 
ATOM      2  C2  BNZ d   1      -4.001  -2.596  -5.235  0.00  0.00     0.000 A 
ATOM      3  C3  BNZ d   1      -4.487  -3.620  -6.000  0.00  0.00     0.000 A 
ATOM      4  C4  BNZ d   1      -3.850  -4.808  -6.000  0.00  0.00     0.000 A 
ATOM      5  C5  BNZ d   1      -2.733  -5.002  -5.211  0.00  0.00     0.000 A 
ATOM      6  C6  BNZ d   1      -2.270  -3.982  -4.413  0.00  0.00     0.000 A 
ENDROOT
TORSDOF 0
ENDMDL
