MODEL 1
REMARK minimizedAffinity 3.57873106
REMARK minimizedRMSD -1
REMARK  0 active torsions:
REMARK  status: ('A' for Active; 'I' for Inactive)
ROOT
ATOM      1  C1  BNZ d   1       2.980  -4.035  -0.821  0.00  0.00     0.000 A 
ATOM      2  C2  BNZ d   1       2.218  -3.794  -1.933  0.00  0.00     0.000 A 
ATOM      3  C3  BNZ d   1       1.663  -2.563  -2.147  0.00  0.00     0.000 A 
ATOM      4  C4  BNZ d   1       1.836  -1.589  -1.230  0.00  0.00     0.000 A 
ATOM      5  C5  BNZ d   1       2.593  -1.820  -0.099  0.00  0.00     0.000 A 
ATOM      6  C6  BNZ d   1       3.183  -3.048   0.094  0.00  0.00     0.000 A 
ENDROOT
TORSDOF 0
ENDMDL
