MODEL 1
REMARK minimizedAffinity 5.52566862
REMARK minimizedRMSD -1
REMARK  0 active torsions:
REMARK  status: ('A' for Active; 'I' for Inactive)
ROOT
ATOM      1  C1  BNZ d   1       4.046   1.631  -0.403  0.00  0.00     0.000 A 
ATOM      2  C2  BNZ d   1       2.859   1.015  -0.107  0.00  0.00     0.000 A 
ATOM      3  C3  BNZ d   1       2.159   1.350   1.018  0.00  0.00     0.000 A 
ATOM      4  C4  BNZ d   1       2.664   2.270   1.865  0.00  0.00     0.000 A 
ATOM      5  C5  BNZ d   1       3.864   2.893   1.585  0.00  0.00     0.000 A 
ATOM      6  C6  BNZ d   1       4.548   2.581   0.432  0.00  0.00     0.000 A 
ENDROOT
TORSDOF 0
ENDMDL
