MODEL 1
REMARK minimizedAffinity 5.8597436
REMARK minimizedRMSD -1
REMARK  0 active torsions:
REMARK  status: ('A' for Active; 'I' for Inactive)
ROOT
ATOM      1  C1  BNZ d   1       2.171  -4.252  -1.663  0.00  0.00     0.000 A 
ATOM      2  C2  BNZ d   1       1.394  -3.342  -2.330  0.00  0.00     0.000 A 
ATOM      3  C3  BNZ d   1       1.299  -2.050  -1.894  0.00  0.00     0.000 A 
ATOM      4  C4  BNZ d   1       1.947  -1.680  -0.770  0.00  0.00     0.000 A 
ATOM      5  C5  BNZ d   1       2.726  -2.588  -0.082  0.00  0.00     0.000 A 
ATOM      6  C6  BNZ d   1       2.852  -3.877  -0.546  0.00  0.00     0.000 A 
ENDROOT
TORSDOF 0
ENDMDL
