MODEL 1
REMARK minimizedAffinity 3.9154408
REMARK minimizedRMSD -1
REMARK  0 active torsions:
REMARK  status: ('A' for Active; 'I' for Inactive)
ROOT
ATOM      1  C1  BNZ d   1       0.018  -5.461  -3.015  0.00  0.00     0.000 A 
ATOM      2  C2  BNZ d   1      -0.882  -6.000  -2.135  0.00  0.00     0.000 A 
ATOM      3  C3  BNZ d   1      -2.221  -5.993  -2.411  0.00  0.00     0.000 A 
ATOM      4  C4  BNZ d   1      -2.661  -5.412  -3.546  0.00  0.00     0.000 A 
ATOM      5  C5  BNZ d   1      -1.766  -4.857  -4.439  0.00  0.00     0.000 A 
ATOM      6  C6  BNZ d   1      -0.416  -4.900  -4.176  0.00  0.00     0.000 A 
ENDROOT
TORSDOF 0
ENDMDL
