MODEL 1
REMARK minimizedAffinity 13.5753746
REMARK minimizedRMSD -1
REMARK  0 active torsions:
REMARK  status: ('A' for Active; 'I' for Inactive)
ROOT
ATOM      1  C1  BNZ d   1      -3.827   1.867   5.999  0.00  0.00     0.000 A 
ATOM      2  C2  BNZ d   1      -3.127   1.156   5.062  0.00  0.00     0.000 A 
ATOM      3  C3  BNZ d   1      -3.505   1.167   3.749  0.00  0.00     0.000 A 
ATOM      4  C4  BNZ d   1      -4.605   1.855   3.381  0.00  0.00     0.000 A 
ATOM      5  C5  BNZ d   1      -5.327   2.569   4.316  0.00  0.00     0.000 A 
ATOM      6  C6  BNZ d   1      -4.921   2.588   5.630  0.00  0.00     0.000 A 
ENDROOT
TORSDOF 0
ENDMDL
