MODEL 1
REMARK minimizedAffinity 10.590579
REMARK minimizedRMSD -1
REMARK  0 active torsions:
REMARK  status: ('A' for Active; 'I' for Inactive)
ROOT
ATOM      1  C1  BNZ d   1       3.219  -4.618   0.252  0.00  0.00     0.000 A 
ATOM      2  C2  BNZ d   1       2.208  -3.707   0.098  0.00  0.00     0.000 A 
ATOM      3  C3  BNZ d   1       2.483  -2.396  -0.173  0.00  0.00     0.000 A 
ATOM      4  C4  BNZ d   1       3.767  -1.990  -0.250  0.00  0.00     0.000 A 
ATOM      5  C5  BNZ d   1       4.797  -2.895  -0.088  0.00  0.00     0.000 A 
ATOM      6  C6  BNZ d   1       4.516  -4.221   0.145  0.00  0.00     0.000 A 
ENDROOT
TORSDOF 0
ENDMDL
