MODEL 1
REMARK minimizedAffinity 7.30480337
REMARK minimizedRMSD -1
REMARK  0 active torsions:
REMARK  status: ('A' for Active; 'I' for Inactive)
ROOT
ATOM      1  C1  BNZ d   1       2.045   0.417   1.014  0.00  0.00     0.000 A 
ATOM      2  C2  BNZ d   1       3.244   0.897   1.470  0.00  0.00     0.000 A 
ATOM      3  C3  BNZ d   1       4.331   0.075   1.575  0.00  0.00     0.000 A 
ATOM      4  C4  BNZ d   1       4.208  -1.231   1.264  0.00  0.00     0.000 A 
ATOM      5  C5  BNZ d   1       3.004  -1.731   0.811  0.00  0.00     0.000 A 
ATOM      6  C6  BNZ d   1       1.922  -0.893   0.669  0.00  0.00     0.000 A 
ENDROOT
TORSDOF 0
ENDMDL
