MODEL 1
REMARK minimizedAffinity 6.55952406
REMARK minimizedRMSD -1
REMARK  0 active torsions:
REMARK  status: ('A' for Active; 'I' for Inactive)
ROOT
ATOM      1  C1  BNZ d   1      -3.756   0.662   3.743  0.00  0.00     0.000 A 
ATOM      2  C2  BNZ d   1      -3.753  -0.707   3.757  0.00  0.00     0.000 A 
ATOM      3  C3  BNZ d   1      -3.429  -1.395   4.892  0.00  0.00     0.000 A 
ATOM      4  C4  BNZ d   1      -3.070  -0.715   6.000  0.00  0.00     0.000 A 
ATOM      5  C5  BNZ d   1      -3.059   0.666   6.000  0.00  0.00     0.000 A 
ATOM      6  C6  BNZ d   1      -3.424   1.356   4.866  0.00  0.00     0.000 A 
ENDROOT
TORSDOF 0
ENDMDL
