MODEL 1
REMARK minimizedAffinity 9.59887123
REMARK minimizedRMSD -1
REMARK  0 active torsions:
REMARK  status: ('A' for Active; 'I' for Inactive)
ROOT
ATOM      1  C1  BNZ d   1      -4.090  -4.808  -5.958  0.00  0.00     0.000 A 
ATOM      2  C2  BNZ d   1      -2.962  -4.837  -5.183  0.00  0.00     0.000 A 
ATOM      3  C3  BNZ d   1      -2.597  -3.751  -4.436  0.00  0.00     0.000 A 
ATOM      4  C4  BNZ d   1      -3.338  -2.626  -4.496  0.00  0.00     0.000 A 
ATOM      5  C5  BNZ d   1      -4.474  -2.578  -5.280  0.00  0.00     0.000 A 
ATOM      6  C6  BNZ d   1      -4.859  -3.686  -6.000  0.00  0.00     0.000 A 
ENDROOT
TORSDOF 0
ENDMDL
