MODEL 1
REMARK minimizedAffinity -0.0230468549
REMARK minimizedRMSD -1
REMARK  0 active torsions:
REMARK  status: ('A' for Active; 'I' for Inactive)
ROOT
ATOM      1  C1  BNZ d   1       1.875  -3.511  -1.490  0.00  0.00     0.000 A 
ATOM      2  C2  BNZ d   1       2.990  -3.751  -0.732  0.00  0.00     0.000 A 
ATOM      3  C3  BNZ d   1       3.562  -4.992  -0.703  0.00  0.00     0.000 A 
ATOM      4  C4  BNZ d   1       2.997  -5.999  -1.399  0.00  0.00     0.000 A 
ATOM      5  C5  BNZ d   1       1.867  -5.775  -2.161  0.00  0.00     0.000 A 
ATOM      6  C6  BNZ d   1       1.316  -4.516  -2.218  0.00  0.00     0.000 A 
ENDROOT
TORSDOF 0
ENDMDL
