MODEL 1
REMARK minimizedAffinity 8.46107292
REMARK minimizedRMSD -1
REMARK  0 active torsions:
REMARK  status: ('A' for Active; 'I' for Inactive)
ROOT
ATOM      1  C1  BNZ d   1      -3.667  -2.192  -5.916  0.00  0.00     0.000 A 
ATOM      2  C2  BNZ d   1      -3.466  -3.547  -5.907  0.00  0.00     0.000 A 
ATOM      3  C3  BNZ d   1      -4.523  -4.411  -5.969  0.00  0.00     0.000 A 
ATOM      4  C4  BNZ d   1      -5.779  -3.922  -5.999  0.00  0.00     0.000 A 
ATOM      5  C5  BNZ d   1      -5.999  -2.559  -5.999  0.00  0.00     0.000 A 
ATOM      6  C6  BNZ d   1      -4.931  -1.691  -5.976  0.00  0.00     0.000 A 
ENDROOT
TORSDOF 0
ENDMDL
