MODEL 1
REMARK minimizedAffinity 10.7828274
REMARK minimizedRMSD -1
REMARK  0 active torsions:
REMARK  status: ('A' for Active; 'I' for Inactive)
ROOT
ATOM      1  C1  BNZ d   1       1.978  -0.862  -1.287  0.00  0.00     0.000 A 
ATOM      2  C2  BNZ d   1       2.233  -1.583  -0.151  0.00  0.00     0.000 A 
ATOM      3  C3  BNZ d   1       1.959  -2.921  -0.094  0.00  0.00     0.000 A 
ATOM      4  C4  BNZ d   1       1.393  -3.527  -1.158  0.00  0.00     0.000 A 
ATOM      5  C5  BNZ d   1       1.121  -2.812  -2.307  0.00  0.00     0.000 A 
ATOM      6  C6  BNZ d   1       1.434  -1.474  -2.374  0.00  0.00     0.000 A 
ENDROOT
TORSDOF 0
ENDMDL
