MODEL 1
REMARK minimizedAffinity -4.23751593
REMARK minimizedRMSD -1
REMARK  1 active torsions:
REMARK  status: ('A' for Active; 'I' for Inactive)
REMARK    1  A    between atoms: C3_4  and  O_7 
ROOT
ATOM      1  C   UNL d   1       1.191   0.803  -0.487  0.00  0.00    -0.033 A 
ATOM      2  C1  UNL d   1       1.453   1.450  -1.696  0.00  0.00     0.039 A 
ATOM      3  C2  UNL d   1       1.552   2.842  -1.737  0.00  0.00    -0.080 A 
ATOM      4  C3  UNL d   1       1.388   3.574  -0.564  0.00  0.00     0.150 A 
ATOM      5  C4  UNL d   1       1.131   2.935   0.644  0.00  0.00    -0.007 A 
ATOM      6  C5  UNL d   1       1.031   1.545   0.683  0.00  0.00     0.039 A 
ENDROOT
BRANCH   4   7
ATOM      7  O   UNL d   1       1.472   4.935  -0.556  0.00  0.00    -0.526 OA
ATOM      8  H5  UNL d   1       1.625   5.239  -1.466  0.00  0.00     0.418 HD
ENDBRANCH   4   7
TORSDOF 1
ENDMDL
