MODEL 1
REMARK minimizedAffinity -3.07771254
REMARK minimizedRMSD -1
REMARK  1 active torsions:
REMARK  status: ('A' for Active; 'I' for Inactive)
REMARK    1  A    between atoms: C3_4  and  O_7 
ROOT
ATOM      1  C   UNL d   1       0.706   0.702  -0.791  0.00  0.00    -0.033 A 
ATOM      2  C1  UNL d   1       0.804   1.274  -2.061  0.00  0.00     0.039 A 
ATOM      3  C2  UNL d   1       1.117   2.628  -2.196  0.00  0.00    -0.080 A 
ATOM      4  C3  UNL d   1       1.332   3.397  -1.056  0.00  0.00     0.150 A 
ATOM      5  C4  UNL d   1       1.239   2.833   0.212  0.00  0.00    -0.007 A 
ATOM      6  C5  UNL d   1       0.925   1.481   0.345  0.00  0.00     0.039 A 
ENDROOT
BRANCH   4   7
ATOM      7  O   UNL d   1       1.635   4.724  -1.138  0.00  0.00    -0.526 OA
ATOM      8  H5  UNL d   1       1.637   4.982  -2.074  0.00  0.00     0.418 HD
ENDBRANCH   4   7
TORSDOF 1
ENDMDL
