MODEL 1
REMARK minimizedAffinity -1.74657524
REMARK minimizedRMSD -1
REMARK  1 active torsions:
REMARK  status: ('A' for Active; 'I' for Inactive)
REMARK    1  A    between atoms: C3_4  and  O_7 
ROOT
ATOM      1  C   UNL d   1       1.429   1.743  -1.988  0.00  0.00    -0.033 A 
ATOM      2  C1  UNL d   1       1.391   0.596  -1.193  0.00  0.00     0.039 A 
ATOM      3  C2  UNL d   1       1.290   0.709   0.195  0.00  0.00    -0.080 A 
ATOM      4  C3  UNL d   1       1.228   1.973   0.775  0.00  0.00     0.150 A 
ATOM      5  C4  UNL d   1       1.261   3.120  -0.011  0.00  0.00    -0.007 A 
ATOM      6  C5  UNL d   1       1.362   3.005  -1.397  0.00  0.00     0.039 A 
ENDROOT
BRANCH   4   7
ATOM      7  O   UNL d   1       1.134   2.134   2.125  0.00  0.00    -0.526 OA
ATOM      8  H5  UNL d   1       1.150   1.256   2.542  0.00  0.00     0.418 HD
ENDBRANCH   4   7
TORSDOF 1
ENDMDL
