MODEL 1
REMARK minimizedAffinity -4.10763359
REMARK minimizedRMSD -1
REMARK  1 active torsions:
REMARK  status: ('A' for Active; 'I' for Inactive)
REMARK    1  A    between atoms: C3_4  and  O_7 
ROOT
ATOM      1  C   UNL d   1       0.907   0.382  -0.165  0.00  0.00    -0.033 A 
ATOM      2  C1  UNL d   1       1.302   0.725  -1.460  0.00  0.00     0.039 A 
ATOM      3  C2  UNL d   1       1.448   2.067  -1.815  0.00  0.00    -0.080 A 
ATOM      4  C3  UNL d   1       1.196   3.056  -0.867  0.00  0.00     0.150 A 
ATOM      5  C4  UNL d   1       0.806   2.721   0.426  0.00  0.00    -0.007 A 
ATOM      6  C5  UNL d   1       0.661   1.380   0.778  0.00  0.00     0.039 A 
ENDROOT
BRANCH   4   7
ATOM      7  O   UNL d   1       1.320   4.379  -1.168  0.00  0.00    -0.526 OA
ATOM      8  H5  UNL d   1       1.568   4.460  -2.104  0.00  0.00     0.418 HD
ENDBRANCH   4   7
TORSDOF 1
ENDMDL
