MODEL 1
REMARK minimizedAffinity 3.75532365
REMARK minimizedRMSD -1
REMARK  1 active torsions:
REMARK  status: ('A' for Active; 'I' for Inactive)
REMARK    1  A    between atoms: C3_4  and  O_7 
ROOT
ATOM      1  C   UNL d   1       1.426   0.240  -1.984  0.00  0.00    -0.033 A 
ATOM      2  C1  UNL d   1       0.582   1.144  -2.632  0.00  0.00     0.039 A 
ATOM      3  C2  UNL d   1       0.586   2.491  -2.266  0.00  0.00    -0.080 A 
ATOM      4  C3  UNL d   1       1.438   2.921  -1.252  0.00  0.00     0.150 A 
ATOM      5  C4  UNL d   1       2.283   2.027  -0.604  0.00  0.00    -0.007 A 
ATOM      6  C5  UNL d   1       2.277   0.682  -0.971  0.00  0.00     0.039 A 
ENDROOT
BRANCH   4   7
ATOM      7  O   UNL d   1       1.473   4.226  -0.857  0.00  0.00    -0.526 OA
ATOM      8  H5  UNL d   1       0.815   4.721  -1.372  0.00  0.00     0.418 HD
ENDBRANCH   4   7
TORSDOF 1
ENDMDL
