MODEL 1
REMARK minimizedAffinity -1.9406774
REMARK minimizedRMSD -1
REMARK  1 active torsions:
REMARK  status: ('A' for Active; 'I' for Inactive)
REMARK    1  A    between atoms: C3_4  and  O_7 
ROOT
ATOM      1  C   UNL d   1       1.011   0.755  -1.824  0.00  0.00    -0.033 A 
ATOM      2  C1  UNL d   1       1.751   0.943  -0.655  0.00  0.00     0.039 A 
ATOM      3  C2  UNL d   1       1.841   2.212  -0.079  0.00  0.00    -0.080 A 
ATOM      4  C3  UNL d   1       1.186   3.283  -0.681  0.00  0.00     0.150 A 
ATOM      5  C4  UNL d   1       0.444   3.102  -1.844  0.00  0.00    -0.007 A 
ATOM      6  C5  UNL d   1       0.356   1.835  -2.418  0.00  0.00     0.039 A 
ENDROOT
BRANCH   4   7
ATOM      7  O   UNL d   1       1.248   4.541  -0.159  0.00  0.00    -0.526 OA
ATOM      8  H5  UNL d   1       1.818   4.520   0.627  0.00  0.00     0.418 HD
ENDBRANCH   4   7
TORSDOF 1
ENDMDL
