MODEL 1
REMARK minimizedAffinity 0.80840224
REMARK minimizedRMSD -1
REMARK  1 active torsions:
REMARK  status: ('A' for Active; 'I' for Inactive)
REMARK    1  A    between atoms: C3_4  and  O_7 
ROOT
ATOM      1  C   UNL d   1       1.329   2.267  -0.153  0.00  0.00    -0.033 A 
ATOM      2  C1  UNL d   1       1.489   3.324   0.745  0.00  0.00     0.039 A 
ATOM      3  C2  UNL d   1       1.853   4.589   0.280  0.00  0.00    -0.080 A 
ATOM      4  C3  UNL d   1       2.053   4.784  -1.083  0.00  0.00     0.150 A 
ATOM      5  C4  UNL d   1       1.891   3.737  -1.985  0.00  0.00    -0.007 A 
ATOM      6  C5  UNL d   1       1.528   2.474  -1.518  0.00  0.00     0.039 A 
ENDROOT
BRANCH   4   7
ATOM      7  O   UNL d   1       2.413   6.000  -1.584  0.00  0.00    -0.526 OA
ATOM      8  H5  UNL d   1       2.516   6.620  -0.843  0.00  0.00     0.418 HD
ENDBRANCH   4   7
TORSDOF 1
ENDMDL
