MODEL 1
REMARK minimizedAffinity -1.89340246
REMARK minimizedRMSD -1
REMARK  1 active torsions:
REMARK  status: ('A' for Active; 'I' for Inactive)
REMARK    1  A    between atoms: C3_4  and  O_7 
ROOT
ATOM      1  C   UNL d   1       0.560   1.403  -0.800  0.00  0.00    -0.033 A 
ATOM      2  C1  UNL d   1       0.886   2.217   0.286  0.00  0.00     0.039 A 
ATOM      3  C2  UNL d   1       1.327   3.525   0.073  0.00  0.00    -0.080 A 
ATOM      4  C3  UNL d   1       1.436   4.006  -1.229  0.00  0.00     0.150 A 
ATOM      5  C4  UNL d   1       1.108   3.201  -2.316  0.00  0.00    -0.007 A 
ATOM      6  C5  UNL d   1       0.669   1.896  -2.101  0.00  0.00     0.039 A 
ENDROOT
BRANCH   4   7
ATOM      7  O   UNL d   1       1.866   5.273  -1.487  0.00  0.00    -0.526 OA
ATOM      8  H5  UNL d   1       2.083   5.702  -0.643  0.00  0.00     0.418 HD
ENDBRANCH   4   7
TORSDOF 1
ENDMDL
