MODEL 1
REMARK minimizedAffinity -1.85824096
REMARK minimizedRMSD -1
REMARK  1 active torsions:
REMARK  status: ('A' for Active; 'I' for Inactive)
REMARK    1  A    between atoms: C3_4  and  O_7 
ROOT
ATOM      1  C   UNL d   1       1.409   0.928  -0.372  0.00  0.00    -0.033 A 
ATOM      2  C1  UNL d   1       1.365   1.736   0.766  0.00  0.00     0.039 A 
ATOM      3  C2  UNL d   1       1.367   3.126   0.637  0.00  0.00    -0.080 A 
ATOM      4  C3  UNL d   1       1.413   3.695  -0.633  0.00  0.00     0.150 A 
ATOM      5  C4  UNL d   1       1.454   2.896  -1.770  0.00  0.00    -0.007 A 
ATOM      6  C5  UNL d   1       1.452   1.507  -1.640  0.00  0.00     0.039 A 
ENDROOT
BRANCH   4   7
ATOM      7  O   UNL d   1       1.423   5.047  -0.808  0.00  0.00    -0.526 OA
ATOM      8  H5  UNL d   1       1.421   5.471   0.066  0.00  0.00     0.418 HD
ENDBRANCH   4   7
TORSDOF 1
ENDMDL
