MODEL 1
REMARK minimizedAffinity -3.52723861
REMARK minimizedRMSD -1
REMARK  1 active torsions:
REMARK  status: ('A' for Active; 'I' for Inactive)
REMARK    1  A    between atoms: C3_4  and  O_7 
ROOT
ATOM      1  C   UNL d   1       0.957   0.004  -0.920  0.00  0.00    -0.033 A 
ATOM      2  C1  UNL d   1       0.741   0.366   0.411  0.00  0.00     0.039 A 
ATOM      3  C2  UNL d   1       0.692   1.715   0.770  0.00  0.00    -0.080 A 
ATOM      4  C3  UNL d   1       0.859   2.689  -0.211  0.00  0.00     0.150 A 
ATOM      5  C4  UNL d   1       1.071   2.335  -1.539  0.00  0.00    -0.007 A 
ATOM      6  C5  UNL d   1       1.121   0.988  -1.895  0.00  0.00     0.039 A 
ENDROOT
BRANCH   4   7
ATOM      7  O   UNL d   1       0.824   4.018   0.092  0.00  0.00    -0.526 OA
ATOM      8  H5  UNL d   1       0.699   4.112   1.051  0.00  0.00     0.418 HD
ENDBRANCH   4   7
TORSDOF 1
ENDMDL
