MODEL 1
REMARK minimizedAffinity -0.848513663
REMARK minimizedRMSD -1
REMARK  1 active torsions:
REMARK  status: ('A' for Active; 'I' for Inactive)
REMARK    1  A    between atoms: C3_4  and  O_7 
ROOT
ATOM      1  C   UNL d   1       1.000   1.498  -0.676  0.00  0.00    -0.033 A 
ATOM      2  C1  UNL d   1       1.212   2.191  -1.870  0.00  0.00     0.039 A 
ATOM      3  C2  UNL d   1       1.392   3.575  -1.854  0.00  0.00    -0.080 A 
ATOM      4  C3  UNL d   1       1.360   4.254  -0.639  0.00  0.00     0.150 A 
ATOM      5  C4  UNL d   1       1.154   3.570   0.555  0.00  0.00    -0.007 A 
ATOM      6  C5  UNL d   1       0.973   2.187   0.536  0.00  0.00     0.039 A 
ENDROOT
BRANCH   4   7
ATOM      7  O   UNL d   1       1.527   5.605  -0.573  0.00  0.00    -0.526 OA
ATOM      8  H5  UNL d   1       1.630   5.947  -1.477  0.00  0.00     0.418 HD
ENDBRANCH   4   7
TORSDOF 1
ENDMDL
