MODEL 1
REMARK minimizedAffinity -0.814352751
REMARK minimizedRMSD -1
REMARK  1 active torsions:
REMARK  status: ('A' for Active; 'I' for Inactive)
REMARK    1  A    between atoms: C3_4  and  O_7 
ROOT
ATOM      1  C   UNL d   1       0.945   0.391  -2.172  0.00  0.00    -0.033 A 
ATOM      2  C1  UNL d   1       1.053   1.718  -1.752  0.00  0.00     0.039 A 
ATOM      3  C2  UNL d   1       1.755   2.028  -0.585  0.00  0.00    -0.080 A 
ATOM      4  C3  UNL d   1       2.345   1.004   0.150  0.00  0.00     0.150 A 
ATOM      5  C4  UNL d   1       2.245  -0.320  -0.265  0.00  0.00    -0.007 A 
ATOM      6  C5  UNL d   1       1.543  -0.628  -1.429  0.00  0.00     0.039 A 
ENDROOT
BRANCH   4   7
ATOM      7  O   UNL d   1       3.037   1.257   1.297  0.00  0.00    -0.526 OA
ATOM      8  H5  UNL d   1       2.998   2.212   1.475  0.00  0.00     0.418 HD
ENDBRANCH   4   7
TORSDOF 1
ENDMDL
