MODEL 1
REMARK minimizedAffinity -1.48118818
REMARK minimizedRMSD -1
REMARK  1 active torsions:
REMARK  status: ('A' for Active; 'I' for Inactive)
REMARK    1  A    between atoms: C3_4  and  O_7 
ROOT
ATOM      1  C   UNL d   1       1.157  -1.477  -0.147  0.00  0.00    -0.033 A 
ATOM      2  C1  UNL d   1       1.077  -1.713  -1.521  0.00  0.00     0.039 A 
ATOM      3  C2  UNL d   1       1.172  -0.649  -2.421  0.00  0.00    -0.080 A 
ATOM      4  C3  UNL d   1       1.349   0.643  -1.934  0.00  0.00     0.150 A 
ATOM      5  C4  UNL d   1       1.433   0.885  -0.567  0.00  0.00    -0.007 A 
ATOM      6  C5  UNL d   1       1.336  -0.179   0.330  0.00  0.00     0.039 A 
ENDROOT
BRANCH   4   7
ATOM      7  O   UNL d   1       1.443   1.714  -2.773  0.00  0.00    -0.526 OA
ATOM      8  H5  UNL d   1       1.339   1.399  -3.686  0.00  0.00     0.418 HD
ENDBRANCH   4   7
TORSDOF 1
ENDMDL
