MODEL 1
REMARK minimizedAffinity 0.0854123384
REMARK minimizedRMSD -1
REMARK  1 active torsions:
REMARK  status: ('A' for Active; 'I' for Inactive)
REMARK    1  A    between atoms: C3_4  and  O_7 
ROOT
ATOM      1  C   UNL d   1       1.673   4.036  -2.042  0.00  0.00    -0.033 A 
ATOM      2  C1  UNL d   1       1.820   2.651  -1.941  0.00  0.00     0.039 A 
ATOM      3  C2  UNL d   1       1.806   2.035  -0.688  0.00  0.00    -0.080 A 
ATOM      4  C3  UNL d   1       1.645   2.814   0.454  0.00  0.00     0.150 A 
ATOM      5  C4  UNL d   1       1.495   4.194   0.361  0.00  0.00    -0.007 A 
ATOM      6  C5  UNL d   1       1.509   4.807  -0.891  0.00  0.00     0.039 A 
ENDROOT
BRANCH   4   7
ATOM      7  O   UNL d   1       1.630   2.259   1.699  0.00  0.00    -0.526 OA
ATOM      8  H5  UNL d   1       1.773   1.302   1.611  0.00  0.00     0.418 HD
ENDBRANCH   4   7
TORSDOF 1
ENDMDL
