MODEL 1
REMARK minimizedAffinity 5.04214287
REMARK minimizedRMSD -1
REMARK  1 active torsions:
REMARK  status: ('A' for Active; 'I' for Inactive)
REMARK    1  A    between atoms: C3_4  and  O_7 
ROOT
ATOM      1  C   UNL d   1      -1.499   0.142   5.752  0.00  0.00    -0.033 A 
ATOM      2  C1  UNL d   1      -1.101  -0.133   4.442  0.00  0.00     0.039 A 
ATOM      3  C2  UNL d   1      -1.683   0.555   3.375  0.00  0.00    -0.080 A 
ATOM      4  C3  UNL d   1      -2.658   1.515   3.632  0.00  0.00     0.150 A 
ATOM      5  C4  UNL d   1      -3.056   1.797   4.934  0.00  0.00    -0.007 A 
ATOM      6  C5  UNL d   1      -2.475   1.108   5.998  0.00  0.00     0.039 A 
ENDROOT
BRANCH   4   7
ATOM      7  O   UNL d   1      -3.258   2.209   2.623  0.00  0.00    -0.526 OA
ATOM      8  H5  UNL d   1      -2.904   1.889   1.776  0.00  0.00     0.418 HD
ENDBRANCH   4   7
TORSDOF 1
ENDMDL
