MODEL 1
REMARK minimizedAffinity -4.070611
REMARK minimizedRMSD -1
REMARK  1 active torsions:
REMARK  status: ('A' for Active; 'I' for Inactive)
REMARK    1  A    between atoms: C3_4  and  O_7 
ROOT
ATOM      1  C   UNL d   1       1.007   1.713  -0.203  0.00  0.00    -0.033 A 
ATOM      2  C1  UNL d   1       0.805   2.336   1.031  0.00  0.00     0.039 A 
ATOM      3  C2  UNL d   1       0.898   3.725   1.137  0.00  0.00    -0.080 A 
ATOM      4  C3  UNL d   1       1.190   4.479   0.004  0.00  0.00     0.150 A 
ATOM      5  C4  UNL d   1       1.389   3.866  -1.229  0.00  0.00    -0.007 A 
ATOM      6  C5  UNL d   1       1.298   2.478  -1.333  0.00  0.00     0.039 A 
ENDROOT
BRANCH   4   7
ATOM      7  O   UNL d   1       1.295   5.837   0.059  0.00  0.00    -0.526 OA
ATOM      8  H5  UNL d   1       1.162   6.119   0.980  0.00  0.00     0.418 HD
ENDBRANCH   4   7
TORSDOF 1
ENDMDL
