MODEL 1
REMARK minimizedAffinity 1.23898935
REMARK minimizedRMSD -1
REMARK  1 active torsions:
REMARK  status: ('A' for Active; 'I' for Inactive)
REMARK    1  A    between atoms: C3_4  and  O_7 
ROOT
ATOM      1  C   UNL d   1       1.195   0.428  -1.685  0.00  0.00    -0.033 A 
ATOM      2  C1  UNL d   1       0.803   1.270  -2.728  0.00  0.00     0.039 A 
ATOM      3  C2  UNL d   1       1.092   2.634  -2.673  0.00  0.00    -0.080 A 
ATOM      4  C3  UNL d   1       1.773   3.145  -1.571  0.00  0.00     0.150 A 
ATOM      5  C4  UNL d   1       2.170   2.312  -0.530  0.00  0.00    -0.007 A 
ATOM      6  C5  UNL d   1       1.880   0.949  -0.587  0.00  0.00     0.039 A 
ENDROOT
BRANCH   4   7
ATOM      7  O   UNL d   1       2.073   4.471  -1.470  0.00  0.00    -0.526 OA
ATOM      8  H5  UNL d   1       1.712   4.928  -2.248  0.00  0.00     0.418 HD
ENDBRANCH   4   7
TORSDOF 1
ENDMDL
