MODEL 1
REMARK minimizedAffinity -5.86965132
REMARK minimizedRMSD -1
REMARK  1 active torsions:
REMARK  status: ('A' for Active; 'I' for Inactive)
REMARK    1  A    between atoms: C1_2  and  C2_3 
ROOT
ATOM      1  C2  UNL d   1      -1.499  -0.870   0.744  0.00  0.00    -0.077 A 
ATOM      2  C3  UNL d   1      -0.351  -1.021   1.534  0.00  0.00     0.002 A 
ATOM      3  C4  UNL d   1       0.871  -0.492   1.113  0.00  0.00     0.002 A 
ATOM      4  C5  UNL d   1       0.955   0.195  -0.097  0.00  0.00    -0.004 A 
ATOM      5  C6  UNL d   1      -0.181   0.348  -0.891  0.00  0.00     0.002 A 
ATOM      6  C7  UNL d   1      -1.403  -0.181  -0.472  0.00  0.00     0.002 A 
ENDROOT
BRANCH   1   7
ATOM      7  C1  UNL d   1      -2.828  -1.397   1.219  0.00  0.00     0.055 C 
ATOM      8  C   UNL d   1      -3.835  -1.467   0.081  0.00  0.00     0.019 C 
ENDBRANCH   1   7
TORSDOF 1
ENDMDL
