MODEL 1
REMARK minimizedAffinity -5.61537886
REMARK minimizedRMSD -1
REMARK  1 active torsions:
REMARK  status: ('A' for Active; 'I' for Inactive)
REMARK    1  A    between atoms: C1_2  and  C2_3 
ROOT
ATOM      1  C2  UNL d   1       0.029  -0.277   0.221  0.00  0.00    -0.077 A 
ATOM      2  C3  UNL d   1      -1.131   0.206  -0.401  0.00  0.00     0.002 A 
ATOM      3  C4  UNL d   1      -2.383  -0.312  -0.061  0.00  0.00     0.002 A 
ATOM      4  C5  UNL d   1      -2.486  -1.310   0.905  0.00  0.00    -0.004 A 
ATOM      5  C6  UNL d   1      -1.339  -1.798   1.528  0.00  0.00     0.002 A 
ATOM      6  C7  UNL d   1      -0.087  -1.283   1.188  0.00  0.00     0.002 A 
ENDROOT
BRANCH   1   7
ATOM      7  C1  UNL d   1       1.374   0.314  -0.109  0.00  0.00     0.055 C 
ATOM      8  C   UNL d   1       1.608   1.615   0.646  0.00  0.00     0.019 C 
ENDBRANCH   1   7
TORSDOF 1
ENDMDL
