MODEL 1
REMARK minimizedAffinity -3.81789637
REMARK minimizedRMSD -1
REMARK  1 active torsions:
REMARK  status: ('A' for Active; 'I' for Inactive)
REMARK    1  A    between atoms: C1_2  and  C2_3 
ROOT
ATOM      1  C2  UNL d   1      -1.075  -0.524   0.151  0.00  0.00    -0.077 A 
ATOM      2  C3  UNL d   1      -1.311  -1.506   1.124  0.00  0.00     0.002 A 
ATOM      3  C4  UNL d   1      -2.431  -2.335   1.033  0.00  0.00     0.002 A 
ATOM      4  C5  UNL d   1      -3.321  -2.194  -0.030  0.00  0.00    -0.004 A 
ATOM      5  C6  UNL d   1      -3.096  -1.219  -1.001  0.00  0.00     0.002 A 
ATOM      6  C7  UNL d   1      -1.978  -0.388  -0.912  0.00  0.00     0.002 A 
ENDROOT
BRANCH   1   7
ATOM      7  C1  UNL d   1       0.158   0.338   0.220  0.00  0.00     0.055 C 
ATOM      8  C   UNL d   1       1.422  -0.487   0.031  0.00  0.00     0.019 C 
ENDBRANCH   1   7
TORSDOF 1
ENDMDL
