MODEL 1
REMARK minimizedAffinity -0.719260454
REMARK minimizedRMSD -1
REMARK  1 active torsions:
REMARK  status: ('A' for Active; 'I' for Inactive)
REMARK    1  A    between atoms: C1_2  and  C2_3 
ROOT
ATOM      1  C2  UNL d   1       1.361   1.256   0.539  0.00  0.00    -0.077 A 
ATOM      2  C3  UNL d   1       1.036   1.855   1.763  0.00  0.00     0.002 A 
ATOM      3  C4  UNL d   1       1.720   2.993   2.197  0.00  0.00     0.002 A 
ATOM      4  C5  UNL d   1       2.730   3.543   1.410  0.00  0.00    -0.004 A 
ATOM      5  C6  UNL d   1       3.062   2.953   0.191  0.00  0.00     0.002 A 
ATOM      6  C7  UNL d   1       2.380   1.815  -0.243  0.00  0.00     0.002 A 
ENDROOT
BRANCH   1   7
ATOM      7  C1  UNL d   1       0.592   0.058   0.047  0.00  0.00     0.055 C 
ATOM      8  C   UNL d   1       0.313  -0.923   1.176  0.00  0.00     0.019 C 
ENDBRANCH   1   7
TORSDOF 1
ENDMDL
