MODEL 1
REMARK minimizedAffinity -3.72312379
REMARK minimizedRMSD -1
REMARK  1 active torsions:
REMARK  status: ('A' for Active; 'I' for Inactive)
REMARK    1  A    between atoms: C1_2  and  C2_3 
ROOT
ATOM      1  C2  UNL d   1      -1.733  -2.169  -0.039  0.00  0.00    -0.077 A 
ATOM      2  C3  UNL d   1      -0.592  -1.769   0.670  0.00  0.00     0.002 A 
ATOM      3  C4  UNL d   1       0.141  -0.654   0.258  0.00  0.00     0.002 A 
ATOM      4  C5  UNL d   1      -0.263   0.073  -0.860  0.00  0.00    -0.004 A 
ATOM      5  C6  UNL d   1      -1.395  -0.318  -1.573  0.00  0.00     0.002 A 
ATOM      6  C7  UNL d   1      -2.128  -1.433  -1.164  0.00  0.00     0.002 A 
ENDROOT
BRANCH   1   7
ATOM      7  C1  UNL d   1      -2.553  -3.342   0.431  0.00  0.00     0.055 C 
ATOM      8  C   UNL d   1      -1.771  -4.643   0.322  0.00  0.00     0.019 C 
ENDBRANCH   1   7
TORSDOF 1
ENDMDL
