MODEL 1
REMARK minimizedAffinity -6.01548386
REMARK minimizedRMSD -1
REMARK  1 active torsions:
REMARK  status: ('A' for Active; 'I' for Inactive)
REMARK    1  A    between atoms: C1_2  and  C2_3 
ROOT
ATOM      1  C2  UNL d   1      -0.846  -0.186  -0.122  0.00  0.00    -0.077 A 
ATOM      2  C3  UNL d   1      -1.606   0.332  -1.180  0.00  0.00     0.002 A 
ATOM      3  C4  UNL d   1      -2.850  -0.220  -1.493  0.00  0.00     0.002 A 
ATOM      4  C5  UNL d   1      -3.346  -1.289  -0.750  0.00  0.00    -0.004 A 
ATOM      5  C6  UNL d   1      -2.597  -1.813   0.303  0.00  0.00     0.002 A 
ATOM      6  C7  UNL d   1      -1.352  -1.263   0.616  0.00  0.00     0.002 A 
ENDROOT
BRANCH   1   7
ATOM      7  C1  UNL d   1       0.474   0.439   0.248  0.00  0.00     0.055 C 
ATOM      8  C   UNL d   1       1.543  -0.619   0.479  0.00  0.00     0.019 C 
ENDBRANCH   1   7
TORSDOF 1
ENDMDL
