MODEL 1
REMARK minimizedAffinity -4.22622204
REMARK minimizedRMSD -1
REMARK  1 active torsions:
REMARK  status: ('A' for Active; 'I' for Inactive)
REMARK    1  A    between atoms: C1_2  and  C2_3 
ROOT
ATOM      1  C2  UNL d   1      -1.142  -0.948  -0.632  0.00  0.00    -0.077 A 
ATOM      2  C3  UNL d   1      -2.186  -1.338  -1.483  0.00  0.00     0.002 A 
ATOM      3  C4  UNL d   1      -3.347  -1.910  -0.960  0.00  0.00     0.002 A 
ATOM      4  C5  UNL d   1      -3.477  -2.093   0.415  0.00  0.00    -0.004 A 
ATOM      5  C6  UNL d   1      -2.444  -1.710   1.270  0.00  0.00     0.002 A 
ATOM      6  C7  UNL d   1      -1.282  -1.139   0.749  0.00  0.00     0.002 A 
ENDROOT
BRANCH   1   7
ATOM      7  C1  UNL d   1       0.090  -0.285  -1.189  0.00  0.00     0.055 C 
ATOM      8  C   UNL d   1       0.909   0.376  -0.090  0.00  0.00     0.019 C 
ENDBRANCH   1   7
TORSDOF 1
ENDMDL
