MODEL 1
REMARK minimizedAffinity -3.12140822
REMARK minimizedRMSD -1
REMARK  1 active torsions:
REMARK  status: ('A' for Active; 'I' for Inactive)
REMARK    1  A    between atoms: C1_2  and  C2_3 
ROOT
ATOM      1  C2  UNL d   1      -1.837  -1.096  -0.153  0.00  0.00    -0.077 A 
ATOM      2  C3  UNL d   1      -1.095  -1.768   0.828  0.00  0.00     0.002 A 
ATOM      3  C4  UNL d   1       0.163  -1.296   1.208  0.00  0.00     0.002 A 
ATOM      4  C5  UNL d   1       0.687  -0.149   0.616  0.00  0.00    -0.004 A 
ATOM      5  C6  UNL d   1      -0.043   0.525  -0.362  0.00  0.00     0.002 A 
ATOM      6  C7  UNL d   1      -1.300   0.054  -0.744  0.00  0.00     0.002 A 
ENDROOT
BRANCH   1   7
ATOM      7  C1  UNL d   1      -3.215  -1.575  -0.529  0.00  0.00     0.055 C 
ATOM      8  C   UNL d   1      -3.149  -2.809  -1.417  0.00  0.00     0.019 C 
ENDBRANCH   1   7
TORSDOF 1
ENDMDL
