MODEL 1
REMARK minimizedAffinity -0.796092868
REMARK minimizedRMSD -1
REMARK  0 active torsions:
REMARK  status: ('A' for Active; 'I' for Inactive)
ROOT
ATOM      1  C   UNL d   1       1.208  -0.930   2.658  0.00  0.00     0.124 A 
ATOM      2  C1  UNL d   1      -0.090  -1.170   2.229  0.00  0.00     0.062 A 
ATOM      3  C2  UNL d   1      -0.594  -0.503   1.116  0.00  0.00     0.162 A 
ATOM      4  C3  UNL d   1       0.202   0.409   0.423  0.00  0.00    -0.034 A 
ATOM      5  C4  UNL d   1       1.506   0.645   0.860  0.00  0.00     0.162 A 
ATOM      6  C5  UNL d   1       2.005  -0.023   1.974  0.00  0.00     0.062 A 
ATOM      7  F   UNL d   1       3.259   0.209   2.386  0.00  0.00    -0.097 F 
ATOM      8  F1  UNL d   1       2.298   1.516   0.217  0.00  0.00    -0.096 F 
ATOM      9  I   UNL d   1      -0.548   1.408  -1.242  0.00  0.00    -0.060 I 
ATOM     10  F2  UNL d   1      -1.852  -0.754   0.724  0.00  0.00    -0.096 F 
ATOM     11  F3  UNL d   1      -0.862  -2.045   2.889  0.00  0.00    -0.097 F 
ATOM     12  F4  UNL d   1       1.690  -1.572   3.730  0.00  0.00    -0.092 F 
ENDROOT
TORSDOF 0
ENDMDL
