MODEL 1
REMARK minimizedAffinity -3.41315842
REMARK minimizedRMSD -1
REMARK  0 active torsions:
REMARK  status: ('A' for Active; 'I' for Inactive)
ROOT
ATOM      1  C   UNL d   1      -1.398  -0.615   1.284  0.00  0.00     0.124 A 
ATOM      2  C1  UNL d   1      -1.009  -0.753  -0.041  0.00  0.00     0.062 A 
ATOM      3  C2  UNL d   1       0.289  -1.149  -0.352  0.00  0.00     0.162 A 
ATOM      4  C3  UNL d   1       1.207  -1.411   0.665  0.00  0.00    -0.034 A 
ATOM      5  C4  UNL d   1       0.809  -1.269   1.995  0.00  0.00     0.162 A 
ATOM      6  C5  UNL d   1      -0.490  -0.874   2.301  0.00  0.00     0.062 A 
ATOM      7  F   UNL d   1      -0.864  -0.741   3.581  0.00  0.00    -0.097 F 
ATOM      8  F1  UNL d   1       1.666  -1.513   2.997  0.00  0.00    -0.096 F 
ATOM      9  I   UNL d   1       3.148  -2.003   0.204  0.00  0.00    -0.060 I 
ATOM     10  F2  UNL d   1       0.637  -1.273  -1.641  0.00  0.00    -0.096 F 
ATOM     11  F3  UNL d   1      -1.885  -0.503  -1.025  0.00  0.00    -0.097 F 
ATOM     12  F4  UNL d   1      -2.647  -0.233   1.580  0.00  0.00    -0.092 F 
ENDROOT
TORSDOF 0
ENDMDL
