MODEL 1
REMARK minimizedAffinity 1.70862412
REMARK minimizedRMSD -1
REMARK  0 active torsions:
REMARK  status: ('A' for Active; 'I' for Inactive)
ROOT
ATOM      1  C   UNL d   1       0.758  -4.468   2.957  0.00  0.00     0.124 A 
ATOM      2  C1  UNL d   1       1.640  -4.063   1.965  0.00  0.00     0.062 A 
ATOM      3  C2  UNL d   1       1.541  -2.787   1.418  0.00  0.00     0.162 A 
ATOM      4  C3  UNL d   1       0.556  -1.906   1.863  0.00  0.00    -0.034 A 
ATOM      5  C4  UNL d   1      -0.328  -2.320   2.861  0.00  0.00     0.162 A 
ATOM      6  C5  UNL d   1      -0.224  -3.596   3.404  0.00  0.00     0.062 A 
ATOM      7  F   UNL d   1      -1.077  -3.986   4.363  0.00  0.00    -0.097 F 
ATOM      8  F1  UNL d   1      -1.287  -1.498   3.312  0.00  0.00    -0.096 F 
ATOM      9  I   UNL d   1       0.404   0.003   1.048  0.00  0.00    -0.060 I 
ATOM     10  F2  UNL d   1       2.406  -2.423   0.460  0.00  0.00    -0.096 F 
ATOM     11  F3  UNL d   1       2.590  -4.904   1.530  0.00  0.00    -0.097 F 
ATOM     12  F4  UNL d   1       0.856  -5.697   3.481  0.00  0.00    -0.092 F 
ENDROOT
TORSDOF 0
ENDMDL
