MODEL 1
REMARK minimizedAffinity -1.47054076
REMARK minimizedRMSD -1
REMARK  0 active torsions:
REMARK  status: ('A' for Active; 'I' for Inactive)
ROOT
ATOM      1  C   UNL d   1       0.515  -0.257   0.463  0.00  0.00     0.124 A 
ATOM      2  C1  UNL d   1      -0.025  -0.763  -0.711  0.00  0.00     0.062 A 
ATOM      3  C2  UNL d   1      -1.384  -1.052  -0.789  0.00  0.00     0.162 A 
ATOM      4  C3  UNL d   1      -2.214  -0.835   0.311  0.00  0.00    -0.034 A 
ATOM      5  C4  UNL d   1      -1.664  -0.327   1.489  0.00  0.00     0.162 A 
ATOM      6  C5  UNL d   1      -0.305  -0.039   1.562  0.00  0.00     0.062 A 
ATOM      7  F   UNL d   1       0.215   0.450   2.697  0.00  0.00    -0.097 F 
ATOM      8  F1  UNL d   1      -2.433  -0.106   2.565  0.00  0.00    -0.096 F 
ATOM      9  I   UNL d   1      -4.247  -1.267   0.198  0.00  0.00    -0.060 I 
ATOM     10  F2  UNL d   1      -1.879  -1.541  -1.936  0.00  0.00    -0.096 F 
ATOM     11  F3  UNL d   1       0.765  -0.975  -1.774  0.00  0.00    -0.097 F 
ATOM     12  F4  UNL d   1       1.823   0.020   0.536  0.00  0.00    -0.092 F 
ENDROOT
TORSDOF 0
ENDMDL
