MODEL 1
REMARK minimizedAffinity 1.4404279
REMARK minimizedRMSD -1
REMARK  0 active torsions:
REMARK  status: ('A' for Active; 'I' for Inactive)
ROOT
ATOM      1  C   UNL d   1       1.580  -0.528   1.530  0.00  0.00     0.124 A 
ATOM      2  C1  UNL d   1       1.016   0.045   0.399  0.00  0.00     0.062 A 
ATOM      3  C2  UNL d   1      -0.347  -0.088   0.152  0.00  0.00     0.162 A 
ATOM      4  C3  UNL d   1      -1.157  -0.797   1.040  0.00  0.00    -0.034 A 
ATOM      5  C4  UNL d   1      -0.582  -1.372   2.175  0.00  0.00     0.162 A 
ATOM      6  C5  UNL d   1       0.781  -1.236   2.417  0.00  0.00     0.062 A 
ATOM      7  F   UNL d   1       1.324  -1.790   3.511  0.00  0.00    -0.097 F 
ATOM      8  F1  UNL d   1      -1.332  -2.060   3.049  0.00  0.00    -0.096 F 
ATOM      9  I   UNL d   1      -3.196  -0.999   0.674  0.00  0.00    -0.060 I 
ATOM     10  F2  UNL d   1      -0.865   0.476  -0.949  0.00  0.00    -0.096 F 
ATOM     11  F3  UNL d   1       1.787   0.728  -0.460  0.00  0.00    -0.097 F 
ATOM     12  F4  UNL d   1       2.892  -0.399   1.765  0.00  0.00    -0.092 F 
ENDROOT
TORSDOF 0
ENDMDL
