MODEL 1
REMARK minimizedAffinity 0.642450988
REMARK minimizedRMSD -1
REMARK  0 active torsions:
REMARK  status: ('A' for Active; 'I' for Inactive)
ROOT
ATOM      1  C   UNL d   1       1.287  -0.722   2.028  0.00  0.00     0.124 A 
ATOM      2  C1  UNL d   1       1.634  -0.731   0.684  0.00  0.00     0.062 A 
ATOM      3  C2  UNL d   1       0.658  -0.551  -0.292  0.00  0.00     0.162 A 
ATOM      4  C3  UNL d   1      -0.675  -0.359   0.072  0.00  0.00    -0.034 A 
ATOM      5  C4  UNL d   1      -1.016  -0.352   1.426  0.00  0.00     0.162 A 
ATOM      6  C5  UNL d   1      -0.037  -0.532   2.398  0.00  0.00     0.062 A 
ATOM      7  F   UNL d   1      -0.373  -0.523   3.696  0.00  0.00    -0.097 F 
ATOM      8  F1  UNL d   1      -2.287  -0.169   1.812  0.00  0.00    -0.096 F 
ATOM      9  I   UNL d   1      -2.137  -0.089  -1.384  0.00  0.00    -0.060 I 
ATOM     10  F2  UNL d   1       1.021  -0.565  -1.583  0.00  0.00    -0.096 F 
ATOM     11  F3  UNL d   1       2.912  -0.915   0.323  0.00  0.00    -0.097 F 
ATOM     12  F4  UNL d   1       2.228  -0.897   2.964  0.00  0.00    -0.092 F 
ENDROOT
TORSDOF 0
ENDMDL
