MODEL 1
REMARK minimizedAffinity 0.366282046
REMARK minimizedRMSD -1
REMARK  0 active torsions:
REMARK  status: ('A' for Active; 'I' for Inactive)
ROOT
ATOM      1  C   UNL d   1      -2.481   3.430  -2.714  0.00  0.00     0.124 A 
ATOM      2  C1  UNL d   1      -1.100   3.533  -2.628  0.00  0.00     0.062 A 
ATOM      3  C2  UNL d   1      -0.353   2.495  -2.078  0.00  0.00     0.162 A 
ATOM      4  C3  UNL d   1      -0.987   1.343  -1.610  0.00  0.00    -0.034 A 
ATOM      5  C4  UNL d   1      -2.377   1.247  -1.699  0.00  0.00     0.162 A 
ATOM      6  C5  UNL d   1      -3.118   2.287  -2.250  0.00  0.00     0.062 A 
ATOM      7  F   UNL d   1      -4.453   2.186  -2.332  0.00  0.00    -0.097 F 
ATOM      8  F1  UNL d   1      -3.018   0.154  -1.259  0.00  0.00    -0.096 F 
ATOM      9  I   UNL d   1       0.126  -0.211  -0.787  0.00  0.00    -0.060 I 
ATOM     10  F2  UNL d   1       0.980   2.621  -2.007  0.00  0.00    -0.096 F 
ATOM     11  F3  UNL d   1      -0.482   4.636  -3.075  0.00  0.00    -0.097 F 
ATOM     12  F4  UNL d   1      -3.197   4.430  -3.243  0.00  0.00    -0.092 F 
ENDROOT
TORSDOF 0
ENDMDL
