MODEL 1
REMARK minimizedAffinity 3.54461598
REMARK minimizedRMSD -1
REMARK  0 active torsions:
REMARK  status: ('A' for Active; 'I' for Inactive)
ROOT
ATOM      1  C   UNL d   1       0.724  -1.346   1.517  0.00  0.00     0.124 A 
ATOM      2  C1  UNL d   1       1.218  -1.225   0.225  0.00  0.00     0.062 A 
ATOM      3  C2  UNL d   1       0.614  -0.354  -0.676  0.00  0.00     0.162 A 
ATOM      4  C3  UNL d   1      -0.492   0.404  -0.289  0.00  0.00    -0.034 A 
ATOM      5  C4  UNL d   1      -0.983   0.276   1.011  0.00  0.00     0.162 A 
ATOM      6  C5  UNL d   1      -0.376  -0.596   1.908  0.00  0.00     0.062 A 
ATOM      7  F   UNL d   1      -0.854  -0.713   3.156  0.00  0.00    -0.097 F 
ATOM      8  F1  UNL d   1      -2.045   0.989   1.416  0.00  0.00    -0.096 F 
ATOM      9  I   UNL d   1      -1.399   1.707  -1.635  0.00  0.00    -0.060 I 
ATOM     10  F2  UNL d   1       1.112  -0.257  -1.918  0.00  0.00    -0.096 F 
ATOM     11  F3  UNL d   1       2.280  -1.949  -0.155  0.00  0.00    -0.097 F 
ATOM     12  F4  UNL d   1       1.307  -2.186   2.382  0.00  0.00    -0.092 F 
ENDROOT
TORSDOF 0
ENDMDL
