MODEL 1
REMARK minimizedAffinity -4.48459244
REMARK minimizedRMSD -1
REMARK  1 active torsions:
REMARK  status: ('A' for Active; 'I' for Inactive)
REMARK    1  A    between atoms: C1_2  and  C2_3 
ROOT
ATOM      1  C2  UNL d   1      -0.028  -0.026  -0.033  0.00  0.00    -0.077 A 
ATOM      2  C3  UNL d   1       0.822   0.192   1.061  0.00  0.00     0.002 A 
ATOM      3  C4  UNL d   1       1.933  -0.628   1.267  0.00  0.00     0.002 A 
ATOM      4  C5  UNL d   1       2.207  -1.668   0.381  0.00  0.00    -0.004 A 
ATOM      5  C6  UNL d   1       1.367  -1.895  -0.709  0.00  0.00     0.002 A 
ATOM      6  C7  UNL d   1       0.255  -1.077  -0.915  0.00  0.00     0.002 A 
ENDROOT
BRANCH   1   7
ATOM      7  C1  UNL d   1      -1.199   0.888  -0.284  0.00  0.00     0.055 C 
ATOM      8  C   UNL d   1      -2.394   0.505   0.576  0.00  0.00     0.019 C 
ENDBRANCH   1   7
TORSDOF 1
ENDMDL
