MODEL 1
REMARK minimizedAffinity -5.91292
REMARK minimizedRMSD -1
REMARK  1 active torsions:
REMARK  status: ('A' for Active; 'I' for Inactive)
REMARK    1  A    between atoms: C1_2  and  C2_3 
ROOT
ATOM      1  C2  UNL d   1       0.825   0.470   0.021  0.00  0.00    -0.077 A 
ATOM      2  C3  UNL d   1       1.906   1.061   0.691  0.00  0.00     0.002 A 
ATOM      3  C4  UNL d   1       3.016   0.296   1.053  0.00  0.00     0.002 A 
ATOM      4  C5  UNL d   1       3.058  -1.063   0.746  0.00  0.00    -0.004 A 
ATOM      5  C6  UNL d   1       1.988  -1.660   0.081  0.00  0.00     0.002 A 
ATOM      6  C7  UNL d   1       0.877  -0.897  -0.280  0.00  0.00     0.002 A 
ENDROOT
BRANCH   1   7
ATOM      7  C1  UNL d   1      -0.351   1.304  -0.413  0.00  0.00     0.055 C 
ATOM      8  C   UNL d   1      -1.668   0.650  -0.023  0.00  0.00     0.019 C 
ENDBRANCH   1   7
TORSDOF 1
ENDMDL
