MODEL 1
REMARK minimizedAffinity -3.09733438
REMARK minimizedRMSD -1
REMARK  1 active torsions:
REMARK  status: ('A' for Active; 'I' for Inactive)
REMARK    1  A    between atoms: C1_2  and  C2_3 
ROOT
ATOM      1  C2  UNL d   1       0.444   0.753   0.143  0.00  0.00    -0.077 A 
ATOM      2  C3  UNL d   1       0.509  -0.501  -0.482  0.00  0.00     0.002 A 
ATOM      3  C4  UNL d   1      -0.661  -1.190  -0.806  0.00  0.00     0.002 A 
ATOM      4  C5  UNL d   1      -1.904  -0.633  -0.512  0.00  0.00    -0.004 A 
ATOM      5  C6  UNL d   1      -1.979   0.612   0.111  0.00  0.00     0.002 A 
ATOM      6  C7  UNL d   1      -0.811   1.302   0.437  0.00  0.00     0.002 A 
ENDROOT
BRANCH   1   7
ATOM      7  C1  UNL d   1       1.703   1.520   0.449  0.00  0.00     0.055 C 
ATOM      8  C   UNL d   1       2.935   0.636   0.321  0.00  0.00     0.019 C 
ENDBRANCH   1   7
TORSDOF 1
ENDMDL
