MODEL 1
REMARK minimizedAffinity -4.01849318
REMARK minimizedRMSD -1
REMARK  1 active torsions:
REMARK  status: ('A' for Active; 'I' for Inactive)
REMARK    1  A    between atoms: C1_2  and  C2_3 
ROOT
ATOM      1  C2  UNL d   1       0.475  -0.003   0.277  0.00  0.00    -0.077 A 
ATOM      2  C3  UNL d   1       1.046   0.102   1.553  0.00  0.00     0.002 A 
ATOM      3  C4  UNL d   1       2.234  -0.567   1.852  0.00  0.00     0.002 A 
ATOM      4  C5  UNL d   1       2.863  -1.342   0.880  0.00  0.00    -0.004 A 
ATOM      5  C6  UNL d   1       2.301  -1.454  -0.392  0.00  0.00     0.002 A 
ATOM      6  C7  UNL d   1       1.113  -0.787  -0.692  0.00  0.00     0.002 A 
ENDROOT
BRANCH   1   7
ATOM      7  C1  UNL d   1      -0.780   0.758  -0.063  0.00  0.00     0.055 C 
ATOM      8  C   UNL d   1      -1.931  -0.186  -0.381  0.00  0.00     0.019 C 
ENDBRANCH   1   7
TORSDOF 1
ENDMDL
