MODEL 1
REMARK minimizedAffinity -4.73013926
REMARK minimizedRMSD -1
REMARK  1 active torsions:
REMARK  status: ('A' for Active; 'I' for Inactive)
REMARK    1  A    between atoms: C1_2  and  C2_3 
ROOT
ATOM      1  C2  UNL d   1      -1.299   0.280  -0.029  0.00  0.00    -0.077 A 
ATOM      2  C3  UNL d   1      -0.917  -1.049  -0.261  0.00  0.00     0.002 A 
ATOM      3  C4  UNL d   1       0.423  -1.426  -0.160  0.00  0.00     0.002 A 
ATOM      4  C5  UNL d   1       1.391  -0.482   0.177  0.00  0.00    -0.004 A 
ATOM      5  C6  UNL d   1       1.021   0.842   0.408  0.00  0.00     0.002 A 
ATOM      6  C7  UNL d   1      -0.318   1.221   0.306  0.00  0.00     0.002 A 
ENDROOT
BRANCH   1   7
ATOM      7  C1  UNL d   1      -2.751   0.678  -0.089  0.00  0.00     0.055 C 
ATOM      8  C   UNL d   1      -3.264   1.108   1.277  0.00  0.00     0.019 C 
ENDBRANCH   1   7
TORSDOF 1
ENDMDL
