MODEL 1
REMARK minimizedAffinity -3.24268031
REMARK minimizedRMSD -1
REMARK  1 active torsions:
REMARK  status: ('A' for Active; 'I' for Inactive)
REMARK    1  A    between atoms: C1_2  and  C2_3 
ROOT
ATOM      1  C2  UNL d   1       1.609   0.858  -0.371  0.00  0.00    -0.077 A 
ATOM      2  C3  UNL d   1       2.031  -0.471  -0.519  0.00  0.00     0.002 A 
ATOM      3  C4  UNL d   1       1.101  -1.486  -0.745  0.00  0.00     0.002 A 
ATOM      4  C5  UNL d   1      -0.257  -1.184  -0.830  0.00  0.00    -0.004 A 
ATOM      5  C6  UNL d   1      -0.687   0.134  -0.682  0.00  0.00     0.002 A 
ATOM      6  C7  UNL d   1       0.242   1.151  -0.454  0.00  0.00     0.002 A 
ENDROOT
BRANCH   1   7
ATOM      7  C1  UNL d   1       2.616   1.962  -0.176  0.00  0.00     0.055 C 
ATOM      8  C   UNL d   1       4.038   1.453  -0.359  0.00  0.00     0.019 C 
ENDBRANCH   1   7
TORSDOF 1
ENDMDL
