MODEL 1
REMARK minimizedAffinity -5.17118168
REMARK minimizedRMSD -1
REMARK  1 active torsions:
REMARK  status: ('A' for Active; 'I' for Inactive)
REMARK    1  A    between atoms: C1_2  and  C2_3 
ROOT
ATOM      1  C2  UNL d   1       1.089  -0.058   0.213  0.00  0.00    -0.077 A 
ATOM      2  C3  UNL d   1       1.400   1.306   0.289  0.00  0.00     0.002 A 
ATOM      3  C4  UNL d   1       2.719   1.720   0.486  0.00  0.00     0.002 A 
ATOM      4  C5  UNL d   1       3.737   0.776   0.604  0.00  0.00    -0.004 A 
ATOM      5  C6  UNL d   1       3.437  -0.584   0.532  0.00  0.00     0.002 A 
ATOM      6  C7  UNL d   1       2.119  -0.999   0.336  0.00  0.00     0.002 A 
ENDROOT
BRANCH   1   7
ATOM      7  C1  UNL d   1      -0.326  -0.505  -0.049  0.00  0.00     0.055 C 
ATOM      8  C   UNL d   1      -1.222   0.673  -0.404  0.00  0.00     0.019 C 
ENDBRANCH   1   7
TORSDOF 1
ENDMDL
