MODEL 1
REMARK minimizedAffinity 8.06741047
REMARK minimizedRMSD -1
REMARK  0 active torsions:
REMARK  status: ('A' for Active; 'I' for Inactive)
ROOT
ATOM      1  O1  BZF d   1       3.410  -2.397   5.768  0.00  0.00    -0.204 OA
ATOM      2  C2  BZF d   1       4.494  -1.542   5.739  0.00  0.00     0.174 A 
ATOM      3  C3  BZF d   1       5.649  -2.231   5.845  0.00  0.00    -0.012 A 
ATOM      4  C3A BZF d   1       5.266  -3.609   5.854  0.00  0.00    -0.107 A 
ATOM      5  C4  BZF d   1       5.968  -4.778   5.925  0.00  0.00     0.055 A 
ATOM      6  C5  BZF d   1       5.289  -5.954   5.986  0.00  0.00    -0.016 A 
ATOM      7  C6  BZF d   1       3.910  -5.997   5.984  0.00  0.00     0.022 A 
ATOM      8  C7  BZF d   1       3.170  -4.864   5.909  0.00  0.00     0.029 A 
ATOM      9  C7A BZF d   1       3.854  -3.676   5.814  0.00  0.00     0.058 A 
ENDROOT
TORSDOF 0
ENDMDL
