MODEL 1
REMARK minimizedAffinity 8.12630653
REMARK minimizedRMSD -1
REMARK  0 active torsions:
REMARK  status: ('A' for Active; 'I' for Inactive)
ROOT
ATOM      1  O1  BZF d   1      -4.408   2.458  -4.242  0.00  0.00    -0.204 OA
ATOM      2  C2  BZF d   1      -3.599   3.296  -3.499  0.00  0.00     0.174 A 
ATOM      3  C3  BZF d   1      -3.056   2.636  -2.456  0.00  0.00    -0.012 A 
ATOM      4  C3A BZF d   1      -3.484   1.279  -2.605  0.00  0.00    -0.107 A 
ATOM      5  C4  BZF d   1      -3.258   0.139  -1.888  0.00  0.00     0.055 A 
ATOM      6  C5  BZF d   1      -3.882  -1.009  -2.260  0.00  0.00    -0.016 A 
ATOM      7  C6  BZF d   1      -4.741  -1.053  -3.338  0.00  0.00     0.022 A 
ATOM      8  C7  BZF d   1      -4.993   0.051  -4.083  0.00  0.00     0.029 A 
ATOM      9  C7A BZF d   1      -4.338   1.206  -3.730  0.00  0.00     0.058 A 
ENDROOT
TORSDOF 0
ENDMDL
