MODEL 1
REMARK minimizedAffinity 6.59305429
REMARK minimizedRMSD -1
REMARK  0 active torsions:
REMARK  status: ('A' for Active; 'I' for Inactive)
ROOT
ATOM      1  O1  BZF d   1       2.260  -3.390  -0.068  0.00  0.00    -0.204 OA
ATOM      2  C2  BZF d   1       3.386  -4.100   0.299  0.00  0.00     0.174 A 
ATOM      3  C3  BZF d   1       3.838  -3.692   1.503  0.00  0.00    -0.012 A 
ATOM      4  C3A BZF d   1       2.884  -2.726   1.954  0.00  0.00    -0.107 A 
ATOM      5  C4  BZF d   1       2.775  -1.974   3.089  0.00  0.00     0.055 A 
ATOM      6  C5  BZF d   1       1.764  -1.071   3.189  0.00  0.00    -0.016 A 
ATOM      7  C6  BZF d   1       0.849  -0.891   2.173  0.00  0.00     0.022 A 
ATOM      8  C7  BZF d   1       0.913  -1.617   1.030  0.00  0.00     0.029 A 
ATOM      9  C7A BZF d   1       1.914  -2.554   0.940  0.00  0.00     0.058 A 
ENDROOT
TORSDOF 0
ENDMDL
