MODEL 1
REMARK minimizedAffinity 7.09266901
REMARK minimizedRMSD -1
REMARK  0 active torsions:
REMARK  status: ('A' for Active; 'I' for Inactive)
ROOT
ATOM      1  O1  BZF d   1      -1.932   1.314   2.263  0.00  0.00    -0.204 OA
ATOM      2  C2  BZF d   1      -1.433   0.140   2.796  0.00  0.00     0.174 A 
ATOM      3  C3  BZF d   1      -0.097   0.218   2.957  0.00  0.00    -0.012 A 
ATOM      4  C3A BZF d   1       0.250   1.555   2.583  0.00  0.00    -0.107 A 
ATOM      5  C4  BZF d   1       1.429   2.244   2.545  0.00  0.00     0.055 A 
ATOM      6  C5  BZF d   1       1.437   3.513   2.061  0.00  0.00    -0.016 A 
ATOM      7  C6  BZF d   1       0.288   4.123   1.602  0.00  0.00     0.022 A 
ATOM      8  C7  BZF d   1      -0.906   3.482   1.625  0.00  0.00     0.029 A 
ATOM      9  C7A BZF d   1      -0.923   2.210   2.144  0.00  0.00     0.058 A 
ENDROOT
TORSDOF 0
ENDMDL
