MODEL 1
REMARK minimizedAffinity 11.441206
REMARK minimizedRMSD -1
REMARK  0 active torsions:
REMARK  status: ('A' for Active; 'I' for Inactive)
ROOT
ATOM      1  O1  BZF d   1       4.284   3.721  -5.582  0.00  0.00    -0.204 OA
ATOM      2  C2  BZF d   1       5.030   4.871  -5.756  0.00  0.00     0.174 A 
ATOM      3  C3  BZF d   1       4.230   5.929  -5.999  0.00  0.00    -0.012 A 
ATOM      4  C3A BZF d   1       2.895   5.425  -5.883  0.00  0.00    -0.107 A 
ATOM      5  C4  BZF d   1       1.662   6.000  -5.999  0.00  0.00     0.055 A 
ATOM      6  C5  BZF d   1       0.556   5.216  -5.901  0.00  0.00    -0.016 A 
ATOM      7  C6  BZF d   1       0.647   3.855  -5.692  0.00  0.00     0.022 A 
ATOM      8  C7  BZF d   1       1.849   3.241  -5.565  0.00  0.00     0.029 A 
ATOM      9  C7A BZF d   1       2.967   4.036  -5.631  0.00  0.00     0.058 A 
ENDROOT
TORSDOF 0
ENDMDL
