MODEL 1
REMARK minimizedAffinity 12.7915106
REMARK minimizedRMSD -1
REMARK  0 active torsions:
REMARK  status: ('A' for Active; 'I' for Inactive)
ROOT
ATOM      1  O1  BZF d   1      -2.097   3.000  -2.648  0.00  0.00    -0.204 OA
ATOM      2  C2  BZF d   1      -3.370   2.630  -3.038  0.00  0.00     0.174 A 
ATOM      3  C3  BZF d   1      -3.376   2.218  -4.322  0.00  0.00    -0.012 A 
ATOM      4  C3A BZF d   1      -2.006   2.250  -4.734  0.00  0.00    -0.107 A 
ATOM      5  C4  BZF d   1      -1.369   1.937  -5.901  0.00  0.00     0.055 A 
ATOM      6  C5  BZF d   1      -0.030   2.150  -6.000  0.00  0.00    -0.016 A 
ATOM      7  C6  BZF d   1       0.700   2.678  -4.956  0.00  0.00     0.022 A 
ATOM      8  C7  BZF d   1       0.113   3.000  -3.777  0.00  0.00     0.029 A 
ATOM      9  C7A BZF d   1      -1.234   2.755  -3.663  0.00  0.00     0.058 A 
ENDROOT
TORSDOF 0
ENDMDL
