MODEL 1
REMARK minimizedAffinity 2.92790079
REMARK minimizedRMSD -1
REMARK  0 active torsions:
REMARK  status: ('A' for Active; 'I' for Inactive)
ROOT
ATOM      1  O1  BZF d   1       3.529  -2.016   4.500  0.00  0.00    -0.204 OA
ATOM      2  C2  BZF d   1       4.531  -2.961   4.603  0.00  0.00     0.174 A 
ATOM      3  C3  BZF d   1       4.511  -3.796   3.544  0.00  0.00    -0.012 A 
ATOM      4  C3A BZF d   1       3.488  -3.287   2.683  0.00  0.00    -0.107 A 
ATOM      5  C4  BZF d   1       3.005  -3.677   1.466  0.00  0.00     0.055 A 
ATOM      6  C5  BZF d   1       1.952  -3.009   0.929  0.00  0.00    -0.016 A 
ATOM      7  C6  BZF d   1       1.354  -1.951   1.581  0.00  0.00     0.022 A 
ATOM      8  C7  BZF d   1       1.801  -1.524   2.788  0.00  0.00     0.029 A 
ATOM      9  C7A BZF d   1       2.887  -2.177   3.318  0.00  0.00     0.058 A 
ENDROOT
TORSDOF 0
ENDMDL
