MODEL 1
REMARK minimizedAffinity 3.67685485
REMARK minimizedRMSD -1
REMARK  0 active torsions:
REMARK  status: ('A' for Active; 'I' for Inactive)
ROOT
ATOM      1  O1  BZF d   1       4.855  -4.159   4.726  0.00  0.00    -0.204 OA
ATOM      2  C2  BZF d   1       4.983  -2.855   5.166  0.00  0.00     0.174 A 
ATOM      3  C3  BZF d   1       4.717  -1.986   4.170  0.00  0.00    -0.012 A 
ATOM      4  C3A BZF d   1       4.313  -2.796   3.061  0.00  0.00    -0.107 A 
ATOM      5  C4  BZF d   1       3.907  -2.511   1.789  0.00  0.00     0.055 A 
ATOM      6  C5  BZF d   1       3.654  -3.534   0.932  0.00  0.00    -0.016 A 
ATOM      7  C6  BZF d   1       3.801  -4.853   1.311  0.00  0.00     0.022 A 
ATOM      8  C7  BZF d   1       4.196  -5.185   2.564  0.00  0.00     0.029 A 
ATOM      9  C7A BZF d   1       4.421  -4.153   3.443  0.00  0.00     0.058 A 
ENDROOT
TORSDOF 0
ENDMDL
