MODEL 1
REMARK minimizedAffinity 8.39328671
REMARK minimizedRMSD -1
REMARK  0 active torsions:
REMARK  status: ('A' for Active; 'I' for Inactive)
ROOT
ATOM      1  O1  BZF d   1      -2.759   1.777  -5.004  0.00  0.00    -0.204 OA
ATOM      2  C2  BZF d   1      -1.805   2.608  -4.448  0.00  0.00     0.174 A 
ATOM      3  C3  BZF d   1      -2.249   3.880  -4.401  0.00  0.00    -0.012 A 
ATOM      4  C3A BZF d   1      -3.598   3.827  -4.876  0.00  0.00    -0.107 A 
ATOM      5  C4  BZF d   1      -4.571   4.770  -5.048  0.00  0.00     0.055 A 
ATOM      6  C5  BZF d   1      -5.756   4.402  -5.602  0.00  0.00    -0.016 A 
ATOM      7  C6  BZF d   1      -6.000   3.104  -5.999  0.00  0.00     0.022 A 
ATOM      8  C7  BZF d   1      -5.067   2.133  -5.844  0.00  0.00     0.029 A 
ATOM      9  C7A BZF d   1      -3.880   2.494  -5.255  0.00  0.00     0.058 A 
ENDROOT
TORSDOF 0
ENDMDL
