MODEL 1
REMARK minimizedAffinity 6.26236629
REMARK minimizedRMSD -1
REMARK  0 active torsions:
REMARK  status: ('A' for Active; 'I' for Inactive)
ROOT
ATOM      1  O1  BZF d   1       1.670  -2.056   2.178  0.00  0.00    -0.204 OA
ATOM      2  C2  BZF d   1       1.152  -1.653   0.962  0.00  0.00     0.174 A 
ATOM      3  C3  BZF d   1       1.975  -2.004  -0.048  0.00  0.00    -0.012 A 
ATOM      4  C3A BZF d   1       3.030  -2.749   0.567  0.00  0.00    -0.107 A 
ATOM      5  C4  BZF d   1       4.142  -3.376   0.084  0.00  0.00     0.055 A 
ATOM      6  C5  BZF d   1       5.010  -3.950   0.958  0.00  0.00    -0.016 A 
ATOM      7  C6  BZF d   1       4.799  -3.912   2.321  0.00  0.00     0.022 A 
ATOM      8  C7  BZF d   1       3.707  -3.305   2.848  0.00  0.00     0.029 A 
ATOM      9  C7A BZF d   1       2.812  -2.753   1.965  0.00  0.00     0.058 A 
ENDROOT
TORSDOF 0
ENDMDL
