MODEL 1
REMARK minimizedAffinity 10.6600742
REMARK minimizedRMSD -1
REMARK  0 active torsions:
REMARK  status: ('A' for Active; 'I' for Inactive)
ROOT
ATOM      1  O1  BZF d   1       0.206  -2.162   0.787  0.00  0.00    -0.204 OA
ATOM      2  C2  BZF d   1       0.315  -1.034   1.577  0.00  0.00     0.174 A 
ATOM      3  C3  BZF d   1       1.533  -0.970   2.154  0.00  0.00    -0.012 A 
ATOM      4  C3A BZF d   1       2.259  -2.083   1.623  0.00  0.00    -0.107 A 
ATOM      5  C4  BZF d   1       3.531  -2.545   1.804  0.00  0.00     0.055 A 
ATOM      6  C5  BZF d   1       3.907  -3.700   1.194  0.00  0.00    -0.016 A 
ATOM      7  C6  BZF d   1       3.036  -4.420   0.403  0.00  0.00     0.022 A 
ATOM      8  C7  BZF d   1       1.766  -3.998   0.190  0.00  0.00     0.029 A 
ATOM      9  C7A BZF d   1       1.394  -2.814   0.778  0.00  0.00     0.058 A 
ENDROOT
TORSDOF 0
ENDMDL
