MODEL 1
REMARK minimizedAffinity 11.0454884
REMARK minimizedRMSD -1
REMARK  0 active torsions:
REMARK  status: ('A' for Active; 'I' for Inactive)
ROOT
ATOM      1  O1  BZF d   1       3.541  -1.647   0.376  0.00  0.00    -0.204 OA
ATOM      2  C2  BZF d   1       2.214  -1.879   0.683  0.00  0.00     0.174 A 
ATOM      3  C3  BZF d   1       2.019  -3.170   1.019  0.00  0.00    -0.012 A 
ATOM      4  C3A BZF d   1       3.321  -3.764   1.005  0.00  0.00    -0.107 A 
ATOM      5  C4  BZF d   1       3.782  -5.022   1.269  0.00  0.00     0.055 A 
ATOM      6  C5  BZF d   1       5.102  -5.292   1.091  0.00  0.00    -0.016 A 
ATOM      7  C6  BZF d   1       5.987  -4.331   0.648  0.00  0.00     0.022 A 
ATOM      8  C7  BZF d   1       5.577  -3.067   0.378  0.00  0.00     0.029 A 
ATOM      9  C7A BZF d   1       4.250  -2.782   0.588  0.00  0.00     0.058 A 
ENDROOT
TORSDOF 0
ENDMDL
