MODEL 1
REMARK minimizedAffinity 1.04338741
REMARK minimizedRMSD -1
REMARK  0 active torsions:
REMARK  status: ('A' for Active; 'I' for Inactive)
ROOT
ATOM      1  C   UNL d   1       1.351  -0.563   0.341  0.00  0.00     0.078 C 
ATOM      2  C1  UNL d   1      -0.146  -0.600   0.407  0.00  0.00    -0.077 A 
ATOM      3  C2  UNL d   1      -0.836  -0.017   1.477  0.00  0.00    -0.001 A 
ATOM      4  C3  UNL d   1      -2.230  -0.068   1.530  0.00  0.00     0.003 A 
ATOM      5  C4  UNL d   1      -2.946  -0.702   0.517  0.00  0.00    -0.005 A 
ATOM      6  C5  UNL d   1      -2.268  -1.287  -0.551  0.00  0.00     0.003 A 
ATOM      7  C6  UNL d   1      -0.875  -1.237  -0.606  0.00  0.00    -0.001 A 
ENDROOT
TORSDOF 0
ENDMDL
