MODEL 1
REMARK minimizedAffinity -1.15546656
REMARK minimizedRMSD -1
REMARK  0 active torsions:
REMARK  status: ('A' for Active; 'I' for Inactive)
ROOT
ATOM      1  C   UNL d   1      -1.902  -0.010   1.504  0.00  0.00     0.078 C 
ATOM      2  C1  UNL d   1      -0.795  -0.527   2.373  0.00  0.00    -0.077 A 
ATOM      3  C2  UNL d   1      -1.044  -0.938   3.689  0.00  0.00    -0.001 A 
ATOM      4  C3  UNL d   1      -0.002  -1.408   4.490  0.00  0.00     0.003 A 
ATOM      5  C4  UNL d   1       1.295  -1.471   3.986  0.00  0.00    -0.005 A 
ATOM      6  C5  UNL d   1       1.553  -1.062   2.679  0.00  0.00     0.003 A 
ATOM      7  C6  UNL d   1       0.512  -0.592   1.876  0.00  0.00    -0.001 A 
ENDROOT
TORSDOF 0
ENDMDL
