MODEL 1
REMARK minimizedAffinity -3.35419083
REMARK minimizedRMSD -1
REMARK  0 active torsions:
REMARK  status: ('A' for Active; 'I' for Inactive)
ROOT
ATOM      1  C   UNL d   1       1.723  -1.410   4.161  0.00  0.00     0.078 C 
ATOM      2  C1  UNL d   1       0.846  -0.808   3.105  0.00  0.00    -0.077 A 
ATOM      3  C2  UNL d   1       1.266  -0.739   1.771  0.00  0.00    -0.001 A 
ATOM      4  C3  UNL d   1       0.443  -0.167   0.799  0.00  0.00     0.003 A 
ATOM      5  C4  UNL d   1      -0.805   0.342   1.152  0.00  0.00    -0.005 A 
ATOM      6  C5  UNL d   1      -1.231   0.280   2.477  0.00  0.00     0.003 A 
ATOM      7  C6  UNL d   1      -0.410  -0.292   3.449  0.00  0.00    -0.001 A 
ENDROOT
TORSDOF 0
ENDMDL
