MODEL 1
REMARK minimizedAffinity -1.30134213
REMARK minimizedRMSD -1
REMARK  0 active torsions:
REMARK  status: ('A' for Active; 'I' for Inactive)
ROOT
ATOM      1  C   UNL d   1       0.274  -1.385   4.176  0.00  0.00     0.078 C 
ATOM      2  C1  UNL d   1      -1.046  -1.152   3.505  0.00  0.00    -0.077 A 
ATOM      3  C2  UNL d   1      -1.249  -0.040   2.678  0.00  0.00    -0.001 A 
ATOM      4  C3  UNL d   1      -2.486   0.169   2.067  0.00  0.00     0.003 A 
ATOM      5  C4  UNL d   1      -3.531  -0.729   2.277  0.00  0.00    -0.005 A 
ATOM      6  C5  UNL d   1      -3.339  -1.837   3.100  0.00  0.00     0.003 A 
ATOM      7  C6  UNL d   1      -2.103  -2.048   3.712  0.00  0.00    -0.001 A 
ENDROOT
TORSDOF 0
ENDMDL
