MODEL 1
REMARK minimizedAffinity -0.770799339
REMARK minimizedRMSD -1
REMARK  0 active torsions:
REMARK  status: ('A' for Active; 'I' for Inactive)
ROOT
ATOM      1  C   UNL d   1      -4.679   0.638  -1.233  0.00  0.00     0.078 C 
ATOM      2  C1  UNL d   1      -3.433   0.350  -0.450  0.00  0.00    -0.077 A 
ATOM      3  C2  UNL d   1      -2.397  -0.415  -0.999  0.00  0.00    -0.001 A 
ATOM      4  C3  UNL d   1      -1.247  -0.684  -0.255  0.00  0.00     0.003 A 
ATOM      5  C4  UNL d   1      -1.122  -0.192   1.042  0.00  0.00    -0.005 A 
ATOM      6  C5  UNL d   1      -2.149   0.569   1.598  0.00  0.00     0.003 A 
ATOM      7  C6  UNL d   1      -3.300   0.838   0.856  0.00  0.00    -0.001 A 
ENDROOT
TORSDOF 0
ENDMDL
