MODEL 1
REMARK minimizedAffinity -2.97399592
REMARK minimizedRMSD -1
REMARK  0 active torsions:
REMARK  status: ('A' for Active; 'I' for Inactive)
ROOT
ATOM      1  C   UNL d   1       1.772  -1.444   4.109  0.00  0.00     0.078 C 
ATOM      2  C1  UNL d   1       0.275  -1.524   4.133  0.00  0.00    -0.077 A 
ATOM      3  C2  UNL d   1      -0.381  -2.586   4.767  0.00  0.00    -0.001 A 
ATOM      4  C3  UNL d   1      -1.775  -2.652   4.773  0.00  0.00     0.003 A 
ATOM      5  C4  UNL d   1      -2.525  -1.659   4.147  0.00  0.00    -0.005 A 
ATOM      6  C5  UNL d   1      -1.882  -0.599   3.512  0.00  0.00     0.003 A 
ATOM      7  C6  UNL d   1      -0.487  -0.531   3.504  0.00  0.00    -0.001 A 
ENDROOT
TORSDOF 0
ENDMDL
