MODEL 1
REMARK minimizedAffinity -0.180646122
REMARK minimizedRMSD -1
REMARK  0 active torsions:
REMARK  status: ('A' for Active; 'I' for Inactive)
ROOT
ATOM      1  C   UNL d   1      -2.294   0.491   1.900  0.00  0.00     0.078 C 
ATOM      2  C1  UNL d   1      -1.817  -0.469   2.948  0.00  0.00    -0.077 A 
ATOM      3  C2  UNL d   1      -0.482  -0.469   3.372  0.00  0.00    -0.001 A 
ATOM      4  C3  UNL d   1      -0.049  -1.375   4.341  0.00  0.00     0.003 A 
ATOM      5  C4  UNL d   1      -0.943  -2.290   4.893  0.00  0.00    -0.005 A 
ATOM      6  C5  UNL d   1      -2.273  -2.300   4.476  0.00  0.00     0.003 A 
ATOM      7  C6  UNL d   1      -2.708  -1.394   3.507  0.00  0.00    -0.001 A 
ENDROOT
TORSDOF 0
ENDMDL
