MODEL 1
REMARK minimizedAffinity 0.908820748
REMARK minimizedRMSD -1
REMARK  0 active torsions:
REMARK  status: ('A' for Active; 'I' for Inactive)
ROOT
ATOM      1  C   UNL d   1      -3.382   0.385  -0.888  0.00  0.00     0.078 C 
ATOM      2  C1  UNL d   1      -2.400   0.219   0.233  0.00  0.00    -0.077 A 
ATOM      3  C2  UNL d   1      -1.048  -0.038  -0.024  0.00  0.00    -0.001 A 
ATOM      4  C3  UNL d   1      -0.147  -0.199   1.030  0.00  0.00     0.003 A 
ATOM      5  C4  UNL d   1      -0.589  -0.106   2.348  0.00  0.00    -0.005 A 
ATOM      6  C5  UNL d   1      -1.933   0.148   2.614  0.00  0.00     0.003 A 
ATOM      7  C6  UNL d   1      -2.835   0.309   1.562  0.00  0.00    -0.001 A 
ENDROOT
TORSDOF 0
ENDMDL
