MODEL 1
REMARK minimizedAffinity -2.35976386
REMARK minimizedRMSD -1
REMARK  0 active torsions:
REMARK  status: ('A' for Active; 'I' for Inactive)
ROOT
ATOM      1  C   UNL d   1       1.085  -0.571   0.645  0.00  0.00     0.078 C 
ATOM      2  C1  UNL d   1      -0.396  -0.434   0.457  0.00  0.00    -0.077 A 
ATOM      3  C2  UNL d   1      -1.210   0.066   1.481  0.00  0.00    -0.001 A 
ATOM      4  C3  UNL d   1      -2.589   0.179   1.295  0.00  0.00     0.003 A 
ATOM      5  C4  UNL d   1      -3.166  -0.208   0.087  0.00  0.00    -0.005 A 
ATOM      6  C5  UNL d   1      -2.365  -0.708  -0.937  0.00  0.00     0.003 A 
ATOM      7  C6  UNL d   1      -0.986  -0.822  -0.753  0.00  0.00    -0.001 A 
ENDROOT
TORSDOF 0
ENDMDL
