MODEL 1
REMARK minimizedAffinity -0.727179229
REMARK minimizedRMSD -1
REMARK  0 active torsions:
REMARK  status: ('A' for Active; 'I' for Inactive)
ROOT
ATOM      1  C   UNL d   1       0.424   0.351  -2.257  0.00  0.00     0.077 C 
ATOM      2  C1  UNL d   1       0.072  -0.182  -0.900  0.00  0.00    -0.074 A 
ATOM      3  C2  UNL d   1      -0.253   0.682   0.151  0.00  0.00    -0.005 A 
ATOM      4  C3  UNL d   1      -0.587   0.170   1.405  0.00  0.00     0.006 A 
ATOM      5  C4  UNL d   1      -0.599  -1.208   1.621  0.00  0.00    -0.005 A 
ATOM      6  C5  UNL d   1      -0.277  -2.088   0.582  0.00  0.00    -0.074 A 
ATOM      7  C6  UNL d   1      -0.295  -3.572   0.795  0.00  0.00     0.077 C 
ATOM      8  C7  UNL d   1       0.051  -1.566  -0.677  0.00  0.00    -0.001 A 
ENDROOT
TORSDOF 0
ENDMDL
