MODEL 1
REMARK minimizedAffinity -2.99574757
REMARK minimizedRMSD -1
REMARK  0 active torsions:
REMARK  status: ('A' for Active; 'I' for Inactive)
ROOT
ATOM      1  C   UNL d   1      -1.120  -2.298   1.262  0.00  0.00     0.077 C 
ATOM      2  C1  UNL d   1      -1.122  -0.879   0.777  0.00  0.00    -0.074 A 
ATOM      3  C2  UNL d   1      -0.008  -0.340   0.125  0.00  0.00    -0.005 A 
ATOM      4  C3  UNL d   1      -0.028   0.978  -0.329  0.00  0.00     0.006 A 
ATOM      5  C4  UNL d   1      -1.161   1.771  -0.136  0.00  0.00    -0.005 A 
ATOM      6  C5  UNL d   1      -2.284   1.249   0.513  0.00  0.00    -0.074 A 
ATOM      7  C6  UNL d   1      -3.513   2.084   0.719  0.00  0.00     0.077 C 
ATOM      8  C7  UNL d   1      -2.259  -0.079   0.960  0.00  0.00    -0.001 A 
ENDROOT
TORSDOF 0
ENDMDL
