MODEL 1
REMARK minimizedAffinity -2.99598002
REMARK minimizedRMSD -1
REMARK  0 active torsions:
REMARK  status: ('A' for Active; 'I' for Inactive)
ROOT
ATOM      1  C   UNL d   1      -0.494  -1.547   1.862  0.00  0.00     0.077 C 
ATOM      2  C1  UNL d   1      -1.244  -0.311   1.462  0.00  0.00    -0.074 A 
ATOM      3  C2  UNL d   1      -0.807   0.481   0.396  0.00  0.00    -0.005 A 
ATOM      4  C3  UNL d   1      -1.521   1.622   0.028  0.00  0.00     0.006 A 
ATOM      5  C4  UNL d   1      -2.677   1.981   0.722  0.00  0.00    -0.005 A 
ATOM      6  C5  UNL d   1      -3.130   1.200   1.790  0.00  0.00    -0.074 A 
ATOM      7  C6  UNL d   1      -4.376   1.566   2.540  0.00  0.00     0.077 C 
ATOM      8  C7  UNL d   1      -2.411   0.051   2.149  0.00  0.00    -0.001 A 
ENDROOT
TORSDOF 0
ENDMDL
