MODEL 1
REMARK minimizedAffinity -4.02058411
REMARK minimizedRMSD -1
REMARK  0 active torsions:
REMARK  status: ('A' for Active; 'I' for Inactive)
ROOT
ATOM      1  C   UNL d   1      -3.622   1.652   1.053  0.00  0.00     0.077 C 
ATOM      2  C1  UNL d   1      -2.513   0.665   0.841  0.00  0.00    -0.074 A 
ATOM      3  C2  UNL d   1      -2.209  -0.295   1.812  0.00  0.00    -0.005 A 
ATOM      4  C3  UNL d   1      -1.181  -1.213   1.596  0.00  0.00     0.006 A 
ATOM      5  C4  UNL d   1      -0.448  -1.180   0.410  0.00  0.00    -0.005 A 
ATOM      6  C5  UNL d   1      -0.737  -0.228  -0.573  0.00  0.00    -0.074 A 
ATOM      7  C6  UNL d   1       0.035  -0.185  -1.858  0.00  0.00     0.077 C 
ATOM      8  C7  UNL d   1      -1.776   0.687  -0.352  0.00  0.00    -0.001 A 
ENDROOT
TORSDOF 0
ENDMDL
