MODEL 1
REMARK minimizedAffinity -3.15806317
REMARK minimizedRMSD -1
REMARK  0 active torsions:
REMARK  status: ('A' for Active; 'I' for Inactive)
ROOT
ATOM      1  C   UNL d   1      -1.534  -0.932   2.170  0.00  0.00     0.077 C 
ATOM      2  C1  UNL d   1      -0.770  -1.354   0.950  0.00  0.00    -0.074 A 
ATOM      3  C2  UNL d   1      -0.235  -2.642   0.847  0.00  0.00    -0.005 A 
ATOM      4  C3  UNL d   1       0.465  -3.023  -0.298  0.00  0.00     0.006 A 
ATOM      5  C4  UNL d   1       0.636  -2.122  -1.350  0.00  0.00    -0.005 A 
ATOM      6  C5  UNL d   1       0.107  -0.830  -1.265  0.00  0.00    -0.074 A 
ATOM      7  C6  UNL d   1       0.273   0.148  -2.390  0.00  0.00     0.077 C 
ATOM      8  C7  UNL d   1      -0.601  -0.457  -0.114  0.00  0.00    -0.001 A 
ENDROOT
TORSDOF 0
ENDMDL
