MODEL 1
REMARK minimizedAffinity -1.43082082
REMARK minimizedRMSD -1
REMARK  0 active torsions:
REMARK  status: ('A' for Active; 'I' for Inactive)
ROOT
ATOM      1  C   UNL d   1      -2.515   1.635   0.741  0.00  0.00     0.077 C 
ATOM      2  C1  UNL d   1      -1.696   0.378   0.724  0.00  0.00    -0.074 A 
ATOM      3  C2  UNL d   1      -1.725  -0.513   1.802  0.00  0.00    -0.005 A 
ATOM      4  C3  UNL d   1      -0.965  -1.682   1.768  0.00  0.00     0.006 A 
ATOM      5  C4  UNL d   1      -0.170  -1.972   0.659  0.00  0.00    -0.005 A 
ATOM      6  C5  UNL d   1      -0.129  -1.093  -0.428  0.00  0.00    -0.074 A 
ATOM      7  C6  UNL d   1       0.714  -1.393  -1.633  0.00  0.00     0.077 C 
ATOM      8  C7  UNL d   1      -0.900   0.077  -0.390  0.00  0.00    -0.001 A 
ENDROOT
TORSDOF 0
ENDMDL
