MODEL 1
REMARK minimizedAffinity -5.06222248
REMARK minimizedRMSD -1
REMARK  0 active torsions:
REMARK  status: ('A' for Active; 'I' for Inactive)
ROOT
ATOM      1  C   UNL d   1       0.493  -3.622   0.337  0.00  0.00     0.077 C 
ATOM      2  C1  UNL d   1       0.032  -2.196   0.261  0.00  0.00    -0.074 A 
ATOM      3  C2  UNL d   1       0.610  -1.302  -0.646  0.00  0.00    -0.005 A 
ATOM      4  C3  UNL d   1       0.164   0.019  -0.712  0.00  0.00     0.006 A 
ATOM      5  C4  UNL d   1      -0.862   0.456   0.127  0.00  0.00    -0.005 A 
ATOM      6  C5  UNL d   1      -1.452  -0.424   1.039  0.00  0.00    -0.074 A 
ATOM      7  C6  UNL d   1      -2.562   0.028   1.941  0.00  0.00     0.077 C 
ATOM      8  C7  UNL d   1      -1.003  -1.751   1.095  0.00  0.00    -0.001 A 
ENDROOT
TORSDOF 0
ENDMDL
