MODEL 1
REMARK minimizedAffinity -3.57048106
REMARK minimizedRMSD -1
REMARK  0 active torsions:
REMARK  status: ('A' for Active; 'I' for Inactive)
ROOT
ATOM      1  C   UNL d   1       0.424  -3.617   0.204  0.00  0.00     0.077 C 
ATOM      2  C1  UNL d   1       0.112  -2.153   0.293  0.00  0.00    -0.074 A 
ATOM      3  C2  UNL d   1      -0.662  -1.646   1.341  0.00  0.00    -0.005 A 
ATOM      4  C3  UNL d   1      -0.936  -0.280   1.416  0.00  0.00     0.006 A 
ATOM      5  C4  UNL d   1      -0.439   0.591   0.446  0.00  0.00    -0.005 A 
ATOM      6  C5  UNL d   1       0.338   0.102  -0.609  0.00  0.00    -0.074 A 
ATOM      7  C6  UNL d   1       0.888   1.025  -1.655  0.00  0.00     0.077 C 
ATOM      8  C7  UNL d   1       0.614  -1.271  -0.674  0.00  0.00    -0.001 A 
ENDROOT
TORSDOF 0
ENDMDL
