MODEL 1
REMARK minimizedAffinity -1.28871012
REMARK minimizedRMSD -1
REMARK  0 active torsions:
REMARK  status: ('A' for Active; 'I' for Inactive)
ROOT
ATOM      1  C   UNL d   1      -1.472  -1.127   2.488  0.00  0.00     0.077 C 
ATOM      2  C1  UNL d   1      -1.039  -1.474   1.095  0.00  0.00    -0.074 A 
ATOM      3  C2  UNL d   1      -1.055  -2.798   0.645  0.00  0.00    -0.005 A 
ATOM      4  C3  UNL d   1      -0.658  -3.104  -0.656  0.00  0.00     0.006 A 
ATOM      5  C4  UNL d   1      -0.241  -2.090  -1.520  0.00  0.00    -0.005 A 
ATOM      6  C5  UNL d   1      -0.218  -0.760  -1.088  0.00  0.00    -0.074 A 
ATOM      7  C6  UNL d   1       0.218   0.342  -2.007  0.00  0.00     0.077 C 
ATOM      8  C7  UNL d   1      -0.626  -0.460   0.219  0.00  0.00    -0.001 A 
ENDROOT
TORSDOF 0
ENDMDL
