MODEL 1
REMARK minimizedAffinity -1.95081782
REMARK minimizedRMSD -1
REMARK  0 active torsions:
REMARK  status: ('A' for Active; 'I' for Inactive)
ROOT
ATOM      1  C   UNL d   1       0.158   5.063   1.839  0.00  0.00     0.077 C 
ATOM      2  C1  UNL d   1       0.896   3.926   1.198  0.00  0.00    -0.074 A 
ATOM      3  C2  UNL d   1       2.293   3.924   1.129  0.00  0.00    -0.005 A 
ATOM      4  C3  UNL d   1       2.967   2.854   0.538  0.00  0.00     0.006 A 
ATOM      5  C4  UNL d   1       2.251   1.778   0.011  0.00  0.00    -0.005 A 
ATOM      6  C5  UNL d   1       0.854   1.763   0.072  0.00  0.00    -0.074 A 
ATOM      7  C6  UNL d   1       0.070   0.610  -0.481  0.00  0.00     0.077 C 
ATOM      8  C7  UNL d   1       0.185   2.838   0.673  0.00  0.00    -0.001 A 
ENDROOT
TORSDOF 0
ENDMDL
