MODEL 1
REMARK minimizedAffinity -1.48812735
REMARK minimizedRMSD -1
REMARK  0 active torsions:
REMARK  status: ('A' for Active; 'I' for Inactive)
ROOT
ATOM      1  C   UNL d   1       2.713   3.857  -2.553  0.00  0.00     0.077 C 
ATOM      2  C1  UNL d   1       2.418   3.833  -1.082  0.00  0.00    -0.074 A 
ATOM      3  C2  UNL d   1       3.408   3.489  -0.156  0.00  0.00    -0.005 A 
ATOM      4  C3  UNL d   1       3.122   3.481   1.209  0.00  0.00     0.006 A 
ATOM      5  C4  UNL d   1       1.845   3.815   1.661  0.00  0.00    -0.005 A 
ATOM      6  C5  UNL d   1       0.842   4.162   0.750  0.00  0.00    -0.074 A 
ATOM      7  C6  UNL d   1      -0.533   4.533   1.220  0.00  0.00     0.077 C 
ATOM      8  C7  UNL d   1       1.140   4.175  -0.620  0.00  0.00    -0.001 A 
ENDROOT
TORSDOF 0
ENDMDL
