MODEL 1
REMARK minimizedAffinity 5.48676491
REMARK minimizedRMSD -1
REMARK  0 active torsions:
REMARK  status: ('A' for Active; 'I' for Inactive)
ROOT
ATOM      1  C   UNL d   1       5.016   4.276  -0.739  0.00  0.00     0.077 C 
ATOM      2  C1  UNL d   1       3.765   3.802  -0.061  0.00  0.00    -0.074 A 
ATOM      3  C2  UNL d   1       3.244   2.530  -0.321  0.00  0.00    -0.005 A 
ATOM      4  C3  UNL d   1       2.085   2.099   0.325  0.00  0.00     0.006 A 
ATOM      5  C4  UNL d   1       1.437   2.933   1.236  0.00  0.00    -0.005 A 
ATOM      6  C5  UNL d   1       1.943   4.208   1.509  0.00  0.00    -0.074 A 
ATOM      7  C6  UNL d   1       1.264   5.114   2.493  0.00  0.00     0.077 C 
ATOM      8  C7  UNL d   1       3.112   4.631   0.861  0.00  0.00    -0.001 A 
ENDROOT
TORSDOF 0
ENDMDL
