MODEL 1
REMARK minimizedAffinity 3.11645293
REMARK minimizedRMSD -1
REMARK  0 active torsions:
REMARK  status: ('A' for Active; 'I' for Inactive)
ROOT
ATOM      1  C   UNL d   1       0.091   4.658   3.613  0.00  0.00     0.077 C 
ATOM      2  C1  UNL d   1      -0.097   3.545   2.626  0.00  0.00    -0.074 A 
ATOM      3  C2  UNL d   1       0.987   2.767   2.205  0.00  0.00    -0.005 A 
ATOM      4  C3  UNL d   1       0.796   1.729   1.293  0.00  0.00     0.006 A 
ATOM      5  C4  UNL d   1      -0.479   1.458   0.795  0.00  0.00    -0.005 A 
ATOM      6  C5  UNL d   1      -1.575   2.224   1.205  0.00  0.00    -0.074 A 
ATOM      7  C6  UNL d   1      -2.953   1.939   0.687  0.00  0.00     0.077 C 
ATOM      8  C7  UNL d   1      -1.376   3.261   2.127  0.00  0.00    -0.001 A 
ENDROOT
TORSDOF 0
ENDMDL
