MODEL 1
REMARK minimizedAffinity -5.75034523
REMARK minimizedRMSD -1
REMARK  0 active torsions:
REMARK  status: ('A' for Active; 'I' for Inactive)
ROOT
ATOM      1  C   UNL d   1       2.955  -3.125  -1.930  0.00  0.00     0.077 C 
ATOM      2  C1  UNL d   1       1.628  -2.440  -1.794  0.00  0.00    -0.074 A 
ATOM      3  C2  UNL d   1       1.549  -1.095  -1.419  0.00  0.00    -0.005 A 
ATOM      4  C3  UNL d   1       0.308  -0.468  -1.305  0.00  0.00     0.006 A 
ATOM      5  C4  UNL d   1      -0.864  -1.178  -1.565  0.00  0.00    -0.005 A 
ATOM      6  C5  UNL d   1      -0.805  -2.524  -1.942  0.00  0.00    -0.074 A 
ATOM      7  C6  UNL d   1      -2.055  -3.299  -2.235  0.00  0.00     0.077 C 
ATOM      8  C7  UNL d   1       0.446  -3.145  -2.061  0.00  0.00    -0.001 A 
ENDROOT
TORSDOF 0
ENDMDL
