MODEL 1
REMARK minimizedAffinity 3.9747889
REMARK minimizedRMSD -1
REMARK  0 active torsions:
REMARK  status: ('A' for Active; 'I' for Inactive)
ROOT
ATOM      1  C   UNL d   1      -1.511   2.529  -0.805  0.00  0.00     0.077 C 
ATOM      2  C1  UNL d   1      -0.919   2.193   0.531  0.00  0.00    -0.074 A 
ATOM      3  C2  UNL d   1      -1.052   0.911   1.075  0.00  0.00    -0.005 A 
ATOM      4  C3  UNL d   1      -0.487   0.611   2.314  0.00  0.00     0.006 A 
ATOM      5  C4  UNL d   1       0.215   1.587   3.022  0.00  0.00    -0.005 A 
ATOM      6  C5  UNL d   1       0.359   2.874   2.494  0.00  0.00    -0.074 A 
ATOM      7  C6  UNL d   1       1.119   3.933   3.237  0.00  0.00     0.077 C 
ATOM      8  C7  UNL d   1      -0.205   3.167   1.245  0.00  0.00    -0.001 A 
ENDROOT
TORSDOF 0
ENDMDL
