MODEL 1
REMARK minimizedAffinity 5.23525858
REMARK minimizedRMSD -1
REMARK  0 active torsions:
REMARK  status: ('A' for Active; 'I' for Inactive)
ROOT
ATOM      1  C   UNL d   1      -1.146  -4.513  -1.876  0.00  0.00     0.077 C 
ATOM      2  C1  UNL d   1      -1.113  -5.022  -3.287  0.00  0.00    -0.074 A 
ATOM      3  C2  UNL d   1       0.102  -5.277  -3.931  0.00  0.00    -0.005 A 
ATOM      4  C3  UNL d   1       0.117  -5.758  -5.240  0.00  0.00     0.006 A 
ATOM      5  C4  UNL d   1      -1.081  -5.989  -5.917  0.00  0.00    -0.005 A 
ATOM      6  C5  UNL d   1      -2.306  -5.741  -5.290  0.00  0.00    -0.074 A 
ATOM      7  C6  UNL d   1      -3.602  -5.993  -6.000  0.00  0.00     0.077 C 
ATOM      8  C7  UNL d   1      -2.312  -5.263  -3.972  0.00  0.00    -0.001 A 
ENDROOT
TORSDOF 0
ENDMDL
