MODEL 1
REMARK minimizedAffinity 7.62155199
REMARK minimizedRMSD -1
REMARK  0 active torsions:
REMARK  status: ('A' for Active; 'I' for Inactive)
ROOT
ATOM      1  C   UNL d   1       4.615   4.949  -0.675  0.00  0.00     0.077 C 
ATOM      2  C1  UNL d   1       3.468   4.182  -0.087  0.00  0.00    -0.074 A 
ATOM      3  C2  UNL d   1       3.436   2.784  -0.141  0.00  0.00    -0.005 A 
ATOM      4  C3  UNL d   1       2.367   2.084   0.418  0.00  0.00     0.006 A 
ATOM      5  C4  UNL d   1       1.322   2.772   1.035  0.00  0.00    -0.005 A 
ATOM      6  C5  UNL d   1       1.338   4.169   1.099  0.00  0.00    -0.074 A 
ATOM      7  C6  UNL d   1       0.227   4.923   1.768  0.00  0.00     0.077 C 
ATOM      8  C7  UNL d   1       2.418   4.865   0.541  0.00  0.00    -0.001 A 
ENDROOT
TORSDOF 0
ENDMDL
