MODEL 1
REMARK minimizedAffinity -0.306562155
REMARK minimizedRMSD -1
REMARK  0 active torsions:
REMARK  status: ('A' for Active; 'I' for Inactive)
ROOT
ATOM      1  C   UNL d   1       5.732  -5.995   5.963  0.00  0.00     0.077 C 
ATOM      2  C1  UNL d   1       5.216  -4.609   5.713  0.00  0.00    -0.074 A 
ATOM      3  C2  UNL d   1       6.000  -3.487   6.000  0.00  0.00    -0.005 A 
ATOM      4  C3  UNL d   1       5.510  -2.205   5.753  0.00  0.00     0.006 A 
ATOM      5  C4  UNL d   1       4.233  -2.031   5.217  0.00  0.00    -0.005 A 
ATOM      6  C5  UNL d   1       3.435  -3.141   4.922  0.00  0.00    -0.074 A 
ATOM      7  C6  UNL d   1       2.065  -2.973   4.337  0.00  0.00     0.077 C 
ATOM      8  C7  UNL d   1       3.937  -4.427   5.167  0.00  0.00    -0.001 A 
ENDROOT
TORSDOF 0
ENDMDL
