MODEL 1
REMARK minimizedAffinity 0.0530232787
REMARK minimizedRMSD -1
REMARK  1 active torsions:
REMARK  status: ('A' for Active; 'I' for Inactive)
REMARK    1  A    between atoms: C1_2  and  C2_3 
ROOT
ATOM      1  C2  UNL d   1       5.275   2.218  -5.518  0.00  0.00    -0.081 A 
ATOM      2  C3  UNL d   1       3.995   2.264  -4.953  0.00  0.00     0.006 A 
ATOM      3  C4  UNL d   1       3.436   3.484  -4.565  0.00  0.00     0.002 A 
ATOM      4  C5  UNL d   1       4.143   4.678  -4.743  0.00  0.00    -0.080 A 
ATOM      5  C6  UNL d   1       3.542   5.997  -4.359  0.00  0.00     0.076 C 
ATOM      6  C7  UNL d   1       5.429   4.630  -5.292  0.00  0.00     0.002 A 
ATOM      7  C8  UNL d   1       5.989   3.410  -5.679  0.00  0.00     0.006 A 
ENDROOT
BRANCH   1   8
ATOM      8  C1  UNL d   1       5.855   0.911  -5.996  0.00  0.00     0.054 C 
ATOM      9  C   UNL d   1       5.718  -0.175  -4.939  0.00  0.00     0.018 C 
ENDBRANCH   1   8
TORSDOF 1
ENDMDL
