MODEL 1
REMARK minimizedAffinity 6.80283022
REMARK minimizedRMSD -1
REMARK  1 active torsions:
REMARK  status: ('A' for Active; 'I' for Inactive)
REMARK    1  A    between atoms: C1_2  and  C2_3 
ROOT
ATOM      1  C2  UNL d   1       4.849  -2.323  -3.072  0.00  0.00    -0.081 A 
ATOM      2  C3  UNL d   1       3.593  -2.701  -2.583  0.00  0.00     0.006 A 
ATOM      3  C4  UNL d   1       2.544  -2.978  -3.464  0.00  0.00     0.002 A 
ATOM      4  C5  UNL d   1       2.736  -2.889  -4.846  0.00  0.00    -0.080 A 
ATOM      5  C6  UNL d   1       1.627  -3.213  -5.803  0.00  0.00     0.076 C 
ATOM      6  C7  UNL d   1       3.986  -2.495  -5.335  0.00  0.00     0.002 A 
ATOM      7  C8  UNL d   1       5.035  -2.217  -4.455  0.00  0.00     0.006 A 
ENDROOT
BRANCH   1   8
ATOM      8  C1  UNL d   1       6.000  -2.087  -2.128  0.00  0.00     0.054 C 
ATOM      9  C   UNL d   1       5.995  -3.094  -0.986  0.00  0.00     0.018 C 
ENDBRANCH   1   8
TORSDOF 1
ENDMDL
