MODEL 1
REMARK minimizedAffinity 2.11781001
REMARK minimizedRMSD -1
REMARK  1 active torsions:
REMARK  status: ('A' for Active; 'I' for Inactive)
REMARK    1  A    between atoms: C1_2  and  C2_3 
ROOT
ATOM      1  C2  UNL d   1       5.196  -2.991  -2.102  0.00  0.00    -0.081 A 
ATOM      2  C3  UNL d   1       5.652  -3.572  -3.292  0.00  0.00     0.006 A 
ATOM      3  C4  UNL d   1       4.937  -3.407  -4.480  0.00  0.00     0.002 A 
ATOM      4  C5  UNL d   1       3.759  -2.652  -4.501  0.00  0.00    -0.080 A 
ATOM      5  C6  UNL d   1       2.998  -2.442  -5.776  0.00  0.00     0.076 C 
ATOM      6  C7  UNL d   1       3.294  -2.086  -3.309  0.00  0.00     0.002 A 
ATOM      7  C8  UNL d   1       4.009  -2.252  -2.120  0.00  0.00     0.006 A 
ENDROOT
BRANCH   1   8
ATOM      8  C1  UNL d   1       6.000  -3.113  -0.833  0.00  0.00     0.054 C 
ATOM      9  C   UNL d   1       6.000  -4.544  -0.314  0.00  0.00     0.018 C 
ENDBRANCH   1   8
TORSDOF 1
ENDMDL
