MODEL 1
REMARK minimizedAffinity 0.943987727
REMARK minimizedRMSD -1
REMARK  1 active torsions:
REMARK  status: ('A' for Active; 'I' for Inactive)
REMARK    1  A    between atoms: C1_2  and  C2_3 
ROOT
ATOM      1  C2  UNL d   1       1.457  -1.339  -1.667  0.00  0.00    -0.081 A 
ATOM      2  C3  UNL d   1       0.150  -1.374  -1.167  0.00  0.00     0.006 A 
ATOM      3  C4  UNL d   1      -0.778  -2.288  -1.672  0.00  0.00     0.002 A 
ATOM      4  C5  UNL d   1      -0.412  -3.187  -2.680  0.00  0.00    -0.080 A 
ATOM      5  C6  UNL d   1      -1.389  -4.194  -3.210  0.00  0.00     0.076 C 
ATOM      6  C7  UNL d   1       0.889  -3.140  -3.192  0.00  0.00     0.002 A 
ATOM      7  C8  UNL d   1       1.817  -2.226  -2.688  0.00  0.00     0.006 A 
ENDROOT
BRANCH   1   8
ATOM      8  C1  UNL d   1       2.477  -0.398  -1.079  0.00  0.00     0.054 C 
ATOM      9  C   UNL d   1       3.887  -0.956  -1.216  0.00  0.00     0.018 C 
ENDBRANCH   1   8
TORSDOF 1
ENDMDL
