MODEL 1
REMARK minimizedAffinity 9.39952755
REMARK minimizedRMSD -1
REMARK  1 active torsions:
REMARK  status: ('A' for Active; 'I' for Inactive)
REMARK    1  A    between atoms: C1_2  and  C2_3 
ROOT
ATOM      1  C2  UNL d   1       0.426  -3.466  -4.088  0.00  0.00    -0.081 A 
ATOM      2  C3  UNL d   1      -0.909  -3.049  -4.039  0.00  0.00     0.006 A 
ATOM      3  C4  UNL d   1      -1.409  -2.406  -2.904  0.00  0.00     0.002 A 
ATOM      4  C5  UNL d   1      -0.581  -2.163  -1.803  0.00  0.00    -0.080 A 
ATOM      5  C6  UNL d   1      -1.097  -1.448  -0.590  0.00  0.00     0.076 C 
ATOM      6  C7  UNL d   1       0.749  -2.596  -1.845  0.00  0.00     0.002 A 
ATOM      7  C8  UNL d   1       1.249  -3.239  -2.980  0.00  0.00     0.006 A 
ENDROOT
BRANCH   1   8
ATOM      8  C1  UNL d   1       0.986  -4.101  -5.336  0.00  0.00     0.054 C 
ATOM      9  C   UNL d   1       2.507  -4.058  -5.344  0.00  0.00     0.018 C 
ENDBRANCH   1   8
TORSDOF 1
ENDMDL
