MODEL 1
REMARK minimizedAffinity 2.62458754
REMARK minimizedRMSD -1
REMARK  1 active torsions:
REMARK  status: ('A' for Active; 'I' for Inactive)
REMARK    1  A    between atoms: C1_2  and  C2_3 
ROOT
ATOM      1  C2  UNL d   1       4.550   2.860  -5.025  0.00  0.00    -0.081 A 
ATOM      2  C3  UNL d   1       5.747   3.569  -4.872  0.00  0.00     0.006 A 
ATOM      3  C4  UNL d   1       5.847   4.594  -3.928  0.00  0.00     0.002 A 
ATOM      4  C5  UNL d   1       4.755   4.920  -3.116  0.00  0.00    -0.080 A 
ATOM      5  C6  UNL d   1       4.859   5.997  -2.078  0.00  0.00     0.076 C 
ATOM      6  C7  UNL d   1       3.554   4.223  -3.282  0.00  0.00     0.002 A 
ATOM      7  C8  UNL d   1       3.453   3.199  -4.226  0.00  0.00     0.006 A 
ENDROOT
BRANCH   1   8
ATOM      8  C1  UNL d   1       4.459   1.711  -5.998  0.00  0.00     0.054 C 
ATOM      9  C   UNL d   1       4.666   0.376  -5.298  0.00  0.00     0.018 C 
ENDBRANCH   1   8
TORSDOF 1
ENDMDL
