MODEL 1
REMARK minimizedAffinity 5.79490662
REMARK minimizedRMSD -1
REMARK  1 active torsions:
REMARK  status: ('A' for Active; 'I' for Inactive)
REMARK    1  A    between atoms: C1_2  and  C2_3 
ROOT
ATOM      1  C2  UNL d   1      -0.127  -2.096  -2.540  0.00  0.00    -0.081 A 
ATOM      2  C3  UNL d   1       0.360  -1.795  -1.262  0.00  0.00     0.006 A 
ATOM      3  C4  UNL d   1      -0.413  -2.059  -0.129  0.00  0.00     0.002 A 
ATOM      4  C5  UNL d   1      -1.682  -2.634  -0.254  0.00  0.00    -0.080 A 
ATOM      5  C6  UNL d   1      -2.510  -2.950   0.956  0.00  0.00     0.076 C 
ATOM      6  C7  UNL d   1      -2.176  -2.918  -1.532  0.00  0.00     0.002 A 
ATOM      7  C8  UNL d   1      -1.404  -2.654  -2.665  0.00  0.00     0.006 A 
ENDROOT
BRANCH   1   8
ATOM      8  C1  UNL d   1       0.730  -1.872  -3.760  0.00  0.00     0.054 C 
ATOM      9  C   UNL d   1       2.088  -2.544  -3.612  0.00  0.00     0.018 C 
ENDBRANCH   1   8
TORSDOF 1
ENDMDL
