MODEL 1
REMARK minimizedAffinity 12.1009121
REMARK minimizedRMSD -1
REMARK  1 active torsions:
REMARK  status: ('A' for Active; 'I' for Inactive)
REMARK    1  A    between atoms: C1_2  and  C2_3 
ROOT
ATOM      1  C2  UNL d   1      -2.879   0.497   5.225  0.00  0.00    -0.081 A 
ATOM      2  C3  UNL d   1      -2.741   0.614   3.837  0.00  0.00     0.006 A 
ATOM      3  C4  UNL d   1      -2.019  -0.338   3.114  0.00  0.00     0.002 A 
ATOM      4  C5  UNL d   1      -1.430  -1.427   3.765  0.00  0.00    -0.080 A 
ATOM      5  C6  UNL d   1      -0.677  -2.472   2.996  0.00  0.00     0.076 C 
ATOM      6  C7  UNL d   1      -1.552  -1.535   5.154  0.00  0.00     0.002 A 
ATOM      7  C8  UNL d   1      -2.274  -0.583   5.878  0.00  0.00     0.006 A 
ENDROOT
BRANCH   1   8
ATOM      8  C1  UNL d   1      -3.711   1.487   6.000  0.00  0.00     0.054 C 
ATOM      9  C   UNL d   1      -5.181   1.093   5.999  0.00  0.00     0.018 C 
ENDBRANCH   1   8
TORSDOF 1
ENDMDL
