MODEL 1
REMARK minimizedAffinity 17.1162262
REMARK minimizedRMSD -1
REMARK  1 active torsions:
REMARK  status: ('A' for Active; 'I' for Inactive)
REMARK    1  A    between atoms: C1_2  and  C2_3 
ROOT
ATOM      1  C2  UNL d   1       3.720  -2.254   3.951  0.00  0.00    -0.081 A 
ATOM      2  C3  UNL d   1       4.554  -3.117   3.231  0.00  0.00     0.006 A 
ATOM      3  C4  UNL d   1       5.288  -4.107   3.890  0.00  0.00     0.002 A 
ATOM      4  C5  UNL d   1       5.193  -4.254   5.278  0.00  0.00    -0.080 A 
ATOM      5  C6  UNL d   1       5.952  -5.332   5.994  0.00  0.00     0.076 C 
ATOM      6  C7  UNL d   1       4.373  -3.380   6.000  0.00  0.00     0.002 A 
ATOM      7  C8  UNL d   1       3.640  -2.390   5.341  0.00  0.00     0.006 A 
ENDROOT
BRANCH   1   8
ATOM      8  C1  UNL d   1       2.878  -1.228   3.236  0.00  0.00     0.054 C 
ATOM      9  C   UNL d   1       3.158  -1.229   1.739  0.00  0.00     0.018 C 
ENDBRANCH   1   8
TORSDOF 1
ENDMDL
