MODEL 1
REMARK minimizedAffinity 1.99455595
REMARK minimizedRMSD -1
REMARK  1 active torsions:
REMARK  status: ('A' for Active; 'I' for Inactive)
REMARK    1  A    between atoms: C1_2  and  C2_3 
ROOT
ATOM      1  C2  UNL d   1       4.822   3.116  -4.308  0.00  0.00    -0.081 A 
ATOM      2  C3  UNL d   1       5.991   3.823  -4.000  0.00  0.00     0.006 A 
ATOM      3  C4  UNL d   1       5.998   4.766  -2.969  0.00  0.00     0.002 A 
ATOM      4  C5  UNL d   1       4.840   5.011  -2.224  0.00  0.00    -0.080 A 
ATOM      5  C6  UNL d   1       4.842   5.998  -1.095  0.00  0.00     0.076 C 
ATOM      6  C7  UNL d   1       3.667   4.318  -2.543  0.00  0.00     0.002 A 
ATOM      7  C8  UNL d   1       3.660   3.376  -3.574  0.00  0.00     0.006 A 
ENDROOT
BRANCH   1   8
ATOM      8  C1  UNL d   1       4.829   2.053  -5.376  0.00  0.00     0.054 C 
ATOM      9  C   UNL d   1       3.429   1.509  -5.624  0.00  0.00     0.018 C 
ENDBRANCH   1   8
TORSDOF 1
ENDMDL
