MODEL 1
REMARK minimizedAffinity 8.5138216
REMARK minimizedRMSD -1
REMARK  1 active torsions:
REMARK  status: ('A' for Active; 'I' for Inactive)
REMARK    1  A    between atoms: C1_2  and  C2_3 
ROOT
ATOM      1  C2  UNL d   1      -1.666  -2.097  -0.394  0.00  0.00    -0.081 A 
ATOM      2  C3  UNL d   1      -1.483  -2.790   0.809  0.00  0.00     0.006 A 
ATOM      3  C4  UNL d   1      -2.582  -3.288   1.513  0.00  0.00     0.002 A 
ATOM      4  C5  UNL d   1      -3.880  -3.107   1.023  0.00  0.00    -0.080 A 
ATOM      5  C6  UNL d   1      -5.066  -3.662   1.754  0.00  0.00     0.076 C 
ATOM      6  C7  UNL d   1      -4.064  -2.398  -0.169  0.00  0.00     0.002 A 
ATOM      7  C8  UNL d   1      -2.965  -1.900  -0.873  0.00  0.00     0.006 A 
ENDROOT
BRANCH   1   8
ATOM      8  C1  UNL d   1      -0.479  -1.615  -1.189  0.00  0.00     0.054 C 
ATOM      9  C   UNL d   1      -0.194  -0.144  -0.922  0.00  0.00     0.018 C 
ENDBRANCH   1   8
TORSDOF 1
ENDMDL
