MODEL 1
REMARK minimizedAffinity 3.62588382
REMARK minimizedRMSD -1
REMARK  0 active torsions:
REMARK  status: ('A' for Active; 'I' for Inactive)
ROOT
ATOM      1  C   UNL d   1       2.684   4.981   5.236  0.00  0.00     0.020 A 
ATOM      2  C1  UNL d   1       1.544   4.414   5.804  0.00  0.00     0.020 A 
ATOM      3  C2  UNL d   1       1.473   3.034   6.000  0.00  0.00     0.034 A 
ATOM      4  C3  UNL d   1       2.545   2.214   5.627  0.00  0.00     0.017 A 
ATOM      5  C4  UNL d   1       3.689   2.783   5.056  0.00  0.00     0.017 A 
ATOM      6  C5  UNL d   1       3.754   4.167   4.863  0.00  0.00     0.034 A 
ATOM      7 Cl   UNL d   1       5.051   1.837   4.571  0.00  0.00    -0.070 Cl
ATOM      8 Cl1  UNL d   1       2.389   0.515   5.898  0.00  0.00    -0.070 Cl
ENDROOT
TORSDOF 0
ENDMDL
