MODEL 1
REMARK minimizedAffinity -0.675345838
REMARK minimizedRMSD -1
REMARK  0 active torsions:
REMARK  status: ('A' for Active; 'I' for Inactive)
ROOT
ATOM      1  C   UNL d   1       1.281  -1.328   4.109  0.00  0.00     0.020 A 
ATOM      2  C1  UNL d   1       2.249  -1.717   5.035  0.00  0.00     0.020 A 
ATOM      3  C2  UNL d   1       2.197  -2.990   5.606  0.00  0.00     0.034 A 
ATOM      4  C3  UNL d   1       1.176  -3.879   5.253  0.00  0.00     0.017 A 
ATOM      5  C4  UNL d   1       0.205  -3.489   4.324  0.00  0.00     0.017 A 
ATOM      6  C5  UNL d   1       0.261  -2.213   3.755  0.00  0.00     0.034 A 
ATOM      7 Cl   UNL d   1      -1.086  -4.531   3.838  0.00  0.00    -0.070 Cl
ATOM      8 Cl1  UNL d   1       1.174  -5.438   5.999  0.00  0.00    -0.070 Cl
ENDROOT
TORSDOF 0
ENDMDL
