MODEL 1
REMARK minimizedAffinity 0.917587996
REMARK minimizedRMSD -1
REMARK  0 active torsions:
REMARK  status: ('A' for Active; 'I' for Inactive)
ROOT
ATOM      1  C   UNL d   1       2.644   5.221   5.985  0.00  0.00     0.020 A 
ATOM      2  C1  UNL d   1       1.464   4.478   5.995  0.00  0.00     0.020 A 
ATOM      3  C2  UNL d   1       1.518   3.082   5.999  0.00  0.00     0.034 A 
ATOM      4  C3  UNL d   1       2.754   2.425   5.994  0.00  0.00     0.017 A 
ATOM      5  C4  UNL d   1       3.937   3.172   5.984  0.00  0.00     0.017 A 
ATOM      6  C5  UNL d   1       3.878   4.569   5.980  0.00  0.00     0.034 A 
ATOM      7 Cl   UNL d   1       5.500   2.432   5.976  0.00  0.00    -0.070 Cl
ATOM      8 Cl1  UNL d   1       2.745   0.697   6.000  0.00  0.00    -0.070 Cl
ENDROOT
TORSDOF 0
ENDMDL
