MODEL 1
REMARK minimizedAffinity 0.118154377
REMARK minimizedRMSD -1
REMARK  0 active torsions:
REMARK  status: ('A' for Active; 'I' for Inactive)
ROOT
ATOM      1  C   UNL d   1       1.196   4.608   5.931  0.00  0.00     0.020 A 
ATOM      2  C1  UNL d   1       2.427   5.244   5.769  0.00  0.00     0.020 A 
ATOM      3  C2  UNL d   1       3.597   4.488   5.676  0.00  0.00     0.034 A 
ATOM      4  C3  UNL d   1       3.539   3.091   5.744  0.00  0.00     0.017 A 
ATOM      5  C4  UNL d   1       2.304   2.454   5.907  0.00  0.00     0.017 A 
ATOM      6  C5  UNL d   1       1.135   3.216   6.000  0.00  0.00     0.034 A 
ATOM      7 Cl   UNL d   1       2.153   0.734   6.000  0.00  0.00    -0.070 Cl
ATOM      8 Cl1  UNL d   1       5.025   2.219   5.621  0.00  0.00    -0.070 Cl
ENDROOT
TORSDOF 0
ENDMDL
