MODEL 1
REMARK minimizedAffinity 0.352589846
REMARK minimizedRMSD -1
REMARK  0 active torsions:
REMARK  status: ('A' for Active; 'I' for Inactive)
ROOT
ATOM      1  C   UNL d   1       2.142   5.346   5.607  0.00  0.00     0.020 A 
ATOM      2  C1  UNL d   1       0.992   4.615   5.902  0.00  0.00     0.020 A 
ATOM      3  C2  UNL d   1       1.055   3.223   6.000  0.00  0.00     0.034 A 
ATOM      4  C3  UNL d   1       2.270   2.558   5.803  0.00  0.00     0.017 A 
ATOM      5  C4  UNL d   1       3.424   3.292   5.508  0.00  0.00     0.017 A 
ATOM      6  C5  UNL d   1       3.356   4.686   5.411  0.00  0.00     0.034 A 
ATOM      7 Cl   UNL d   1       4.960   2.542   5.252  0.00  0.00    -0.070 Cl
ATOM      8 Cl1  UNL d   1       2.275   0.836   5.940  0.00  0.00    -0.070 Cl
ENDROOT
TORSDOF 0
ENDMDL
