MODEL 1
REMARK minimizedAffinity 4.4092555
REMARK minimizedRMSD -1
REMARK  0 active torsions:
REMARK  status: ('A' for Active; 'I' for Inactive)
ROOT
ATOM      1  C   UNL d   1       3.942   1.704   4.796  0.00  0.00     0.020 A 
ATOM      2  C1  UNL d   1       3.514   1.137   5.995  0.00  0.00     0.020 A 
ATOM      3  C2  UNL d   1       2.929  -0.131   5.999  0.00  0.00     0.034 A 
ATOM      4  C3  UNL d   1       2.771  -0.836   4.800  0.00  0.00     0.017 A 
ATOM      5  C4  UNL d   1       3.200  -0.266   3.597  0.00  0.00     0.017 A 
ATOM      6  C5  UNL d   1       3.785   1.004   3.599  0.00  0.00     0.034 A 
ATOM      7 Cl   UNL d   1       3.039  -1.076   2.078  0.00  0.00    -0.070 Cl
ATOM      8 Cl1  UNL d   1       2.040  -2.400   4.879  0.00  0.00    -0.070 Cl
ENDROOT
TORSDOF 0
ENDMDL
