MODEL 1
REMARK minimizedAffinity 6.50247908
REMARK minimizedRMSD -1
REMARK  0 active torsions:
REMARK  status: ('A' for Active; 'I' for Inactive)
ROOT
ATOM      1  C   UNL d   1       0.543   4.107   6.000  0.00  0.00     0.020 A 
ATOM      2  C1  UNL d   1       0.733   5.485   5.898  0.00  0.00     0.020 A 
ATOM      3  C2  UNL d   1       2.016   6.000   5.707  0.00  0.00     0.034 A 
ATOM      4  C3  UNL d   1       3.115   5.137   5.616  0.00  0.00     0.017 A 
ATOM      5  C4  UNL d   1       2.923   3.755   5.718  0.00  0.00     0.017 A 
ATOM      6  C5  UNL d   1       1.635   3.244   5.910  0.00  0.00     0.034 A 
ATOM      7 Cl   UNL d   1       4.229   2.628   5.616  0.00  0.00    -0.070 Cl
ATOM      8 Cl1  UNL d   1       4.674   5.844   5.379  0.00  0.00    -0.070 Cl
ENDROOT
TORSDOF 0
ENDMDL
