MODEL 1
REMARK minimizedAffinity 13.582201
REMARK minimizedRMSD -1
REMARK  0 active torsions:
REMARK  status: ('A' for Active; 'I' for Inactive)
ROOT
ATOM      1  C   UNL d   1       3.212   1.493   5.994  0.00  0.00     0.020 A 
ATOM      2  C1  UNL d   1       1.836   1.264   5.993  0.00  0.00     0.020 A 
ATOM      3  C2  UNL d   1       0.949   2.342   5.995  0.00  0.00     0.034 A 
ATOM      4  C3  UNL d   1       1.436   3.655   5.997  0.00  0.00     0.017 A 
ATOM      5  C4  UNL d   1       2.816   3.884   5.997  0.00  0.00     0.017 A 
ATOM      6  C5  UNL d   1       3.701   2.800   5.996  0.00  0.00     0.034 A 
ATOM      7 Cl   UNL d   1       3.492   5.474   6.000  0.00  0.00    -0.070 Cl
ATOM      8 Cl1  UNL d   1       0.281   4.940   5.999  0.00  0.00    -0.070 Cl
ENDROOT
TORSDOF 0
ENDMDL
