MODEL 1
REMARK minimizedAffinity 8.61412716
REMARK minimizedRMSD -1
REMARK  0 active torsions:
REMARK  status: ('A' for Active; 'I' for Inactive)
ROOT
ATOM      1  C   UNL d   1       4.339   2.374   0.515  0.00  0.00     0.020 A 
ATOM      2  C1  UNL d   1       3.441   1.574   1.221  0.00  0.00     0.020 A 
ATOM      3  C2  UNL d   1       2.922   0.420   0.633  0.00  0.00     0.034 A 
ATOM      4  C3  UNL d   1       3.299   0.061  -0.666  0.00  0.00     0.017 A 
ATOM      5  C4  UNL d   1       4.201   0.864  -1.375  0.00  0.00     0.017 A 
ATOM      6  C5  UNL d   1       4.718   2.019  -0.780  0.00  0.00     0.034 A 
ATOM      7 Cl   UNL d   1       4.714   0.486  -2.981  0.00  0.00    -0.070 Cl
ATOM      8 Cl1  UNL d   1       2.618  -1.381  -1.332  0.00  0.00    -0.070 Cl
ENDROOT
TORSDOF 0
ENDMDL
