MODEL 1
REMARK minimizedAffinity 3.75282955
REMARK minimizedRMSD -1
REMARK  0 active torsions:
REMARK  status: ('A' for Active; 'I' for Inactive)
ROOT
ATOM      1  C   UNL d   1       4.939   1.348   5.006  0.00  0.00     0.020 A 
ATOM      2  C1  UNL d   1       3.782   1.215   5.773  0.00  0.00     0.020 A 
ATOM      3  C2  UNL d   1       2.960   2.322   5.994  0.00  0.00     0.034 A 
ATOM      4  C3  UNL d   1       3.293   3.567   5.448  0.00  0.00     0.017 A 
ATOM      5  C4  UNL d   1       4.455   3.700   4.678  0.00  0.00     0.017 A 
ATOM      6  C5  UNL d   1       5.274   2.588   4.460  0.00  0.00     0.034 A 
ATOM      7 Cl   UNL d   1       4.932   5.203   3.971  0.00  0.00    -0.070 Cl
ATOM      8 Cl1  UNL d   1       2.231   4.893   5.762  0.00  0.00    -0.070 Cl
ENDROOT
TORSDOF 0
ENDMDL
