MODEL 1
REMARK minimizedAffinity 3.44888043
REMARK minimizedRMSD -1
REMARK  0 active torsions:
REMARK  status: ('A' for Active; 'I' for Inactive)
ROOT
ATOM      1  C   UNL d   1       0.874  -4.978   5.999  0.00  0.00     0.020 A 
ATOM      2  C1  UNL d   1      -0.216  -5.714   5.535  0.00  0.00     0.020 A 
ATOM      3  C2  UNL d   1      -0.528  -5.716   4.174  0.00  0.00     0.034 A 
ATOM      4  C3  UNL d   1       0.250  -4.981   3.272  0.00  0.00     0.017 A 
ATOM      5  C4  UNL d   1       1.344  -4.244   3.739  0.00  0.00     0.017 A 
ATOM      6  C5  UNL d   1       1.652  -4.245   5.103  0.00  0.00     0.034 A 
ATOM      7 Cl   UNL d   1       2.351  -3.313   2.686  0.00  0.00    -0.070 Cl
ATOM      8 Cl1  UNL d   1      -0.193  -5.030   1.603  0.00  0.00    -0.070 Cl
ENDROOT
TORSDOF 0
ENDMDL
