MODEL 1
REMARK minimizedAffinity -4.04080772
REMARK minimizedRMSD -1
REMARK  0 active torsions:
REMARK  status: ('A' for Active; 'I' for Inactive)
ROOT
ATOM      1  C4' PXY d   1      -3.374  -0.006   1.135  0.00  0.00     0.077 C 
ATOM      2  C1' PXY d   1       2.368   0.189   1.775  0.00  0.00     0.077 C 
ATOM      3  C1  PXY d   1       0.861   0.131   1.618  0.00  0.00    -0.082 A 
ATOM      4  C2  PXY d   1       0.323   0.264   0.417  0.00  0.00     0.003 A 
ATOM      5  C3  PXY d   1      -1.039   0.246   0.261  0.00  0.00     0.003 A 
ATOM      6  C4  PXY d   1      -1.857   0.037   1.339  0.00  0.00    -0.082 A 
ATOM      7  C5  PXY d   1      -1.315  -0.111   2.567  0.00  0.00     0.003 A 
ATOM      8  C6  PXY d   1       0.068  -0.048   2.709  0.00  0.00     0.003 A 
ENDROOT
TORSDOF 0
ENDMDL
