MODEL 1
REMARK minimizedAffinity -3.78298926
REMARK minimizedRMSD -1
REMARK  0 active torsions:
REMARK  status: ('A' for Active; 'I' for Inactive)
ROOT
ATOM      1  C4' PXY d   1       0.784   0.173  -2.618  0.00  0.00     0.077 C 
ATOM      2  C1' PXY d   1      -0.720   0.628   2.944  0.00  0.00     0.077 C 
ATOM      3  C1  PXY d   1      -0.338   0.507   1.482  0.00  0.00    -0.082 A 
ATOM      4  C2  PXY d   1       0.886   0.125   1.155  0.00  0.00     0.003 A 
ATOM      5  C3  PXY d   1       1.258   0.041  -0.162  0.00  0.00     0.003 A 
ATOM      6  C4  PXY d   1       0.352   0.300  -1.155  0.00  0.00    -0.082 A 
ATOM      7  C5  PXY d   1      -0.902   0.680  -0.830  0.00  0.00     0.003 A 
ATOM      8  C6  PXY d   1      -1.247   0.799   0.513  0.00  0.00     0.003 A 
ENDROOT
TORSDOF 0
ENDMDL
