MODEL 1
REMARK minimizedAffinity -4.67887449
REMARK minimizedRMSD -1
REMARK  0 active torsions:
REMARK  status: ('A' for Active; 'I' for Inactive)
ROOT
ATOM      1  C4' PXY d   1      -1.216  -1.084   3.624  0.00  0.00     0.077 C 
ATOM      2  C1' PXY d   1       1.056   0.982  -1.274  0.00  0.00     0.077 C 
ATOM      3  C1  PXY d   1       0.472   0.437   0.015  0.00  0.00    -0.082 A 
ATOM      4  C2  PXY d   1      -0.779   0.006   0.036  0.00  0.00     0.003 A 
ATOM      5  C3  PXY d   1      -1.333  -0.460   1.200  0.00  0.00     0.003 A 
ATOM      6  C4  PXY d   1      -0.582  -0.535   2.343  0.00  0.00    -0.082 A 
ATOM      7  C5  PXY d   1       0.698  -0.107   2.327  0.00  0.00     0.003 A 
ATOM      8  C6  PXY d   1       1.229   0.401   1.145  0.00  0.00     0.003 A 
ENDROOT
TORSDOF 0
ENDMDL
