MODEL 1
REMARK minimizedAffinity -5.21780825
REMARK minimizedRMSD -1
REMARK  0 active torsions:
REMARK  status: ('A' for Active; 'I' for Inactive)
ROOT
ATOM      1  C4' PXY d   1       1.529   0.026   2.814  0.00  0.00     0.077 C 
ATOM      2  C1' PXY d   1      -3.897  -0.082   0.823  0.00  0.00     0.077 C 
ATOM      3  C1  PXY d   1      -2.470  -0.060   1.334  0.00  0.00    -0.082 A 
ATOM      4  C2  PXY d   1      -2.242   0.081   2.630  0.00  0.00     0.003 A 
ATOM      5  C3  PXY d   1      -0.957   0.134   3.106  0.00  0.00     0.003 A 
ATOM      6  C4  PXY d   1       0.105  -0.011   2.254  0.00  0.00    -0.082 A 
ATOM      7  C5  PXY d   1      -0.120  -0.166   0.932  0.00  0.00     0.003 A 
ATOM      8  C6  PXY d   1      -1.431  -0.176   0.463  0.00  0.00     0.003 A 
ENDROOT
TORSDOF 0
ENDMDL
