MODEL 1
REMARK minimizedAffinity -4.15604448
REMARK minimizedRMSD -1
REMARK  0 active torsions:
REMARK  status: ('A' for Active; 'I' for Inactive)
ROOT
ATOM      1  C4' PXY d   1      -0.467  -1.936  -3.045  0.00  0.00     0.077 C 
ATOM      2  C1' PXY d   1       4.823   0.391  -2.913  0.00  0.00     0.077 C 
ATOM      3  C1  PXY d   1       3.432  -0.210  -2.939  0.00  0.00    -0.082 A 
ATOM      4  C2  PXY d   1       3.272  -1.472  -3.301  0.00  0.00     0.003 A 
ATOM      5  C3  PXY d   1       2.017  -2.023  -3.361  0.00  0.00     0.003 A 
ATOM      6  C4  PXY d   1       0.921  -1.290  -2.995  0.00  0.00    -0.082 A 
ATOM      7  C5  PXY d   1       1.077  -0.004  -2.614  0.00  0.00     0.003 A 
ATOM      8  C6  PXY d   1       2.354   0.548  -2.599  0.00  0.00     0.003 A 
ENDROOT
TORSDOF 0
ENDMDL
