MODEL 1
REMARK minimizedAffinity -4.4279418
REMARK minimizedRMSD -1
REMARK  0 active torsions:
REMARK  status: ('A' for Active; 'I' for Inactive)
ROOT
ATOM      1  C4' PXY d   1       1.059  -0.305  -2.260  0.00  0.00     0.077 C 
ATOM      2  C1' PXY d   1      -0.176   0.328   3.351  0.00  0.00     0.077 C 
ATOM      3  C1  PXY d   1       0.158   0.170   1.881  0.00  0.00    -0.082 A 
ATOM      4  C2  PXY d   1      -0.784  -0.214   1.034  0.00  0.00     0.003 A 
ATOM      5  C3  PXY d   1      -0.491  -0.392  -0.294  0.00  0.00     0.003 A 
ATOM      6  C4  PXY d   1       0.765  -0.123  -0.769  0.00  0.00    -0.082 A 
ATOM      7  C5  PXY d   1       1.728   0.279   0.087  0.00  0.00     0.003 A 
ATOM      8  C6  PXY d   1       1.421   0.415   1.438  0.00  0.00     0.003 A 
ENDROOT
TORSDOF 0
ENDMDL
