MODEL 1
REMARK minimizedAffinity -5.28960228
REMARK minimizedRMSD -1
REMARK  0 active torsions:
REMARK  status: ('A' for Active; 'I' for Inactive)
ROOT
ATOM      1  C4' PXY d   1      -1.078   1.395  -2.199  0.00  0.00     0.077 C 
ATOM      2  C1' PXY d   1      -0.360  -0.867   3.072  0.00  0.00     0.077 C 
ATOM      3  C1  PXY d   1      -0.560  -0.280   1.688  0.00  0.00    -0.082 A 
ATOM      4  C2  PXY d   1       0.493   0.083   0.974  0.00  0.00     0.003 A 
ATOM      5  C3  PXY d   1       0.329   0.645  -0.266  0.00  0.00     0.003 A 
ATOM      6  C4  PXY d   1      -0.923   0.789  -0.802  0.00  0.00    -0.082 A 
ATOM      7  C5  PXY d   1      -2.002   0.411  -0.083  0.00  0.00     0.003 A 
ATOM      8  C6  PXY d   1      -1.816  -0.120   1.190  0.00  0.00     0.003 A 
ENDROOT
TORSDOF 0
ENDMDL
