MODEL 1
REMARK minimizedAffinity -5.01348352
REMARK minimizedRMSD -1
REMARK  0 active torsions:
REMARK  status: ('A' for Active; 'I' for Inactive)
ROOT
ATOM      1  C4' PXY d   1       0.750   0.116  -2.431  0.00  0.00     0.077 C 
ATOM      2  C1' PXY d   1      -1.015   0.065   3.073  0.00  0.00     0.077 C 
ATOM      3  C1  PXY d   1      -0.542   0.086   1.633  0.00  0.00    -0.082 A 
ATOM      4  C2  PXY d   1      -1.393  -0.200   0.661  0.00  0.00     0.003 A 
ATOM      5  C3  PXY d   1      -0.975  -0.216  -0.645  0.00  0.00     0.003 A 
ATOM      6  C4  PXY d   1       0.315   0.116  -0.963  0.00  0.00    -0.082 A 
ATOM      7  C5  PXY d   1       1.186   0.420   0.022  0.00  0.00     0.003 A 
ATOM      8  C6  PXY d   1       0.752   0.390   1.344  0.00  0.00     0.003 A 
ENDROOT
TORSDOF 0
ENDMDL
