MODEL 1
REMARK minimizedAffinity -5.92256021
REMARK minimizedRMSD -1
REMARK  0 active torsions:
REMARK  status: ('A' for Active; 'I' for Inactive)
ROOT
ATOM      1  C4' PXY d   1       2.524   0.402   1.175  0.00  0.00     0.077 C 
ATOM      2  C1' PXY d   1      -3.228  -0.130   1.410  0.00  0.00     0.077 C 
ATOM      3  C1  PXY d   1      -1.719   0.013   1.361  0.00  0.00    -0.082 A 
ATOM      4  C2  PXY d   1      -1.123   0.262   0.207  0.00  0.00     0.003 A 
ATOM      5  C3  PXY d   1       0.243   0.362   0.139  0.00  0.00     0.003 A 
ATOM      6  C4  PXY d   1       1.002   0.259   1.273  0.00  0.00    -0.082 A 
ATOM      7  C5  PXY d   1       0.401   0.016   2.457  0.00  0.00     0.003 A 
ATOM      8  C6  PXY d   1      -0.984  -0.124   2.498  0.00  0.00     0.003 A 
ENDROOT
TORSDOF 0
ENDMDL
