MODEL 1
REMARK minimizedAffinity -4.15003967
REMARK minimizedRMSD -1
REMARK  0 active torsions:
REMARK  status: ('A' for Active; 'I' for Inactive)
ROOT
ATOM      1  C4' PXY d   1       0.656   0.271  -1.950  0.00  0.00     0.077 C 
ATOM      2  C1' PXY d   1      -0.699  -0.684   3.588  0.00  0.00     0.077 C 
ATOM      3  C1  PXY d   1      -0.334  -0.425   2.139  0.00  0.00    -0.082 A 
ATOM      4  C2  PXY d   1      -1.225  -0.659   1.189  0.00  0.00     0.003 A 
ATOM      5  C3  PXY d   1      -0.901  -0.460  -0.129  0.00  0.00     0.003 A 
ATOM      6  C4  PXY d   1       0.329   0.033  -0.473  0.00  0.00    -0.082 A 
ATOM      7  C5  PXY d   1       1.239   0.283   0.491  0.00  0.00     0.003 A 
ATOM      8  C6  PXY d   1       0.905   0.036   1.820  0.00  0.00     0.003 A 
ENDROOT
TORSDOF 0
ENDMDL
