MODEL 1
REMARK minimizedAffinity -4.7432704
REMARK minimizedRMSD -1
REMARK  0 active torsions:
REMARK  status: ('A' for Active; 'I' for Inactive)
ROOT
ATOM      1  C4' PXY d   1       1.687   0.086  -0.968  0.00  0.00     0.077 C 
ATOM      2  C1' PXY d   1      -1.791  -0.516   3.610  0.00  0.00     0.077 C 
ATOM      3  C1  PXY d   1      -0.869  -0.353   2.417  0.00  0.00    -0.082 A 
ATOM      4  C2  PXY d   1      -1.385  -0.220   1.206  0.00  0.00     0.003 A 
ATOM      5  C3  PXY d   1      -0.565  -0.104   0.113  0.00  0.00     0.003 A 
ATOM      6  C4  PXY d   1       0.795  -0.071   0.267  0.00  0.00    -0.082 A 
ATOM      7  C5  PXY d   1       1.328  -0.196   1.500  0.00  0.00     0.003 A 
ATOM      8  C6  PXY d   1       0.480  -0.354   2.593  0.00  0.00     0.003 A 
ENDROOT
TORSDOF 0
ENDMDL
