MODEL 1
REMARK minimizedAffinity -3.5837729
REMARK minimizedRMSD -1
REMARK  0 active torsions:
REMARK  status: ('A' for Active; 'I' for Inactive)
ROOT
ATOM      1  C4' PXY d   1       1.375   2.213   4.364  0.00  0.00     0.077 C 
ATOM      2  C1' PXY d   1       0.002  -0.263  -0.675  0.00  0.00     0.077 C 
ATOM      3  C1  PXY d   1       0.350   0.384   0.651  0.00  0.00    -0.082 A 
ATOM      4  C2  PXY d   1       1.330   1.271   0.709  0.00  0.00     0.003 A 
ATOM      5  C3  PXY d   1       1.679   1.842   1.905  0.00  0.00     0.003 A 
ATOM      6  C4  PXY d   1       0.983   1.542   3.045  0.00  0.00    -0.082 A 
ATOM      7  C5  PXY d   1      -0.026   0.646   2.993  0.00  0.00     0.003 A 
ATOM      8  C6  PXY d   1      -0.337   0.047   1.776  0.00  0.00     0.003 A 
ENDROOT
TORSDOF 0
ENDMDL
