MODEL 1
REMARK minimizedAffinity -3.07218027
REMARK minimizedRMSD -1
REMARK  0 active torsions:
REMARK  status: ('A' for Active; 'I' for Inactive)
ROOT
ATOM      1  C4' PXY d   1       1.127  -0.362  -2.972  0.00  0.00     0.077 C 
ATOM      2  C1' PXY d   1       0.181  -0.134   2.726  0.00  0.00     0.077 C 
ATOM      3  C1  PXY d   1       0.416  -0.194   1.229  0.00  0.00    -0.082 A 
ATOM      4  C2  PXY d   1       1.548  -0.699   0.765  0.00  0.00     0.003 A 
ATOM      5  C3  PXY d   1       1.790  -0.731  -0.585  0.00  0.00     0.003 A 
ATOM      6  C4  PXY d   1       0.843  -0.291  -1.470  0.00  0.00    -0.082 A 
ATOM      7  C5  PXY d   1      -0.319   0.216  -1.004  0.00  0.00     0.003 A 
ATOM      8  C6  PXY d   1      -0.528   0.277   0.371  0.00  0.00     0.003 A 
ENDROOT
TORSDOF 0
ENDMDL
