MODEL 1
REMARK minimizedAffinity -3.4086349
REMARK minimizedRMSD -1
REMARK  0 active torsions:
REMARK  status: ('A' for Active; 'I' for Inactive)
ROOT
ATOM      1  C4' PXY d   1       0.456  -0.124  -1.664  0.00  0.00     0.077 C 
ATOM      2  C1' PXY d   1      -1.261  -0.896   3.802  0.00  0.00     0.077 C 
ATOM      3  C1  PXY d   1      -0.804  -0.683   2.372  0.00  0.00    -0.082 A 
ATOM      4  C2  PXY d   1      -1.529  -1.164   1.375  0.00  0.00     0.003 A 
ATOM      5  C3  PXY d   1      -1.114  -1.008   0.078  0.00  0.00     0.003 A 
ATOM      6  C4  PXY d   1       0.028  -0.307  -0.205  0.00  0.00    -0.082 A 
ATOM      7  C5  PXY d   1       0.767   0.196   0.806  0.00  0.00     0.003 A 
ATOM      8  C6  PXY d   1       0.350  -0.008   2.118  0.00  0.00     0.003 A 
ENDROOT
TORSDOF 0
ENDMDL
