MODEL 1
REMARK minimizedAffinity -5.0915494
REMARK minimizedRMSD -1
REMARK  0 active torsions:
REMARK  status: ('A' for Active; 'I' for Inactive)
ROOT
ATOM      1  C4' PXY d   1       0.636   0.678  -1.454  0.00  0.00     0.077 C 
ATOM      2  C1' PXY d   1      -1.622  -0.606   3.710  0.00  0.00     0.077 C 
ATOM      3  C1  PXY d   1      -1.021  -0.261   2.362  0.00  0.00    -0.082 A 
ATOM      4  C2  PXY d   1      -1.740  -0.430   1.263  0.00  0.00     0.003 A 
ATOM      5  C3  PXY d   1      -1.201  -0.153   0.033  0.00  0.00     0.003 A 
ATOM      6  C4  PXY d   1       0.067   0.352  -0.070  0.00  0.00    -0.082 A 
ATOM      7  C5  PXY d   1       0.803   0.537   1.046  0.00  0.00     0.003 A 
ATOM      8  C6  PXY d   1       0.252   0.211   2.283  0.00  0.00     0.003 A 
ENDROOT
TORSDOF 0
ENDMDL
