MODEL 1
REMARK minimizedAffinity -3.97103691
REMARK minimizedRMSD -1
REMARK  0 active torsions:
REMARK  status: ('A' for Active; 'I' for Inactive)
ROOT
ATOM      1  C4' PXY d   1       0.971   0.380   2.669  0.00  0.00     0.077 C 
ATOM      2  C1' PXY d   1       0.852   0.078  -3.102  0.00  0.00     0.077 C 
ATOM      3  C1  PXY d   1       0.893   0.166  -1.589  0.00  0.00    -0.082 A 
ATOM      4  C2  PXY d   1       0.444  -0.845  -0.863  0.00  0.00     0.003 A 
ATOM      5  C3  PXY d   1       0.444  -0.769   0.506  0.00  0.00     0.003 A 
ATOM      6  C4  PXY d   1       0.958   0.331   1.139  0.00  0.00    -0.082 A 
ATOM      7  C5  PXY d   1       1.428   1.362   0.405  0.00  0.00     0.003 A 
ATOM      8  C6  PXY d   1       1.381   1.283  -0.984  0.00  0.00     0.003 A 
ENDROOT
TORSDOF 0
ENDMDL
