MODEL 1
REMARK minimizedAffinity -0.127864718
REMARK minimizedRMSD -1
REMARK  0 active torsions:
REMARK  status: ('A' for Active; 'I' for Inactive)
ROOT
ATOM      1  C4' PXY d   1       3.083   1.495   1.059  0.00  0.00     0.077 C 
ATOM      2  C1' PXY d   1      -2.098   0.346   3.352  0.00  0.00     0.077 C 
ATOM      3  C1  PXY d   1      -0.740   0.637   2.743  0.00  0.00    -0.082 A 
ATOM      4  C2  PXY d   1       0.158   1.313   3.440  0.00  0.00     0.003 A 
ATOM      5  C3  PXY d   1       1.379   1.613   2.892  0.00  0.00     0.003 A 
ATOM      6  C4  PXY d   1       1.703   1.170   1.638  0.00  0.00    -0.082 A 
ATOM      7  C5  PXY d   1       0.796   0.470   0.924  0.00  0.00     0.003 A 
ATOM      8  C6  PXY d   1      -0.453   0.212   1.483  0.00  0.00     0.003 A 
ENDROOT
TORSDOF 0
ENDMDL
