MODEL 1
REMARK minimizedAffinity -4.04826546
REMARK minimizedRMSD -1
REMARK  0 active torsions:
REMARK  status: ('A' for Active; 'I' for Inactive)
ROOT
ATOM      1  C4' PXY d   1      -3.561   0.137   1.643  0.00  0.00     0.077 C 
ATOM      2  C1' PXY d   1       2.213   0.066   1.913  0.00  0.00     0.077 C 
ATOM      3  C1  PXY d   1       0.698   0.079   1.854  0.00  0.00    -0.082 A 
ATOM      4  C2  PXY d   1       0.090   0.087   0.679  0.00  0.00     0.003 A 
ATOM      5  C3  PXY d   1      -1.279   0.132   0.608  0.00  0.00     0.003 A 
ATOM      6  C4  PXY d   1      -2.033   0.113   1.750  0.00  0.00    -0.082 A 
ATOM      7  C5  PXY d   1      -1.420   0.094   2.952  0.00  0.00     0.003 A 
ATOM      8  C6  PXY d   1      -0.029   0.091   3.004  0.00  0.00     0.003 A 
ENDROOT
TORSDOF 0
ENDMDL
