MODEL 1
REMARK minimizedAffinity -3.36089659
REMARK minimizedRMSD -1
REMARK  0 active torsions:
REMARK  status: ('A' for Active; 'I' for Inactive)
ROOT
ATOM      1  C4' PXY d   1      -0.590  -0.856   3.534  0.00  0.00     0.077 C 
ATOM      2  C1' PXY d   1       0.475   0.334  -2.021  0.00  0.00     0.077 C 
ATOM      3  C1  PXY d   1       0.209   0.022  -0.562  0.00  0.00    -0.082 A 
ATOM      4  C2  PXY d   1      -0.927  -0.562  -0.215  0.00  0.00     0.003 A 
ATOM      5  C3  PXY d   1      -1.198  -0.822   1.104  0.00  0.00     0.003 A 
ATOM      6  C4  PXY d   1      -0.274  -0.531   2.072  0.00  0.00    -0.082 A 
ATOM      7  C5  PXY d   1       0.892   0.055   1.724  0.00  0.00     0.003 A 
ATOM      8  C6  PXY d   1       1.130   0.348   0.385  0.00  0.00     0.003 A 
ENDROOT
TORSDOF 0
ENDMDL
