MODEL 1
REMARK minimizedAffinity -3.46832108
REMARK minimizedRMSD -1
REMARK  0 active torsions:
REMARK  status: ('A' for Active; 'I' for Inactive)
ROOT
ATOM      1  C   UNL d   1      -0.462   0.849  -0.438  0.00  0.00     0.172 C 
ATOM      2  N   UNL d   1       0.229  -0.334   0.020  0.00  0.00    -0.070 N 
ATOM      3  C1  UNL d   1       1.562  -0.597  -0.153  0.00  0.00    -0.004 A 
ATOM      4  C2  UNL d   1       1.829  -1.819   0.425  0.00  0.00    -0.047 A 
ATOM      5  C3  UNL d   1       0.614  -2.308   0.962  0.00  0.00    -0.047 A 
ATOM      6  C4  UNL d   1      -0.360  -1.369   0.697  0.00  0.00    -0.004 A 
ENDROOT
TORSDOF 0
ENDMDL
