MODEL 1
REMARK minimizedAffinity -2.56108832
REMARK minimizedRMSD -1
REMARK  0 active torsions:
REMARK  status: ('A' for Active; 'I' for Inactive)
ROOT
ATOM      1  C   UNL d   1       1.667  -2.471   1.706  0.00  0.00     0.172 C 
ATOM      2  N   UNL d   1       0.825  -1.531   1.005  0.00  0.00    -0.070 N 
ATOM      3  C1  UNL d   1      -0.214  -0.827   1.554  0.00  0.00    -0.004 A 
ATOM      4  C2  UNL d   1      -0.762  -0.042   0.562  0.00  0.00    -0.047 A 
ATOM      5  C3  UNL d   1      -0.028  -0.283  -0.623  0.00  0.00    -0.047 A 
ATOM      6  C4  UNL d   1       0.948  -1.209  -0.321  0.00  0.00    -0.004 A 
ENDROOT
TORSDOF 0
ENDMDL
