MODEL 1
REMARK minimizedAffinity -2.71776652
REMARK minimizedRMSD -1
REMARK  0 active torsions:
REMARK  status: ('A' for Active; 'I' for Inactive)
ROOT
ATOM      1  C   UNL d   1       2.144  -2.034   0.752  0.00  0.00     0.172 C 
ATOM      2  N   UNL d   1       1.379  -0.928   0.227  0.00  0.00    -0.070 N 
ATOM      3  C1  UNL d   1       1.776  -0.089  -0.781  0.00  0.00    -0.004 A 
ATOM      4  C2  UNL d   1       0.769   0.830  -0.986  0.00  0.00    -0.047 A 
ATOM      5  C3  UNL d   1      -0.268   0.534  -0.070  0.00  0.00    -0.047 A 
ATOM      6  C4  UNL d   1       0.136  -0.559   0.669  0.00  0.00    -0.004 A 
ENDROOT
TORSDOF 0
ENDMDL
