MODEL 1
REMARK minimizedAffinity -3.98369241
REMARK minimizedRMSD -1
REMARK  0 active torsions:
REMARK  status: ('A' for Active; 'I' for Inactive)
ROOT
ATOM      1  C   UNL d   1      -0.525  -1.924   2.965  0.00  0.00     0.172 C 
ATOM      2  N   UNL d   1       0.329  -1.934   1.801  0.00  0.00    -0.070 N 
ATOM      3  C1  UNL d   1       0.358  -0.974   0.824  0.00  0.00    -0.004 A 
ATOM      4  C2  UNL d   1       1.302  -1.349  -0.107  0.00  0.00    -0.047 A 
ATOM      5  C3  UNL d   1       1.859  -2.577   0.324  0.00  0.00    -0.047 A 
ATOM      6  C4  UNL d   1       1.238  -2.916   1.507  0.00  0.00    -0.004 A 
ENDROOT
TORSDOF 0
ENDMDL
