MODEL 1
REMARK minimizedAffinity -2.12737489
REMARK minimizedRMSD -1
REMARK  0 active torsions:
REMARK  status: ('A' for Active; 'I' for Inactive)
ROOT
ATOM      1  C   UNL d   1      -0.722   0.799  -0.409  0.00  0.00     0.172 C 
ATOM      2  N   UNL d   1      -1.358   1.067  -1.678  0.00  0.00    -0.070 N 
ATOM      3  C1  UNL d   1      -1.212   2.210  -2.418  0.00  0.00    -0.004 A 
ATOM      4  C2  UNL d   1      -1.977   2.075  -3.557  0.00  0.00    -0.047 A 
ATOM      5  C3  UNL d   1      -2.605   0.808  -3.498  0.00  0.00    -0.047 A 
ATOM      6  C4  UNL d   1      -2.204   0.205  -2.325  0.00  0.00    -0.004 A 
ENDROOT
TORSDOF 0
ENDMDL
