MODEL 1
REMARK minimizedAffinity -3.14626098
REMARK minimizedRMSD -1
REMARK  0 active torsions:
REMARK  status: ('A' for Active; 'I' for Inactive)
ROOT
ATOM      1  C   UNL d   1      -0.598  -0.251  -0.488  0.00  0.00     0.172 C 
ATOM      2  N   UNL d   1       0.531  -1.010  -0.004  0.00  0.00    -0.070 N 
ATOM      3  C1  UNL d   1       1.827  -0.871  -0.425  0.00  0.00    -0.004 A 
ATOM      4  C2  UNL d   1       2.598  -1.771   0.277  0.00  0.00    -0.047 A 
ATOM      5  C3  UNL d   1       1.736  -2.477   1.150  0.00  0.00    -0.047 A 
ATOM      6  C4  UNL d   1       0.463  -1.985   0.956  0.00  0.00    -0.004 A 
ENDROOT
TORSDOF 0
ENDMDL
