MODEL 1
REMARK minimizedAffinity -1.67626703
REMARK minimizedRMSD -1
REMARK  0 active torsions:
REMARK  status: ('A' for Active; 'I' for Inactive)
ROOT
ATOM      1  C   UNL d   1      -0.905   3.003  -3.986  0.00  0.00     0.172 C 
ATOM      2  N   UNL d   1      -1.745   1.887  -3.618  0.00  0.00    -0.070 N 
ATOM      3  C1  UNL d   1      -1.356   0.808  -2.871  0.00  0.00    -0.004 A 
ATOM      4  C2  UNL d   1      -2.443  -0.030  -2.742  0.00  0.00    -0.047 A 
ATOM      5  C3  UNL d   1      -3.522   0.566  -3.436  0.00  0.00    -0.047 A 
ATOM      6  C4  UNL d   1      -3.062   1.752  -3.969  0.00  0.00    -0.004 A 
ENDROOT
TORSDOF 0
ENDMDL
