MODEL 1
REMARK minimizedAffinity -3.07163739
REMARK minimizedRMSD -1
REMARK  0 active torsions:
REMARK  status: ('A' for Active; 'I' for Inactive)
ROOT
ATOM      1  C   UNL d   1       0.152   0.265   0.025  0.00  0.00     0.172 C 
ATOM      2  N   UNL d   1       0.774  -0.893   0.623  0.00  0.00    -0.070 N 
ATOM      3  C1  UNL d   1       0.167  -1.773   1.479  0.00  0.00    -0.004 A 
ATOM      4  C2  UNL d   1       1.092  -2.735   1.822  0.00  0.00    -0.047 A 
ATOM      5  C3  UNL d   1       2.298  -2.421   1.151  0.00  0.00    -0.047 A 
ATOM      6  C4  UNL d   1       2.073  -1.277   0.415  0.00  0.00    -0.004 A 
ENDROOT
TORSDOF 0
ENDMDL
