MODEL 1
REMARK minimizedAffinity -3.52323794
REMARK minimizedRMSD -1
REMARK  0 active torsions:
REMARK  status: ('A' for Active; 'I' for Inactive)
ROOT
ATOM      1  C   UNL d   1      -0.799   0.823  -0.582  0.00  0.00     0.172 C 
ATOM      2  N   UNL d   1       0.135  -0.174  -0.112  0.00  0.00    -0.070 N 
ATOM      3  C1  UNL d   1       1.498  -0.107  -0.224  0.00  0.00    -0.004 A 
ATOM      4  C2  UNL d   1       2.024  -1.247   0.345  0.00  0.00    -0.047 A 
ATOM      5  C3  UNL d   1       0.940  -2.026   0.814  0.00  0.00    -0.047 A 
ATOM      6  C4  UNL d   1      -0.218  -1.338   0.519  0.00  0.00    -0.004 A 
ENDROOT
TORSDOF 0
ENDMDL
