MODEL 1
REMARK minimizedAffinity -3.60119772
REMARK minimizedRMSD -1
REMARK  0 active torsions:
REMARK  status: ('A' for Active; 'I' for Inactive)
ROOT
ATOM      1  C   UNL d   1       0.487  -0.434  -0.004  0.00  0.00     0.172 C 
ATOM      2  N   UNL d   1      -0.549   0.252  -0.740  0.00  0.00    -0.070 N 
ATOM      3  C1  UNL d   1      -1.080  -0.152  -1.936  0.00  0.00    -0.004 A 
ATOM      4  C2  UNL d   1      -2.038   0.768  -2.305  0.00  0.00    -0.047 A 
ATOM      5  C3  UNL d   1      -2.084   1.759  -1.296  0.00  0.00    -0.047 A 
ATOM      6  C4  UNL d   1      -1.153   1.415  -0.339  0.00  0.00    -0.004 A 
ENDROOT
TORSDOF 0
ENDMDL
