MODEL 1
REMARK minimizedAffinity -3.82811475
REMARK minimizedRMSD -1
REMARK  0 active torsions:
REMARK  status: ('A' for Active; 'I' for Inactive)
ROOT
ATOM      1  C   UNL d   1       2.000  -2.648   1.294  0.00  0.00     0.172 C 
ATOM      2  N   UNL d   1       0.959  -1.715   0.932  0.00  0.00    -0.070 N 
ATOM      3  C1  UNL d   1       0.989  -0.859  -0.136  0.00  0.00    -0.004 A 
ATOM      4  C2  UNL d   1      -0.187  -0.141  -0.135  0.00  0.00    -0.047 A 
ATOM      5  C3  UNL d   1      -0.951  -0.580   0.973  0.00  0.00    -0.047 A 
ATOM      6  C4  UNL d   1      -0.218  -1.555   1.616  0.00  0.00    -0.004 A 
ENDROOT
TORSDOF 0
ENDMDL
