MODEL 1
REMARK minimizedAffinity -1.589867
REMARK minimizedRMSD -1
REMARK  0 active torsions:
REMARK  status: ('A' for Active; 'I' for Inactive)
ROOT
ATOM      1  C   UNL d   1      -0.881   1.476  -0.420  0.00  0.00     0.172 C 
ATOM      2  N   UNL d   1      -1.577   1.529  -1.684  0.00  0.00    -0.070 N 
ATOM      3  C1  UNL d   1      -1.804   0.466  -2.516  0.00  0.00    -0.004 A 
ATOM      4  C2  UNL d   1      -2.497   0.929  -3.614  0.00  0.00    -0.047 A 
ATOM      5  C3  UNL d   1      -2.692   2.319  -3.435  0.00  0.00    -0.047 A 
ATOM      6  C4  UNL d   1      -2.113   2.665  -2.233  0.00  0.00    -0.004 A 
ENDROOT
TORSDOF 0
ENDMDL
