MODEL 1
REMARK minimizedAffinity -2.01934171
REMARK minimizedRMSD -1
REMARK  0 active torsions:
REMARK  status: ('A' for Active; 'I' for Inactive)
ROOT
ATOM      1  C1  BNZ d   1       3.380  -4.829  -5.212  0.00  0.00     0.000 A 
ATOM      2  C2  BNZ d   1       3.374  -6.000  -4.501  0.00  0.00     0.000 A 
ATOM      3  C3  BNZ d   1       3.157  -5.998  -3.151  0.00  0.00     0.000 A 
ATOM      4  C4  BNZ d   1       2.987  -4.825  -2.509  0.00  0.00     0.000 A 
ATOM      5  C5  BNZ d   1       3.000  -3.635  -3.210  0.00  0.00     0.000 A 
ATOM      6  C6  BNZ d   1       3.180  -3.644  -4.574  0.00  0.00     0.000 A 
ENDROOT
TORSDOF 0
ENDMDL
