MODEL 1
REMARK minimizedAffinity 0.415422201
REMARK minimizedRMSD -1
REMARK  0 active torsions:
REMARK  status: ('A' for Active; 'I' for Inactive)
ROOT
ATOM      1  C1  BNZ d   1       2.214   0.980   1.725  0.00  0.00     0.000 A 
ATOM      2  C2  BNZ d   1       1.960   1.952   0.795  0.00  0.00     0.000 A 
ATOM      3  C3  BNZ d   1       0.813   1.928   0.053  0.00  0.00     0.000 A 
ATOM      4  C4  BNZ d   1      -0.060   0.912   0.213  0.00  0.00     0.000 A 
ATOM      5  C5  BNZ d   1       0.187  -0.081   1.140  0.00  0.00     0.000 A 
ATOM      6  C6  BNZ d   1       1.324  -0.032   1.913  0.00  0.00     0.000 A 
ENDROOT
TORSDOF 0
ENDMDL
