MODEL 1
REMARK minimizedAffinity -1.69013178
REMARK minimizedRMSD -1
REMARK  0 active torsions:
REMARK  status: ('A' for Active; 'I' for Inactive)
ROOT
ATOM      1  C1  BNZ d   1       1.090   1.736   0.433  0.00  0.00     0.000 A 
ATOM      2  C2  BNZ d   1       2.108   1.645   1.345  0.00  0.00     0.000 A 
ATOM      3  C3  BNZ d   1       2.331   0.484   2.031  0.00  0.00     0.000 A 
ATOM      4  C4  BNZ d   1       1.513  -0.569   1.835  0.00  0.00     0.000 A 
ATOM      5  C5  BNZ d   1       0.476  -0.490   0.927  0.00  0.00     0.000 A 
ATOM      6  C6  BNZ d   1       0.278   0.667   0.209  0.00  0.00     0.000 A 
ENDROOT
TORSDOF 0
ENDMDL
