MODEL 1
REMARK minimizedAffinity 0.483260393
REMARK minimizedRMSD -1
REMARK  0 active torsions:
REMARK  status: ('A' for Active; 'I' for Inactive)
ROOT
ATOM      1  C1  BNZ d   1       4.019  -1.139  -4.852  0.00  0.00     0.000 A 
ATOM      2  C2  BNZ d   1       4.247  -1.850  -6.000  0.00  0.00     0.000 A 
ATOM      3  C3  BNZ d   1       4.194  -3.216  -6.000  0.00  0.00     0.000 A 
ATOM      4  C4  BNZ d   1       3.953  -3.870  -4.845  0.00  0.00     0.000 A 
ATOM      5  C5  BNZ d   1       3.730  -3.168  -3.677  0.00  0.00     0.000 A 
ATOM      6  C6  BNZ d   1       3.746  -1.792  -3.689  0.00  0.00     0.000 A 
ENDROOT
TORSDOF 0
ENDMDL
