MODEL 1
REMARK minimizedAffinity 6.20338106
REMARK minimizedRMSD -1
REMARK  0 active torsions:
REMARK  status: ('A' for Active; 'I' for Inactive)
ROOT
ATOM      1  C1  BNZ d   1      -3.472   1.986  -2.924  0.00  0.00     0.000 A 
ATOM      2  C2  BNZ d   1      -2.945   0.722  -2.904  0.00  0.00     0.000 A 
ATOM      3  C3  BNZ d   1      -3.052  -0.098  -3.993  0.00  0.00     0.000 A 
ATOM      4  C4  BNZ d   1      -3.719   0.331  -5.083  0.00  0.00     0.000 A 
ATOM      5  C5  BNZ d   1      -4.264   1.600  -5.115  0.00  0.00     0.000 A 
ATOM      6  C6  BNZ d   1      -4.121   2.436  -4.032  0.00  0.00     0.000 A 
ENDROOT
TORSDOF 0
ENDMDL
