MODEL 1
REMARK minimizedAffinity 0.880198717
REMARK minimizedRMSD -1
REMARK  0 active torsions:
REMARK  status: ('A' for Active; 'I' for Inactive)
ROOT
ATOM      1  C1  BNZ d   1       3.549   0.674   0.274  0.00  0.00     0.000 A 
ATOM      2  C2  BNZ d   1       2.919   1.729  -0.331  0.00  0.00     0.000 A 
ATOM      3  C3  BNZ d   1       1.592   1.971  -0.112  0.00  0.00     0.000 A 
ATOM      4  C4  BNZ d   1       0.887   1.136   0.679  0.00  0.00     0.000 A 
ATOM      5  C5  BNZ d   1       1.505   0.063   1.289  0.00  0.00     0.000 A 
ATOM      6  C6  BNZ d   1       2.850  -0.155   1.097  0.00  0.00     0.000 A 
ENDROOT
TORSDOF 0
ENDMDL
