MODEL 1
REMARK minimizedAffinity 3.12365007
REMARK minimizedRMSD -1
REMARK  0 active torsions:
REMARK  status: ('A' for Active; 'I' for Inactive)
ROOT
ATOM      1  C1  BNZ d   1      -1.327  -1.729  -0.623  0.00  0.00     0.000 A 
ATOM      2  C2  BNZ d   1      -1.892  -1.813  -1.868  0.00  0.00     0.000 A 
ATOM      3  C3  BNZ d   1      -1.131  -2.113  -2.963  0.00  0.00     0.000 A 
ATOM      4  C4  BNZ d   1       0.198  -2.289  -2.819  0.00  0.00     0.000 A 
ATOM      5  C5  BNZ d   1       0.784  -2.198  -1.572  0.00  0.00     0.000 A 
ATOM      6  C6  BNZ d   1       0.009  -1.935  -0.466  0.00  0.00     0.000 A 
ENDROOT
TORSDOF 0
ENDMDL
