MODEL 1
REMARK minimizedAffinity 0.125151783
REMARK minimizedRMSD -1
REMARK  0 active torsions:
REMARK  status: ('A' for Active; 'I' for Inactive)
ROOT
ATOM      1  C1  BNZ d   1      -2.548  -2.265  -3.278  0.00  0.00     0.000 A 
ATOM      2  C2  BNZ d   1      -3.090  -1.314  -4.100  0.00  0.00     0.000 A 
ATOM      3  C3  BNZ d   1      -3.292  -0.037  -3.655  0.00  0.00     0.000 A 
ATOM      4  C4  BNZ d   1      -2.991   0.275  -2.379  0.00  0.00     0.000 A 
ATOM      5  C5  BNZ d   1      -2.453  -0.675  -1.534  0.00  0.00     0.000 A 
ATOM      6  C6  BNZ d   1      -2.214  -1.949  -1.997  0.00  0.00     0.000 A 
ENDROOT
TORSDOF 0
ENDMDL
