MODEL 1
REMARK minimizedAffinity 1.45322108
REMARK minimizedRMSD -1
REMARK  0 active torsions:
REMARK  status: ('A' for Active; 'I' for Inactive)
ROOT
ATOM      1  C1  BNZ d   1       1.698  -0.515   2.559  0.00  0.00     0.000 A 
ATOM      2  C2  BNZ d   1       0.795  -0.770   1.562  0.00  0.00     0.000 A 
ATOM      3  C3  BNZ d   1       0.724   0.034   0.459  0.00  0.00     0.000 A 
ATOM      4  C4  BNZ d   1       1.528   1.114   0.373  0.00  0.00     0.000 A 
ATOM      5  C5  BNZ d   1       2.437   1.390   1.375  0.00  0.00     0.000 A 
ATOM      6  C6  BNZ d   1       2.532   0.556   2.465  0.00  0.00     0.000 A 
ENDROOT
TORSDOF 0
ENDMDL
