MODEL 1
REMARK minimizedAffinity -2.06145215
REMARK minimizedRMSD -1
REMARK  0 active torsions:
REMARK  status: ('A' for Active; 'I' for Inactive)
ROOT
ATOM      1  C1  BNZ d   1       4.704  -1.226  -5.604  0.00  0.00     0.000 A 
ATOM      2  C2  BNZ d   1       5.917  -1.835  -5.791  0.00  0.00     0.000 A 
ATOM      3  C3  BNZ d   1       5.998  -3.184  -5.999  0.00  0.00     0.000 A 
ATOM      4  C4  BNZ d   1       4.872  -3.926  -5.979  0.00  0.00     0.000 A 
ATOM      5  C5  BNZ d   1       3.643  -3.328  -5.783  0.00  0.00     0.000 A 
ATOM      6  C6  BNZ d   1       3.562  -1.965  -5.613  0.00  0.00     0.000 A 
ENDROOT
TORSDOF 0
ENDMDL
