MODEL 1
REMARK minimizedAffinity 1.20622885
REMARK minimizedRMSD -1
REMARK  0 active torsions:
REMARK  status: ('A' for Active; 'I' for Inactive)
ROOT
ATOM      1  C1  BNZ d   1       0.296   1.037  -0.303  0.00  0.00     0.000 A 
ATOM      2  C2  BNZ d   1      -0.364   2.237  -0.300  0.00  0.00     0.000 A 
ATOM      3  C3  BNZ d   1       0.083   3.280   0.463  0.00  0.00     0.000 A 
ATOM      4  C4  BNZ d   1       1.164   3.109   1.251  0.00  0.00     0.000 A 
ATOM      5  C5  BNZ d   1       1.835   1.902   1.266  0.00  0.00     0.000 A 
ATOM      6  C6  BNZ d   1       1.405   0.867   0.468  0.00  0.00     0.000 A 
ENDROOT
TORSDOF 0
ENDMDL
