MODEL 1
REMARK minimizedAffinity -2.57510161
REMARK minimizedRMSD -1
REMARK  0 active torsions:
REMARK  status: ('A' for Active; 'I' for Inactive)
ROOT
ATOM      1  C   UNL d   1      -1.325   0.788  -0.001  0.00  0.00    -0.002 A 
ATOM      2  C1  UNL d   1      -1.323  -0.062   1.096  0.00  0.00     0.010 A 
ATOM      3  C2  UNL d   1      -0.175  -0.781   1.435  0.00  0.00     0.041 A 
ATOM      4  C3  UNL d   1       0.982  -0.630   0.646  0.00  0.00    -0.075 A 
ATOM      5  S   UNL d   1       2.503  -1.409   0.871  0.00  0.00     0.015 SA
ATOM      6  C4  UNL d   1       3.186  -0.632  -0.483  0.00  0.00     0.022 A 
ATOM      7  C5  UNL d   1       2.289   0.205  -1.104  0.00  0.00     0.026 A 
ATOM      8  C6  UNL d   1       1.004   0.220  -0.464  0.00  0.00    -0.082 A 
ATOM      9  C7  UNL d   1      -0.175   0.935  -0.782  0.00  0.00     0.045 A 
ENDROOT
TORSDOF 0
ENDMDL
