MODEL 1
REMARK minimizedAffinity 0.713474452
REMARK minimizedRMSD -1
REMARK  0 active torsions:
REMARK  status: ('A' for Active; 'I' for Inactive)
ROOT
ATOM      1  C   UNL d   1      -2.727   1.226  -3.180  0.00  0.00    -0.002 A 
ATOM      2  C1  UNL d   1      -1.565   1.939  -3.440  0.00  0.00     0.010 A 
ATOM      3  C2  UNL d   1      -0.513   1.942  -2.521  0.00  0.00     0.041 A 
ATOM      4  C3  UNL d   1      -0.649   1.208  -1.327  0.00  0.00    -0.075 A 
ATOM      5  S   UNL d   1       0.508   1.065  -0.057  0.00  0.00     0.015 SA
ATOM      6  C4  UNL d   1      -0.512   0.053   0.860  0.00  0.00     0.022 A 
ATOM      7  C5  UNL d   1      -1.710  -0.180   0.228  0.00  0.00     0.026 A 
ATOM      8  C6  UNL d   1      -1.809   0.481  -1.043  0.00  0.00    -0.082 A 
ATOM      9  C7  UNL d   1      -2.858   0.499  -1.994  0.00  0.00     0.045 A 
ENDROOT
TORSDOF 0
ENDMDL
