MODEL 1
REMARK minimizedAffinity -3.02801657
REMARK minimizedRMSD -1
REMARK  0 active torsions:
REMARK  status: ('A' for Active; 'I' for Inactive)
ROOT
ATOM      1  C   UNL d   1       1.152  -0.676   0.283  0.00  0.00    -0.002 A 
ATOM      2  C1  UNL d   1       1.508  -0.797  -1.052  0.00  0.00     0.010 A 
ATOM      3  C2  UNL d   1       0.684  -0.284  -2.056  0.00  0.00     0.041 A 
ATOM      4  C3  UNL d   1      -0.514   0.359  -1.691  0.00  0.00    -0.075 A 
ATOM      5  S   UNL d   1      -1.679   1.064  -2.749  0.00  0.00     0.015 SA
ATOM      6  C4  UNL d   1      -2.676   1.544  -1.453  0.00  0.00     0.022 A 
ATOM      7  C5  UNL d   1      -2.149   1.182  -0.236  0.00  0.00     0.026 A 
ATOM      8  C6  UNL d   1      -0.894   0.494  -0.353  0.00  0.00    -0.082 A 
ATOM      9  C7  UNL d   1      -0.037  -0.036   0.641  0.00  0.00     0.045 A 
ENDROOT
TORSDOF 0
ENDMDL
