MODEL 1
REMARK minimizedAffinity -2.87303805
REMARK minimizedRMSD -1
REMARK  0 active torsions:
REMARK  status: ('A' for Active; 'I' for Inactive)
ROOT
ATOM      1  C   UNL d   1       2.079  -1.404   0.138  0.00  0.00    -0.002 A 
ATOM      2  C1  UNL d   1       1.060  -1.892   0.943  0.00  0.00     0.010 A 
ATOM      3  C2  UNL d   1      -0.180  -1.251   0.985  0.00  0.00     0.041 A 
ATOM      4  C3  UNL d   1      -0.381  -0.102   0.196  0.00  0.00    -0.075 A 
ATOM      5  S   UNL d   1      -1.817   0.847   0.087  0.00  0.00     0.015 SA
ATOM      6  C4  UNL d   1      -1.110   1.921  -1.032  0.00  0.00     0.022 A 
ATOM      7  C5  UNL d   1       0.189   1.580  -1.325  0.00  0.00     0.026 A 
ATOM      8  C6  UNL d   1       0.630   0.408  -0.623  0.00  0.00    -0.082 A 
ATOM      9  C7  UNL d   1       1.877  -0.263  -0.643  0.00  0.00     0.045 A 
ENDROOT
TORSDOF 0
ENDMDL
