MODEL 1
REMARK minimizedAffinity -3.52583528
REMARK minimizedRMSD -1
REMARK  0 active torsions:
REMARK  status: ('A' for Active; 'I' for Inactive)
ROOT
ATOM      1  C   UNL d   1       1.288  -0.384   0.061  0.00  0.00    -0.002 A 
ATOM      2  C1  UNL d   1       1.117  -1.132  -1.096  0.00  0.00     0.010 A 
ATOM      3  C2  UNL d   1       0.078  -0.841  -1.982  0.00  0.00     0.041 A 
ATOM      4  C3  UNL d   1      -0.794   0.224  -1.685  0.00  0.00    -0.075 A 
ATOM      5  S   UNL d   1      -2.136   0.763  -2.624  0.00  0.00     0.015 SA
ATOM      6  C4  UNL d   1      -2.514   1.998  -1.512  0.00  0.00     0.022 A 
ATOM      7  C5  UNL d   1      -1.648   2.013  -0.444  0.00  0.00     0.026 A 
ATOM      8  C6  UNL d   1      -0.642   0.992  -0.527  0.00  0.00    -0.082 A 
ATOM      9  C7  UNL d   1       0.421   0.672   0.352  0.00  0.00     0.045 A 
ENDROOT
TORSDOF 0
ENDMDL
