MODEL 1
REMARK minimizedAffinity -2.45818925
REMARK minimizedRMSD -1
REMARK  0 active torsions:
REMARK  status: ('A' for Active; 'I' for Inactive)
ROOT
ATOM      1  C   UNL d   1       2.674  -1.370   0.488  0.00  0.00    -0.002 A 
ATOM      2  C1  UNL d   1       1.724  -1.938   1.324  0.00  0.00     0.010 A 
ATOM      3  C2  UNL d   1       0.405  -1.480   1.316  0.00  0.00     0.041 A 
ATOM      4  C3  UNL d   1       0.054  -0.432   0.443  0.00  0.00    -0.075 A 
ATOM      5  S   UNL d   1      -1.501   0.291   0.260  0.00  0.00     0.015 SA
ATOM      6  C4  UNL d   1      -0.941   1.371  -0.934  0.00  0.00     0.022 A 
ATOM      7  C5  UNL d   1       0.397   1.198  -1.199  0.00  0.00     0.026 A 
ATOM      8  C6  UNL d   1       0.992   0.156  -0.410  0.00  0.00    -0.082 A 
ATOM      9  C7  UNL d   1       2.322  -0.330  -0.377  0.00  0.00     0.045 A 
ENDROOT
TORSDOF 0
ENDMDL
