MODEL 1
REMARK minimizedAffinity 0.293853134
REMARK minimizedRMSD -1
REMARK  0 active torsions:
REMARK  status: ('A' for Active; 'I' for Inactive)
ROOT
ATOM      1  C   UNL d   1       0.469  -1.698   2.149  0.00  0.00    -0.002 A 
ATOM      2  C1  UNL d   1       1.836  -1.847   1.963  0.00  0.00     0.010 A 
ATOM      3  C2  UNL d   1       2.517  -1.058   1.033  0.00  0.00     0.041 A 
ATOM      4  C3  UNL d   1       1.793  -0.107   0.287  0.00  0.00    -0.075 A 
ATOM      5  S   UNL d   1       2.416   0.970  -0.907  0.00  0.00     0.015 SA
ATOM      6  C4  UNL d   1       0.882   1.653  -1.198  0.00  0.00     0.022 A 
ATOM      7  C5  UNL d   1      -0.093   1.086  -0.412  0.00  0.00     0.026 A 
ATOM      8  C6  UNL d   1       0.416   0.062   0.457  0.00  0.00    -0.082 A 
ATOM      9  C7  UNL d   1      -0.245  -0.753   1.407  0.00  0.00     0.045 A 
ENDROOT
TORSDOF 0
ENDMDL
