MODEL 1
REMARK minimizedAffinity 0.100420274
REMARK minimizedRMSD -1
REMARK  0 active torsions:
REMARK  status: ('A' for Active; 'I' for Inactive)
ROOT
ATOM      1  C   UNL d   1       0.482   0.609   0.248  0.00  0.00    -0.002 A 
ATOM      2  C1  UNL d   1      -0.399  -0.331   0.763  0.00  0.00     0.010 A 
ATOM      3  C2  UNL d   1      -1.610  -0.596   0.120  0.00  0.00     0.041 A 
ATOM      4  C3  UNL d   1      -1.922   0.105  -1.061  0.00  0.00    -0.075 A 
ATOM      5  S   UNL d   1      -3.347  -0.054  -2.019  0.00  0.00     0.015 SA
ATOM      6  C4  UNL d   1      -2.819   1.122  -3.134  0.00  0.00     0.022 A 
ATOM      7  C5  UNL d   1      -1.588   1.634  -2.798  0.00  0.00     0.026 A 
ATOM      8  C6  UNL d   1      -1.051   1.057  -1.599  0.00  0.00    -0.082 A 
ATOM      9  C7  UNL d   1       0.168   1.304  -0.923  0.00  0.00     0.045 A 
ENDROOT
TORSDOF 0
ENDMDL
