MODEL 1
REMARK minimizedAffinity -1.7594583
REMARK minimizedRMSD -1
REMARK  0 active torsions:
REMARK  status: ('A' for Active; 'I' for Inactive)
ROOT
ATOM      1  C   UNL d   1      -1.896  -0.357   0.933  0.00  0.00    -0.002 A 
ATOM      2  C1  UNL d   1      -0.690   0.305   0.746  0.00  0.00     0.010 A 
ATOM      3  C2  UNL d   1      -0.413   0.948  -0.462  0.00  0.00     0.041 A 
ATOM      4  C3  UNL d   1      -1.377   0.917  -1.488  0.00  0.00    -0.075 A 
ATOM      5  S   UNL d   1      -1.257   1.635  -3.050  0.00  0.00     0.015 SA
ATOM      6  C4  UNL d   1      -2.803   1.082  -3.506  0.00  0.00     0.022 A 
ATOM      7  C5  UNL d   1      -3.411   0.365  -2.503  0.00  0.00     0.026 A 
ATOM      8  C6  UNL d   1      -2.599   0.258  -1.323  0.00  0.00    -0.082 A 
ATOM      9  C7  UNL d   1      -2.850  -0.385  -0.087  0.00  0.00     0.045 A 
ENDROOT
TORSDOF 0
ENDMDL
