MODEL 1
REMARK minimizedAffinity 14.5112324
REMARK minimizedRMSD -1
REMARK  0 active torsions:
REMARK  status: ('A' for Active; 'I' for Inactive)
ROOT
ATOM      1  C   UNL d   1       3.805  -0.533   0.191  0.00  0.00    -0.002 A 
ATOM      2  C1  UNL d   1       3.360  -0.778   1.482  0.00  0.00     0.010 A 
ATOM      3  C2  UNL d   1       2.052  -0.461   1.855  0.00  0.00     0.041 A 
ATOM      4  C3  UNL d   1       1.191   0.112   0.898  0.00  0.00    -0.075 A 
ATOM      5  S   UNL d   1      -0.452   0.582   1.128  0.00  0.00     0.015 SA
ATOM      6  C4  UNL d   1      -0.602   1.119  -0.482  0.00  0.00     0.022 A 
ATOM      7  C5  UNL d   1       0.563   0.951  -1.192  0.00  0.00     0.026 A 
ATOM      8  C6  UNL d   1       1.616   0.367  -0.408  0.00  0.00    -0.082 A 
ATOM      9  C7  UNL d   1       2.947   0.035  -0.755  0.00  0.00     0.045 A 
ENDROOT
TORSDOF 0
ENDMDL
