MODEL 1
REMARK minimizedAffinity 6.05805206
REMARK minimizedRMSD -1
REMARK  0 active torsions:
REMARK  status: ('A' for Active; 'I' for Inactive)
ROOT
ATOM      1  C   UNL d   1       1.046   4.008   3.131  0.00  0.00     0.172 C 
ATOM      2  N   UNL d   1       0.975   2.608   3.476  0.00  0.00    -0.070 N 
ATOM      3  C1  UNL d   1       1.528   1.580   2.760  0.00  0.00    -0.004 A 
ATOM      4  C2  UNL d   1       1.239   0.404   3.418  0.00  0.00    -0.047 A 
ATOM      5  C3  UNL d   1       0.487   0.736   4.570  0.00  0.00    -0.047 A 
ATOM      6  C4  UNL d   1       0.338   2.107   4.581  0.00  0.00    -0.004 A 
ENDROOT
TORSDOF 0
ENDMDL
