MODEL 1
REMARK minimizedAffinity 3.0589149
REMARK minimizedRMSD -1
REMARK  0 active torsions:
REMARK  status: ('A' for Active; 'I' for Inactive)
ROOT
ATOM      1  C   UNL d   1       1.129  -2.627   3.994  0.00  0.00     0.172 C 
ATOM      2  N   UNL d   1       0.560  -3.750   4.701  0.00  0.00    -0.070 N 
ATOM      3  C1  UNL d   1      -0.757  -4.125   4.676  0.00  0.00    -0.004 A 
ATOM      4  C2  UNL d   1      -0.894  -5.239   5.475  0.00  0.00    -0.047 A 
ATOM      5  C3  UNL d   1       0.384  -5.544   6.000  0.00  0.00    -0.047 A 
ATOM      6  C4  UNL d   1       1.266  -4.606   5.505  0.00  0.00    -0.004 A 
ENDROOT
TORSDOF 0
ENDMDL
