MODEL 1
REMARK minimizedAffinity 4.67407417
REMARK minimizedRMSD -1
REMARK  0 active torsions:
REMARK  status: ('A' for Active; 'I' for Inactive)
ROOT
ATOM      1  C   UNL d   1      -5.983   2.307   5.210  0.00  0.00     0.172 C 
ATOM      2  N   UNL d   1      -5.934   3.730   4.966  0.00  0.00    -0.070 N 
ATOM      3  C1  UNL d   1      -5.832   4.701   5.927  0.00  0.00    -0.004 A 
ATOM      4  C2  UNL d   1      -5.816   5.923   5.291  0.00  0.00    -0.047 A 
ATOM      5  C3  UNL d   1      -5.913   5.678   3.900  0.00  0.00    -0.047 A 
ATOM      6  C4  UNL d   1      -5.985   4.312   3.728  0.00  0.00    -0.004 A 
ENDROOT
TORSDOF 0
ENDMDL
