MODEL 1
REMARK minimizedAffinity -1.72496355
REMARK minimizedRMSD -1
REMARK  0 active torsions:
REMARK  status: ('A' for Active; 'I' for Inactive)
ROOT
ATOM      1  C   UNL d   1       0.723  -1.671   4.520  0.00  0.00     0.172 C 
ATOM      2  N   UNL d   1       0.242  -2.979   4.897  0.00  0.00    -0.070 N 
ATOM      3  C1  UNL d   1      -0.742  -3.683   4.257  0.00  0.00    -0.004 A 
ATOM      4  C2  UNL d   1      -0.906  -4.879   4.922  0.00  0.00    -0.047 A 
ATOM      5  C3  UNL d   1       0.011  -4.894   6.000  0.00  0.00    -0.047 A 
ATOM      6  C4  UNL d   1       0.709  -3.706   5.961  0.00  0.00    -0.004 A 
ENDROOT
TORSDOF 0
ENDMDL
