MODEL 1
REMARK minimizedAffinity 0.558841884
REMARK minimizedRMSD -1
REMARK  0 active torsions:
REMARK  status: ('A' for Active; 'I' for Inactive)
ROOT
ATOM      1  C   UNL d   1      -4.494   5.978   0.026  0.00  0.00     0.172 C 
ATOM      2  N   UNL d   1      -4.453   5.986   1.470  0.00  0.00    -0.070 N 
ATOM      3  C1  UNL d   1      -5.542   5.988   2.300  0.00  0.00    -0.004 A 
ATOM      4  C2  UNL d   1      -5.083   5.996   3.599  0.00  0.00    -0.047 A 
ATOM      5  C3  UNL d   1      -3.669   6.000   3.548  0.00  0.00    -0.047 A 
ATOM      6  C4  UNL d   1      -3.305   5.994   2.218  0.00  0.00    -0.004 A 
ENDROOT
TORSDOF 0
ENDMDL
