MODEL 1
REMARK minimizedAffinity -1.86782014
REMARK minimizedRMSD -1
REMARK  0 active torsions:
REMARK  status: ('A' for Active; 'I' for Inactive)
ROOT
ATOM      1  C   UNL d   1      -4.118   5.635   1.315  0.00  0.00     0.172 C 
ATOM      2  N   UNL d   1      -4.552   5.724   2.689  0.00  0.00    -0.070 N 
ATOM      3  C1  UNL d   1      -5.835   5.548   3.134  0.00  0.00    -0.004 A 
ATOM      4  C2  UNL d   1      -5.834   5.714   4.502  0.00  0.00    -0.047 A 
ATOM      5  C3  UNL d   1      -4.504   6.000   4.893  0.00  0.00    -0.047 A 
ATOM      6  C4  UNL d   1      -3.731   6.000   3.751  0.00  0.00    -0.004 A 
ENDROOT
TORSDOF 0
ENDMDL
