MODEL 1
REMARK minimizedAffinity 1.30956721
REMARK minimizedRMSD -1
REMARK  0 active torsions:
REMARK  status: ('A' for Active; 'I' for Inactive)
ROOT
ATOM      1  C   UNL d   1      -0.177  -3.769   4.745  0.00  0.00     0.172 C 
ATOM      2  N   UNL d   1       0.332  -2.420   4.829  0.00  0.00    -0.070 N 
ATOM      3  C1  UNL d   1      -0.248  -1.312   4.270  0.00  0.00    -0.004 A 
ATOM      4  C2  UNL d   1       0.541  -0.224   4.575  0.00  0.00    -0.047 A 
ATOM      5  C3  UNL d   1       1.632  -0.694   5.344  0.00  0.00    -0.047 A 
ATOM      6  C4  UNL d   1       1.478  -2.057   5.485  0.00  0.00    -0.004 A 
ENDROOT
TORSDOF 0
ENDMDL
