MODEL 1
REMARK minimizedAffinity 1.40713608
REMARK minimizedRMSD -1
REMARK  0 active torsions:
REMARK  status: ('A' for Active; 'I' for Inactive)
ROOT
ATOM      1  C   UNL d   1      -4.532   5.667   0.770  0.00  0.00     0.172 C 
ATOM      2  N   UNL d   1      -4.770   5.741   2.193  0.00  0.00    -0.070 N 
ATOM      3  C1  UNL d   1      -5.996   5.694   2.801  0.00  0.00    -0.004 A 
ATOM      4  C2  UNL d   1      -5.797   5.794   4.161  0.00  0.00    -0.047 A 
ATOM      5  C3  UNL d   1      -4.403   5.906   4.378  0.00  0.00    -0.047 A 
ATOM      6  C4  UNL d   1      -3.791   5.870   3.142  0.00  0.00    -0.004 A 
ENDROOT
TORSDOF 0
ENDMDL
