MODEL 1
REMARK minimizedAffinity -1.36493814
REMARK minimizedRMSD -1
REMARK  0 active torsions:
REMARK  status: ('A' for Active; 'I' for Inactive)
ROOT
ATOM      1  C   UNL d   1      -3.242   5.923   1.843  0.00  0.00     0.172 C 
ATOM      2  N   UNL d   1      -4.134   5.943   2.979  0.00  0.00    -0.070 N 
ATOM      3  C1  UNL d   1      -3.751   5.997   4.293  0.00  0.00    -0.004 A 
ATOM      4  C2  UNL d   1      -4.893   6.000   5.065  0.00  0.00    -0.047 A 
ATOM      5  C3  UNL d   1      -5.999   5.944   4.185  0.00  0.00    -0.047 A 
ATOM      6  C4  UNL d   1      -5.501   5.909   2.900  0.00  0.00    -0.004 A 
ENDROOT
TORSDOF 0
ENDMDL
