MODEL 1
REMARK minimizedAffinity -1.30570877
REMARK minimizedRMSD -1
REMARK  0 active torsions:
REMARK  status: ('A' for Active; 'I' for Inactive)
ROOT
ATOM      1  C   UNL d   1      -5.246   5.908   2.558  0.00  0.00     0.172 C 
ATOM      2  N   UNL d   1      -5.538   5.314   3.841  0.00  0.00    -0.070 N 
ATOM      3  C1  UNL d   1      -5.751   5.998   5.008  0.00  0.00    -0.004 A 
ATOM      4  C2  UNL d   1      -5.999   5.074   6.000  0.00  0.00    -0.047 A 
ATOM      5  C3  UNL d   1      -5.931   3.790   5.409  0.00  0.00    -0.047 A 
ATOM      6  C4  UNL d   1      -5.645   3.968   4.072  0.00  0.00    -0.004 A 
ENDROOT
TORSDOF 0
ENDMDL
