MODEL 1
REMARK minimizedAffinity -2.49103069
REMARK minimizedRMSD -1
REMARK  0 active torsions:
REMARK  status: ('A' for Active; 'I' for Inactive)
ROOT
ATOM      1  C   UNL d   1       2.383   2.297   0.556  0.00  0.00     0.020 A 
ATOM      2  C1  UNL d   1       1.904   1.959   1.821  0.00  0.00     0.020 A 
ATOM      3  C2  UNL d   1       0.778   1.142   1.945  0.00  0.00     0.034 A 
ATOM      4  C3  UNL d   1       0.127   0.661   0.803  0.00  0.00     0.017 A 
ATOM      5  C4  UNL d   1       0.609   1.002  -0.466  0.00  0.00     0.017 A 
ATOM      6  C5  UNL d   1       1.737   1.820  -0.585  0.00  0.00     0.034 A 
ATOM      7 Cl   UNL d   1      -0.141   0.447  -1.922  0.00  0.00    -0.070 Cl
ATOM      8 Cl1  UNL d   1      -1.260  -0.344   1.031  0.00  0.00    -0.070 Cl
ENDROOT
TORSDOF 0
ENDMDL
