MODEL 1
REMARK minimizedAffinity -1.06912112
REMARK minimizedRMSD -1
REMARK  0 active torsions:
REMARK  status: ('A' for Active; 'I' for Inactive)
ROOT
ATOM      1  C   UNL d   1       1.206   0.081   0.806  0.00  0.00     0.020 A 
ATOM      2  C1  UNL d   1       0.299  -0.819   1.365  0.00  0.00     0.020 A 
ATOM      3  C2  UNL d   1      -0.849  -1.183   0.658  0.00  0.00     0.034 A 
ATOM      4  C3  UNL d   1      -1.093  -0.647  -0.612  0.00  0.00     0.017 A 
ATOM      5  C4  UNL d   1      -0.182   0.256  -1.172  0.00  0.00     0.017 A 
ATOM      6  C5  UNL d   1       0.966   0.617  -0.460  0.00  0.00     0.034 A 
ATOM      7 Cl   UNL d   1      -0.415   0.958  -2.734  0.00  0.00    -0.070 Cl
ATOM      8 Cl1  UNL d   1      -2.532  -1.143  -1.430  0.00  0.00    -0.070 Cl
ENDROOT
TORSDOF 0
ENDMDL
