MODEL 1
REMARK minimizedAffinity -0.0630075783
REMARK minimizedRMSD -1
REMARK  0 active torsions:
REMARK  status: ('A' for Active; 'I' for Inactive)
ROOT
ATOM      1  C   UNL d   1      -2.671  -0.781  -1.080  0.00  0.00     0.020 A 
ATOM      2  C1  UNL d   1      -1.947   0.288  -1.607  0.00  0.00     0.020 A 
ATOM      3  C2  UNL d   1      -0.770   0.708  -0.984  0.00  0.00     0.034 A 
ATOM      4  C3  UNL d   1      -0.313   0.060   0.169  0.00  0.00     0.017 A 
ATOM      5  C4  UNL d   1      -1.040  -1.013   0.697  0.00  0.00     0.017 A 
ATOM      6  C5  UNL d   1      -2.218  -1.430   0.069  0.00  0.00     0.034 A 
ATOM      7 Cl   UNL d   1      -0.540  -1.863   2.116  0.00  0.00    -0.070 Cl
ATOM      8 Cl1  UNL d   1       1.151   0.632   0.887  0.00  0.00    -0.070 Cl
ENDROOT
TORSDOF 0
ENDMDL
