MODEL 1
REMARK minimizedAffinity -0.864153445
REMARK minimizedRMSD -1
REMARK  0 active torsions:
REMARK  status: ('A' for Active; 'I' for Inactive)
ROOT
ATOM      1  C   UNL d   1       0.459  -0.938   1.223  0.00  0.00     0.020 A 
ATOM      2  C1  UNL d   1       1.194  -0.010   0.485  0.00  0.00     0.020 A 
ATOM      3  C2  UNL d   1       0.597   0.660  -0.585  0.00  0.00     0.034 A 
ATOM      4  C3  UNL d   1      -0.738   0.403  -0.920  0.00  0.00     0.017 A 
ATOM      5  C4  UNL d   1      -1.474  -0.528  -0.178  0.00  0.00     0.017 A 
ATOM      6  C5  UNL d   1      -0.871  -1.196   0.892  0.00  0.00     0.034 A 
ATOM      7 Cl   UNL d   1      -3.125  -0.897  -0.532  0.00  0.00    -0.070 Cl
ATOM      8 Cl1  UNL d   1      -1.412   1.269  -2.255  0.00  0.00    -0.070 Cl
ENDROOT
TORSDOF 0
ENDMDL
