MODEL 1
REMARK minimizedAffinity 1.1458807
REMARK minimizedRMSD -1
REMARK  0 active torsions:
REMARK  status: ('A' for Active; 'I' for Inactive)
ROOT
ATOM      1  C   UNL d   1      -0.923  -0.276   1.215  0.00  0.00     0.020 A 
ATOM      2  C1  UNL d   1      -0.925  -0.905  -0.030  0.00  0.00     0.020 A 
ATOM      3  C2  UNL d   1      -0.004  -0.523  -1.007  0.00  0.00     0.034 A 
ATOM      4  C3  UNL d   1       0.924   0.491  -0.742  0.00  0.00     0.017 A 
ATOM      5  C4  UNL d   1       0.925   1.122   0.508  0.00  0.00     0.017 A 
ATOM      6  C5  UNL d   1      -0.000   0.736   1.482  0.00  0.00     0.034 A 
ATOM      7 Cl   UNL d   1       2.038   2.382   0.908  0.00  0.00    -0.070 Cl
ATOM      8 Cl1  UNL d   1       2.034   0.912  -1.996  0.00  0.00    -0.070 Cl
ENDROOT
TORSDOF 0
ENDMDL
