MODEL 1
REMARK minimizedAffinity -2.47377872
REMARK minimizedRMSD -1
REMARK  0 active torsions:
REMARK  status: ('A' for Active; 'I' for Inactive)
ROOT
ATOM      1  C   UNL d   1      -2.215  -0.418   1.064  0.00  0.00     0.020 A 
ATOM      2  C1  UNL d   1      -2.812  -0.553  -0.189  0.00  0.00     0.020 A 
ATOM      3  C2  UNL d   1      -2.063  -0.333  -1.347  0.00  0.00     0.034 A 
ATOM      4  C3  UNL d   1      -0.713   0.025  -1.254  0.00  0.00     0.017 A 
ATOM      5  C4  UNL d   1      -0.115   0.161   0.003  0.00  0.00     0.017 A 
ATOM      6  C5  UNL d   1      -0.869  -0.062   1.160  0.00  0.00     0.034 A 
ATOM      7 Cl   UNL d   1       1.546   0.599   0.197  0.00  0.00    -0.070 Cl
ATOM      8 Cl1  UNL d   1       0.152   0.283  -2.728  0.00  0.00    -0.070 Cl
ENDROOT
TORSDOF 0
ENDMDL
