MODEL 1
REMARK minimizedAffinity -3.63929725
REMARK minimizedRMSD -1
REMARK  0 active torsions:
REMARK  status: ('A' for Active; 'I' for Inactive)
ROOT
ATOM      1  C   UNL d   1       0.522   0.605  -1.376  0.00  0.00     0.020 A 
ATOM      2  C1  UNL d   1       1.401   0.127  -0.406  0.00  0.00     0.020 A 
ATOM      3  C2  UNL d   1       0.910  -0.576   0.697  0.00  0.00     0.034 A 
ATOM      4  C3  UNL d   1      -0.464  -0.803   0.831  0.00  0.00     0.017 A 
ATOM      5  C4  UNL d   1      -1.347  -0.322  -0.143  0.00  0.00     0.017 A 
ATOM      6  C5  UNL d   1      -0.849   0.381  -1.245  0.00  0.00     0.034 A 
ATOM      7 Cl   UNL d   1      -3.055  -0.563  -0.046  0.00  0.00    -0.070 Cl
ATOM      8 Cl1  UNL d   1      -1.002  -1.680   2.220  0.00  0.00    -0.070 Cl
ENDROOT
TORSDOF 0
ENDMDL
