MODEL 1
REMARK minimizedAffinity -4.37012625
REMARK minimizedRMSD -1
REMARK  0 active torsions:
REMARK  status: ('A' for Active; 'I' for Inactive)
ROOT
ATOM      1  C   UNL d   1      -2.546  -0.555   0.878  0.00  0.00     0.020 A 
ATOM      2  C1  UNL d   1      -2.958  -0.533  -0.454  0.00  0.00     0.020 A 
ATOM      3  C2  UNL d   1      -2.033  -0.270  -1.466  0.00  0.00     0.034 A 
ATOM      4  C3  UNL d   1      -0.692  -0.027  -1.149  0.00  0.00     0.017 A 
ATOM      5  C4  UNL d   1      -0.280  -0.049   0.189  0.00  0.00     0.017 A 
ATOM      6  C5  UNL d   1      -1.210  -0.314   1.199  0.00  0.00     0.034 A 
ATOM      7 Cl   UNL d   1       1.358   0.241   0.659  0.00  0.00    -0.070 Cl
ATOM      8 Cl1  UNL d   1       0.398   0.291  -2.451  0.00  0.00    -0.070 Cl
ENDROOT
TORSDOF 0
ENDMDL
