MODEL 1
REMARK minimizedAffinity -4.120543
REMARK minimizedRMSD -1
REMARK  0 active torsions:
REMARK  status: ('A' for Active; 'I' for Inactive)
ROOT
ATOM      1  C   UNL d   1      -3.136  -1.367  -0.036  0.00  0.00     0.020 A 
ATOM      2  C1  UNL d   1      -2.493  -1.204   1.191  0.00  0.00     0.020 A 
ATOM      3  C2  UNL d   1      -1.253  -0.565   1.249  0.00  0.00     0.034 A 
ATOM      4  C3  UNL d   1      -0.652  -0.086   0.080  0.00  0.00     0.017 A 
ATOM      5  C4  UNL d   1      -1.298  -0.250  -1.151  0.00  0.00     0.017 A 
ATOM      6  C5  UNL d   1      -2.540  -0.891  -1.204  0.00  0.00     0.034 A 
ATOM      7 Cl   UNL d   1      -0.619   0.314  -2.637  0.00  0.00    -0.070 Cl
ATOM      8 Cl1  UNL d   1       0.883   0.695   0.226  0.00  0.00    -0.070 Cl
ENDROOT
TORSDOF 0
ENDMDL
