MODEL 1
REMARK minimizedAffinity -3.47737288
REMARK minimizedRMSD -1
REMARK  0 active torsions:
REMARK  status: ('A' for Active; 'I' for Inactive)
ROOT
ATOM      1  C   UNL d   1       0.613  -1.544   1.499  0.00  0.00     0.020 A 
ATOM      2  C1  UNL d   1       1.502  -0.870   0.663  0.00  0.00     0.020 A 
ATOM      3  C2  UNL d   1       1.028  -0.202  -0.468  0.00  0.00     0.034 A 
ATOM      4  C3  UNL d   1      -0.340  -0.207  -0.766  0.00  0.00     0.017 A 
ATOM      5  C4  UNL d   1      -1.232  -0.884   0.074  0.00  0.00     0.017 A 
ATOM      6  C5  UNL d   1      -0.751  -1.550   1.206  0.00  0.00     0.034 A 
ATOM      7 Cl   UNL d   1      -2.933  -0.934  -0.227  0.00  0.00    -0.070 Cl
ATOM      8 Cl1  UNL d   1      -0.857   0.640  -2.180  0.00  0.00    -0.070 Cl
ENDROOT
TORSDOF 0
ENDMDL
