MODEL 1
REMARK minimizedAffinity -1.04568982
REMARK minimizedRMSD -1
REMARK  0 active torsions:
REMARK  status: ('A' for Active; 'I' for Inactive)
ROOT
ATOM      1  C   UNL d   1       1.405  -0.208   0.237  0.00  0.00     0.020 A 
ATOM      2  C1  UNL d   1       0.682   0.371  -0.804  0.00  0.00     0.020 A 
ATOM      3  C2  UNL d   1      -0.680   0.097  -0.946  0.00  0.00     0.034 A 
ATOM      4  C3  UNL d   1      -1.323  -0.760  -0.045  0.00  0.00     0.017 A 
ATOM      5  C4  UNL d   1      -0.596  -1.341   1.000  0.00  0.00     0.017 A 
ATOM      6  C5  UNL d   1       0.767  -1.063   1.137  0.00  0.00     0.034 A 
ATOM      7 Cl   UNL d   1      -1.320  -2.408   2.151  0.00  0.00    -0.070 Cl
ATOM      8 Cl1  UNL d   1      -3.009  -1.054  -0.280  0.00  0.00    -0.070 Cl
ENDROOT
TORSDOF 0
ENDMDL
