MODEL 1
REMARK minimizedAffinity -0.932887614
REMARK minimizedRMSD -1
REMARK  0 active torsions:
REMARK  status: ('A' for Active; 'I' for Inactive)
ROOT
ATOM      1  C   UNL d   1       1.492  -0.121   0.646  0.00  0.00     0.020 A 
ATOM      2  C1  UNL d   1       0.582   0.563  -0.159  0.00  0.00     0.020 A 
ATOM      3  C2  UNL d   1      -0.767   0.204  -0.147  0.00  0.00     0.034 A 
ATOM      4  C3  UNL d   1      -1.211  -0.841   0.671  0.00  0.00     0.017 A 
ATOM      5  C4  UNL d   1      -0.296  -1.527   1.479  0.00  0.00     0.017 A 
ATOM      6  C5  UNL d   1       1.054  -1.164   1.463  0.00  0.00     0.034 A 
ATOM      7 Cl   UNL d   1      -0.768  -2.828   2.515  0.00  0.00    -0.070 Cl
ATOM      8 Cl1  UNL d   1      -2.894  -1.231   0.636  0.00  0.00    -0.070 Cl
ENDROOT
TORSDOF 0
ENDMDL
