MODEL 1
REMARK minimizedAffinity -5.02397442
REMARK minimizedRMSD -1
REMARK  0 active torsions:
REMARK  status: ('A' for Active; 'I' for Inactive)
ROOT
ATOM      1  C   UNL d   1      -2.644   0.172  -0.753  0.00  0.00     0.020 A 
ATOM      2  C1  UNL d   1      -3.181  -0.872   0.000  0.00  0.00     0.020 A 
ATOM      3  C2  UNL d   1      -2.354  -1.630   0.831  0.00  0.00     0.034 A 
ATOM      4  C3  UNL d   1      -0.986  -1.347   0.911  0.00  0.00     0.017 A 
ATOM      5  C4  UNL d   1      -0.448  -0.299   0.155  0.00  0.00     0.017 A 
ATOM      6  C5  UNL d   1      -1.281   0.458  -0.675  0.00  0.00     0.034 A 
ATOM      7 Cl   UNL d   1       1.231   0.111   0.202  0.00  0.00    -0.070 Cl
ATOM      8 Cl1  UNL d   1      -0.022  -2.325   1.960  0.00  0.00    -0.070 Cl
ENDROOT
TORSDOF 0
ENDMDL
