MODEL 1
REMARK minimizedAffinity -1.34578753
REMARK minimizedRMSD -1
REMARK  0 active torsions:
REMARK  status: ('A' for Active; 'I' for Inactive)
ROOT
ATOM      1  C   UNL d   1       0.352   0.494  -0.918  0.00  0.00     0.020 A 
ATOM      2  C1  UNL d   1       1.245  -0.004   0.031  0.00  0.00     0.020 A 
ATOM      3  C2  UNL d   1       0.776  -0.795   1.083  0.00  0.00     0.034 A 
ATOM      4  C3  UNL d   1      -0.588  -1.089   1.189  0.00  0.00     0.017 A 
ATOM      5  C4  UNL d   1      -1.483  -0.589   0.236  0.00  0.00     0.017 A 
ATOM      6  C5  UNL d   1      -1.009   0.202  -0.815  0.00  0.00     0.034 A 
ATOM      7 Cl   UNL d   1      -3.180  -0.910   0.300  0.00  0.00    -0.070 Cl
ATOM      8 Cl1  UNL d   1      -1.097  -2.073   2.515  0.00  0.00    -0.070 Cl
ENDROOT
TORSDOF 0
ENDMDL
