MODEL 1
REMARK minimizedAffinity -5.16023064
REMARK minimizedRMSD -1
REMARK  0 active torsions:
REMARK  status: ('A' for Active; 'I' for Inactive)
ROOT
ATOM      1  C   UNL d   1       1.034   0.155  -0.415  0.00  0.00     0.020 A 
ATOM      2  C1  UNL d   1       0.075   0.451  -1.383  0.00  0.00     0.020 A 
ATOM      3  C2  UNL d   1      -1.220  -0.056  -1.260  0.00  0.00     0.034 A 
ATOM      4  C3  UNL d   1      -1.560  -0.861  -0.168  0.00  0.00     0.017 A 
ATOM      5  C4  UNL d   1      -0.597  -1.158   0.803  0.00  0.00     0.017 A 
ATOM      6  C5  UNL d   1       0.699  -0.648   0.676  0.00  0.00     0.034 A 
ATOM      7 Cl   UNL d   1      -0.942  -2.145   2.180  0.00  0.00    -0.070 Cl
ATOM      8 Cl1  UNL d   1      -3.181  -1.453  -0.080  0.00  0.00    -0.070 Cl
ENDROOT
TORSDOF 0
ENDMDL
