MODEL 1
REMARK minimizedAffinity -2.02491713
REMARK minimizedRMSD -1
REMARK  0 active torsions:
REMARK  status: ('A' for Active; 'I' for Inactive)
ROOT
ATOM      1  C   UNL d   1       0.625   0.360  -1.357  0.00  0.00     0.020 A 
ATOM      2  C1  UNL d   1       1.494  -0.129  -0.383  0.00  0.00     0.020 A 
ATOM      3  C2  UNL d   1       0.984  -0.712   0.779  0.00  0.00     0.034 A 
ATOM      4  C3  UNL d   1      -0.399  -0.806   0.971  0.00  0.00     0.017 A 
ATOM      5  C4  UNL d   1      -1.271  -0.314  -0.008  0.00  0.00     0.017 A 
ATOM      6  C5  UNL d   1      -0.755   0.268  -1.170  0.00  0.00     0.034 A 
ATOM      7 Cl   UNL d   1      -2.990  -0.395   0.157  0.00  0.00    -0.070 Cl
ATOM      8 Cl1  UNL d   1      -0.960  -1.539   2.431  0.00  0.00    -0.070 Cl
ENDROOT
TORSDOF 0
ENDMDL
