MODEL 1
REMARK minimizedAffinity 3.82382107
REMARK minimizedRMSD -1
REMARK  0 active torsions:
REMARK  status: ('A' for Active; 'I' for Inactive)
ROOT
ATOM      1  C   UNL d   1       0.897  -1.849   1.225  0.00  0.00     0.020 A 
ATOM      2  C1  UNL d   1      -0.250  -2.181   1.945  0.00  0.00     0.020 A 
ATOM      3  C2  UNL d   1      -1.376  -1.357   1.883  0.00  0.00     0.034 A 
ATOM      4  C3  UNL d   1      -1.356  -0.197   1.100  0.00  0.00     0.017 A 
ATOM      5  C4  UNL d   1      -0.204   0.135   0.378  0.00  0.00     0.017 A 
ATOM      6  C5  UNL d   1       0.920  -0.694   0.444  0.00  0.00     0.034 A 
ATOM      7 Cl   UNL d   1      -0.105   1.550  -0.610  0.00  0.00    -0.070 Cl
ATOM      8 Cl1  UNL d   1      -2.784   0.776   1.069  0.00  0.00    -0.070 Cl
ENDROOT
TORSDOF 0
ENDMDL
