MODEL 1
REMARK minimizedAffinity -0.287325501
REMARK minimizedRMSD -1
REMARK  0 active torsions:
REMARK  status: ('A' for Active; 'I' for Inactive)
ROOT
ATOM      1  C   UNL d   1       1.196  -0.413  -0.205  0.00  0.00     0.020 A 
ATOM      2  C1  UNL d   1       0.365   0.128  -1.186  0.00  0.00     0.020 A 
ATOM      3  C2  UNL d   1      -1.014  -0.081  -1.126  0.00  0.00     0.034 A 
ATOM      4  C3  UNL d   1      -1.567  -0.833  -0.083  0.00  0.00     0.017 A 
ATOM      5  C4  UNL d   1      -0.733  -1.375   0.901  0.00  0.00     0.017 A 
ATOM      6  C5  UNL d   1       0.648  -1.163   0.836  0.00  0.00     0.034 A 
ATOM      7 Cl   UNL d   1      -1.342  -2.314   2.219  0.00  0.00    -0.070 Cl
ATOM      8 Cl1  UNL d   1      -3.281  -1.051  -0.070  0.00  0.00    -0.070 Cl
ENDROOT
TORSDOF 0
ENDMDL
