MODEL 1
REMARK minimizedAffinity 7.18533278
REMARK minimizedRMSD -1
REMARK  0 active torsions:
REMARK  status: ('A' for Active; 'I' for Inactive)
ROOT
ATOM      1  C   UNL d   1      -1.377   2.988  -2.913  0.00  0.00     0.172 C 
ATOM      2  N   UNL d   1      -0.441   2.333  -2.030  0.00  0.00    -0.070 N 
ATOM      3  C1  UNL d   1      -0.680   1.988  -0.727  0.00  0.00    -0.004 A 
ATOM      4  C2  UNL d   1       0.458   1.386  -0.234  0.00  0.00    -0.047 A 
ATOM      5  C3  UNL d   1       1.414   1.370  -1.277  0.00  0.00    -0.047 A 
ATOM      6  C4  UNL d   1       0.831   1.962  -2.378  0.00  0.00    -0.004 A 
ENDROOT
TORSDOF 0
ENDMDL
