MODEL 1
REMARK minimizedAffinity -0.693385422
REMARK minimizedRMSD -1
REMARK  0 active torsions:
REMARK  status: ('A' for Active; 'I' for Inactive)
ROOT
ATOM      1  C   UNL d   1      -4.463   3.291  -6.000  0.00  0.00     0.172 C 
ATOM      2  N   UNL d   1      -3.380   4.170  -5.624  0.00  0.00    -0.070 N 
ATOM      3  C1  UNL d   1      -3.391   5.536  -5.719  0.00  0.00    -0.004 A 
ATOM      4  C2  UNL d   1      -2.177   6.000  -5.262  0.00  0.00    -0.047 A 
ATOM      5  C3  UNL d   1      -1.409   4.874  -4.880  0.00  0.00    -0.047 A 
ATOM      6  C4  UNL d   1      -2.179   3.754  -5.115  0.00  0.00    -0.004 A 
ENDROOT
TORSDOF 0
ENDMDL
