MODEL 1
REMARK minimizedAffinity 9.0866003
REMARK minimizedRMSD -1
REMARK  0 active torsions:
REMARK  status: ('A' for Active; 'I' for Inactive)
ROOT
ATOM      1  C   UNL d   1      -1.502   0.212   4.497  0.00  0.00     0.172 C 
ATOM      2  N   UNL d   1      -1.569  -1.164   4.929  0.00  0.00    -0.070 N 
ATOM      3  C1  UNL d   1      -0.762  -2.180   4.490  0.00  0.00    -0.004 A 
ATOM      4  C2  UNL d   1      -1.143  -3.333   5.140  0.00  0.00    -0.047 A 
ATOM      5  C3  UNL d   1      -2.217  -3.000   5.999  0.00  0.00    -0.047 A 
ATOM      6  C4  UNL d   1      -2.460  -1.651   5.849  0.00  0.00    -0.004 A 
ENDROOT
TORSDOF 0
ENDMDL
