MODEL 1
REMARK minimizedAffinity 9.02884388
REMARK minimizedRMSD -1
REMARK  0 active torsions:
REMARK  status: ('A' for Active; 'I' for Inactive)
ROOT
ATOM      1  C   UNL d   1       0.410   0.559   2.207  0.00  0.00     0.172 C 
ATOM      2  N   UNL d   1      -0.636   1.157   1.412  0.00  0.00    -0.070 N 
ATOM      3  C1  UNL d   1      -1.972   1.147   1.713  0.00  0.00    -0.004 A 
ATOM      4  C2  UNL d   1      -2.636   1.820   0.710  0.00  0.00    -0.047 A 
ATOM      5  C3  UNL d   1      -1.665   2.249  -0.227  0.00  0.00    -0.047 A 
ATOM      6  C4  UNL d   1      -0.436   1.825   0.233  0.00  0.00    -0.004 A 
ENDROOT
TORSDOF 0
ENDMDL
