MODEL 1
REMARK minimizedAffinity 6.25147295
REMARK minimizedRMSD -1
REMARK  0 active torsions:
REMARK  status: ('A' for Active; 'I' for Inactive)
ROOT
ATOM      1  C   UNL d   1      -3.659   6.000  -5.996  0.00  0.00     0.172 C 
ATOM      2  N   UNL d   1      -2.997   4.890  -5.352  0.00  0.00    -0.070 N 
ATOM      3  C1  UNL d   1      -3.373   3.576  -5.440  0.00  0.00    -0.004 A 
ATOM      4  C2  UNL d   1      -2.491   2.833  -4.686  0.00  0.00    -0.047 A 
ATOM      5  C3  UNL d   1      -1.553   3.731  -4.125  0.00  0.00    -0.047 A 
ATOM      6  C4  UNL d   1      -1.890   4.998  -4.553  0.00  0.00    -0.004 A 
ENDROOT
TORSDOF 0
ENDMDL
