MODEL 1
REMARK minimizedAffinity -0.113651596
REMARK minimizedRMSD -1
REMARK  0 active torsions:
REMARK  status: ('A' for Active; 'I' for Inactive)
ROOT
ATOM      1  C   UNL d   1      -3.762   5.549  -5.107  0.00  0.00     0.172 C 
ATOM      2  N   UNL d   1      -4.470   4.310  -5.329  0.00  0.00    -0.070 N 
ATOM      3  C1  UNL d   1      -5.657   4.179  -6.000  0.00  0.00    -0.004 A 
ATOM      4  C2  UNL d   1      -5.999   2.844  -5.994  0.00  0.00    -0.047 A 
ATOM      5  C3  UNL d   1      -4.984   2.149  -5.294  0.00  0.00    -0.047 A 
ATOM      6  C4  UNL d   1      -4.050   3.081  -4.894  0.00  0.00    -0.004 A 
ENDROOT
TORSDOF 0
ENDMDL
