MODEL 1
REMARK minimizedAffinity 0.132053077
REMARK minimizedRMSD -1
REMARK  0 active torsions:
REMARK  status: ('A' for Active; 'I' for Inactive)
ROOT
ATOM      1  C   UNL d   1      -3.880   2.777  -4.716  0.00  0.00     0.172 C 
ATOM      2  N   UNL d   1      -2.988   3.910  -4.788  0.00  0.00    -0.070 N 
ATOM      3  C1  UNL d   1      -1.623   3.860  -4.690  0.00  0.00    -0.004 A 
ATOM      4  C2  UNL d   1      -1.144   5.146  -4.809  0.00  0.00    -0.047 A 
ATOM      5  C3  UNL d   1      -2.259   6.000  -4.983  0.00  0.00    -0.047 A 
ATOM      6  C4  UNL d   1      -3.388   5.208  -4.966  0.00  0.00    -0.004 A 
ENDROOT
TORSDOF 0
ENDMDL
