MODEL 1
REMARK minimizedAffinity 5.11654806
REMARK minimizedRMSD -1
REMARK  0 active torsions:
REMARK  status: ('A' for Active; 'I' for Inactive)
ROOT
ATOM      1  C   UNL d   1       0.280  -4.487   5.934  0.00  0.00     0.172 C 
ATOM      2  N   UNL d   1      -0.773  -3.548   5.630  0.00  0.00    -0.070 N 
ATOM      3  C1  UNL d   1      -1.920  -3.831   4.937  0.00  0.00    -0.004 A 
ATOM      4  C2  UNL d   1      -2.663  -2.673   4.860  0.00  0.00    -0.047 A 
ATOM      5  C3  UNL d   1      -1.937  -1.659   5.528  0.00  0.00    -0.047 A 
ATOM      6  C4  UNL d   1      -0.771  -2.228   5.995  0.00  0.00    -0.004 A 
ENDROOT
TORSDOF 0
ENDMDL
