MODEL 1
REMARK minimizedAffinity 5.07663012
REMARK minimizedRMSD -1
REMARK  0 active torsions:
REMARK  status: ('A' for Active; 'I' for Inactive)
ROOT
ATOM      1  C   UNL d   1      -3.855  -3.038   3.901  0.00  0.00     0.172 C 
ATOM      2  N   UNL d   1      -2.647  -2.985   4.690  0.00  0.00    -0.070 N 
ATOM      3  C1  UNL d   1      -1.769  -4.020   4.877  0.00  0.00    -0.004 A 
ATOM      4  C2  UNL d   1      -0.751  -3.568   5.688  0.00  0.00    -0.047 A 
ATOM      5  C3  UNL d   1      -1.026  -2.215   6.000  0.00  0.00    -0.047 A 
ATOM      6  C4  UNL d   1      -2.205  -1.880   5.369  0.00  0.00    -0.004 A 
ENDROOT
TORSDOF 0
ENDMDL
