MODEL 1
REMARK minimizedAffinity 4.19092178
REMARK minimizedRMSD -1
REMARK  0 active torsions:
REMARK  status: ('A' for Active; 'I' for Inactive)
ROOT
ATOM      1  C   UNL d   1      -3.558   2.644  -4.863  0.00  0.00     0.172 C 
ATOM      2  N   UNL d   1      -2.778   3.849  -4.699  0.00  0.00    -0.070 N 
ATOM      3  C1  UNL d   1      -1.438   3.901  -4.422  0.00  0.00    -0.004 A 
ATOM      4  C2  UNL d   1      -1.075   5.228  -4.344  0.00  0.00    -0.047 A 
ATOM      5  C3  UNL d   1      -2.236   6.000  -4.582  0.00  0.00    -0.047 A 
ATOM      6  C4  UNL d   1      -3.276   5.121  -4.799  0.00  0.00    -0.004 A 
ENDROOT
TORSDOF 0
ENDMDL
