MODEL 1
REMARK minimizedAffinity 9.11799908
REMARK minimizedRMSD -1
REMARK  0 active torsions:
REMARK  status: ('A' for Active; 'I' for Inactive)
ROOT
ATOM      1  C   UNL d   1      -5.978  -1.516  -1.588  0.00  0.00     0.172 C 
ATOM      2  N   UNL d   1      -5.984  -1.798  -0.171  0.00  0.00    -0.070 N 
ATOM      3  C1  UNL d   1      -5.976  -0.863   0.829  0.00  0.00    -0.004 A 
ATOM      4  C2  UNL d   1      -5.986  -1.533   2.033  0.00  0.00    -0.047 A 
ATOM      5  C3  UNL d   1      -6.000  -2.919   1.747  0.00  0.00    -0.047 A 
ATOM      6  C4  UNL d   1      -5.998  -3.055   0.375  0.00  0.00    -0.004 A 
ENDROOT
TORSDOF 0
ENDMDL
