MODEL 1
REMARK minimizedAffinity 0.755577743
REMARK minimizedRMSD -1
REMARK  0 active torsions:
REMARK  status: ('A' for Active; 'I' for Inactive)
ROOT
ATOM      1  C   UNL d   1      -5.290   2.940  -5.987  0.00  0.00     0.172 C 
ATOM      2  N   UNL d   1      -4.370   3.991  -5.622  0.00  0.00    -0.070 N 
ATOM      3  C1  UNL d   1      -3.248   3.838  -4.852  0.00  0.00    -0.004 A 
ATOM      4  C2  UNL d   1      -2.643   5.071  -4.736  0.00  0.00    -0.047 A 
ATOM      5  C3  UNL d   1      -3.429   5.997  -5.462  0.00  0.00    -0.047 A 
ATOM      6  C4  UNL d   1      -4.492   5.302  -6.000  0.00  0.00    -0.004 A 
ENDROOT
TORSDOF 0
ENDMDL
