MODEL 1
REMARK minimizedAffinity 7.54252148
REMARK minimizedRMSD -1
REMARK  0 active torsions:
REMARK  status: ('A' for Active; 'I' for Inactive)
ROOT
ATOM      1  C   UNL d   1      -5.585   5.990   3.327  0.00  0.00     0.172 C 
ATOM      2  N   UNL d   1      -5.239   5.675   1.961  0.00  0.00    -0.070 N 
ATOM      3  C1  UNL d   1      -4.110   5.015   1.556  0.00  0.00    -0.004 A 
ATOM      4  C2  UNL d   1      -4.151   4.913   0.182  0.00  0.00    -0.047 A 
ATOM      5  C3  UNL d   1      -5.345   5.535  -0.254  0.00  0.00    -0.047 A 
ATOM      6  C4  UNL d   1      -6.000   5.998   0.868  0.00  0.00    -0.004 A 
ENDROOT
TORSDOF 0
ENDMDL
