MODEL 1
REMARK minimizedAffinity -0.323338181
REMARK minimizedRMSD -1
REMARK  0 active torsions:
REMARK  status: ('A' for Active; 'I' for Inactive)
ROOT
ATOM      1  C   UNL d   1      -3.693   6.000  -6.000  0.00  0.00     0.172 C 
ATOM      2  N   UNL d   1      -2.901   5.075  -5.223  0.00  0.00    -0.070 N 
ATOM      3  C1  UNL d   1      -2.205   5.382  -4.084  0.00  0.00    -0.004 A 
ATOM      4  C2  UNL d   1      -1.583   4.232  -3.647  0.00  0.00    -0.047 A 
ATOM      5  C3  UNL d   1      -1.917   3.199  -4.555  0.00  0.00    -0.047 A 
ATOM      6  C4  UNL d   1      -2.733   3.749  -5.521  0.00  0.00    -0.004 A 
ENDROOT
TORSDOF 0
ENDMDL
