MODEL 1
REMARK minimizedAffinity 4.1892705
REMARK minimizedRMSD -1
REMARK  0 active torsions:
REMARK  status: ('A' for Active; 'I' for Inactive)
ROOT
ATOM      1  C   UNL d   1      -0.706  -3.552   4.515  0.00  0.00     0.172 C 
ATOM      2  N   UNL d   1      -1.803  -2.825   5.107  0.00  0.00    -0.070 N 
ATOM      3  C1  UNL d   1      -1.779  -1.507   5.479  0.00  0.00    -0.004 A 
ATOM      4  C2  UNL d   1      -3.016  -1.193   6.000  0.00  0.00    -0.047 A 
ATOM      5  C3  UNL d   1      -3.811  -2.363   5.940  0.00  0.00    -0.047 A 
ATOM      6  C4  UNL d   1      -3.035  -3.358   5.383  0.00  0.00    -0.004 A 
ENDROOT
TORSDOF 0
ENDMDL
