MODEL 1
REMARK minimizedAffinity 1.43897974
REMARK minimizedRMSD -1
REMARK  0 active torsions:
REMARK  status: ('A' for Active; 'I' for Inactive)
ROOT
ATOM      1  C   UNL d   1      -4.689   5.887  -6.000  0.00  0.00     0.172 C 
ATOM      2  N   UNL d   1      -3.391   5.470  -5.523  0.00  0.00    -0.070 N 
ATOM      3  C1  UNL d   1      -2.186   5.917  -5.995  0.00  0.00    -0.004 A 
ATOM      4  C2  UNL d   1      -1.192   5.282  -5.282  0.00  0.00    -0.047 A 
ATOM      5  C3  UNL d   1      -1.822   4.423  -4.350  0.00  0.00    -0.047 A 
ATOM      6  C4  UNL d   1      -3.183   4.560  -4.521  0.00  0.00    -0.004 A 
ENDROOT
TORSDOF 0
ENDMDL
