MODEL 1
REMARK minimizedAffinity 8.92452526
REMARK minimizedRMSD -1
REMARK  0 active torsions:
REMARK  status: ('A' for Active; 'I' for Inactive)
ROOT
ATOM      1  C   UNL d   1      -1.073  -2.863   4.985  0.00  0.00     0.172 C 
ATOM      2  N   UNL d   1      -0.300  -2.546   3.807  0.00  0.00    -0.070 N 
ATOM      3  C1  UNL d   1       0.306  -1.346   3.548  0.00  0.00    -0.004 A 
ATOM      4  C2  UNL d   1       0.940  -1.447   2.329  0.00  0.00    -0.047 A 
ATOM      5  C3  UNL d   1       0.706  -2.753   1.837  0.00  0.00    -0.047 A 
ATOM      6  C4  UNL d   1      -0.065  -3.412   2.772  0.00  0.00    -0.004 A 
ENDROOT
TORSDOF 0
ENDMDL
