MODEL 1
REMARK minimizedAffinity 8.42080593
REMARK minimizedRMSD -1
REMARK  0 active torsions:
REMARK  status: ('A' for Active; 'I' for Inactive)
ROOT
ATOM      1  C   UNL d   1       5.731   1.567   0.291  0.00  0.00     0.023 A 
ATOM      2  C1  UNL d   1       4.463   1.925   0.749  0.00  0.00     0.003 A 
ATOM      3  C2  UNL d   1       3.461   0.959   0.859  0.00  0.00     0.048 A 
ATOM      4  C3  UNL d   1       3.733  -0.363   0.511  0.00  0.00     0.023 A 
ATOM      5  C4  UNL d   1       5.001  -0.727   0.054  0.00  0.00     0.048 A 
ATOM      6  C5  UNL d   1       6.000   0.243  -0.056  0.00  0.00     0.003 A 
ATOM      7  I   UNL d   1       2.243  -1.802   0.675  0.00  0.00    -0.146 I 
ENDROOT
TORSDOF 0
ENDMDL
