MODEL 1
REMARK minimizedAffinity 6.22997761
REMARK minimizedRMSD -1
REMARK  0 active torsions:
REMARK  status: ('A' for Active; 'I' for Inactive)
ROOT
ATOM      1  C   UNL d   1      -2.087   0.065   3.311  0.00  0.00     0.023 A 
ATOM      2  C1  UNL d   1      -3.114   0.739   2.651  0.00  0.00     0.003 A 
ATOM      3  C2  UNL d   1      -3.487   0.356   1.361  0.00  0.00     0.048 A 
ATOM      4  C3  UNL d   1      -2.830  -0.704   0.738  0.00  0.00     0.023 A 
ATOM      5  C4  UNL d   1      -1.802  -1.383   1.394  0.00  0.00     0.048 A 
ATOM      6  C5  UNL d   1      -1.432  -0.995   2.683  0.00  0.00     0.003 A 
ATOM      7  I   UNL d   1      -3.384  -1.277  -1.182  0.00  0.00    -0.146 I 
ENDROOT
TORSDOF 0
ENDMDL
