MODEL 1
REMARK minimizedAffinity 6.59919548
REMARK minimizedRMSD -1
REMARK  0 active torsions:
REMARK  status: ('A' for Active; 'I' for Inactive)
ROOT
ATOM      1  C   UNL d   1      -2.083   2.229  -2.523  0.00  0.00     0.023 A 
ATOM      2  C1  UNL d   1      -2.455   3.177  -3.477  0.00  0.00     0.003 A 
ATOM      3  C2  UNL d   1      -1.478   3.851  -4.211  0.00  0.00     0.048 A 
ATOM      4  C3  UNL d   1      -0.130   3.572  -3.988  0.00  0.00     0.023 A 
ATOM      5  C4  UNL d   1       0.247   2.623  -3.036  0.00  0.00     0.048 A 
ATOM      6  C5  UNL d   1      -0.734   1.952  -2.304  0.00  0.00     0.003 A 
ATOM      7  I   UNL d   1       1.326   4.574  -5.081  0.00  0.00    -0.146 I 
ENDROOT
TORSDOF 0
ENDMDL
