MODEL 1
REMARK minimizedAffinity 4.60766459
REMARK minimizedRMSD -1
REMARK  0 active torsions:
REMARK  status: ('A' for Active; 'I' for Inactive)
ROOT
ATOM      1  C   UNL d   1       5.741   2.627   0.729  0.00  0.00     0.023 A 
ATOM      2  C1  UNL d   1       5.946   3.438  -0.388  0.00  0.00     0.003 A 
ATOM      3  C2  UNL d   1       5.999   2.872  -1.663  0.00  0.00     0.048 A 
ATOM      4  C3  UNL d   1       5.846   1.494  -1.815  0.00  0.00     0.023 A 
ATOM      5  C4  UNL d   1       5.640   0.679  -0.701  0.00  0.00     0.048 A 
ATOM      6  C5  UNL d   1       5.588   1.249   0.572  0.00  0.00     0.003 A 
ATOM      7  I   UNL d   1       5.924   0.650  -3.713  0.00  0.00    -0.146 I 
ENDROOT
TORSDOF 0
ENDMDL
