MODEL 1
REMARK minimizedAffinity 6.25591326
REMARK minimizedRMSD -1
REMARK  0 active torsions:
REMARK  status: ('A' for Active; 'I' for Inactive)
ROOT
ATOM      1  C   UNL d   1       5.999   1.086   0.423  0.00  0.00     0.023 A 
ATOM      2  C1  UNL d   1       4.851   1.593   1.032  0.00  0.00     0.003 A 
ATOM      3  C2  UNL d   1       3.701   0.806   1.123  0.00  0.00     0.048 A 
ATOM      4  C3  UNL d   1       3.707  -0.488   0.603  0.00  0.00     0.023 A 
ATOM      5  C4  UNL d   1       4.853  -1.000  -0.007  0.00  0.00     0.048 A 
ATOM      6  C5  UNL d   1       6.000  -0.209  -0.096  0.00  0.00     0.003 A 
ATOM      7  I   UNL d   1       1.997  -1.662   0.737  0.00  0.00    -0.146 I 
ENDROOT
TORSDOF 0
ENDMDL
