MODEL 1
REMARK minimizedAffinity 4.50742912
REMARK minimizedRMSD -1
REMARK  0 active torsions:
REMARK  status: ('A' for Active; 'I' for Inactive)
ROOT
ATOM      1  C   UNL d   1      -1.117  -0.191   3.327  0.00  0.00     0.023 A 
ATOM      2  C1  UNL d   1       0.211   0.237   3.291  0.00  0.00     0.003 A 
ATOM      3  C2  UNL d   1       1.179  -0.540   2.652  0.00  0.00     0.048 A 
ATOM      4  C3  UNL d   1       0.813  -1.743   2.049  0.00  0.00     0.023 A 
ATOM      5  C4  UNL d   1      -0.514  -2.175   2.082  0.00  0.00     0.048 A 
ATOM      6  C5  UNL d   1      -1.478  -1.395   2.723  0.00  0.00     0.003 A 
ATOM      7  I   UNL d   1       2.253  -2.901   1.097  0.00  0.00    -0.146 I 
ENDROOT
TORSDOF 0
ENDMDL
