MODEL 1
REMARK minimizedAffinity 4.49243021
REMARK minimizedRMSD -1
REMARK  0 active torsions:
REMARK  status: ('A' for Active; 'I' for Inactive)
ROOT
ATOM      1  C   UNL d   1       0.405  -0.847   1.430  0.00  0.00     0.023 A 
ATOM      2  C1  UNL d   1       0.255  -1.703   2.520  0.00  0.00     0.003 A 
ATOM      3  C2  UNL d   1       1.001  -2.881   2.592  0.00  0.00     0.048 A 
ATOM      4  C3  UNL d   1       1.896  -3.196   1.571  0.00  0.00     0.023 A 
ATOM      5  C4  UNL d   1       2.051  -2.342   0.478  0.00  0.00     0.048 A 
ATOM      6  C5  UNL d   1       1.302  -1.166   0.410  0.00  0.00     0.003 A 
ATOM      7  I   UNL d   1       3.008  -4.949   1.676  0.00  0.00    -0.146 I 
ENDROOT
TORSDOF 0
ENDMDL
