MODEL 1
REMARK minimizedAffinity 11.5655594
REMARK minimizedRMSD -1
REMARK  0 active torsions:
REMARK  status: ('A' for Active; 'I' for Inactive)
ROOT
ATOM      1  C   UNL d   1       1.130  -3.165   1.674  0.00  0.00     0.023 A 
ATOM      2  C1  UNL d   1       2.406  -3.672   1.924  0.00  0.00     0.003 A 
ATOM      3  C2  UNL d   1       3.534  -2.966   1.502  0.00  0.00     0.048 A 
ATOM      4  C3  UNL d   1       3.380  -1.752   0.833  0.00  0.00     0.023 A 
ATOM      5  C4  UNL d   1       2.106  -1.240   0.582  0.00  0.00     0.048 A 
ATOM      6  C5  UNL d   1       0.981  -1.950   1.004  0.00  0.00     0.003 A 
ATOM      7  I   UNL d   1       5.059  -0.700   0.205  0.00  0.00    -0.146 I 
ENDROOT
TORSDOF 0
ENDMDL
