MODEL 1
REMARK minimizedAffinity 9.74595451
REMARK minimizedRMSD -1
REMARK  0 active torsions:
REMARK  status: ('A' for Active; 'I' for Inactive)
ROOT
ATOM      1  C   UNL d   1       3.001  -3.463   0.819  0.00  0.00     0.023 A 
ATOM      2  C1  UNL d   1       2.755  -2.099   0.979  0.00  0.00     0.003 A 
ATOM      3  C2  UNL d   1       1.532  -1.664   1.492  0.00  0.00     0.048 A 
ATOM      4  C3  UNL d   1       0.558  -2.598   1.844  0.00  0.00     0.023 A 
ATOM      5  C4  UNL d   1       0.799  -3.964   1.686  0.00  0.00     0.048 A 
ATOM      6  C5  UNL d   1       2.024  -4.394   1.172  0.00  0.00     0.003 A 
ATOM      7  I   UNL d   1      -1.264  -1.953   2.607  0.00  0.00    -0.146 I 
ENDROOT
TORSDOF 0
ENDMDL
