MODEL 1
REMARK minimizedAffinity -0.81461066
REMARK minimizedRMSD -1
REMARK  1 active torsions:
REMARK  status: ('A' for Active; 'I' for Inactive)
REMARK    1  A    between atoms: C1_2  and  C2_3 
ROOT
ATOM      1  C2  UNL d   1      -5.502  -4.209  -3.215  0.00  0.00    -0.076 A 
ATOM      2  C3  UNL d   1      -5.998  -3.600  -4.381  0.00  0.00     0.004 A 
ATOM      3  C4  UNL d   1      -5.561  -4.001  -5.642  0.00  0.00    -0.003 A 
ATOM      4  C5  UNL d   1      -4.621  -5.019  -5.758  0.00  0.00     0.000 A 
ATOM      5  C6  UNL d   1      -4.130  -5.646  -4.613  0.00  0.00     0.000 A 
ATOM      6  C7  UNL d   1      -4.573  -5.264  -3.335  0.00  0.00    -0.073 A 
ATOM      7  C8  UNL d   1      -4.006  -5.971  -2.134  0.00  0.00     0.078 C 
ENDROOT
BRANCH   1   8
ATOM      8  C1  UNL d   1      -5.992  -3.713  -1.874  0.00  0.00     0.053 C 
ATOM      9  C   UNL d   1      -5.988  -2.195  -1.776  0.00  0.00     0.018 C 
ENDBRANCH   1   8
TORSDOF 1
ENDMDL
