MODEL 1
REMARK minimizedAffinity 0.481752098
REMARK minimizedRMSD -1
REMARK  1 active torsions:
REMARK  status: ('A' for Active; 'I' for Inactive)
REMARK    1  A    between atoms: C1_2  and  C2_3 
ROOT
ATOM      1  C2  UNL d   1      -5.728  -5.232  -3.490  0.00  0.00    -0.076 A 
ATOM      2  C3  UNL d   1      -5.745  -5.959  -4.693  0.00  0.00     0.004 A 
ATOM      3  C4  UNL d   1      -5.841  -5.310  -5.922  0.00  0.00    -0.003 A 
ATOM      4  C5  UNL d   1      -5.922  -3.923  -5.969  0.00  0.00     0.000 A 
ATOM      5  C6  UNL d   1      -5.889  -3.184  -4.787  0.00  0.00     0.000 A 
ATOM      6  C7  UNL d   1      -5.776  -3.823  -3.539  0.00  0.00    -0.073 A 
ATOM      7  C8  UNL d   1      -5.751  -2.977  -2.296  0.00  0.00     0.078 C 
ENDROOT
BRANCH   1   8
ATOM      8  C1  UNL d   1      -5.650  -5.992  -2.185  0.00  0.00     0.053 C 
ATOM      9  C   UNL d   1      -4.246  -6.000  -1.599  0.00  0.00     0.018 C 
ENDBRANCH   1   8
TORSDOF 1
ENDMDL
