MODEL 1
REMARK minimizedAffinity 11.0512066
REMARK minimizedRMSD -1
REMARK  1 active torsions:
REMARK  status: ('A' for Active; 'I' for Inactive)
REMARK    1  A    between atoms: C1_2  and  C2_3 
ROOT
ATOM      1  C2  UNL d   1       1.870  -0.124   1.870  0.00  0.00    -0.076 A 
ATOM      2  C3  UNL d   1       2.515  -0.538   0.692  0.00  0.00     0.004 A 
ATOM      3  C4  UNL d   1       2.970   0.391  -0.242  0.00  0.00    -0.003 A 
ATOM      4  C5  UNL d   1       2.788   1.751  -0.012  0.00  0.00     0.000 A 
ATOM      5  C6  UNL d   1       2.166   2.180   1.160  0.00  0.00     0.000 A 
ATOM      6  C7  UNL d   1       1.716   1.257   2.119  0.00  0.00    -0.073 A 
ATOM      7  C8  UNL d   1       1.046   1.776   3.362  0.00  0.00     0.078 C 
ENDROOT
BRANCH   1   8
ATOM      8  C1  UNL d   1       1.373  -1.178   2.833  0.00  0.00     0.053 C 
ATOM      9  C   UNL d   1       0.675  -2.330   2.127  0.00  0.00     0.018 C 
ENDBRANCH   1   8
TORSDOF 1
ENDMDL
