MODEL 1
REMARK minimizedAffinity 8.62551975
REMARK minimizedRMSD -1
REMARK  1 active torsions:
REMARK  status: ('A' for Active; 'I' for Inactive)
REMARK    1  A    between atoms: C1_2  and  C2_3 
ROOT
ATOM      1  C2  UNL d   1      -5.511  -3.371  -3.102  0.00  0.00    -0.076 A 
ATOM      2  C3  UNL d   1      -5.475  -4.453  -2.205  0.00  0.00     0.004 A 
ATOM      3  C4  UNL d   1      -5.706  -5.756  -2.642  0.00  0.00    -0.003 A 
ATOM      4  C5  UNL d   1      -5.977  -5.999  -3.984  0.00  0.00     0.000 A 
ATOM      5  C6  UNL d   1      -6.000  -4.940  -4.891  0.00  0.00     0.000 A 
ATOM      6  C7  UNL d   1      -5.752  -3.622  -4.470  0.00  0.00    -0.073 A 
ATOM      7  C8  UNL d   1      -5.795  -2.518  -5.490  0.00  0.00     0.078 C 
ENDROOT
BRANCH   1   8
ATOM      8  C1  UNL d   1      -5.279  -1.977  -2.566  0.00  0.00     0.053 C 
ATOM      9  C   UNL d   1      -5.997  -1.733  -1.247  0.00  0.00     0.018 C 
ENDBRANCH   1   8
TORSDOF 1
ENDMDL
