MODEL 1
REMARK minimizedAffinity 11.4900217
REMARK minimizedRMSD -1
REMARK  1 active torsions:
REMARK  status: ('A' for Active; 'I' for Inactive)
REMARK    1  A    between atoms: C1_2  and  C2_3 
ROOT
ATOM      1  C2  UNL d   1       1.530  -0.422   2.174  0.00  0.00    -0.076 A 
ATOM      2  C3  UNL d   1       1.642  -0.930   3.480  0.00  0.00     0.004 A 
ATOM      3  C4  UNL d   1       1.156  -2.196   3.801  0.00  0.00    -0.003 A 
ATOM      4  C5  UNL d   1       0.549  -2.974   2.822  0.00  0.00     0.000 A 
ATOM      5  C6  UNL d   1       0.445  -2.493   1.517  0.00  0.00     0.000 A 
ATOM      6  C7  UNL d   1       0.945  -1.226   1.173  0.00  0.00    -0.073 A 
ATOM      7  C8  UNL d   1       0.800  -0.754  -0.249  0.00  0.00     0.078 C 
ENDROOT
BRANCH   1   8
ATOM      8  C1  UNL d   1       2.052   0.969   1.891  0.00  0.00     0.053 C 
ATOM      9  C   UNL d   1       1.697   1.960   2.989  0.00  0.00     0.018 C 
ENDBRANCH   1   8
TORSDOF 1
ENDMDL
