MODEL 1
REMARK minimizedAffinity 2.70558977
REMARK minimizedRMSD -1
REMARK  1 active torsions:
REMARK  status: ('A' for Active; 'I' for Inactive)
REMARK    1  A    between atoms: C1_2  and  C2_3 
ROOT
ATOM      1  C2  UNL d   1       2.806  -2.576  -0.990  0.00  0.00    -0.076 A 
ATOM      2  C3  UNL d   1       3.402  -1.509  -0.295  0.00  0.00     0.004 A 
ATOM      3  C4  UNL d   1       2.902  -1.085   0.935  0.00  0.00    -0.003 A 
ATOM      4  C5  UNL d   1       1.798  -1.722   1.491  0.00  0.00     0.000 A 
ATOM      5  C6  UNL d   1       1.205  -2.793   0.824  0.00  0.00     0.000 A 
ATOM      6  C7  UNL d   1       1.706  -3.244  -0.409  0.00  0.00    -0.073 A 
ATOM      7  C8  UNL d   1       1.024  -4.400  -1.087  0.00  0.00     0.078 C 
ENDROOT
BRANCH   1   8
ATOM      8  C1  UNL d   1       3.375  -2.974  -2.333  0.00  0.00     0.053 C 
ATOM      9  C   UNL d   1       4.251  -1.889  -2.939  0.00  0.00     0.018 C 
ENDBRANCH   1   8
TORSDOF 1
ENDMDL
