MODEL 1
REMARK minimizedAffinity 4.2949605
REMARK minimizedRMSD -1
REMARK  1 active torsions:
REMARK  status: ('A' for Active; 'I' for Inactive)
REMARK    1  A    between atoms: C1_2  and  C2_3 
ROOT
ATOM      1  C2  UNL d   1       3.608  -1.166  -4.137  0.00  0.00    -0.076 A 
ATOM      2  C3  UNL d   1       2.238  -1.469  -4.049  0.00  0.00     0.004 A 
ATOM      3  C4  UNL d   1       1.780  -2.482  -3.209  0.00  0.00    -0.003 A 
ATOM      4  C5  UNL d   1       2.684  -3.208  -2.442  0.00  0.00     0.000 A 
ATOM      5  C6  UNL d   1       4.045  -2.909  -2.503  0.00  0.00     0.000 A 
ATOM      6  C7  UNL d   1       4.521  -1.880  -3.333  0.00  0.00    -0.073 A 
ATOM      7  C8  UNL d   1       6.000  -1.604  -3.364  0.00  0.00     0.078 C 
ENDROOT
BRANCH   1   8
ATOM      8  C1  UNL d   1       4.048  -0.074  -5.086  0.00  0.00     0.053 C 
ATOM      9  C   UNL d   1       5.182  -0.518  -5.998  0.00  0.00     0.018 C 
ENDBRANCH   1   8
TORSDOF 1
ENDMDL
