MODEL 1
REMARK minimizedAffinity 4.16918468
REMARK minimizedRMSD -1
REMARK  1 active torsions:
REMARK  status: ('A' for Active; 'I' for Inactive)
REMARK    1  A    between atoms: C1_2  and  C2_3 
ROOT
ATOM      1  C2  UNL d   1       4.904  -0.098  -3.343  0.00  0.00    -0.076 A 
ATOM      2  C3  UNL d   1       5.570  -1.085  -4.091  0.00  0.00     0.004 A 
ATOM      3  C4  UNL d   1       5.995  -0.834  -5.394  0.00  0.00    -0.003 A 
ATOM      4  C5  UNL d   1       5.761   0.410  -5.971  0.00  0.00     0.000 A 
ATOM      5  C6  UNL d   1       5.117   1.406  -5.239  0.00  0.00     0.000 A 
ATOM      6  C7  UNL d   1       4.697   1.174  -3.918  0.00  0.00    -0.073 A 
ATOM      7  C8  UNL d   1       4.002   2.283  -3.176  0.00  0.00     0.078 C 
ENDROOT
BRANCH   1   8
ATOM      8  C1  UNL d   1       4.442  -0.437  -1.944  0.00  0.00     0.053 C 
ATOM      9  C   UNL d   1       3.164  -1.262  -1.936  0.00  0.00     0.018 C 
ENDBRANCH   1   8
TORSDOF 1
ENDMDL
