MODEL 1
REMARK minimizedAffinity -2.6949048
REMARK minimizedRMSD -1
REMARK  1 active torsions:
REMARK  status: ('A' for Active; 'I' for Inactive)
REMARK    1  A    between atoms: C1_2  and  C2_3 
ROOT
ATOM      1  C2  UNL d   1       0.633  -0.758  -0.278  0.00  0.00    -0.076 A 
ATOM      2  C3  UNL d   1       0.183  -1.706   0.657  0.00  0.00     0.004 A 
ATOM      3  C4  UNL d   1      -0.803  -1.383   1.588  0.00  0.00    -0.003 A 
ATOM      4  C5  UNL d   1      -1.355  -0.107   1.598  0.00  0.00     0.000 A 
ATOM      5  C6  UNL d   1      -0.933   0.841   0.666  0.00  0.00     0.000 A 
ATOM      6  C7  UNL d   1       0.048   0.527  -0.289  0.00  0.00    -0.073 A 
ATOM      7  C8  UNL d   1       0.470   1.589  -1.267  0.00  0.00     0.078 C 
ENDROOT
BRANCH   1   8
ATOM      8  C1  UNL d   1       1.725  -1.156  -1.246  0.00  0.00     0.053 C 
ATOM      9  C   UNL d   1       3.053  -0.483  -0.937  0.00  0.00     0.018 C 
ENDBRANCH   1   8
TORSDOF 1
ENDMDL
