MODEL 1
REMARK minimizedAffinity -2.9926641
REMARK minimizedRMSD -1
REMARK  1 active torsions:
REMARK  status: ('A' for Active; 'I' for Inactive)
REMARK    1  A    between atoms: C1_2  and  C2_3 
ROOT
ATOM      1  C2  UNL d   1       0.297  -0.122  -0.149  0.00  0.00    -0.076 A 
ATOM      2  C3  UNL d   1       1.101   0.991  -0.452  0.00  0.00     0.004 A 
ATOM      3  C4  UNL d   1       2.422   0.829  -0.868  0.00  0.00    -0.003 A 
ATOM      4  C5  UNL d   1       2.959  -0.448  -0.989  0.00  0.00     0.000 A 
ATOM      5  C6  UNL d   1       2.170  -1.563  -0.709  0.00  0.00     0.000 A 
ATOM      6  C7  UNL d   1       0.832  -1.418  -0.304  0.00  0.00    -0.073 A 
ATOM      7  C8  UNL d   1       0.029  -2.655  -0.010  0.00  0.00     0.078 C 
ENDROOT
BRANCH   1   8
ATOM      8  C1  UNL d   1      -1.119   0.116   0.324  0.00  0.00     0.053 C 
ATOM      9  C   UNL d   1      -1.211   1.236   1.349  0.00  0.00     0.018 C 
ENDBRANCH   1   8
TORSDOF 1
ENDMDL
