MODEL 1
REMARK minimizedAffinity -3.26084638
REMARK minimizedRMSD -1
REMARK  1 active torsions:
REMARK  status: ('A' for Active; 'I' for Inactive)
REMARK    1  A    between atoms: C1_2  and  C2_3 
ROOT
ATOM      1  C2  UNL d   1       1.285  -0.023  -0.744  0.00  0.00    -0.076 A 
ATOM      2  C3  UNL d   1       1.079   1.351  -0.961  0.00  0.00     0.004 A 
ATOM      3  C4  UNL d   1      -0.127   1.958  -0.618  0.00  0.00    -0.003 A 
ATOM      4  C5  UNL d   1      -1.148   1.202  -0.051  0.00  0.00     0.000 A 
ATOM      5  C6  UNL d   1      -0.954  -0.158   0.187  0.00  0.00     0.000 A 
ATOM      6  C7  UNL d   1       0.262  -0.783  -0.138  0.00  0.00    -0.073 A 
ATOM      7  C8  UNL d   1       0.414  -2.254   0.136  0.00  0.00     0.078 C 
ENDROOT
BRANCH   1   8
ATOM      8  C1  UNL d   1       2.605  -0.632  -1.162  0.00  0.00     0.053 C 
ATOM      9  C   UNL d   1       3.798   0.100  -0.567  0.00  0.00     0.018 C 
ENDBRANCH   1   8
TORSDOF 1
ENDMDL
