MODEL 1
REMARK minimizedAffinity -2.78015876
REMARK minimizedRMSD -1
REMARK  1 active torsions:
REMARK  status: ('A' for Active; 'I' for Inactive)
REMARK    1  A    between atoms: C1_2  and  C2_3 
ROOT
ATOM      1  C2  UNL d   1       0.126   0.042  -0.239  0.00  0.00    -0.076 A 
ATOM      2  C3  UNL d   1       1.199   0.950  -0.223  0.00  0.00     0.004 A 
ATOM      3  C4  UNL d   1       2.512   0.511  -0.381  0.00  0.00    -0.003 A 
ATOM      4  C5  UNL d   1       2.774  -0.843  -0.560  0.00  0.00     0.000 A 
ATOM      5  C6  UNL d   1       1.720  -1.756  -0.597  0.00  0.00     0.000 A 
ATOM      6  C7  UNL d   1       0.389  -1.328  -0.454  0.00  0.00    -0.073 A 
ATOM      7  C8  UNL d   1      -0.708  -2.357  -0.496  0.00  0.00     0.078 C 
ENDROOT
BRANCH   1   8
ATOM      8  C1  UNL d   1      -1.275   0.572  -0.035  0.00  0.00     0.053 C 
ATOM      9  C   UNL d   1      -1.584   0.854   1.428  0.00  0.00     0.018 C 
ENDBRANCH   1   8
TORSDOF 1
ENDMDL
