MODEL 1
REMARK minimizedAffinity -5.3039813
REMARK minimizedRMSD -1
REMARK  1 active torsions:
REMARK  status: ('A' for Active; 'I' for Inactive)
REMARK    1  A    between atoms: C1_2  and  C2_3 
ROOT
ATOM      1  C2  UNL d   1      -0.991   0.361   0.637  0.00  0.00    -0.076 A 
ATOM      2  C3  UNL d   1      -0.183  -0.774   0.826  0.00  0.00     0.004 A 
ATOM      3  C4  UNL d   1       1.041  -0.900   0.171  0.00  0.00    -0.003 A 
ATOM      4  C5  UNL d   1       1.477   0.107  -0.683  0.00  0.00     0.000 A 
ATOM      5  C6  UNL d   1       0.697   1.247  -0.868  0.00  0.00     0.000 A 
ATOM      6  C7  UNL d   1      -0.532   1.398  -0.203  0.00  0.00    -0.073 A 
ATOM      7  C8  UNL d   1      -1.336   2.646  -0.445  0.00  0.00     0.078 C 
ENDROOT
BRANCH   1   8
ATOM      8  C1  UNL d   1      -2.321   0.431   1.353  0.00  0.00     0.053 C 
ATOM      9  C   UNL d   1      -2.188   0.937   2.781  0.00  0.00     0.018 C 
ENDBRANCH   1   8
TORSDOF 1
ENDMDL
