MODEL 1
REMARK minimizedAffinity -4.26250696
REMARK minimizedRMSD -1
REMARK  1 active torsions:
REMARK  status: ('A' for Active; 'I' for Inactive)
REMARK    1  A    between atoms: C1_2  and  C2_3 
ROOT
ATOM      1  C2  UNL d   1      -0.102   0.145  -0.182  0.00  0.00    -0.076 A 
ATOM      2  C3  UNL d   1       0.210  -1.132   0.317  0.00  0.00     0.004 A 
ATOM      3  C4  UNL d   1       1.327  -1.828  -0.142  0.00  0.00    -0.003 A 
ATOM      4  C5  UNL d   1       2.151  -1.258  -1.106  0.00  0.00     0.000 A 
ATOM      5  C6  UNL d   1       1.867   0.015  -1.598  0.00  0.00     0.000 A 
ATOM      6  C7  UNL d   1       0.753   0.737  -1.135  0.00  0.00    -0.073 A 
ATOM      7  C8  UNL d   1       0.490   2.104  -1.705  0.00  0.00     0.078 C 
ENDROOT
BRANCH   1   8
ATOM      8  C1  UNL d   1      -1.342   0.840   0.333  0.00  0.00     0.053 C 
ATOM      9  C   UNL d   1      -1.570   0.602   1.818  0.00  0.00     0.018 C 
ENDBRANCH   1   8
TORSDOF 1
ENDMDL
