MODEL 1
REMARK minimizedAffinity 0.0291469935
REMARK minimizedRMSD -1
REMARK  1 active torsions:
REMARK  status: ('A' for Active; 'I' for Inactive)
REMARK    1  A    between atoms: C1_2  and  C2_3 
ROOT
ATOM      1  C2  UNL d   1       1.542  -0.526  -1.277  0.00  0.00    -0.076 A 
ATOM      2  C3  UNL d   1       0.960  -1.531  -0.485  0.00  0.00     0.004 A 
ATOM      3  C4  UNL d   1      -0.079  -1.239   0.396  0.00  0.00    -0.003 A 
ATOM      4  C5  UNL d   1      -0.555   0.064   0.499  0.00  0.00     0.000 A 
ATOM      5  C6  UNL d   1      -0.001   1.070  -0.291  0.00  0.00     0.000 A 
ATOM      6  C7  UNL d   1       1.037   0.789  -1.196  0.00  0.00    -0.073 A 
ATOM      7  C8  UNL d   1       1.601   1.914  -2.020  0.00  0.00     0.078 C 
ENDROOT
BRANCH   1   8
ATOM      8  C1  UNL d   1       2.685  -0.897  -2.194  0.00  0.00     0.053 C 
ATOM      9  C   UNL d   1       2.255  -1.837  -3.310  0.00  0.00     0.018 C 
ENDBRANCH   1   8
TORSDOF 1
ENDMDL
