MODEL 1
REMARK minimizedAffinity -4.04558611
REMARK minimizedRMSD -1
REMARK  1 active torsions:
REMARK  status: ('A' for Active; 'I' for Inactive)
REMARK    1  A    between atoms: C1_2  and  C2_3 
ROOT
ATOM      1  C2  UNL d   1       0.106   0.165  -0.002  0.00  0.00    -0.076 A 
ATOM      2  C3  UNL d   1       0.282  -1.149   0.465  0.00  0.00     0.004 A 
ATOM      3  C4  UNL d   1       1.492  -1.817   0.290  0.00  0.00    -0.003 A 
ATOM      4  C5  UNL d   1       2.548  -1.182  -0.355  0.00  0.00     0.000 A 
ATOM      5  C6  UNL d   1       2.397   0.128  -0.810  0.00  0.00     0.000 A 
ATOM      6  C7  UNL d   1       1.188   0.822  -0.627  0.00  0.00    -0.073 A 
ATOM      7  C8  UNL d   1       1.079   2.230  -1.143  0.00  0.00     0.078 C 
ENDROOT
BRANCH   1   8
ATOM      8  C1  UNL d   1      -1.238   0.829   0.192  0.00  0.00     0.053 C 
ATOM      9  C   UNL d   1      -1.652   0.889   1.654  0.00  0.00     0.018 C 
ENDBRANCH   1   8
TORSDOF 1
ENDMDL
