MODEL 1
REMARK minimizedAffinity -4.83204508
REMARK minimizedRMSD -1
REMARK  1 active torsions:
REMARK  status: ('A' for Active; 'I' for Inactive)
REMARK    1  A    between atoms: C1_2  and  C2_3 
ROOT
ATOM      1  C2  UNL d   1       0.069  -0.351   0.117  0.00  0.00    -0.076 A 
ATOM      2  C3  UNL d   1       0.638   0.778  -0.496  0.00  0.00     0.004 A 
ATOM      3  C4  UNL d   1       1.793   0.670  -1.269  0.00  0.00    -0.003 A 
ATOM      4  C5  UNL d   1       2.397  -0.571  -1.442  0.00  0.00     0.000 A 
ATOM      5  C6  UNL d   1       1.836  -1.705  -0.856  0.00  0.00     0.000 A 
ATOM      6  C7  UNL d   1       0.663  -1.615  -0.087  0.00  0.00    -0.073 A 
ATOM      7  C8  UNL d   1       0.105  -2.870   0.527  0.00  0.00     0.078 C 
ENDROOT
BRANCH   1   8
ATOM      8  C1  UNL d   1      -1.169  -0.168   0.966  0.00  0.00     0.053 C 
ATOM      9  C   UNL d   1      -0.943   0.789   2.126  0.00  0.00     0.018 C 
ENDBRANCH   1   8
TORSDOF 1
ENDMDL
