MODEL 1
REMARK minimizedAffinity -4.72652054
REMARK minimizedRMSD -1
REMARK  1 active torsions:
REMARK  status: ('A' for Active; 'I' for Inactive)
REMARK    1  A    between atoms: C1_2  and  C2_3 
ROOT
ATOM      1  C2  UNL d   1       0.227  -0.174  -0.366  0.00  0.00    -0.076 A 
ATOM      2  C3  UNL d   1       1.201   0.788  -0.686  0.00  0.00     0.004 A 
ATOM      3  C4  UNL d   1       2.531   0.424  -0.886  0.00  0.00    -0.003 A 
ATOM      4  C5  UNL d   1       2.909  -0.909  -0.770  0.00  0.00     0.000 A 
ATOM      5  C6  UNL d   1       1.953  -1.880  -0.471  0.00  0.00     0.000 A 
ATOM      6  C7  UNL d   1       0.605  -1.531  -0.282  0.00  0.00    -0.073 A 
ATOM      7  C8  UNL d   1      -0.383  -2.618   0.045  0.00  0.00     0.078 C 
ENDROOT
BRANCH   1   8
ATOM      8  C1  UNL d   1      -1.195   0.284  -0.133  0.00  0.00     0.053 C 
ATOM      9  C   UNL d   1      -1.481   0.575   1.332  0.00  0.00     0.018 C 
ENDBRANCH   1   8
TORSDOF 1
ENDMDL
