MODEL 1
REMARK minimizedAffinity -3.48826623
REMARK minimizedRMSD -1
REMARK  1 active torsions:
REMARK  status: ('A' for Active; 'I' for Inactive)
REMARK    1  A    between atoms: C1_2  and  C2_3 
ROOT
ATOM      1  C2  UNL d   1       0.760  -0.203  -0.145  0.00  0.00    -0.076 A 
ATOM      2  C3  UNL d   1       1.824   0.704  -0.000  0.00  0.00     0.004 A 
ATOM      3  C4  UNL d   1       2.971   0.595  -0.785  0.00  0.00    -0.003 A 
ATOM      4  C5  UNL d   1       3.072  -0.422  -1.728  0.00  0.00     0.000 A 
ATOM      5  C6  UNL d   1       2.018  -1.319  -1.898  0.00  0.00     0.000 A 
ATOM      6  C7  UNL d   1       0.848  -1.214  -1.126  0.00  0.00    -0.073 A 
ATOM      7  C8  UNL d   1      -0.255  -2.213  -1.346  0.00  0.00     0.078 C 
ENDROOT
BRANCH   1   8
ATOM      8  C1  UNL d   1      -0.447  -0.052   0.753  0.00  0.00     0.053 C 
ATOM      9  C   UNL d   1      -1.512   0.852   0.151  0.00  0.00     0.018 C 
ENDBRANCH   1   8
TORSDOF 1
ENDMDL
