MODEL 1
REMARK minimizedAffinity -4.04908705
REMARK minimizedRMSD -1
REMARK  1 active torsions:
REMARK  status: ('A' for Active; 'I' for Inactive)
REMARK    1  A    between atoms: C1_2  and  C2_3 
ROOT
ATOM      1  C2  UNL d   1       0.225   0.166  -0.374  0.00  0.00    -0.076 A 
ATOM      2  C3  UNL d   1       1.133   1.227  -0.537  0.00  0.00     0.004 A 
ATOM      3  C4  UNL d   1       2.488   0.985  -0.757  0.00  0.00    -0.003 A 
ATOM      4  C5  UNL d   1       2.957  -0.323  -0.820  0.00  0.00     0.000 A 
ATOM      5  C6  UNL d   1       2.067  -1.388  -0.679  0.00  0.00     0.000 A 
ATOM      6  C7  UNL d   1       0.696  -1.161  -0.472  0.00  0.00    -0.073 A 
ATOM      7  C8  UNL d   1      -0.217  -2.346  -0.321  0.00  0.00     0.078 C 
ENDROOT
BRANCH   1   8
ATOM      8  C1  UNL d   1      -1.228   0.490  -0.111  0.00  0.00     0.053 C 
ATOM      9  C   UNL d   1      -1.479   0.911   1.329  0.00  0.00     0.018 C 
ENDBRANCH   1   8
TORSDOF 1
ENDMDL
