MODEL 1
REMARK minimizedAffinity 5.41815805
REMARK minimizedRMSD -1
REMARK  2 active torsions:
REMARK  status: ('A' for Active; 'I' for Inactive)
REMARK    1  A    between atoms: C1_2  and  C2_3 
REMARK    2  A    between atoms: C2_3  and  C3_4 
ROOT
ATOM      1  C3  UNL d   1       2.739  -0.405  -0.731  0.00  0.00    -0.075 A 
ATOM      2  C4  UNL d   1       3.702  -0.414  -1.750  0.00  0.00     0.002 A 
ATOM      3  C5  UNL d   1       3.894  -1.552  -2.533  0.00  0.00     0.002 A 
ATOM      4  C6  UNL d   1       3.137  -2.698  -2.300  0.00  0.00    -0.004 A 
ATOM      5  C7  UNL d   1       2.189  -2.706  -1.279  0.00  0.00     0.002 A 
ATOM      6  C8  UNL d   1       1.991  -1.567  -0.497  0.00  0.00     0.002 A 
ENDROOT
BRANCH   1   7
ATOM      7  C2  UNL d   1       2.505   0.834   0.100  0.00  0.00     0.056 C 
BRANCH   7   8
ATOM      8  C1  UNL d   1       1.120   0.894   0.754  0.00  0.00     0.007 C 
ATOM      9  C   UNL d   1       0.082   1.605  -0.103  0.00  0.00     0.009 C 
ENDBRANCH   7   8
ENDBRANCH   1   7
TORSDOF 2
ENDMDL
