MODEL 1
REMARK minimizedAffinity 2.27057147
REMARK minimizedRMSD -1
REMARK  2 active torsions:
REMARK  status: ('A' for Active; 'I' for Inactive)
REMARK    1  A    between atoms: C1_2  and  C2_3 
REMARK    2  A    between atoms: C2_3  and  C3_4 
ROOT
ATOM      1  C3  UNL d   1       2.308  -1.560  -0.914  0.00  0.00    -0.075 A 
ATOM      2  C4  UNL d   1       3.591  -1.207  -1.357  0.00  0.00     0.002 A 
ATOM      3  C5  UNL d   1       4.059   0.099  -1.204  0.00  0.00     0.002 A 
ATOM      4  C6  UNL d   1       3.248   1.068  -0.616  0.00  0.00    -0.004 A 
ATOM      5  C7  UNL d   1       1.966   0.732  -0.188  0.00  0.00     0.002 A 
ATOM      6  C8  UNL d   1       1.497  -0.574  -0.336  0.00  0.00     0.002 A 
ENDROOT
BRANCH   1   7
ATOM      7  C2  UNL d   1       1.806  -2.978  -1.051  0.00  0.00     0.056 C 
BRANCH   7   8
ATOM      8  C1  UNL d   1       0.356  -3.083  -1.534  0.00  0.00     0.007 C 
ATOM      9  C   UNL d   1      -0.329  -4.372  -1.101  0.00  0.00     0.009 C 
ENDBRANCH   7   8
ENDBRANCH   1   7
TORSDOF 2
ENDMDL
