MODEL 1
REMARK minimizedAffinity -1.71576428
REMARK minimizedRMSD -1
REMARK  2 active torsions:
REMARK  status: ('A' for Active; 'I' for Inactive)
REMARK    1  A    between atoms: C1_2  and  C2_3 
REMARK    2  A    between atoms: C2_3  and  C3_4 
ROOT
ATOM      1  C3  UNL d   1       1.146   0.512   0.771  0.00  0.00    -0.075 A 
ATOM      2  C4  UNL d   1       1.174   0.170   2.131  0.00  0.00     0.002 A 
ATOM      3  C5  UNL d   1       0.034   0.319   2.922  0.00  0.00     0.002 A 
ATOM      4  C6  UNL d   1      -1.141   0.820   2.368  0.00  0.00    -0.004 A 
ATOM      5  C7  UNL d   1      -1.175   1.179   1.022  0.00  0.00     0.002 A 
ATOM      6  C8  UNL d   1      -0.038   1.027   0.227  0.00  0.00     0.002 A 
ENDROOT
BRANCH   1   7
ATOM      7  C2  UNL d   1       2.367   0.325  -0.097  0.00  0.00     0.056 C 
BRANCH   7   8
ATOM      8  C1  UNL d   1       2.895  -1.113  -0.130  0.00  0.00     0.007 C 
ATOM      9  C   UNL d   1       3.217  -1.602  -1.536  0.00  0.00     0.009 C 
ENDBRANCH   7   8
ENDBRANCH   1   7
TORSDOF 2
ENDMDL
