MODEL 1
REMARK minimizedAffinity 2.13704753
REMARK minimizedRMSD -1
REMARK  2 active torsions:
REMARK  status: ('A' for Active; 'I' for Inactive)
REMARK    1  A    between atoms: C1_2  and  C2_3 
REMARK    2  A    between atoms: C2_3  and  C3_4 
ROOT
ATOM      1  C3  UNL d   1       1.599   0.731   0.820  0.00  0.00    -0.075 A 
ATOM      2  C4  UNL d   1       1.654   0.586   2.214  0.00  0.00     0.002 A 
ATOM      3  C5  UNL d   1       0.481   0.555   2.969  0.00  0.00     0.002 A 
ATOM      4  C6  UNL d   1      -0.758   0.679   2.343  0.00  0.00    -0.004 A 
ATOM      5  C7  UNL d   1      -0.823   0.841   0.961  0.00  0.00     0.002 A 
ATOM      6  C8  UNL d   1       0.349   0.867   0.202  0.00  0.00     0.002 A 
ENDROOT
BRANCH   1   7
ATOM      7  C2  UNL d   1       2.863   0.736  -0.006  0.00  0.00     0.056 C 
BRANCH   7   8
ATOM      8  C1  UNL d   1       3.695   2.015   0.133  0.00  0.00     0.007 C 
ATOM      9  C   UNL d   1       5.195   1.769   0.045  0.00  0.00     0.009 C 
ENDBRANCH   7   8
ENDBRANCH   1   7
TORSDOF 2
ENDMDL
