MODEL 1
REMARK minimizedAffinity 8.03439808
REMARK minimizedRMSD -1
REMARK  2 active torsions:
REMARK  status: ('A' for Active; 'I' for Inactive)
REMARK    1  A    between atoms: C1_2  and  C2_3 
REMARK    2  A    between atoms: C2_3  and  C3_4 
ROOT
ATOM      1  C3  UNL d   1      -0.342   0.987   2.044  0.00  0.00    -0.075 A 
ATOM      2  C4  UNL d   1      -1.562   1.427   1.511  0.00  0.00     0.002 A 
ATOM      3  C5  UNL d   1      -1.722   1.574   0.133  0.00  0.00     0.002 A 
ATOM      4  C6  UNL d   1      -0.663   1.293  -0.728  0.00  0.00    -0.004 A 
ATOM      5  C7  UNL d   1       0.559   0.871  -0.209  0.00  0.00     0.002 A 
ATOM      6  C8  UNL d   1       0.720   0.719   1.170  0.00  0.00     0.002 A 
ENDROOT
BRANCH   1   7
ATOM      7  C2  UNL d   1      -0.172   0.797   3.532  0.00  0.00     0.056 C 
BRANCH   7   8
ATOM      8  C1  UNL d   1       0.492  -0.528   3.921  0.00  0.00     0.007 C 
ATOM      9  C   UNL d   1       1.652  -0.357   4.892  0.00  0.00     0.009 C 
ENDBRANCH   7   8
ENDBRANCH   1   7
TORSDOF 2
ENDMDL
