MODEL 1
REMARK minimizedAffinity 1.55407238
REMARK minimizedRMSD -1
REMARK  2 active torsions:
REMARK  status: ('A' for Active; 'I' for Inactive)
REMARK    1  A    between atoms: C1_2  and  C2_3 
REMARK    2  A    between atoms: C2_3  and  C3_4 
ROOT
ATOM      1  C3  UNL d   1       1.152   0.862   0.671  0.00  0.00    -0.075 A 
ATOM      2  C4  UNL d   1       0.165   1.482  -0.108  0.00  0.00     0.002 A 
ATOM      3  C5  UNL d   1      -1.121   1.672   0.398  0.00  0.00     0.002 A 
ATOM      4  C6  UNL d   1      -1.439   1.237   1.683  0.00  0.00    -0.004 A 
ATOM      5  C7  UNL d   1      -0.470   0.606   2.460  0.00  0.00     0.002 A 
ATOM      6  C8  UNL d   1       0.819   0.418   1.958  0.00  0.00     0.002 A 
ENDROOT
BRANCH   1   7
ATOM      7  C2  UNL d   1       2.554   0.680   0.140  0.00  0.00     0.056 C 
BRANCH   7   8
ATOM      8  C1  UNL d   1       3.455   1.906   0.323  0.00  0.00     0.007 C 
ATOM      9  C   UNL d   1       4.830   1.741  -0.309  0.00  0.00     0.009 C 
ENDBRANCH   7   8
ENDBRANCH   1   7
TORSDOF 2
ENDMDL
