MODEL 1
REMARK minimizedAffinity 3.41380334
REMARK minimizedRMSD -1
REMARK  2 active torsions:
REMARK  status: ('A' for Active; 'I' for Inactive)
REMARK    1  A    between atoms: C1_2  and  C2_3 
REMARK    2  A    between atoms: C2_3  and  C3_4 
ROOT
ATOM      1  C3  UNL d   1       2.109   0.954   0.276  0.00  0.00    -0.075 A 
ATOM      2  C4  UNL d   1       2.850   2.144   0.295  0.00  0.00     0.002 A 
ATOM      3  C5  UNL d   1       4.158   2.172  -0.188  0.00  0.00     0.002 A 
ATOM      4  C6  UNL d   1       4.745   1.010  -0.686  0.00  0.00    -0.004 A 
ATOM      5  C7  UNL d   1       4.023  -0.182  -0.694  0.00  0.00     0.002 A 
ATOM      6  C8  UNL d   1       2.712  -0.211  -0.215  0.00  0.00     0.002 A 
ENDROOT
BRANCH   1   7
ATOM      7  C2  UNL d   1       0.682   0.924   0.771  0.00  0.00     0.056 C 
BRANCH   7   8
ATOM      8  C1  UNL d   1      -0.233   1.951   0.096  0.00  0.00     0.007 C 
ATOM      9  C   UNL d   1      -1.338   1.314  -0.738  0.00  0.00     0.009 C 
ENDBRANCH   7   8
ENDBRANCH   1   7
TORSDOF 2
ENDMDL
