MODEL 1
REMARK minimizedAffinity 1.31678724
REMARK minimizedRMSD -1
REMARK  2 active torsions:
REMARK  status: ('A' for Active; 'I' for Inactive)
REMARK    1  A    between atoms: C1_2  and  C2_3 
REMARK    2  A    between atoms: C2_3  and  C3_4 
ROOT
ATOM      1  C3  UNL d   1       1.893   0.457   0.580  0.00  0.00    -0.075 A 
ATOM      2  C4  UNL d   1       1.996  -0.889   0.200  0.00  0.00     0.002 A 
ATOM      3  C5  UNL d   1       3.014  -1.307  -0.657  0.00  0.00     0.002 A 
ATOM      4  C6  UNL d   1       3.934  -0.386  -1.153  0.00  0.00    -0.004 A 
ATOM      5  C7  UNL d   1       3.832   0.956  -0.796  0.00  0.00     0.002 A 
ATOM      6  C8  UNL d   1       2.817   1.377   0.066  0.00  0.00     0.002 A 
ENDROOT
BRANCH   1   7
ATOM      7  C2  UNL d   1       0.812   0.912   1.530  0.00  0.00     0.056 C 
BRANCH   7   8
ATOM      8  C1  UNL d   1       1.267   1.015   2.990  0.00  0.00     0.007 C 
ATOM      9  C   UNL d   1       0.546   0.042   3.914  0.00  0.00     0.009 C 
ENDBRANCH   7   8
ENDBRANCH   1   7
TORSDOF 2
ENDMDL
