MODEL 1
REMARK minimizedAffinity 1.87716544
REMARK minimizedRMSD -1
REMARK  3 active torsions:
REMARK  status: ('A' for Active; 'I' for Inactive)
REMARK    1  A    between atoms: C3'_2  and  C2'_3 
REMARK    2  A    between atoms: C2'_3  and  C1'_4 
REMARK    3  A    between atoms: C1'_4  and  C1_5 
ROOT
ATOM      1  C1  N4B d   1       0.263  -0.577   0.661  0.00  0.00    -0.075 A 
ATOM      2  C2  N4B d   1       1.563  -0.971   0.273  0.00  0.00     0.002 A 
ATOM      3  C3  N4B d   1       2.139  -2.084   0.834  0.00  0.00     0.002 A 
ATOM      4  C4  N4B d   1       1.445  -2.806   1.794  0.00  0.00    -0.004 A 
ATOM      5  C5  N4B d   1       0.180  -2.434   2.144  0.00  0.00     0.002 A 
ATOM      6  C6  N4B d   1      -0.413  -1.319   1.586  0.00  0.00     0.002 A 
ENDROOT
BRANCH   1   7
ATOM      7  C1' N4B d   1      -0.375   0.681   0.139  0.00  0.00     0.057 C 
BRANCH   7   8
ATOM      8  C2' N4B d   1      -1.874   0.637   0.420  0.00  0.00     0.009 C 
BRANCH   8   9
ATOM      9  C3' N4B d   1      -2.682   0.412  -0.847  0.00  0.00     0.004 C 
ATOM     10  C4' N4B d   1      -2.978  -1.036  -1.097  0.00  0.00     0.003 C 
ENDBRANCH   8   9
ENDBRANCH   7   8
ENDBRANCH   1   7
TORSDOF 3
ENDMDL
