MODEL 1
REMARK minimizedAffinity 5.63739157
REMARK minimizedRMSD -1
REMARK  3 active torsions:
REMARK  status: ('A' for Active; 'I' for Inactive)
REMARK    1  A    between atoms: C3'_2  and  C2'_3 
REMARK    2  A    between atoms: C2'_3  and  C1'_4 
REMARK    3  A    between atoms: C1'_4  and  C1_5 
ROOT
ATOM      1  C1  N4B d   1      -1.520   2.442  -1.955  0.00  0.00    -0.075 A 
ATOM      2  C2  N4B d   1      -0.126   2.512  -2.168  0.00  0.00     0.002 A 
ATOM      3  C3  N4B d   1       0.367   2.694  -3.437  0.00  0.00     0.002 A 
ATOM      4  C4  N4B d   1      -0.511   2.789  -4.506  0.00  0.00    -0.004 A 
ATOM      5  C5  N4B d   1      -1.857   2.746  -4.289  0.00  0.00     0.002 A 
ATOM      6  C6  N4B d   1      -2.367   2.567  -3.019  0.00  0.00     0.002 A 
ENDROOT
BRANCH   1   7
ATOM      7  C1' N4B d   1      -2.103   2.158  -0.598  0.00  0.00     0.057 C 
BRANCH   7   8
ATOM      8  C2' N4B d   1      -3.475   1.512  -0.768  0.00  0.00     0.009 C 
BRANCH   8   9
ATOM      9  C3' N4B d   1      -3.527   0.121  -0.159  0.00  0.00     0.004 C 
ATOM     10  C4' N4B d   1      -4.707  -0.676  -0.631  0.00  0.00     0.003 C 
ENDBRANCH   8   9
ENDBRANCH   7   8
ENDBRANCH   1   7
TORSDOF 3
ENDMDL
