MODEL 1
REMARK minimizedAffinity 7.38012505
REMARK minimizedRMSD -1
REMARK  3 active torsions:
REMARK  status: ('A' for Active; 'I' for Inactive)
REMARK    1  A    between atoms: C3'_2  and  C2'_3 
REMARK    2  A    between atoms: C2'_3  and  C1'_4 
REMARK    3  A    between atoms: C1'_4  and  C1_5 
ROOT
ATOM      1  C1  N4B d   1      -0.714  -1.601   1.555  0.00  0.00    -0.075 A 
ATOM      2  C2  N4B d   1       0.413  -0.926   1.036  0.00  0.00     0.002 A 
ATOM      3  C3  N4B d   1       0.582  -0.817  -0.323  0.00  0.00     0.002 A 
ATOM      4  C4  N4B d   1      -0.349  -1.388  -1.178  0.00  0.00    -0.004 A 
ATOM      5  C5  N4B d   1      -1.448  -2.016  -0.668  0.00  0.00     0.002 A 
ATOM      6  C6  N4B d   1      -1.632  -2.130   0.695  0.00  0.00     0.002 A 
ENDROOT
BRANCH   1   7
ATOM      7  C1' N4B d   1      -0.897  -1.820   3.032  0.00  0.00     0.057 C 
BRANCH   7   8
ATOM      8  C2' N4B d   1      -0.220  -3.128   3.432  0.00  0.00     0.009 C 
BRANCH   8   9
ATOM      9  C3' N4B d   1       0.926  -2.902   4.403  0.00  0.00     0.004 C 
ATOM     10  C4' N4B d   1       2.024  -3.911   4.252  0.00  0.00     0.003 C 
ENDBRANCH   8   9
ENDBRANCH   7   8
ENDBRANCH   1   7
TORSDOF 3
ENDMDL
