MODEL 1
REMARK minimizedAffinity 4.0741787
REMARK minimizedRMSD -1
REMARK  3 active torsions:
REMARK  status: ('A' for Active; 'I' for Inactive)
REMARK    1  A    between atoms: C3'_2  and  C2'_3 
REMARK    2  A    between atoms: C2'_3  and  C1'_4 
REMARK    3  A    between atoms: C1'_4  and  C1_5 
ROOT
ATOM      1  C1  N4B d   1       0.345  -2.137   2.293  0.00  0.00    -0.075 A 
ATOM      2  C2  N4B d   1      -0.701  -1.936   3.221  0.00  0.00     0.002 A 
ATOM      3  C3  N4B d   1      -0.636  -2.516   4.465  0.00  0.00     0.002 A 
ATOM      4  C4  N4B d   1       0.451  -3.312   4.794  0.00  0.00    -0.004 A 
ATOM      5  C5  N4B d   1       1.469  -3.480   3.902  0.00  0.00     0.002 A 
ATOM      6  C6  N4B d   1       1.419  -2.900   2.650  0.00  0.00     0.002 A 
ENDROOT
BRANCH   1   7
ATOM      7  C1' N4B d   1       0.278  -1.595   0.892  0.00  0.00     0.057 C 
BRANCH   7   8
ATOM      8  C2' N4B d   1      -0.671  -0.400   0.862  0.00  0.00     0.009 C 
BRANCH   8   9
ATOM      9  C3' N4B d   1       0.065   0.904   0.612  0.00  0.00     0.004 C 
ATOM     10  C4' N4B d   1      -0.823   1.975   0.052  0.00  0.00     0.003 C 
ENDBRANCH   8   9
ENDBRANCH   7   8
ENDBRANCH   1   7
TORSDOF 3
ENDMDL
