MODEL 1
REMARK minimizedAffinity -2.28577638
REMARK minimizedRMSD -1
REMARK  3 active torsions:
REMARK  status: ('A' for Active; 'I' for Inactive)
REMARK    1  A    between atoms: C3'_2  and  C2'_3 
REMARK    2  A    between atoms: C2'_3  and  C1'_4 
REMARK    3  A    between atoms: C1'_4  and  C1_5 
ROOT
ATOM      1  C1  N4B d   1       1.691   2.605  -3.716  0.00  0.00    -0.075 A 
ATOM      2  C2  N4B d   1       1.551   1.471  -2.885  0.00  0.00     0.002 A 
ATOM      3  C3  N4B d   1       2.655   0.927  -2.276  0.00  0.00     0.002 A 
ATOM      4  C4  N4B d   1       3.906   1.485  -2.497  0.00  0.00    -0.004 A 
ATOM      5  C5  N4B d   1       4.028   2.594  -3.280  0.00  0.00     0.002 A 
ATOM      6  C6  N4B d   1       2.927   3.155  -3.896  0.00  0.00     0.002 A 
ENDROOT
BRANCH   1   7
ATOM      7  C1' N4B d   1       0.526   3.183  -4.472  0.00  0.00     0.057 C 
BRANCH   7   8
ATOM      8  C2' N4B d   1      -0.345   3.987  -3.511  0.00  0.00     0.009 C 
BRANCH   8   9
ATOM      9  C3' N4B d   1      -1.826   3.760  -3.761  0.00  0.00     0.004 C 
ATOM     10  C4' N4B d   1      -2.495   3.012  -2.647  0.00  0.00     0.003 C 
ENDBRANCH   8   9
ENDBRANCH   7   8
ENDBRANCH   1   7
TORSDOF 3
ENDMDL
