MODEL 1
REMARK minimizedAffinity 1.58205605
REMARK minimizedRMSD -1
REMARK  3 active torsions:
REMARK  status: ('A' for Active; 'I' for Inactive)
REMARK    1  A    between atoms: C3'_2  and  C2'_3 
REMARK    2  A    between atoms: C2'_3  and  C1'_4 
REMARK    3  A    between atoms: C1'_4  and  C1_5 
ROOT
ATOM      1  C1  N4B d   1      -4.194  -3.697  -5.857  0.00  0.00    -0.075 A 
ATOM      2  C2  N4B d   1      -2.824  -3.382  -5.725  0.00  0.00     0.002 A 
ATOM      3  C3  N4B d   1      -1.885  -4.385  -5.727  0.00  0.00     0.002 A 
ATOM      4  C4  N4B d   1      -2.293  -5.705  -5.842  0.00  0.00    -0.004 A 
ATOM      5  C5  N4B d   1      -3.617  -5.999  -5.995  0.00  0.00     0.002 A 
ATOM      6  C6  N4B d   1      -4.570  -5.001  -5.998  0.00  0.00     0.002 A 
ENDROOT
BRANCH   1   7
ATOM      7  C1' N4B d   1      -5.263  -2.642  -5.774  0.00  0.00     0.057 C 
BRANCH   7   8
ATOM      8  C2' N4B d   1      -5.158  -1.928  -4.430  0.00  0.00     0.009 C 
BRANCH   8   9
ATOM      9  C3' N4B d   1      -4.206  -0.745  -4.487  0.00  0.00     0.004 C 
ATOM     10  C4' N4B d   1      -4.086  -0.032  -3.173  0.00  0.00     0.003 C 
ENDBRANCH   8   9
ENDBRANCH   7   8
ENDBRANCH   1   7
TORSDOF 3
ENDMDL
