MODEL 1
REMARK minimizedAffinity 1.41738462
REMARK minimizedRMSD -1
REMARK  0 active torsions:
REMARK  status: ('A' for Active; 'I' for Inactive)
ROOT
ATOM      1  C2' OXE d   1       2.766  -4.113   0.002  0.00  0.00     0.078 C 
ATOM      2  C1' OXE d   1       0.283  -4.411  -1.273  0.00  0.00     0.078 C 
ATOM      3  C1  OXE d   1       0.548  -3.118  -0.543  0.00  0.00    -0.078 A 
ATOM      4  C2  OXE d   1       1.748  -3.000   0.118  0.00  0.00    -0.078 A 
ATOM      5  C3  OXE d   1       2.065  -1.807   0.762  0.00  0.00     0.003 A 
ATOM      6  C4  OXE d   1       1.114  -0.786   0.873  0.00  0.00    -0.002 A 
ATOM      7  C5  OXE d   1      -0.129  -0.902   0.241  0.00  0.00    -0.002 A 
ATOM      8  C6  OXE d   1      -0.411  -2.042  -0.505  0.00  0.00     0.003 A 
ENDROOT
TORSDOF 0
ENDMDL
