MODEL 1
REMARK minimizedAffinity -5.11208868
REMARK minimizedRMSD -1
REMARK  0 active torsions:
REMARK  status: ('A' for Active; 'I' for Inactive)
ROOT
ATOM      1  C2' OXE d   1       3.595  -4.147  -0.146  0.00  0.00     0.078 C 
ATOM      2  C1' OXE d   1       3.761  -1.373   0.253  0.00  0.00     0.078 C 
ATOM      3  C1  OXE d   1       2.388  -1.989   0.155  0.00  0.00    -0.078 A 
ATOM      4  C2  OXE d   1       2.316  -3.340  -0.087  0.00  0.00    -0.078 A 
ATOM      5  C3  OXE d   1       1.075  -3.967  -0.133  0.00  0.00     0.003 A 
ATOM      6  C4  OXE d   1      -0.103  -3.212  -0.088  0.00  0.00    -0.002 A 
ATOM      7  C5  OXE d   1      -0.053  -1.829   0.119  0.00  0.00    -0.002 A 
ATOM      8  C6  OXE d   1       1.181  -1.210   0.284  0.00  0.00     0.003 A 
ENDROOT
TORSDOF 0
ENDMDL
