MODEL 1
REMARK minimizedAffinity -2.60330963
REMARK minimizedRMSD -1
REMARK  0 active torsions:
REMARK  status: ('A' for Active; 'I' for Inactive)
ROOT
ATOM      1  C2' OXE d   1       1.992   0.283   0.674  0.00  0.00     0.078 C 
ATOM      2  C1' OXE d   1      -0.425  -0.959   1.375  0.00  0.00     0.078 C 
ATOM      3  C1  OXE d   1       0.677  -1.827   0.822  0.00  0.00    -0.078 A 
ATOM      4  C2  OXE d   1       1.840  -1.204   0.438  0.00  0.00    -0.078 A 
ATOM      5  C3  OXE d   1       2.909  -1.965  -0.027  0.00  0.00     0.003 A 
ATOM      6  C4  OXE d   1       2.756  -3.338  -0.251  0.00  0.00    -0.002 A 
ATOM      7  C5  OXE d   1       1.566  -3.987   0.096  0.00  0.00    -0.002 A 
ATOM      8  C6  OXE d   1       0.534  -3.254   0.672  0.00  0.00     0.003 A 
ENDROOT
TORSDOF 0
ENDMDL
