MODEL 1
REMARK minimizedAffinity -2.07630086
REMARK minimizedRMSD -1
REMARK  0 active torsions:
REMARK  status: ('A' for Active; 'I' for Inactive)
ROOT
ATOM      1  C2' OXE d   1       2.291  -3.832  -0.356  0.00  0.00     0.078 C 
ATOM      2  C1' OXE d   1       3.225  -1.218   0.061  0.00  0.00     0.078 C 
ATOM      3  C1  OXE d   1       1.751  -1.476   0.245  0.00  0.00    -0.078 A 
ATOM      4  C2  OXE d   1       1.295  -2.747  -0.006  0.00  0.00    -0.078 A 
ATOM      5  C3  OXE d   1      -0.047  -3.053   0.202  0.00  0.00     0.003 A 
ATOM      6  C4  OXE d   1      -0.963  -2.042   0.516  0.00  0.00    -0.002 A 
ATOM      7  C5  OXE d   1      -0.527  -0.731   0.738  0.00  0.00    -0.002 A 
ATOM      8  C6  OXE d   1       0.830  -0.441   0.648  0.00  0.00     0.003 A 
ENDROOT
TORSDOF 0
ENDMDL
