MODEL 1
REMARK minimizedAffinity -2.14123988
REMARK minimizedRMSD -1
REMARK  0 active torsions:
REMARK  status: ('A' for Active; 'I' for Inactive)
ROOT
ATOM      1  C2' OXE d   1       3.726  -4.755  -0.135  0.00  0.00     0.078 C 
ATOM      2  C1' OXE d   1       4.520  -2.063  -0.071  0.00  0.00     0.078 C 
ATOM      3  C1  OXE d   1       3.046  -2.365   0.037  0.00  0.00    -0.078 A 
ATOM      4  C2  OXE d   1       2.663  -3.682  -0.041  0.00  0.00    -0.078 A 
ATOM      5  C3  OXE d   1       1.321  -4.019   0.108  0.00  0.00     0.003 A 
ATOM      6  C4  OXE d   1       0.343  -3.020   0.184  0.00  0.00    -0.002 A 
ATOM      7  C5  OXE d   1       0.708  -1.671   0.226  0.00  0.00    -0.002 A 
ATOM      8  C6  OXE d   1       2.056  -1.329   0.197  0.00  0.00     0.003 A 
ENDROOT
TORSDOF 0
ENDMDL
