MODEL 1
REMARK minimizedAffinity 1.56570911
REMARK minimizedRMSD -1
REMARK  0 active torsions:
REMARK  status: ('A' for Active; 'I' for Inactive)
ROOT
ATOM      1  C2' OXE d   1       3.846  -1.282   1.103  0.00  0.00     0.078 C 
ATOM      2  C1' OXE d   1       2.930  -3.806   0.285  0.00  0.00     0.078 C 
ATOM      3  C1  OXE d   1       1.899  -2.764   0.639  0.00  0.00    -0.078 A 
ATOM      4  C2  OXE d   1       2.356  -1.547   1.083  0.00  0.00    -0.078 A 
ATOM      5  C3  OXE d   1       1.447  -0.532   1.371  0.00  0.00     0.003 A 
ATOM      6  C4  OXE d   1       0.071  -0.789   1.359  0.00  0.00    -0.002 A 
ATOM      7  C5  OXE d   1      -0.415  -2.034   0.948  0.00  0.00    -0.002 A 
ATOM      8  C6  OXE d   1       0.482  -3.017   0.544  0.00  0.00     0.003 A 
ENDROOT
TORSDOF 0
ENDMDL
