MODEL 1
REMARK minimizedAffinity -1.0598613
REMARK minimizedRMSD -1
REMARK  0 active torsions:
REMARK  status: ('A' for Active; 'I' for Inactive)
ROOT
ATOM      1  C2' OXE d   1       2.959  -1.020   1.341  0.00  0.00     0.078 C 
ATOM      2  C1' OXE d   1       2.377  -3.682   0.665  0.00  0.00     0.078 C 
ATOM      3  C1  OXE d   1       1.239  -2.692   0.667  0.00  0.00    -0.078 A 
ATOM      4  C2  OXE d   1       1.524  -1.402   1.044  0.00  0.00    -0.078 A 
ATOM      5  C3  OXE d   1       0.522  -0.436   1.011  0.00  0.00     0.003 A 
ATOM      6  C4  OXE d   1      -0.803  -0.799   0.745  0.00  0.00    -0.002 A 
ATOM      7  C5  OXE d   1      -1.123  -2.116   0.397  0.00  0.00    -0.002 A 
ATOM      8  C6  OXE d   1      -0.109  -3.063   0.312  0.00  0.00     0.003 A 
ENDROOT
TORSDOF 0
ENDMDL
