MODEL 1
REMARK minimizedAffinity -5.76750088
REMARK minimizedRMSD -1
REMARK  0 active torsions:
REMARK  status: ('A' for Active; 'I' for Inactive)
ROOT
ATOM      1  C2' OXE d   1      -0.793  -0.554   1.540  0.00  0.00     0.078 C 
ATOM      2  C1' OXE d   1      -0.912  -3.312   1.031  0.00  0.00     0.078 C 
ATOM      3  C1  OXE d   1       0.409  -2.614   0.822  0.00  0.00    -0.078 A 
ATOM      4  C2  OXE d   1       0.446  -1.256   1.028  0.00  0.00    -0.078 A 
ATOM      5  C3  OXE d   1       1.652  -0.573   0.902  0.00  0.00     0.003 A 
ATOM      6  C4  OXE d   1       2.791  -1.228   0.418  0.00  0.00    -0.002 A 
ATOM      7  C5  OXE d   1       2.764  -2.603   0.163  0.00  0.00    -0.002 A 
ATOM      8  C6  OXE d   1       1.595  -3.317   0.400  0.00  0.00     0.003 A 
ENDROOT
TORSDOF 0
ENDMDL
