MODEL 1
REMARK minimizedAffinity 1.69393408
REMARK minimizedRMSD -1
REMARK  0 active torsions:
REMARK  status: ('A' for Active; 'I' for Inactive)
ROOT
ATOM      1  C2' OXE d   1       3.731  -1.458  -0.041  0.00  0.00     0.078 C 
ATOM      2  C1' OXE d   1       3.402  -0.141   2.416  0.00  0.00     0.078 C 
ATOM      3  C1  OXE d   1       2.159  -0.536   1.658  0.00  0.00    -0.078 A 
ATOM      4  C2  OXE d   1       2.330  -1.138   0.434  0.00  0.00    -0.078 A 
ATOM      5  C3  OXE d   1       1.218  -1.572  -0.281  0.00  0.00     0.003 A 
ATOM      6  C4  OXE d   1      -0.074  -1.263   0.161  0.00  0.00    -0.002 A 
ATOM      7  C5  OXE d   1      -0.270  -0.615   1.385  0.00  0.00    -0.002 A 
ATOM      8  C6  OXE d   1       0.833  -0.283   2.164  0.00  0.00     0.003 A 
ENDROOT
TORSDOF 0
ENDMDL
