MODEL 1
REMARK minimizedAffinity -2.49213624
REMARK minimizedRMSD -1
REMARK  0 active torsions:
REMARK  status: ('A' for Active; 'I' for Inactive)
ROOT
ATOM      1  C2' OXE d   1       2.701  -4.126  -0.001  0.00  0.00     0.078 C 
ATOM      2  C1' OXE d   1       3.153  -1.484   0.834  0.00  0.00     0.078 C 
ATOM      3  C1  OXE d   1       1.723  -1.950   0.717  0.00  0.00    -0.078 A 
ATOM      4  C2  OXE d   1       1.511  -3.230   0.263  0.00  0.00    -0.078 A 
ATOM      5  C3  OXE d   1       0.213  -3.728   0.189  0.00  0.00     0.003 A 
ATOM      6  C4  OXE d   1      -0.883  -2.889   0.425  0.00  0.00    -0.002 A 
ATOM      7  C5  OXE d   1      -0.689  -1.570   0.850  0.00  0.00    -0.002 A 
ATOM      8  C6  OXE d   1       0.605  -1.100   1.042  0.00  0.00     0.003 A 
ENDROOT
TORSDOF 0
ENDMDL
