MODEL 1
REMARK minimizedAffinity -3.80578804
REMARK minimizedRMSD -1
REMARK  0 active torsions:
REMARK  status: ('A' for Active; 'I' for Inactive)
ROOT
ATOM      1  C2' OXE d   1      -0.378  -0.619   0.899  0.00  0.00     0.078 C 
ATOM      2  C1' OXE d   1       2.375  -0.093   1.055  0.00  0.00     0.078 C 
ATOM      3  C1  OXE d   1       1.945  -1.495   0.701  0.00  0.00    -0.078 A 
ATOM      4  C2  OXE d   1       0.596  -1.754   0.672  0.00  0.00    -0.078 A 
ATOM      5  C3  OXE d   1       0.144  -3.017   0.298  0.00  0.00     0.003 A 
ATOM      6  C4  OXE d   1       1.052  -4.064   0.100  0.00  0.00    -0.002 A 
ATOM      7  C5  OXE d   1       2.430  -3.831   0.163  0.00  0.00    -0.002 A 
ATOM      8  C6  OXE d   1       2.892  -2.545   0.420  0.00  0.00     0.003 A 
ENDROOT
TORSDOF 0
ENDMDL
