MODEL 1
REMARK minimizedAffinity -0.287879646
REMARK minimizedRMSD -1
REMARK  0 active torsions:
REMARK  status: ('A' for Active; 'I' for Inactive)
ROOT
ATOM      1  C2' OXE d   1       3.524  -4.365   0.066  0.00  0.00     0.078 C 
ATOM      2  C1' OXE d   1       4.381  -1.708   0.360  0.00  0.00     0.078 C 
ATOM      3  C1  OXE d   1       2.908  -1.993   0.514  0.00  0.00    -0.078 A 
ATOM      4  C2  OXE d   1       2.491  -3.288   0.322  0.00  0.00    -0.078 A 
ATOM      5  C3  OXE d   1       1.151  -3.616   0.506  0.00  0.00     0.003 A 
ATOM      6  C4  OXE d   1       0.201  -2.612   0.733  0.00  0.00    -0.002 A 
ATOM      7  C5  OXE d   1       0.599  -1.281   0.893  0.00  0.00    -0.002 A 
ATOM      8  C6  OXE d   1       1.951  -0.961   0.829  0.00  0.00     0.003 A 
ENDROOT
TORSDOF 0
ENDMDL
