MODEL 1
REMARK minimizedAffinity -4.52300167
REMARK minimizedRMSD -1
REMARK  0 active torsions:
REMARK  status: ('A' for Active; 'I' for Inactive)
ROOT
ATOM      1  C2' OXE d   1       3.072  -4.039   0.065  0.00  0.00     0.078 C 
ATOM      2  C1' OXE d   1       3.417  -1.294   0.539  0.00  0.00     0.078 C 
ATOM      3  C1  OXE d   1       2.009  -1.835   0.530  0.00  0.00    -0.078 A 
ATOM      4  C2  OXE d   1       1.847  -3.170   0.251  0.00  0.00    -0.078 A 
ATOM      5  C3  OXE d   1       0.573  -3.731   0.283  0.00  0.00     0.003 A 
ATOM      6  C4  OXE d   1      -0.555  -2.919   0.446  0.00  0.00    -0.002 A 
ATOM      7  C5  OXE d   1      -0.414  -1.549   0.692  0.00  0.00    -0.002 A 
ATOM      8  C6  OXE d   1       0.860  -1.000   0.779  0.00  0.00     0.003 A 
ENDROOT
TORSDOF 0
ENDMDL
