MODEL 1
REMARK minimizedAffinity -3.96083355
REMARK minimizedRMSD -1
REMARK  0 active torsions:
REMARK  status: ('A' for Active; 'I' for Inactive)
ROOT
ATOM      1  C2' OXE d   1       2.854  -3.725  -0.480  0.00  0.00     0.078 C 
ATOM      2  C1' OXE d   1       0.115  -4.180  -0.895  0.00  0.00     0.078 C 
ATOM      3  C1  OXE d   1       0.531  -2.835  -0.354  0.00  0.00    -0.078 A 
ATOM      4  C2  OXE d   1       1.869  -2.637  -0.110  0.00  0.00    -0.078 A 
ATOM      5  C3  OXE d   1       2.312  -1.396   0.337  0.00  0.00     0.003 A 
ATOM      6  C4  OXE d   1       1.393  -0.399   0.687  0.00  0.00    -0.002 A 
ATOM      7  C5  OXE d   1       0.023  -0.594   0.484  0.00  0.00    -0.002 A 
ATOM      8  C6  OXE d   1      -0.421  -1.788  -0.074  0.00  0.00     0.003 A 
ENDROOT
TORSDOF 0
ENDMDL
