MODEL 1
REMARK minimizedAffinity 4.04893351
REMARK minimizedRMSD -1
REMARK  0 active torsions:
REMARK  status: ('A' for Active; 'I' for Inactive)
ROOT
ATOM      1  C2' OXE d   1       1.134   4.746  -0.055  0.00  0.00     0.078 C 
ATOM      2  C1' OXE d   1       3.466   3.886   1.250  0.00  0.00     0.078 C 
ATOM      3  C1  OXE d   1       3.154   3.289  -0.099  0.00  0.00    -0.078 A 
ATOM      4  C2  OXE d   1       1.987   3.680  -0.710  0.00  0.00    -0.078 A 
ATOM      5  C3  OXE d   1       1.679   3.201  -1.980  0.00  0.00     0.003 A 
ATOM      6  C4  OXE d   1       2.467   2.208  -2.574  0.00  0.00    -0.002 A 
ATOM      7  C5  OXE d   1       3.640   1.766  -1.951  0.00  0.00    -0.002 A 
ATOM      8  C6  OXE d   1       4.019   2.326  -0.736  0.00  0.00     0.003 A 
ENDROOT
TORSDOF 0
ENDMDL
