MODEL 1
REMARK minimizedAffinity 3.99028444
REMARK minimizedRMSD -1
REMARK  0 active torsions:
REMARK  status: ('A' for Active; 'I' for Inactive)
ROOT
ATOM      1  C2' OXE d   1       0.734  -3.009   0.377  0.00  0.00     0.078 C 
ATOM      2  C1' OXE d   1       3.009  -1.396   0.061  0.00  0.00     0.078 C 
ATOM      3  C1  OXE d   1       3.192  -2.891  -0.008  0.00  0.00    -0.078 A 
ATOM      4  C2  OXE d   1       2.081  -3.674   0.194  0.00  0.00    -0.078 A 
ATOM      5  C3  OXE d   1       2.184  -5.058   0.086  0.00  0.00     0.003 A 
ATOM      6  C4  OXE d   1       3.436  -5.665  -0.074  0.00  0.00    -0.002 A 
ATOM      7  C5  OXE d   1       4.586  -4.887  -0.243  0.00  0.00    -0.002 A 
ATOM      8  C6  OXE d   1       4.475  -3.501  -0.255  0.00  0.00     0.003 A 
ENDROOT
TORSDOF 0
ENDMDL
