MODEL 1
REMARK minimizedAffinity 9.51288033
REMARK minimizedRMSD -1
REMARK  0 active torsions:
REMARK  status: ('A' for Active; 'I' for Inactive)
ROOT
ATOM      1  C2' OXE d   1      -3.352   2.640   3.830  0.00  0.00     0.078 C 
ATOM      2  C1' OXE d   1      -1.689   2.239   1.605  0.00  0.00     0.078 C 
ATOM      3  C1  OXE d   1      -1.457   1.377   2.821  0.00  0.00    -0.078 A 
ATOM      4  C2  OXE d   1      -2.245   1.612   3.922  0.00  0.00    -0.078 A 
ATOM      5  C3  OXE d   1      -2.110   0.808   5.050  0.00  0.00     0.003 A 
ATOM      6  C4  OXE d   1      -1.077  -0.133   5.130  0.00  0.00    -0.002 A 
ATOM      7  C5  OXE d   1      -0.237  -0.361   4.034  0.00  0.00    -0.002 A 
ATOM      8  C6  OXE d   1      -0.441   0.354   2.860  0.00  0.00     0.003 A 
ENDROOT
TORSDOF 0
ENDMDL
