MODEL 1
REMARK minimizedAffinity -1.74348176
REMARK minimizedRMSD -1
REMARK  0 active torsions:
REMARK  status: ('A' for Active; 'I' for Inactive)
ROOT
ATOM      1  C   UNL d   1      -3.182   1.220  -5.845  0.00  0.00     0.078 C 
ATOM      2  C1  UNL d   1      -2.882   1.863  -4.524  0.00  0.00    -0.077 A 
ATOM      3  C2  UNL d   1      -3.077   1.168  -3.323  0.00  0.00    -0.001 A 
ATOM      4  C3  UNL d   1      -2.804   1.782  -2.100  0.00  0.00     0.003 A 
ATOM      5  C4  UNL d   1      -2.334   3.093  -2.065  0.00  0.00    -0.005 A 
ATOM      6  C5  UNL d   1      -2.139   3.793  -3.254  0.00  0.00     0.003 A 
ATOM      7  C6  UNL d   1      -2.413   3.181  -4.478  0.00  0.00    -0.001 A 
ENDROOT
TORSDOF 0
ENDMDL
