MODEL 1
REMARK minimizedAffinity -0.525344908
REMARK minimizedRMSD -1
REMARK  0 active torsions:
REMARK  status: ('A' for Active; 'I' for Inactive)
ROOT
ATOM      1  C   UNL d   1       2.153  -4.136   1.833  0.00  0.00     0.078 C 
ATOM      2  C1  UNL d   1       1.296  -2.943   1.532  0.00  0.00    -0.077 A 
ATOM      3  C2  UNL d   1       0.372  -2.464   2.468  0.00  0.00    -0.001 A 
ATOM      4  C3  UNL d   1      -0.426  -1.358   2.171  0.00  0.00     0.003 A 
ATOM      5  C4  UNL d   1      -0.309  -0.723   0.936  0.00  0.00    -0.005 A 
ATOM      6  C5  UNL d   1       0.606  -1.194  -0.003  0.00  0.00     0.003 A 
ATOM      7  C6  UNL d   1       1.405  -2.300   0.293  0.00  0.00    -0.001 A 
ENDROOT
TORSDOF 0
ENDMDL
