MODEL 1
REMARK minimizedAffinity -3.87505412
REMARK minimizedRMSD -1
REMARK  0 active torsions:
REMARK  status: ('A' for Active; 'I' for Inactive)
ROOT
ATOM      1  C   UNL d   1       0.680  -0.416  -1.024  0.00  0.00     0.078 C 
ATOM      2  C1  UNL d   1       0.075  -0.758   0.305  0.00  0.00    -0.077 A 
ATOM      3  C2  UNL d   1       0.756  -1.571   1.220  0.00  0.00    -0.001 A 
ATOM      4  C3  UNL d   1       0.177  -1.890   2.449  0.00  0.00     0.003 A 
ATOM      5  C4  UNL d   1      -1.087  -1.400   2.775  0.00  0.00    -0.005 A 
ATOM      6  C5  UNL d   1      -1.773  -0.592   1.870  0.00  0.00     0.003 A 
ATOM      7  C6  UNL d   1      -1.195  -0.273   0.641  0.00  0.00    -0.001 A 
ENDROOT
TORSDOF 0
ENDMDL
