MODEL 1
REMARK minimizedAffinity -0.533293128
REMARK minimizedRMSD -1
REMARK  0 active torsions:
REMARK  status: ('A' for Active; 'I' for Inactive)
ROOT
ATOM      1  C   UNL d   1       1.952  -4.620   1.583  0.00  0.00     0.078 C 
ATOM      2  C1  UNL d   1       1.175  -3.339   1.533  0.00  0.00    -0.077 A 
ATOM      3  C2  UNL d   1       0.350  -2.953   2.597  0.00  0.00    -0.001 A 
ATOM      4  C3  UNL d   1      -0.375  -1.763   2.533  0.00  0.00     0.003 A 
ATOM      5  C4  UNL d   1      -0.285  -0.948   1.406  0.00  0.00    -0.005 A 
ATOM      6  C5  UNL d   1       0.531  -1.324   0.341  0.00  0.00     0.003 A 
ATOM      7  C6  UNL d   1       1.258  -2.515   0.403  0.00  0.00    -0.001 A 
ENDROOT
TORSDOF 0
ENDMDL
