MODEL 1
REMARK minimizedAffinity -3.1663661
REMARK minimizedRMSD -1
REMARK  0 active torsions:
REMARK  status: ('A' for Active; 'I' for Inactive)
ROOT
ATOM      1  C   UNL d   1      -1.006  -0.467   0.040  0.00  0.00     0.078 C 
ATOM      2  C1  UNL d   1       0.364  -0.450  -0.570  0.00  0.00    -0.077 A 
ATOM      3  C2  UNL d   1       1.381   0.350  -0.035  0.00  0.00    -0.001 A 
ATOM      4  C3  UNL d   1       2.649   0.363  -0.618  0.00  0.00     0.003 A 
ATOM      5  C4  UNL d   1       2.912  -0.421  -1.740  0.00  0.00    -0.005 A 
ATOM      6  C5  UNL d   1       1.905  -1.218  -2.280  0.00  0.00     0.003 A 
ATOM      7  C6  UNL d   1       0.636  -1.233  -1.698  0.00  0.00    -0.001 A 
ENDROOT
TORSDOF 0
ENDMDL
