MODEL 1
REMARK minimizedAffinity 5.36385822
REMARK minimizedRMSD -1
REMARK  1 active torsions:
REMARK  status: ('A' for Active; 'I' for Inactive)
REMARK    1  A    between atoms: C1_2  and  C2_3 
ROOT
ATOM      1  C2  UNL d   1      -1.505  -2.516   0.065  0.00  0.00    -0.076 A 
ATOM      2  C3  UNL d   1      -0.697  -3.600   0.451  0.00  0.00     0.004 A 
ATOM      3  C4  UNL d   1      -1.216  -4.892   0.522  0.00  0.00    -0.003 A 
ATOM      4  C5  UNL d   1      -2.551  -5.121   0.208  0.00  0.00     0.000 A 
ATOM      5  C6  UNL d   1      -3.362  -4.060  -0.194  0.00  0.00     0.000 A 
ATOM      6  C7  UNL d   1      -2.851  -2.754  -0.287  0.00  0.00    -0.073 A 
ATOM      7  C8  UNL d   1      -3.772  -1.647  -0.720  0.00  0.00     0.078 C 
ENDROOT
BRANCH   1   8
ATOM      8  C1  UNL d   1      -0.893  -1.134   0.031  0.00  0.00     0.053 C 
ATOM      9  C   UNL d   1       0.346  -1.066  -0.847  0.00  0.00     0.018 C 
ENDBRANCH   1   8
TORSDOF 1
ENDMDL
