MODEL 1
REMARK minimizedAffinity 4.9193778
REMARK minimizedRMSD -1
REMARK  1 active torsions:
REMARK  status: ('A' for Active; 'I' for Inactive)
REMARK    1  A    between atoms: C1_2  and  C2_3 
ROOT
ATOM      1  C2  UNL d   1       5.436  -1.124   4.822  0.00  0.00    -0.076 A 
ATOM      2  C3  UNL d   1       4.927  -0.458   3.694  0.00  0.00     0.004 A 
ATOM      3  C4  UNL d   1       4.501  -1.169   2.573  0.00  0.00    -0.003 A 
ATOM      4  C5  UNL d   1       4.576  -2.557   2.562  0.00  0.00     0.000 A 
ATOM      5  C6  UNL d   1       5.061  -3.235   3.680  0.00  0.00     0.000 A 
ATOM      6  C7  UNL d   1       5.480  -2.535   4.824  0.00  0.00    -0.073 A 
ATOM      7  C8  UNL d   1       6.000  -3.317   5.999  0.00  0.00     0.078 C 
ENDROOT
BRANCH   1   8
ATOM      8  C1  UNL d   1       5.908  -0.299   5.998  0.00  0.00     0.053 C 
ATOM      9  C   UNL d   1       5.502   1.162   5.885  0.00  0.00     0.018 C 
ENDBRANCH   1   8
TORSDOF 1
ENDMDL
