MODEL 1
REMARK minimizedAffinity 8.32654667
REMARK minimizedRMSD -1
REMARK  1 active torsions:
REMARK  status: ('A' for Active; 'I' for Inactive)
REMARK    1  A    between atoms: C1_2  and  C2_3 
ROOT
ATOM      1  C2  UNL d   1       1.446  -1.454  -2.399  0.00  0.00    -0.076 A 
ATOM      2  C3  UNL d   1       0.988  -2.240  -1.327  0.00  0.00     0.004 A 
ATOM      3  C4  UNL d   1       0.333  -1.662  -0.241  0.00  0.00    -0.003 A 
ATOM      4  C5  UNL d   1       0.125  -0.288  -0.209  0.00  0.00     0.000 A 
ATOM      5  C6  UNL d   1       0.557   0.506  -1.272  0.00  0.00     0.000 A 
ATOM      6  C7  UNL d   1       1.204  -0.063  -2.382  0.00  0.00    -0.073 A 
ATOM      7  C8  UNL d   1       1.654   0.841  -3.496  0.00  0.00     0.078 C 
ENDROOT
BRANCH   1   8
ATOM      8  C1  UNL d   1       2.174  -2.133  -3.537  0.00  0.00     0.053 C 
ATOM      9  C   UNL d   1       1.572  -3.484  -3.890  0.00  0.00     0.018 C 
ENDBRANCH   1   8
TORSDOF 1
ENDMDL
