MODEL 1
REMARK minimizedAffinity 5.31386614
REMARK minimizedRMSD -1
REMARK  1 active torsions:
REMARK  status: ('A' for Active; 'I' for Inactive)
REMARK    1  A    between atoms: C1_2  and  C2_3 
ROOT
ATOM      1  C2  UNL d   1       5.277   1.242   4.903  0.00  0.00    -0.076 A 
ATOM      2  C3  UNL d   1       5.806   2.451   5.387  0.00  0.00     0.004 A 
ATOM      3  C4  UNL d   1       5.957   3.555   4.548  0.00  0.00    -0.003 A 
ATOM      4  C5  UNL d   1       5.579   3.467   3.213  0.00  0.00     0.000 A 
ATOM      5  C6  UNL d   1       5.035   2.281   2.721  0.00  0.00     0.000 A 
ATOM      6  C7  UNL d   1       4.862   1.165   3.556  0.00  0.00    -0.073 A 
ATOM      7  C8  UNL d   1       4.276  -0.091   2.971  0.00  0.00     0.078 C 
ENDROOT
BRANCH   1   8
ATOM      8  C1  UNL d   1       5.162   0.071   5.852  0.00  0.00     0.053 C 
ATOM      9  C   UNL d   1       5.999  -1.120   5.411  0.00  0.00     0.018 C 
ENDBRANCH   1   8
TORSDOF 1
ENDMDL
