MODEL 1
REMARK minimizedAffinity -1.27533174
REMARK minimizedRMSD -1
REMARK  1 active torsions:
REMARK  status: ('A' for Active; 'I' for Inactive)
REMARK    1  A    between atoms: C1_2  and  C2_3 
ROOT
ATOM      1  C2  UNL d   1       5.534   3.792   3.305  0.00  0.00    -0.076 A 
ATOM      2  C3  UNL d   1       5.099   3.111   2.154  0.00  0.00     0.004 A 
ATOM      3  C4  UNL d   1       4.636   3.808   1.040  0.00  0.00    -0.003 A 
ATOM      4  C5  UNL d   1       4.600   5.198   1.058  0.00  0.00     0.000 A 
ATOM      5  C6  UNL d   1       5.044   5.890   2.184  0.00  0.00     0.000 A 
ATOM      6  C7  UNL d   1       5.529   5.203   3.310  0.00  0.00    -0.073 A 
ATOM      7  C8  UNL d   1       5.989   6.000   4.499  0.00  0.00     0.078 C 
ENDROOT
BRANCH   1   8
ATOM      8  C1  UNL d   1       6.000   2.981   4.493  0.00  0.00     0.053 C 
ATOM      9  C   UNL d   1       5.685   1.500   4.348  0.00  0.00     0.018 C 
ENDBRANCH   1   8
TORSDOF 1
ENDMDL
