MODEL 1
REMARK minimizedAffinity -3.56215668
REMARK minimizedRMSD -1
REMARK  1 active torsions:
REMARK  status: ('A' for Active; 'I' for Inactive)
REMARK    1  A    between atoms: C1_2  and  C2_3 
ROOT
ATOM      1  C2  UNL d   1       5.711   3.119   2.823  0.00  0.00    -0.076 A 
ATOM      2  C3  UNL d   1       5.480   2.977   1.444  0.00  0.00     0.004 A 
ATOM      3  C4  UNL d   1       5.228   4.088   0.640  0.00  0.00    -0.003 A 
ATOM      4  C5  UNL d   1       5.206   5.359   1.202  0.00  0.00     0.000 A 
ATOM      5  C6  UNL d   1       5.451   5.521   2.565  0.00  0.00     0.000 A 
ATOM      6  C7  UNL d   1       5.722   4.413   3.387  0.00  0.00    -0.073 A 
ATOM      7  C8  UNL d   1       5.973   4.645   4.852  0.00  0.00     0.078 C 
ENDROOT
BRANCH   1   8
ATOM      8  C1  UNL d   1       5.951   1.876   3.649  0.00  0.00     0.053 C 
ATOM      9  C   UNL d   1       5.325   0.636   3.031  0.00  0.00     0.018 C 
ENDBRANCH   1   8
TORSDOF 1
ENDMDL
