MODEL 1
REMARK minimizedAffinity 1.67426097
REMARK minimizedRMSD -1
REMARK  1 active torsions:
REMARK  status: ('A' for Active; 'I' for Inactive)
REMARK    1  A    between atoms: C1_2  and  C2_3 
ROOT
ATOM      1  C2  UNL d   1      -1.388  -3.073  -0.664  0.00  0.00    -0.076 A 
ATOM      2  C3  UNL d   1      -0.962  -4.383  -0.382  0.00  0.00     0.004 A 
ATOM      3  C4  UNL d   1      -1.836  -5.462  -0.498  0.00  0.00    -0.003 A 
ATOM      4  C5  UNL d   1      -3.151  -5.250  -0.900  0.00  0.00     0.000 A 
ATOM      5  C6  UNL d   1      -3.585  -3.959  -1.201  0.00  0.00     0.000 A 
ATOM      6  C7  UNL d   1      -2.712  -2.862  -1.104  0.00  0.00    -0.073 A 
ATOM      7  C8  UNL d   1      -3.236  -1.492  -1.435  0.00  0.00     0.078 C 
ENDROOT
BRANCH   1   8
ATOM      8  C1  UNL d   1      -0.403  -1.939  -0.493  0.00  0.00     0.053 C 
ATOM      9  C   UNL d   1       1.041  -2.395  -0.635  0.00  0.00     0.018 C 
ENDBRANCH   1   8
TORSDOF 1
ENDMDL
