MODEL 1
REMARK minimizedAffinity 5.82852602
REMARK minimizedRMSD -1
REMARK  1 active torsions:
REMARK  status: ('A' for Active; 'I' for Inactive)
REMARK    1  A    between atoms: C1_2  and  C2_3 
ROOT
ATOM      1  C2  UNL d   1       4.164   4.515   2.457  0.00  0.00    -0.076 A 
ATOM      2  C3  UNL d   1       5.299   5.264   2.103  0.00  0.00     0.004 A 
ATOM      3  C4  UNL d   1       6.000   6.000   3.057  0.00  0.00    -0.003 A 
ATOM      4  C5  UNL d   1       5.576   5.998   4.382  0.00  0.00     0.000 A 
ATOM      5  C6  UNL d   1       4.462   5.247   4.754  0.00  0.00     0.000 A 
ATOM      6  C7  UNL d   1       3.754   4.487   3.807  0.00  0.00    -0.073 A 
ATOM      7  C8  UNL d   1       2.556   3.700   4.263  0.00  0.00     0.078 C 
ENDROOT
BRANCH   1   8
ATOM      8  C1  UNL d   1       3.428   3.759   1.374  0.00  0.00     0.053 C 
ATOM      9  C   UNL d   1       3.784   4.247  -0.022  0.00  0.00     0.018 C 
ENDBRANCH   1   8
TORSDOF 1
ENDMDL
