MODEL 1
REMARK minimizedAffinity 11.0157042
REMARK minimizedRMSD -1
REMARK  1 active torsions:
REMARK  status: ('A' for Active; 'I' for Inactive)
REMARK    1  A    between atoms: C1_2  and  C2_3 
ROOT
ATOM      1  C2  UNL d   1       1.226   2.149  -0.097  0.00  0.00    -0.076 A 
ATOM      2  C3  UNL d   1       1.828   0.936  -0.473  0.00  0.00     0.004 A 
ATOM      3  C4  UNL d   1       1.054  -0.175  -0.806  0.00  0.00    -0.003 A 
ATOM      4  C5  UNL d   1      -0.333  -0.090  -0.769  0.00  0.00     0.000 A 
ATOM      5  C6  UNL d   1      -0.947   1.111  -0.415  0.00  0.00     0.000 A 
ATOM      6  C7  UNL d   1      -0.182   2.245  -0.092  0.00  0.00    -0.073 A 
ATOM      7  C8  UNL d   1      -0.896   3.513   0.288  0.00  0.00     0.078 C 
ENDROOT
BRANCH   1   8
ATOM      8  C1  UNL d   1       2.116   3.312   0.280  0.00  0.00     0.053 C 
ATOM      9  C   UNL d   1       3.570   3.080  -0.100  0.00  0.00     0.018 C 
ENDBRANCH   1   8
TORSDOF 1
ENDMDL
