MODEL 1
REMARK minimizedAffinity -4.15368319
REMARK minimizedRMSD -1
REMARK  1 active torsions:
REMARK  status: ('A' for Active; 'I' for Inactive)
REMARK    1  A    between atoms: C1_2  and  C2_3 
ROOT
ATOM      1  C2  UNL d   1       4.378   5.028   1.084  0.00  0.00    -0.076 A 
ATOM      2  C3  UNL d   1       5.444   5.767   0.541  0.00  0.00     0.004 A 
ATOM      3  C4  UNL d   1       5.689   5.770  -0.831  0.00  0.00    -0.003 A 
ATOM      4  C5  UNL d   1       4.873   5.034  -1.682  0.00  0.00     0.000 A 
ATOM      5  C6  UNL d   1       3.801   4.309  -1.163  0.00  0.00     0.000 A 
ATOM      6  C7  UNL d   1       3.529   4.309   0.216  0.00  0.00    -0.073 A 
ATOM      7  C8  UNL d   1       2.363   3.504   0.722  0.00  0.00     0.078 C 
ENDROOT
BRANCH   1   8
ATOM      8  C1  UNL d   1       4.177   5.041   2.583  0.00  0.00     0.053 C 
ATOM      9  C   UNL d   1       5.397   4.538   3.339  0.00  0.00     0.018 C 
ENDBRANCH   1   8
TORSDOF 1
ENDMDL
