MODEL 1
REMARK minimizedAffinity 8.30803299
REMARK minimizedRMSD -1
REMARK  1 active torsions:
REMARK  status: ('A' for Active; 'I' for Inactive)
REMARK    1  A    between atoms: C1_2  and  C2_3 
ROOT
ATOM      1  C2  UNL d   1       4.095   5.006   0.617  0.00  0.00    -0.076 A 
ATOM      2  C3  UNL d   1       4.892   5.998   1.212  0.00  0.00     0.004 A 
ATOM      3  C4  UNL d   1       5.317   5.880   2.534  0.00  0.00    -0.003 A 
ATOM      4  C5  UNL d   1       4.952   4.767   3.283  0.00  0.00     0.000 A 
ATOM      5  C6  UNL d   1       4.176   3.763   2.703  0.00  0.00     0.000 A 
ATOM      6  C7  UNL d   1       3.753   3.859   1.366  0.00  0.00    -0.073 A 
ATOM      7  C8  UNL d   1       2.913   2.751   0.793  0.00  0.00     0.078 C 
ENDROOT
BRANCH   1   8
ATOM      8  C1  UNL d   1       3.642   5.201  -0.813  0.00  0.00     0.053 C 
ATOM      9  C   UNL d   1       4.713   4.817  -1.821  0.00  0.00     0.018 C 
ENDBRANCH   1   8
TORSDOF 1
ENDMDL
