MODEL 1
REMARK minimizedAffinity 2.02365112
REMARK minimizedRMSD -1
REMARK  1 active torsions:
REMARK  status: ('A' for Active; 'I' for Inactive)
REMARK    1  A    between atoms: C1_2  and  C2_3 
ROOT
ATOM      1  C2  UNL d   1      -1.459  -0.932   0.916  0.00  0.00    -0.076 A 
ATOM      2  C3  UNL d   1      -0.948  -0.990   2.225  0.00  0.00     0.004 A 
ATOM      3  C4  UNL d   1      -1.800  -1.094   3.323  0.00  0.00    -0.003 A 
ATOM      4  C5  UNL d   1      -3.176  -1.142   3.131  0.00  0.00     0.000 A 
ATOM      5  C6  UNL d   1      -3.700  -1.103   1.839  0.00  0.00     0.000 A 
ATOM      6  C7  UNL d   1      -2.854  -1.015   0.720  0.00  0.00    -0.073 A 
ATOM      7  C8  UNL d   1      -3.473  -0.971  -0.650  0.00  0.00     0.078 C 
ENDROOT
BRANCH   1   8
ATOM      8  C1  UNL d   1      -0.489  -0.792  -0.235  0.00  0.00     0.053 C 
ATOM      9  C   UNL d   1       0.141   0.590  -0.301  0.00  0.00     0.018 C 
ENDBRANCH   1   8
TORSDOF 1
ENDMDL
