MODEL 1
REMARK minimizedAffinity 4.7947588
REMARK minimizedRMSD -1
REMARK  1 active torsions:
REMARK  status: ('A' for Active; 'I' for Inactive)
REMARK    1  A    between atoms: C1_2  and  C2_3 
ROOT
ATOM      1  C2  UNL d   1       4.661   3.360   3.849  0.00  0.00    -0.076 A 
ATOM      2  C3  UNL d   1       4.330   4.269   2.829  0.00  0.00     0.004 A 
ATOM      3  C4  UNL d   1       4.818   5.574   2.844  0.00  0.00    -0.003 A 
ATOM      4  C5  UNL d   1       5.646   5.992   3.880  0.00  0.00     0.000 A 
ATOM      5  C6  UNL d   1       6.000   5.099   4.891  0.00  0.00     0.000 A 
ATOM      6  C7  UNL d   1       5.530   3.774   4.881  0.00  0.00    -0.073 A 
ATOM      7  C8  UNL d   1       5.938   2.855   6.000  0.00  0.00     0.078 C 
ENDROOT
BRANCH   1   8
ATOM      8  C1  UNL d   1       4.080   1.965   3.793  0.00  0.00     0.053 C 
ATOM      9  C   UNL d   1       4.114   1.266   5.143  0.00  0.00     0.018 C 
ENDBRANCH   1   8
TORSDOF 1
ENDMDL
