MODEL 1
REMARK minimizedAffinity -2.68815875
REMARK minimizedRMSD -1
REMARK  1 active torsions:
REMARK  status: ('A' for Active; 'I' for Inactive)
REMARK    1  A    between atoms: C1_2  and  C2_3 
ROOT
ATOM      1  C2  UNL d   1       0.668  -0.080   0.205  0.00  0.00    -0.076 A 
ATOM      2  C3  UNL d   1       0.350   0.701  -0.919  0.00  0.00     0.004 A 
ATOM      3  C4  UNL d   1      -0.872   0.554  -1.573  0.00  0.00    -0.003 A 
ATOM      4  C5  UNL d   1      -1.797  -0.377  -1.113  0.00  0.00     0.000 A 
ATOM      5  C6  UNL d   1      -1.505  -1.149   0.011  0.00  0.00     0.000 A 
ATOM      6  C7  UNL d   1      -0.285  -1.001   0.692  0.00  0.00    -0.073 A 
ATOM      7  C8  UNL d   1      -0.020  -1.864   1.895  0.00  0.00     0.078 C 
ENDROOT
BRANCH   1   8
ATOM      8  C1  UNL d   1       2.019   0.104   0.857  0.00  0.00     0.053 C 
ATOM      9  C   UNL d   1       2.348   1.567   1.112  0.00  0.00     0.018 C 
ENDBRANCH   1   8
TORSDOF 1
ENDMDL
