MODEL 1
REMARK minimizedAffinity -3.85089445
REMARK minimizedRMSD -1
REMARK  1 active torsions:
REMARK  status: ('A' for Active; 'I' for Inactive)
REMARK    1  A    between atoms: C1_2  and  C2_3 
ROOT
ATOM      1  C2  UNL d   1       0.025   0.086  -0.421  0.00  0.00    -0.076 A 
ATOM      2  C3  UNL d   1      -0.551   0.837  -1.460  0.00  0.00     0.004 A 
ATOM      3  C4  UNL d   1      -1.832   0.551  -1.927  0.00  0.00    -0.003 A 
ATOM      4  C5  UNL d   1      -2.559  -0.491  -1.362  0.00  0.00     0.000 A 
ATOM      5  C6  UNL d   1      -2.010  -1.236  -0.318  0.00  0.00     0.000 A 
ATOM      6  C7  UNL d   1      -0.726  -0.949   0.175  0.00  0.00    -0.073 A 
ATOM      7  C8  UNL d   1      -0.181  -1.788   1.299  0.00  0.00     0.078 C 
ENDROOT
BRANCH   1   8
ATOM      8  C1  UNL d   1       1.429   0.426   0.026  0.00  0.00     0.053 C 
ATOM      9  C   UNL d   1       1.498   1.745   0.779  0.00  0.00     0.018 C 
ENDBRANCH   1   8
TORSDOF 1
ENDMDL
