MODEL 1
REMARK minimizedAffinity -0.615410924
REMARK minimizedRMSD -1
REMARK  1 active torsions:
REMARK  status: ('A' for Active; 'I' for Inactive)
REMARK    1  A    between atoms: C1_2  and  C2_3 
ROOT
ATOM      1  C2  UNL d   1       0.045  -0.592  -0.016  0.00  0.00    -0.076 A 
ATOM      2  C3  UNL d   1      -0.300   0.189  -1.133  0.00  0.00     0.004 A 
ATOM      3  C4  UNL d   1      -1.543   0.050  -1.749  0.00  0.00    -0.003 A 
ATOM      4  C5  UNL d   1      -2.461  -0.872  -1.259  0.00  0.00     0.000 A 
ATOM      5  C6  UNL d   1      -2.142  -1.643  -0.141  0.00  0.00     0.000 A 
ATOM      6  C7  UNL d   1      -0.900  -1.504   0.502  0.00  0.00    -0.073 A 
ATOM      7  C8  UNL d   1      -0.607  -2.365   1.700  0.00  0.00     0.078 C 
ENDROOT
BRANCH   1   8
ATOM      8  C1  UNL d   1       1.417  -0.417   0.594  0.00  0.00     0.053 C 
ATOM      9  C   UNL d   1       2.062   0.905   0.208  0.00  0.00     0.018 C 
ENDBRANCH   1   8
TORSDOF 1
ENDMDL
