MODEL 1
REMARK minimizedAffinity -1.92982543
REMARK minimizedRMSD -1
REMARK  1 active torsions:
REMARK  status: ('A' for Active; 'I' for Inactive)
REMARK    1  A    between atoms: C1_2  and  C2_3 
ROOT
ATOM      1  C2  UNL d   1       0.768   0.921   0.790  0.00  0.00    -0.076 A 
ATOM      2  C3  UNL d   1       0.956   1.613   1.999  0.00  0.00     0.004 A 
ATOM      3  C4  UNL d   1       2.082   2.409   2.203  0.00  0.00    -0.003 A 
ATOM      4  C5  UNL d   1       3.038   2.527   1.200  0.00  0.00     0.000 A 
ATOM      5  C6  UNL d   1       2.859   1.862  -0.013  0.00  0.00     0.000 A 
ATOM      6  C7  UNL d   1       1.722   1.068  -0.240  0.00  0.00    -0.073 A 
ATOM      7  C8  UNL d   1       1.583   0.368  -1.564  0.00  0.00     0.078 C 
ENDROOT
BRANCH   1   8
ATOM      8  C1  UNL d   1      -0.458   0.050   0.637  0.00  0.00     0.053 C 
ATOM      9  C   UNL d   1      -0.241  -1.360   1.164  0.00  0.00     0.018 C 
ENDBRANCH   1   8
TORSDOF 1
ENDMDL
