MODEL 1
REMARK minimizedAffinity -1.09433627
REMARK minimizedRMSD -1
REMARK  1 active torsions:
REMARK  status: ('A' for Active; 'I' for Inactive)
REMARK    1  A    between atoms: C1_2  and  C2_3 
ROOT
ATOM      1  C2  UNL d   1      -0.026  -0.907   0.407  0.00  0.00    -0.076 A 
ATOM      2  C3  UNL d   1      -1.196  -1.388  -0.207  0.00  0.00     0.004 A 
ATOM      3  C4  UNL d   1      -1.818  -0.669  -1.226  0.00  0.00    -0.003 A 
ATOM      4  C5  UNL d   1      -1.281   0.542  -1.648  0.00  0.00     0.000 A 
ATOM      5  C6  UNL d   1      -0.112   1.026  -1.062  0.00  0.00     0.000 A 
ATOM      6  C7  UNL d   1       0.538   0.306  -0.045  0.00  0.00    -0.073 A 
ATOM      7  C8  UNL d   1       1.793   0.877   0.556  0.00  0.00     0.078 C 
ENDROOT
BRANCH   1   8
ATOM      8  C1  UNL d   1       0.590  -1.716   1.526  0.00  0.00     0.053 C 
ATOM      9  C   UNL d   1      -0.338  -2.809   2.034  0.00  0.00     0.018 C 
ENDBRANCH   1   8
TORSDOF 1
ENDMDL
