MODEL 1
REMARK minimizedAffinity -2.9525032
REMARK minimizedRMSD -1
REMARK  1 active torsions:
REMARK  status: ('A' for Active; 'I' for Inactive)
REMARK    1  A    between atoms: C1_2  and  C2_3 
ROOT
ATOM      1  C2  UNL d   1       1.432   0.606   0.381  0.00  0.00    -0.076 A 
ATOM      2  C3  UNL d   1       1.844   1.950   0.356  0.00  0.00     0.004 A 
ATOM      3  C4  UNL d   1       2.497   2.520   1.448  0.00  0.00    -0.003 A 
ATOM      4  C5  UNL d   1       2.749   1.756   2.582  0.00  0.00     0.000 A 
ATOM      5  C6  UNL d   1       2.362   0.417   2.617  0.00  0.00     0.000 A 
ATOM      6  C7  UNL d   1       1.717  -0.178   1.519  0.00  0.00    -0.073 A 
ATOM      7  C8  UNL d   1       1.317  -1.625   1.614  0.00  0.00     0.078 C 
ENDROOT
BRANCH   1   8
ATOM      8  C1  UNL d   1       0.704   0.049  -0.821  0.00  0.00     0.053 C 
ATOM      9  C   UNL d   1      -0.781   0.377  -0.806  0.00  0.00     0.018 C 
ENDBRANCH   1   8
TORSDOF 1
ENDMDL
