MODEL 1
REMARK minimizedAffinity -1.94303679
REMARK minimizedRMSD -1
REMARK  1 active torsions:
REMARK  status: ('A' for Active; 'I' for Inactive)
REMARK    1  A    between atoms: C1_2  and  C2_3 
ROOT
ATOM      1  C2  UNL d   1       1.457   0.224   0.386  0.00  0.00    -0.076 A 
ATOM      2  C3  UNL d   1       0.371   0.712  -0.361  0.00  0.00     0.004 A 
ATOM      3  C4  UNL d   1      -0.850   0.040  -0.375  0.00  0.00    -0.003 A 
ATOM      4  C5  UNL d   1      -1.006  -1.130   0.360  0.00  0.00     0.000 A 
ATOM      5  C6  UNL d   1       0.055  -1.619   1.121  0.00  0.00     0.000 A 
ATOM      6  C7  UNL d   1       1.288  -0.945   1.158  0.00  0.00    -0.073 A 
ATOM      7  C8  UNL d   1       2.400  -1.520   1.992  0.00  0.00     0.078 C 
ENDROOT
BRANCH   1   8
ATOM      8  C1  UNL d   1       2.765   0.980   0.341  0.00  0.00     0.053 C 
ATOM      9  C   UNL d   1       2.762   2.204   1.244  0.00  0.00     0.018 C 
ENDBRANCH   1   8
TORSDOF 1
ENDMDL
