MODEL 1
REMARK minimizedAffinity -1.0250051
REMARK minimizedRMSD -1
REMARK  1 active torsions:
REMARK  status: ('A' for Active; 'I' for Inactive)
REMARK    1  A    between atoms: C1_2  and  C2_3 
ROOT
ATOM      1  C2  UNL d   1       1.329   1.162   0.950  0.00  0.00    -0.076 A 
ATOM      2  C3  UNL d   1       1.216   2.402   1.602  0.00  0.00     0.004 A 
ATOM      3  C4  UNL d   1       2.243   3.343   1.538  0.00  0.00    -0.003 A 
ATOM      4  C5  UNL d   1       3.399   3.059   0.818  0.00  0.00     0.000 A 
ATOM      5  C6  UNL d   1       3.520   1.841   0.150  0.00  0.00     0.000 A 
ATOM      6  C7  UNL d   1       2.487   0.888   0.192  0.00  0.00    -0.073 A 
ATOM      7  C8  UNL d   1       2.674  -0.411  -0.543  0.00  0.00     0.078 C 
ENDROOT
BRANCH   1   8
ATOM      8  C1  UNL d   1       0.194   0.171   1.078  0.00  0.00     0.053 C 
ATOM      9  C   UNL d   1      -0.735   0.191  -0.126  0.00  0.00     0.018 C 
ENDBRANCH   1   8
TORSDOF 1
ENDMDL
