MODEL 1
REMARK minimizedAffinity 12.4440489
REMARK minimizedRMSD -1
REMARK  1 active torsions:
REMARK  status: ('A' for Active; 'I' for Inactive)
REMARK    1  A    between atoms: C1_2  and  C2_3 
ROOT
ATOM      1  C2  UNL d   1       0.079  -1.158   0.500  0.00  0.00    -0.076 A 
ATOM      2  C3  UNL d   1      -0.017  -0.468  -0.721  0.00  0.00     0.004 A 
ATOM      3  C4  UNL d   1      -1.177  -0.529  -1.491  0.00  0.00    -0.003 A 
ATOM      4  C5  UNL d   1      -2.261  -1.281  -1.052  0.00  0.00     0.000 A 
ATOM      5  C6  UNL d   1      -2.190  -1.958   0.165  0.00  0.00     0.000 A 
ATOM      6  C7  UNL d   1      -1.034  -1.894   0.961  0.00  0.00    -0.073 A 
ATOM      7  C8  UNL d   1      -1.010  -2.648   2.262  0.00  0.00     0.078 C 
ENDROOT
BRANCH   1   8
ATOM      8  C1  UNL d   1       1.372  -1.077   1.279  0.00  0.00     0.053 C 
ATOM      9  C   UNL d   1       1.499   0.219   2.064  0.00  0.00     0.018 C 
ENDBRANCH   1   8
TORSDOF 1
ENDMDL
