MODEL 1
REMARK minimizedAffinity -2.77474427
REMARK minimizedRMSD -1
REMARK  1 active torsions:
REMARK  status: ('A' for Active; 'I' for Inactive)
REMARK    1  A    between atoms: C1_2  and  C2_3 
ROOT
ATOM      1  C2  UNL d   1       0.425   0.403   0.041  0.00  0.00    -0.076 A 
ATOM      2  C3  UNL d   1      -0.206   1.124  -0.988  0.00  0.00     0.004 A 
ATOM      3  C4  UNL d   1      -1.313   0.601  -1.655  0.00  0.00    -0.003 A 
ATOM      4  C5  UNL d   1      -1.806  -0.650  -1.304  0.00  0.00     0.000 A 
ATOM      5  C6  UNL d   1      -1.203  -1.371  -0.274  0.00  0.00     0.000 A 
ATOM      6  C7  UNL d   1      -0.097  -0.852   0.420  0.00  0.00    -0.073 A 
ATOM      7  C8  UNL d   1       0.518  -1.675   1.518  0.00  0.00     0.078 C 
ENDROOT
BRANCH   1   8
ATOM      8  C1  UNL d   1       1.638   1.009   0.710  0.00  0.00     0.053 C 
ATOM      9  C   UNL d   1       2.418   1.928  -0.218  0.00  0.00     0.018 C 
ENDBRANCH   1   8
TORSDOF 1
ENDMDL
