MODEL 1
REMARK minimizedAffinity 0.709346592
REMARK minimizedRMSD -1
REMARK  1 active torsions:
REMARK  status: ('A' for Active; 'I' for Inactive)
REMARK    1  A    between atoms: C1_2  and  C2_3 
ROOT
ATOM      1  C2  UNL d   1      -1.246  -0.715  -0.299  0.00  0.00    -0.076 A 
ATOM      2  C3  UNL d   1      -0.659   0.278  -1.101  0.00  0.00     0.004 A 
ATOM      3  C4  UNL d   1       0.612   0.773  -0.815  0.00  0.00    -0.003 A 
ATOM      4  C5  UNL d   1       1.317   0.282   0.279  0.00  0.00     0.000 A 
ATOM      5  C6  UNL d   1       0.757  -0.716   1.075  0.00  0.00     0.000 A 
ATOM      6  C7  UNL d   1      -0.517  -1.238   0.790  0.00  0.00    -0.073 A 
ATOM      7  C8  UNL d   1      -1.075  -2.309   1.686  0.00  0.00     0.078 C 
ENDROOT
BRANCH   1   8
ATOM      8  C1  UNL d   1      -2.639  -1.194  -0.643  0.00  0.00     0.053 C 
ATOM      9  C   UNL d   1      -2.661  -2.082  -1.877  0.00  0.00     0.018 C 
ENDBRANCH   1   8
TORSDOF 1
ENDMDL
