MODEL 1
REMARK minimizedAffinity -3.52378464
REMARK minimizedRMSD -1
REMARK  1 active torsions:
REMARK  status: ('A' for Active; 'I' for Inactive)
REMARK    1  A    between atoms: C1_2  and  C2_3 
ROOT
ATOM      1  C2  UNL d   1      -0.240  -0.213  -0.105  0.00  0.00    -0.076 A 
ATOM      2  C3  UNL d   1      -0.626   0.719  -1.084  0.00  0.00     0.004 A 
ATOM      3  C4  UNL d   1      -1.842   0.595  -1.752  0.00  0.00    -0.003 A 
ATOM      4  C5  UNL d   1      -2.694  -0.463  -1.452  0.00  0.00     0.000 A 
ATOM      5  C6  UNL d   1      -2.335  -1.387  -0.472  0.00  0.00     0.000 A 
ATOM      6  C7  UNL d   1      -1.119  -1.267   0.223  0.00  0.00    -0.073 A 
ATOM      7  C8  UNL d   1      -0.781  -2.296   1.267  0.00  0.00     0.078 C 
ENDROOT
BRANCH   1   8
ATOM      8  C1  UNL d   1       1.103  -0.043   0.568  0.00  0.00     0.053 C 
ATOM      9  C   UNL d   1       1.923   1.083  -0.044  0.00  0.00     0.018 C 
ENDBRANCH   1   8
TORSDOF 1
ENDMDL
