MODEL 1
REMARK minimizedAffinity -2.24760175
REMARK minimizedRMSD -1
REMARK  1 active torsions:
REMARK  status: ('A' for Active; 'I' for Inactive)
REMARK    1  A    between atoms: C1_2  and  C2_3 
ROOT
ATOM      1  C2  UNL d   1       1.822   1.106   0.104  0.00  0.00    -0.076 A 
ATOM      2  C3  UNL d   1       1.095   1.283   1.294  0.00  0.00     0.004 A 
ATOM      3  C4  UNL d   1       1.395   2.326   2.169  0.00  0.00    -0.003 A 
ATOM      4  C5  UNL d   1       2.426   3.209   1.869  0.00  0.00     0.000 A 
ATOM      5  C6  UNL d   1       3.146   3.059   0.684  0.00  0.00     0.000 A 
ATOM      6  C7  UNL d   1       2.846   2.023  -0.218  0.00  0.00    -0.073 A 
ATOM      7  C8  UNL d   1       3.659   1.904  -1.478  0.00  0.00     0.078 C 
ENDROOT
BRANCH   1   8
ATOM      8  C1  UNL d   1       1.470  -0.059  -0.794  0.00  0.00     0.053 C 
ATOM      9  C   UNL d   1      -0.016  -0.119  -1.114  0.00  0.00     0.018 C 
ENDBRANCH   1   8
TORSDOF 1
ENDMDL
