MODEL 1
REMARK minimizedAffinity -2.94582534
REMARK minimizedRMSD -1
REMARK  1 active torsions:
REMARK  status: ('A' for Active; 'I' for Inactive)
REMARK    1  A    between atoms: C1_2  and  C2_3 
ROOT
ATOM      1  C2  UNL d   1      -0.093  -0.096  -0.244  0.00  0.00    -0.076 A 
ATOM      2  C3  UNL d   1      -0.931   0.502  -1.201  0.00  0.00     0.004 A 
ATOM      3  C4  UNL d   1      -2.131  -0.097  -1.579  0.00  0.00    -0.003 A 
ATOM      4  C5  UNL d   1      -2.514  -1.305  -1.005  0.00  0.00     0.000 A 
ATOM      5  C6  UNL d   1      -1.703  -1.904  -0.041  0.00  0.00     0.000 A 
ATOM      6  C7  UNL d   1      -0.498  -1.305   0.363  0.00  0.00    -0.073 A 
ATOM      7  C8  UNL d   1       0.340  -1.998   1.402  0.00  0.00     0.078 C 
ENDROOT
BRANCH   1   8
ATOM      8  C1  UNL d   1       1.209   0.587   0.107  0.00  0.00     0.053 C 
ATOM      9  C   UNL d   1       1.007   2.011   0.599  0.00  0.00     0.018 C 
ENDBRANCH   1   8
TORSDOF 1
ENDMDL
