MODEL 1
REMARK minimizedAffinity -3.31452966
REMARK minimizedRMSD -1
REMARK  1 active torsions:
REMARK  status: ('A' for Active; 'I' for Inactive)
REMARK    1  A    between atoms: C1_2  and  C2_3 
ROOT
ATOM      1  C2  UNL d   1       1.940   1.440   0.529  0.00  0.00    -0.076 A 
ATOM      2  C3  UNL d   1       2.892   1.697  -0.473  0.00  0.00     0.004 A 
ATOM      3  C4  UNL d   1       3.433   2.971  -0.639  0.00  0.00    -0.003 A 
ATOM      4  C5  UNL d   1       3.031   4.008   0.195  0.00  0.00     0.000 A 
ATOM      5  C6  UNL d   1       2.101   3.767   1.206  0.00  0.00     0.000 A 
ATOM      6  C7  UNL d   1       1.558   2.485   1.397  0.00  0.00    -0.073 A 
ATOM      7  C8  UNL d   1       0.554   2.283   2.498  0.00  0.00     0.078 C 
ENDROOT
BRANCH   1   8
ATOM      8  C1  UNL d   1       1.368   0.044   0.644  0.00  0.00     0.053 C 
ATOM      9  C   UNL d   1      -0.041  -0.056   0.081  0.00  0.00     0.018 C 
ENDBRANCH   1   8
TORSDOF 1
ENDMDL
