MODEL 1
REMARK minimizedAffinity 0.147414923
REMARK minimizedRMSD -1
REMARK  1 active torsions:
REMARK  status: ('A' for Active; 'I' for Inactive)
REMARK    1  A    between atoms: C1_2  and  C2_3 
ROOT
ATOM      1  C2  UNL d   1       0.022  -0.296   0.042  0.00  0.00    -0.076 A 
ATOM      2  C3  UNL d   1      -0.337   0.463  -1.085  0.00  0.00     0.004 A 
ATOM      3  C4  UNL d   1      -1.504   0.185  -1.795  0.00  0.00    -0.003 A 
ATOM      4  C5  UNL d   1      -2.331  -0.856  -1.389  0.00  0.00     0.000 A 
ATOM      5  C6  UNL d   1      -1.999  -1.608  -0.262  0.00  0.00     0.000 A 
ATOM      6  C7  UNL d   1      -0.835  -1.331   0.474  0.00  0.00    -0.073 A 
ATOM      7  C8  UNL d   1      -0.522  -2.178   1.677  0.00  0.00     0.078 C 
ENDROOT
BRANCH   1   8
ATOM      8  C1  UNL d   1       1.313   0.035   0.756  0.00  0.00     0.053 C 
ATOM      9  C   UNL d   1       1.809   1.438   0.444  0.00  0.00     0.018 C 
ENDBRANCH   1   8
TORSDOF 1
ENDMDL
