MODEL 1
REMARK minimizedAffinity 5.10635996
REMARK minimizedRMSD -1
REMARK  1 active torsions:
REMARK  status: ('A' for Active; 'I' for Inactive)
REMARK    1  A    between atoms: C1_2  and  C2_3 
ROOT
ATOM      1  C2  UNL d   1       0.800  -4.858   5.287  0.00  0.00    -0.073 A 
ATOM      2  C3  UNL d   1      -0.148  -5.871   5.467  0.00  0.00    -0.002 A 
ATOM      3  C4  UNL d   1      -1.459  -5.555   5.825  0.00  0.00     0.004 A 
ATOM      4  C5  UNL d   1      -1.837  -4.224   6.000  0.00  0.00    -0.004 A 
ATOM      5  C6  UNL d   1      -0.907  -3.196   5.813  0.00  0.00    -0.075 A 
ATOM      6  C7  UNL d   1      -1.297  -1.759   6.000  0.00  0.00     0.076 C 
ATOM      7  C8  UNL d   1       0.409  -3.522   5.456  0.00  0.00     0.001 A 
ENDROOT
BRANCH   1   8
ATOM      8  C1  UNL d   1       2.216  -5.194   4.894  0.00  0.00     0.053 C 
ATOM      9  C   UNL d   1       3.211  -4.837   5.986  0.00  0.00     0.018 C 
ENDBRANCH   1   8
TORSDOF 1
ENDMDL
