MODEL 1
REMARK minimizedAffinity 9.60676003
REMARK minimizedRMSD -1
REMARK  1 active torsions:
REMARK  status: ('A' for Active; 'I' for Inactive)
REMARK    1  A    between atoms: C1_2  and  C2_3 
ROOT
ATOM      1  C2  UNL d   1      -1.588  -0.437   1.306  0.00  0.00    -0.073 A 
ATOM      2  C3  UNL d   1      -0.424   0.067   1.897  0.00  0.00    -0.002 A 
ATOM      3  C4  UNL d   1       0.806  -0.060   1.251  0.00  0.00     0.004 A 
ATOM      4  C5  UNL d   1       0.885  -0.685   0.006  0.00  0.00    -0.004 A 
ATOM      5  C6  UNL d   1      -0.269  -1.185  -0.606  0.00  0.00    -0.075 A 
ATOM      6  C7  UNL d   1      -0.201  -1.862  -1.943  0.00  0.00     0.076 C 
ATOM      7  C8  UNL d   1      -1.500  -1.056   0.050  0.00  0.00     0.001 A 
ENDROOT
BRANCH   1   8
ATOM      8  C1  UNL d   1      -2.920  -0.297   1.997  0.00  0.00     0.053 C 
ATOM      9  C   UNL d   1      -4.009   0.171   1.045  0.00  0.00     0.018 C 
ENDBRANCH   1   8
TORSDOF 1
ENDMDL
