MODEL 1
REMARK minimizedAffinity 10.0077257
REMARK minimizedRMSD -1
REMARK  1 active torsions:
REMARK  status: ('A' for Active; 'I' for Inactive)
REMARK    1  A    between atoms: C1_2  and  C2_3 
ROOT
ATOM      1  C2  UNL d   1      -0.318  -2.096  -1.466  0.00  0.00    -0.073 A 
ATOM      2  C3  UNL d   1      -0.851  -0.861  -1.852  0.00  0.00    -0.002 A 
ATOM      3  C4  UNL d   1      -0.519   0.300  -1.153  0.00  0.00     0.004 A 
ATOM      4  C5  UNL d   1       0.354   0.240  -0.067  0.00  0.00    -0.004 A 
ATOM      5  C6  UNL d   1       0.907  -0.983   0.327  0.00  0.00    -0.075 A 
ATOM      6  C7  UNL d   1       1.846  -1.065   1.494  0.00  0.00     0.076 C 
ATOM      7  C8  UNL d   1       0.566  -2.145  -0.379  0.00  0.00     0.001 A 
ENDROOT
BRANCH   1   8
ATOM      8  C1  UNL d   1      -0.669  -3.352  -2.222  0.00  0.00     0.053 C 
ATOM      9  C   UNL d   1      -1.025  -3.063  -3.671  0.00  0.00     0.018 C 
ENDBRANCH   1   8
TORSDOF 1
ENDMDL
