MODEL 1
REMARK minimizedAffinity 9.14111328
REMARK minimizedRMSD -1
REMARK  1 active torsions:
REMARK  status: ('A' for Active; 'I' for Inactive)
REMARK    1  A    between atoms: C1_2  and  C2_3 
ROOT
ATOM      1  C2  UNL d   1       0.153   4.165   3.797  0.00  0.00    -0.073 A 
ATOM      2  C3  UNL d   1      -0.453   4.559   2.599  0.00  0.00    -0.002 A 
ATOM      3  C4  UNL d   1      -0.767   3.613   1.623  0.00  0.00     0.004 A 
ATOM      4  C5  UNL d   1      -0.486   2.263   1.838  0.00  0.00    -0.004 A 
ATOM      5  C6  UNL d   1       0.108   1.848   3.034  0.00  0.00    -0.075 A 
ATOM      6  C7  UNL d   1       0.419   0.401   3.279  0.00  0.00     0.076 C 
ATOM      7  C8  UNL d   1       0.423   2.805   4.008  0.00  0.00     0.001 A 
ENDROOT
BRANCH   1   8
ATOM      8  C1  UNL d   1       0.488   5.183   4.857  0.00  0.00     0.053 C 
ATOM      9  C   UNL d   1      -0.748   5.655   5.605  0.00  0.00     0.018 C 
ENDBRANCH   1   8
TORSDOF 1
ENDMDL
