MODEL 1
REMARK minimizedAffinity 7.15522099
REMARK minimizedRMSD -1
REMARK  1 active torsions:
REMARK  status: ('A' for Active; 'I' for Inactive)
REMARK    1  A    between atoms: C1_2  and  C2_3 
ROOT
ATOM      1  C2  UNL d   1      -3.099   2.435   2.655  0.00  0.00    -0.073 A 
ATOM      2  C3  UNL d   1      -1.893   1.935   2.151  0.00  0.00    -0.002 A 
ATOM      3  C4  UNL d   1      -0.678   2.502   2.539  0.00  0.00     0.004 A 
ATOM      4  C5  UNL d   1      -0.656   3.567   3.439  0.00  0.00    -0.004 A 
ATOM      5  C6  UNL d   1      -1.850   4.072   3.963  0.00  0.00    -0.075 A 
ATOM      6  C7  UNL d   1      -1.844   5.219   4.931  0.00  0.00     0.076 C 
ATOM      7  C8  UNL d   1      -3.066   3.500   3.566  0.00  0.00     0.001 A 
ENDROOT
BRANCH   1   8
ATOM      8  C1  UNL d   1      -4.413   1.822   2.243  0.00  0.00     0.053 C 
ATOM      9  C   UNL d   1      -5.589   2.732   2.558  0.00  0.00     0.018 C 
ENDBRANCH   1   8
TORSDOF 1
ENDMDL
