MODEL 1
REMARK minimizedAffinity 7.05364418
REMARK minimizedRMSD -1
REMARK  1 active torsions:
REMARK  status: ('A' for Active; 'I' for Inactive)
REMARK    1  A    between atoms: C1_2  and  C2_3 
ROOT
ATOM      1  C2  UNL d   1       1.553  -2.574  -1.358  0.00  0.00    -0.073 A 
ATOM      2  C3  UNL d   1       0.318  -3.033  -1.831  0.00  0.00    -0.002 A 
ATOM      3  C4  UNL d   1      -0.829  -2.254  -1.677  0.00  0.00     0.004 A 
ATOM      4  C5  UNL d   1      -0.754  -1.007  -1.056  0.00  0.00    -0.004 A 
ATOM      5  C6  UNL d   1       0.473  -0.526  -0.587  0.00  0.00    -0.075 A 
ATOM      6  C7  UNL d   1       0.571   0.812   0.085  0.00  0.00     0.076 C 
ATOM      7  C8  UNL d   1       1.621  -1.315  -0.743  0.00  0.00     0.001 A 
ENDROOT
BRANCH   1   8
ATOM      8  C1  UNL d   1       2.796  -3.408  -1.528  0.00  0.00     0.053 C 
ATOM      9  C   UNL d   1       3.830  -2.720  -2.405  0.00  0.00     0.018 C 
ENDBRANCH   1   8
TORSDOF 1
ENDMDL
