MODEL 1
REMARK minimizedAffinity 19.9566956
REMARK minimizedRMSD -1
REMARK  1 active torsions:
REMARK  status: ('A' for Active; 'I' for Inactive)
REMARK    1  A    between atoms: C1_2  and  C2_3 
ROOT
ATOM      1  C2  UNL d   1       0.222  -0.331   0.124  0.00  0.00    -0.073 A 
ATOM      2  C3  UNL d   1      -0.089   0.876  -0.511  0.00  0.00    -0.002 A 
ATOM      3  C4  UNL d   1      -0.390   2.012   0.242  0.00  0.00     0.004 A 
ATOM      4  C5  UNL d   1      -0.376   1.954   1.635  0.00  0.00    -0.004 A 
ATOM      5  C6  UNL d   1      -0.056   0.759   2.289  0.00  0.00    -0.075 A 
ATOM      6  C7  UNL d   1      -0.039   0.680   3.787  0.00  0.00     0.076 C 
ATOM      7  C8  UNL d   1       0.243  -0.377   1.525  0.00  0.00     0.001 A 
ENDROOT
BRANCH   1   8
ATOM      8  C1  UNL d   1       0.555  -1.558  -0.685  0.00  0.00     0.053 C 
ATOM      9  C   UNL d   1      -0.430  -1.774  -1.823  0.00  0.00     0.018 C 
ENDBRANCH   1   8
TORSDOF 1
ENDMDL
