MODEL 1
REMARK minimizedAffinity 17.036253
REMARK minimizedRMSD -1
REMARK  1 active torsions:
REMARK  status: ('A' for Active; 'I' for Inactive)
REMARK    1  A    between atoms: C1_2  and  C2_3 
ROOT
ATOM      1  C2  UNL d   1       0.090  -2.757  -2.801  0.00  0.00    -0.073 A 
ATOM      2  C3  UNL d   1      -0.322  -2.911  -1.472  0.00  0.00    -0.002 A 
ATOM      3  C4  UNL d   1       0.621  -3.059  -0.455  0.00  0.00     0.004 A 
ATOM      4  C5  UNL d   1       1.984  -3.046  -0.753  0.00  0.00    -0.004 A 
ATOM      5  C6  UNL d   1       2.415  -2.881  -2.073  0.00  0.00    -0.075 A 
ATOM      6  C7  UNL d   1       3.877  -2.868  -2.411  0.00  0.00     0.076 C 
ATOM      7  C8  UNL d   1       1.462  -2.736  -3.090  0.00  0.00     0.001 A 
ENDROOT
BRANCH   1   8
ATOM      8  C1  UNL d   1      -0.925  -2.591  -3.903  0.00  0.00     0.053 C 
ATOM      9  C   UNL d   1      -1.182  -3.895  -4.641  0.00  0.00     0.018 C 
ENDBRANCH   1   8
TORSDOF 1
ENDMDL
