MODEL 1
REMARK minimizedAffinity 7.81489706
REMARK minimizedRMSD -1
REMARK  1 active torsions:
REMARK  status: ('A' for Active; 'I' for Inactive)
REMARK    1  A    between atoms: C1_2  and  C2_3 
ROOT
ATOM      1  C2  UNL d   1       1.658  -2.492  -1.740  0.00  0.00    -0.073 A 
ATOM      2  C3  UNL d   1       0.349  -2.666  -2.205  0.00  0.00    -0.002 A 
ATOM      3  C4  UNL d   1      -0.699  -1.928  -1.653  0.00  0.00     0.004 A 
ATOM      4  C5  UNL d   1      -0.449  -1.006  -0.637  0.00  0.00    -0.004 A 
ATOM      5  C6  UNL d   1       0.853  -0.810  -0.167  0.00  0.00    -0.075 A 
ATOM      6  C7  UNL d   1       1.138   0.177   0.928  0.00  0.00     0.076 C 
ATOM      7  C8  UNL d   1       1.900  -1.556  -0.724  0.00  0.00     0.001 A 
ENDROOT
BRANCH   1   8
ATOM      8  C1  UNL d   1       2.794  -3.282  -2.337  0.00  0.00     0.053 C 
ATOM      9  C   UNL d   1       4.110  -2.523  -2.275  0.00  0.00     0.018 C 
ENDBRANCH   1   8
TORSDOF 1
ENDMDL
