MODEL 1
REMARK minimizedAffinity 11.9818583
REMARK minimizedRMSD -1
REMARK  0 active torsions:
REMARK  status: ('A' for Active; 'I' for Inactive)
ROOT
ATOM      1  N1  IND d   1       3.098  -1.134  -3.111  0.00  0.00    -0.196 N 
ATOM      2  C2  IND d   1       2.414  -2.274  -2.795  0.00  0.00     0.054 A 
ATOM      3  C3  IND d   1       1.926  -2.198  -1.537  0.00  0.00    -0.031 A 
ATOM      4  C4  IND d   1       2.043  -0.254   0.147  0.00  0.00     0.051 A 
ATOM      5  C5  IND d   1       2.593   0.984   0.326  0.00  0.00    -0.031 A 
ATOM      6  C6  IND d   1       3.353   1.593  -0.651  0.00  0.00     0.015 A 
ATOM      7  C7  IND d   1       3.582   0.989  -1.855  0.00  0.00    -0.016 A 
ATOM      8  C8  IND d   1       3.031  -0.272  -2.038  0.00  0.00    -0.047 A 
ATOM      9  C9  IND d   1       2.294  -0.912  -1.033  0.00  0.00    -0.096 A 
ATOM     10  HN1 IND d   1       3.502  -0.980  -3.854  0.00  0.00     0.298 HD
ENDROOT
TORSDOF 0
ENDMDL
