MODEL 1
REMARK minimizedAffinity 11.6678658
REMARK minimizedRMSD -1
REMARK  0 active torsions:
REMARK  status: ('A' for Active; 'I' for Inactive)
ROOT
ATOM      1  N1  IND d   1       2.930  -0.612  -1.617  0.00  0.00    -0.196 N 
ATOM      2  C2  IND d   1       2.223  -1.048  -0.531  0.00  0.00     0.054 A 
ATOM      3  C3  IND d   1       2.267  -0.129   0.459  0.00  0.00    -0.031 A 
ATOM      4  C4  IND d   1       3.353   2.205   0.477  0.00  0.00     0.051 A 
ATOM      5  C5  IND d   1       4.142   3.032  -0.272  0.00  0.00    -0.031 A 
ATOM      6  C6  IND d   1       4.573   2.681  -1.535  0.00  0.00     0.015 A 
ATOM      7  C7  IND d   1       4.221   1.489  -2.103  0.00  0.00    -0.016 A 
ATOM      8  C8  IND d   1       3.426   0.644  -1.341  0.00  0.00    -0.047 A 
ATOM      9  C9  IND d   1       3.020   0.976  -0.043  0.00  0.00    -0.096 A 
ATOM     10  HN1 IND d   1       3.044  -1.047  -2.349  0.00  0.00     0.298 HD
ENDROOT
TORSDOF 0
ENDMDL
