MODEL 1
REMARK minimizedAffinity 11.9391251
REMARK minimizedRMSD -1
REMARK  0 active torsions:
REMARK  status: ('A' for Active; 'I' for Inactive)
ROOT
ATOM      1  N1  IND d   1      -3.716   5.978   4.761  0.00  0.00    -0.196 N 
ATOM      2  C2  IND d   1      -4.283   5.871   6.000  0.00  0.00     0.054 A 
ATOM      3  C3  IND d   1      -5.249   4.926   5.995  0.00  0.00    -0.031 A 
ATOM      4  C4  IND d   1      -5.998   3.362   4.092  0.00  0.00     0.051 A 
ATOM      5  C5  IND d   1      -5.799   3.110   2.763  0.00  0.00    -0.031 A 
ATOM      6  C6  IND d   1      -4.875   3.814   2.018  0.00  0.00     0.015 A 
ATOM      7  C7  IND d   1      -4.104   4.792   2.579  0.00  0.00    -0.016 A 
ATOM      8  C8  IND d   1      -4.308   5.055   3.926  0.00  0.00    -0.047 A 
ATOM      9  C9  IND d   1      -5.275   4.374   4.677  0.00  0.00    -0.096 A 
ATOM     10  HN1 IND d   1      -3.094   6.529   4.539  0.00  0.00     0.298 HD
ENDROOT
TORSDOF 0
ENDMDL
