MODEL 1
REMARK minimizedAffinity 15.680212
REMARK minimizedRMSD -1
REMARK  0 active torsions:
REMARK  status: ('A' for Active; 'I' for Inactive)
ROOT
ATOM      1  N1  IND d   1       3.447   1.326  -0.901  0.00  0.00    -0.196 N 
ATOM      2  C2  IND d   1       2.171   1.146  -1.358  0.00  0.00     0.054 A 
ATOM      3  C3  IND d   1       1.608   0.068  -0.768  0.00  0.00    -0.031 A 
ATOM      4  C4  IND d   1       2.560  -1.485   1.051  0.00  0.00     0.051 A 
ATOM      5  C5  IND d   1       3.700  -1.742   1.760  0.00  0.00    -0.031 A 
ATOM      6  C6  IND d   1       4.836  -0.972   1.617  0.00  0.00     0.015 A 
ATOM      7  C7  IND d   1       4.871   0.095   0.764  0.00  0.00    -0.016 A 
ATOM      8  C8  IND d   1       3.717   0.354   0.038  0.00  0.00    -0.047 A 
ATOM      9  C9  IND d   1       2.575  -0.449   0.147  0.00  0.00    -0.096 A 
ATOM     10  HN1 IND d   1       3.990   1.941  -1.157  0.00  0.00     0.298 HD
ENDROOT
TORSDOF 0
ENDMDL
