MODEL 1
REMARK minimizedAffinity 11.0769997
REMARK minimizedRMSD -1
REMARK  0 active torsions:
REMARK  status: ('A' for Active; 'I' for Inactive)
ROOT
ATOM      1  N1  IND d   1      -3.868   3.880   2.621  0.00  0.00    -0.196 N 
ATOM      2  C2  IND d   1      -5.012   3.224   2.262  0.00  0.00     0.054 A 
ATOM      3  C3  IND d   1      -5.999   3.481   3.150  0.00  0.00    -0.031 A 
ATOM      4  C4  IND d   1      -5.986   5.028   5.207  0.00  0.00     0.051 A 
ATOM      5  C5  IND d   1      -5.158   5.813   5.960  0.00  0.00    -0.031 A 
ATOM      6  C6  IND d   1      -3.831   6.000   5.629  0.00  0.00     0.015 A 
ATOM      7  C7  IND d   1      -3.284   5.415   4.523  0.00  0.00    -0.016 A 
ATOM      8  C8  IND d   1      -4.120   4.611   3.760  0.00  0.00    -0.047 A 
ATOM      9  C9  IND d   1      -5.456   4.384   4.115  0.00  0.00    -0.096 A 
ATOM     10  HN1 IND d   1      -3.116   3.842   2.204  0.00  0.00     0.298 HD
ENDROOT
TORSDOF 0
ENDMDL
