MODEL 1
REMARK minimizedAffinity 9.91962242
REMARK minimizedRMSD -1
REMARK  0 active torsions:
REMARK  status: ('A' for Active; 'I' for Inactive)
ROOT
ATOM      1  N1  IND d   1      -2.565   5.993   5.689  0.00  0.00    -0.196 N 
ATOM      2  C2  IND d   1      -1.642   5.985   4.681  0.00  0.00     0.054 A 
ATOM      3  C3  IND d   1      -2.192   5.507   3.543  0.00  0.00    -0.031 A 
ATOM      4  C4  IND d   1      -4.617   4.775   3.080  0.00  0.00     0.051 A 
ATOM      5  C5  IND d   1      -5.817   4.569   3.701  0.00  0.00    -0.031 A 
ATOM      6  C6  IND d   1      -5.999   4.836   5.043  0.00  0.00     0.015 A 
ATOM      7  C7  IND d   1      -4.986   5.331   5.814  0.00  0.00    -0.016 A 
ATOM      8  C8  IND d   1      -3.764   5.534   5.189  0.00  0.00    -0.047 A 
ATOM      9  C9  IND d   1      -3.561   5.225   3.838  0.00  0.00    -0.096 A 
ATOM     10  HN1 IND d   1      -2.421   6.242   6.499  0.00  0.00     0.298 HD
ENDROOT
TORSDOF 0
ENDMDL
