MODEL 1
REMARK minimizedAffinity -4.93593931
REMARK minimizedRMSD -1
REMARK  1 active torsions:
REMARK  status: ('A' for Active; 'I' for Inactive)
REMARK    1  A    between atoms: C3_4  and  O_7 
ROOT
ATOM      1  C   UNL d   1      -0.299  -2.432   1.296  0.00  0.00    -0.033 A 
ATOM      2  C1  UNL d   1      -0.002  -1.097   1.017  0.00  0.00     0.039 A 
ATOM      3  C2  UNL d   1       0.296  -0.705  -0.289  0.00  0.00    -0.080 A 
ATOM      4  C3  UNL d   1       0.292  -1.656  -1.306  0.00  0.00     0.150 A 
ATOM      5  C4  UNL d   1      -0.007  -2.987  -1.035  0.00  0.00    -0.007 A 
ATOM      6  C5  UNL d   1      -0.303  -3.377   0.270  0.00  0.00     0.039 A 
ENDROOT
BRANCH   4   7
ATOM      7  O   UNL d   1       0.581  -1.322  -2.596  0.00  0.00    -0.526 OA
ATOM      8  H5  UNL d   1       0.796  -0.374  -2.627  0.00  0.00     0.418 HD
ENDBRANCH   4   7
TORSDOF 1
ENDMDL
