MODEL 1
REMARK minimizedAffinity -4.36406136
REMARK minimizedRMSD -1
REMARK  1 active torsions:
REMARK  status: ('A' for Active; 'I' for Inactive)
REMARK    1  A    between atoms: C3_4  and  O_7 
ROOT
ATOM      1  C   UNL d   1      -0.053   0.697  -0.415  0.00  0.00    -0.033 A 
ATOM      2  C1  UNL d   1      -0.753   0.306   0.727  0.00  0.00     0.039 A 
ATOM      3  C2  UNL d   1      -0.691  -1.018   1.168  0.00  0.00    -0.080 A 
ATOM      4  C3  UNL d   1       0.076  -1.938   0.459  0.00  0.00     0.150 A 
ATOM      5  C4  UNL d   1       0.780  -1.555  -0.678  0.00  0.00    -0.007 A 
ATOM      6  C5  UNL d   1       0.715  -0.233  -1.117  0.00  0.00     0.039 A 
ENDROOT
BRANCH   4   7
ATOM      7  O   UNL d   1       0.164  -3.242   0.847  0.00  0.00    -0.526 OA
ATOM      8  H5  UNL d   1      -0.397  -3.368   1.631  0.00  0.00     0.418 HD
ENDBRANCH   4   7
TORSDOF 1
ENDMDL
