MODEL 1
REMARK minimizedAffinity -5.27208042
REMARK minimizedRMSD -1
REMARK  1 active torsions:
REMARK  status: ('A' for Active; 'I' for Inactive)
REMARK    1  A    between atoms: C3_4  and  O_7 
ROOT
ATOM      1  C   UNL d   1      -0.238   0.673  -0.093  0.00  0.00    -0.033 A 
ATOM      2  C1  UNL d   1       0.536  -0.208  -0.851  0.00  0.00     0.039 A 
ATOM      3  C2  UNL d   1       0.660  -1.543  -0.461  0.00  0.00    -0.080 A 
ATOM      4  C3  UNL d   1       0.006  -1.984   0.686  0.00  0.00     0.150 A 
ATOM      5  C4  UNL d   1      -0.769  -1.112   1.443  0.00  0.00    -0.007 A 
ATOM      6  C5  UNL d   1      -0.892   0.221   1.053  0.00  0.00     0.039 A 
ENDROOT
BRANCH   4   7
ATOM      7  O   UNL d   1       0.102  -3.276   1.108  0.00  0.00    -0.526 OA
ATOM      8  H5  UNL d   1       0.693  -3.755   0.503  0.00  0.00     0.418 HD
ENDBRANCH   4   7
TORSDOF 1
ENDMDL
