MODEL 1
REMARK minimizedAffinity -4.1913476
REMARK minimizedRMSD -1
REMARK  1 active torsions:
REMARK  status: ('A' for Active; 'I' for Inactive)
REMARK    1  A    between atoms: C3_4  and  O_7 
ROOT
ATOM      1  C   UNL d   1       0.005   0.564  -0.026  0.00  0.00    -0.033 A 
ATOM      2  C1  UNL d   1       0.692  -0.364  -0.811  0.00  0.00     0.039 A 
ATOM      3  C2  UNL d   1       0.592  -1.728  -0.529  0.00  0.00    -0.080 A 
ATOM      4  C3  UNL d   1      -0.197  -2.150   0.537  0.00  0.00     0.150 A 
ATOM      5  C4  UNL d   1      -0.887  -1.231   1.320  0.00  0.00    -0.007 A 
ATOM      6  C5  UNL d   1      -0.786   0.131   1.038  0.00  0.00     0.039 A 
ENDROOT
BRANCH   4   7
ATOM      7  O   UNL d   1      -0.321  -3.470   0.853  0.00  0.00    -0.526 OA
ATOM      8  H5  UNL d   1       0.234  -3.986   0.245  0.00  0.00     0.418 HD
ENDBRANCH   4   7
TORSDOF 1
ENDMDL
