MODEL 1
REMARK minimizedAffinity -4.24474382
REMARK minimizedRMSD -1
REMARK  1 active torsions:
REMARK  status: ('A' for Active; 'I' for Inactive)
REMARK    1  A    between atoms: C3_4  and  O_7 
ROOT
ATOM      1  C   UNL d   1       0.121   0.419  -0.236  0.00  0.00    -0.033 A 
ATOM      2  C1  UNL d   1       0.974  -0.380  -0.999  0.00  0.00     0.039 A 
ATOM      3  C2  UNL d   1       1.058  -1.752  -0.750  0.00  0.00    -0.080 A 
ATOM      4  C3  UNL d   1       0.284  -2.311   0.263  0.00  0.00     0.150 A 
ATOM      5  C4  UNL d   1      -0.570  -1.521   1.025  0.00  0.00    -0.007 A 
ATOM      6  C5  UNL d   1      -0.652  -0.152   0.776  0.00  0.00     0.039 A 
ENDROOT
BRANCH   4   7
ATOM      7  O   UNL d   1       0.336  -3.643   0.546  0.00  0.00    -0.526 OA
ATOM      8  H5  UNL d   1       0.990  -4.058  -0.041  0.00  0.00     0.418 HD
ENDBRANCH   4   7
TORSDOF 1
ENDMDL
