MODEL 1
REMARK minimizedAffinity -4.61630058
REMARK minimizedRMSD -1
REMARK  1 active torsions:
REMARK  status: ('A' for Active; 'I' for Inactive)
REMARK    1  A    between atoms: C3_4  and  O_7 
ROOT
ATOM      1  C   UNL d   1       0.073  -2.874   0.354  0.00  0.00    -0.033 A 
ATOM      2  C1  UNL d   1      -0.377  -2.151   1.460  0.00  0.00     0.039 A 
ATOM      3  C2  UNL d   1      -0.503  -0.762   1.385  0.00  0.00    -0.080 A 
ATOM      4  C3  UNL d   1      -0.176  -0.110   0.199  0.00  0.00     0.150 A 
ATOM      5  C4  UNL d   1       0.269  -0.824  -0.908  0.00  0.00    -0.007 A 
ATOM      6  C5  UNL d   1       0.395  -2.211  -0.830  0.00  0.00     0.039 A 
ENDROOT
BRANCH   4   7
ATOM      7  O   UNL d   1      -0.278   1.244   0.080  0.00  0.00    -0.526 OA
ATOM      8  H5  UNL d   1      -0.571   1.608   0.932  0.00  0.00     0.418 HD
ENDBRANCH   4   7
TORSDOF 1
ENDMDL
