MODEL 1
REMARK minimizedAffinity -3.46943164
REMARK minimizedRMSD -1
REMARK  1 active torsions:
REMARK  status: ('A' for Active; 'I' for Inactive)
REMARK    1  A    between atoms: C3_4  and  O_7 
ROOT
ATOM      1  C   UNL d   1      -1.185  -0.604   1.163  0.00  0.00    -0.033 A 
ATOM      2  C1  UNL d   1      -0.633   0.411   0.379  0.00  0.00     0.039 A 
ATOM      3  C2  UNL d   1      -0.169   0.128  -0.907  0.00  0.00    -0.080 A 
ATOM      4  C3  UNL d   1      -0.263  -1.171  -1.397  0.00  0.00     0.150 A 
ATOM      5  C4  UNL d   1      -0.816  -2.187  -0.623  0.00  0.00    -0.007 A 
ATOM      6  C5  UNL d   1      -1.278  -1.902   0.662  0.00  0.00     0.039 A 
ENDROOT
BRANCH   4   7
ATOM      7  O   UNL d   1       0.181  -1.497  -2.644  0.00  0.00    -0.526 OA
ATOM      8  H5  UNL d   1       0.563  -0.702  -3.052  0.00  0.00     0.418 HD
ENDBRANCH   4   7
TORSDOF 1
ENDMDL
