MODEL 1
REMARK minimizedAffinity -5.19169807
REMARK minimizedRMSD -1
REMARK  1 active torsions:
REMARK  status: ('A' for Active; 'I' for Inactive)
REMARK    1  A    between atoms: C3_4  and  O_7 
ROOT
ATOM      1  C   UNL d   1      -0.104  -3.208  -0.396  0.00  0.00    -0.033 A 
ATOM      2  C1  UNL d   1       0.348  -2.503  -1.513  0.00  0.00     0.039 A 
ATOM      3  C2  UNL d   1       0.473  -1.114  -1.461  0.00  0.00    -0.080 A 
ATOM      4  C3  UNL d   1       0.145  -0.442  -0.286  0.00  0.00     0.150 A 
ATOM      5  C4  UNL d   1      -0.302  -1.138   0.832  0.00  0.00    -0.007 A 
ATOM      6  C5  UNL d   1      -0.427  -2.526   0.777  0.00  0.00     0.039 A 
ENDROOT
BRANCH   4   7
ATOM      7  O   UNL d   1       0.246   0.914  -0.189  0.00  0.00    -0.526 OA
ATOM      8  H5  UNL d   1       0.539   1.263  -1.047  0.00  0.00     0.418 HD
ENDBRANCH   4   7
TORSDOF 1
ENDMDL
