MODEL 1
REMARK minimizedAffinity -3.76981854
REMARK minimizedRMSD -1
REMARK  1 active torsions:
REMARK  status: ('A' for Active; 'I' for Inactive)
REMARK    1  A    between atoms: C3_4  and  O_7 
ROOT
ATOM      1  C   UNL d   1      -0.763  -1.495   1.162  0.00  0.00    -0.033 A 
ATOM      2  C1  UNL d   1      -1.025  -2.723   0.550  0.00  0.00     0.039 A 
ATOM      3  C2  UNL d   1      -0.718  -2.912  -0.799  0.00  0.00    -0.080 A 
ATOM      4  C3  UNL d   1      -0.149  -1.869  -1.523  0.00  0.00     0.150 A 
ATOM      5  C4  UNL d   1       0.118  -0.644  -0.919  0.00  0.00    -0.007 A 
ATOM      6  C5  UNL d   1      -0.190  -0.457   0.427  0.00  0.00     0.039 A 
ENDROOT
BRANCH   4   7
ATOM      7  O   UNL d   1       0.164  -2.005  -2.843  0.00  0.00    -0.526 OA
ATOM      8  H5  UNL d   1      -0.103  -2.893  -3.133  0.00  0.00     0.418 HD
ENDBRANCH   4   7
TORSDOF 1
ENDMDL
