MODEL 1
REMARK minimizedAffinity -3.71633863
REMARK minimizedRMSD -1
REMARK  1 active torsions:
REMARK  status: ('A' for Active; 'I' for Inactive)
REMARK    1  A    between atoms: C3_4  and  O_7 
ROOT
ATOM      1  C   UNL d   1      -0.186   0.372  -0.175  0.00  0.00    -0.033 A 
ATOM      2  C1  UNL d   1      -0.771   0.053   1.053  0.00  0.00     0.039 A 
ATOM      3  C2  UNL d   1      -0.749  -1.264   1.517  0.00  0.00    -0.080 A 
ATOM      4  C3  UNL d   1      -0.140  -2.250   0.746  0.00  0.00     0.150 A 
ATOM      5  C4  UNL d   1       0.448  -1.939  -0.476  0.00  0.00    -0.007 A 
ATOM      6  C5  UNL d   1       0.424  -0.624  -0.938  0.00  0.00     0.039 A 
ENDROOT
BRANCH   4   7
ATOM      7  O   UNL d   1      -0.098  -3.550   1.155  0.00  0.00    -0.526 OA
ATOM      8  H5  UNL d   1      -0.569  -3.621   2.003  0.00  0.00     0.418 HD
ENDBRANCH   4   7
TORSDOF 1
ENDMDL
