MODEL 1
REMARK minimizedAffinity -3.30832648
REMARK minimizedRMSD -1
REMARK  1 active torsions:
REMARK  status: ('A' for Active; 'I' for Inactive)
REMARK    1  A    between atoms: C3_4  and  O_7 
ROOT
ATOM      1  C   UNL d   1       0.345   0.421  -1.141  0.00  0.00    -0.033 A 
ATOM      2  C1  UNL d   1      -0.179   0.692   0.125  0.00  0.00     0.039 A 
ATOM      3  C2  UNL d   1      -0.734  -0.337   0.888  0.00  0.00    -0.080 A 
ATOM      4  C3  UNL d   1      -0.760  -1.631   0.374  0.00  0.00     0.150 A 
ATOM      5  C4  UNL d   1      -0.237  -1.908  -0.884  0.00  0.00    -0.007 A 
ATOM      6  C5  UNL d   1       0.317  -0.879  -1.645  0.00  0.00     0.039 A 
ENDROOT
BRANCH   4   7
ATOM      7  O   UNL d   1      -1.296  -2.667   1.079  0.00  0.00    -0.526 OA
ATOM      8  H5  UNL d   1      -1.645  -2.321   1.918  0.00  0.00     0.418 HD
ENDBRANCH   4   7
TORSDOF 1
ENDMDL
