MODEL 1
REMARK minimizedAffinity -4.69948244
REMARK minimizedRMSD -1
REMARK  1 active torsions:
REMARK  status: ('A' for Active; 'I' for Inactive)
REMARK    1  A    between atoms: C3_4  and  O_7 
ROOT
ATOM      1  C   UNL d   1      -0.474  -0.480   0.190  0.00  0.00    -0.033 A 
ATOM      2  C1  UNL d   1      -1.388  -1.355   0.780  0.00  0.00     0.039 A 
ATOM      3  C2  UNL d   1      -1.290  -2.729   0.553  0.00  0.00    -0.080 A 
ATOM      4  C3  UNL d   1      -0.274  -3.215  -0.265  0.00  0.00     0.150 A 
ATOM      5  C4  UNL d   1       0.643  -2.350  -0.853  0.00  0.00    -0.007 A 
ATOM      6  C5  UNL d   1       0.543  -0.978  -0.626  0.00  0.00     0.039 A 
ENDROOT
BRANCH   4   7
ATOM      7  O   UNL d   1      -0.140  -4.547  -0.521  0.00  0.00    -0.526 OA
ATOM      8  H5  UNL d   1      -0.860  -5.021  -0.071  0.00  0.00     0.418 HD
ENDBRANCH   4   7
TORSDOF 1
ENDMDL
