MODEL 1
REMARK minimizedAffinity -5.8813343
REMARK minimizedRMSD -1
REMARK  1 active torsions:
REMARK  status: ('A' for Active; 'I' for Inactive)
REMARK    1  A    between atoms: C3_4  and  O_7 
ROOT
ATOM      1  C   UNL d   1       0.715  -1.370  -2.435  0.00  0.00    -0.033 A 
ATOM      2  C1  UNL d   1       0.242  -2.679  -2.542  0.00  0.00     0.039 A 
ATOM      3  C2  UNL d   1       0.029  -3.443  -1.393  0.00  0.00    -0.080 A 
ATOM      4  C3  UNL d   1       0.292  -2.887  -0.145  0.00  0.00     0.150 A 
ATOM      5  C4  UNL d   1       0.760  -1.582  -0.030  0.00  0.00    -0.007 A 
ATOM      6  C5  UNL d   1       0.973  -0.821  -1.178  0.00  0.00     0.039 A 
ENDROOT
BRANCH   4   7
ATOM      7  O   UNL d   1       0.104  -3.596   1.005  0.00  0.00    -0.526 OA
ATOM      8  H5  UNL d   1      -0.195  -4.490   0.770  0.00  0.00     0.418 HD
ENDBRANCH   4   7
TORSDOF 1
ENDMDL
