MODEL 1
REMARK minimizedAffinity -0.0323167965
REMARK minimizedRMSD -1
REMARK  1 active torsions:
REMARK  status: ('A' for Active; 'I' for Inactive)
REMARK    1  A    between atoms: C3_4  and  O_7 
ROOT
ATOM      1  C   UNL d   1      -0.732  -1.355   0.172  0.00  0.00    -0.033 A 
ATOM      2  C1  UNL d   1      -0.904  -0.564  -0.965  0.00  0.00     0.039 A 
ATOM      3  C2  UNL d   1      -0.374   0.728  -1.006  0.00  0.00    -0.080 A 
ATOM      4  C3  UNL d   1       0.324   1.215   0.096  0.00  0.00     0.150 A 
ATOM      5  C4  UNL d   1       0.502   0.430   1.231  0.00  0.00    -0.007 A 
ATOM      6  C5  UNL d   1      -0.028  -0.859   1.270  0.00  0.00     0.039 A 
ENDROOT
BRANCH   4   7
ATOM      7  O   UNL d   1       0.854   2.470   0.105  0.00  0.00    -0.526 OA
ATOM      8  H5  UNL d   1       0.628   2.906  -0.734  0.00  0.00     0.418 HD
ENDBRANCH   4   7
TORSDOF 1
ENDMDL
