MODEL 1
REMARK minimizedAffinity -4.7289753
REMARK minimizedRMSD -1
REMARK  1 active torsions:
REMARK  status: ('A' for Active; 'I' for Inactive)
REMARK    1  A    between atoms: C3_4  and  O_7 
ROOT
ATOM      1  C   UNL d   1       0.018  -2.965  -0.325  0.00  0.00    -0.033 A 
ATOM      2  C1  UNL d   1      -0.456  -2.382   0.852  0.00  0.00     0.039 A 
ATOM      3  C2  UNL d   1      -0.481  -0.993   0.984  0.00  0.00    -0.080 A 
ATOM      4  C3  UNL d   1      -0.031  -0.198  -0.067  0.00  0.00     0.150 A 
ATOM      5  C4  UNL d   1       0.439  -0.772  -1.244  0.00  0.00    -0.007 A 
ATOM      6  C5  UNL d   1       0.463  -2.160  -1.374  0.00  0.00     0.039 A 
ENDROOT
BRANCH   4   7
ATOM      7  O   UNL d   1      -0.031   1.162   0.017  0.00  0.00    -0.526 OA
ATOM      8  H5  UNL d   1      -0.355   1.416   0.897  0.00  0.00     0.418 HD
ENDBRANCH   4   7
TORSDOF 1
ENDMDL
