MODEL 1
REMARK minimizedAffinity -2.82166815
REMARK minimizedRMSD -1
REMARK  1 active torsions:
REMARK  status: ('A' for Active; 'I' for Inactive)
REMARK    1  A    between atoms: C3_4  and  O_7 
ROOT
ATOM      1  C   UNL d   1      -1.057  -1.480   0.275  0.00  0.00    -0.033 A 
ATOM      2  C1  UNL d   1      -0.676  -0.976  -0.970  0.00  0.00     0.039 A 
ATOM      3  C2  UNL d   1      -0.129   0.305  -1.069  0.00  0.00    -0.080 A 
ATOM      4  C3  UNL d   1       0.032   1.070   0.082  0.00  0.00     0.150 A 
ATOM      5  C4  UNL d   1      -0.342   0.573   1.327  0.00  0.00    -0.007 A 
ATOM      6  C5  UNL d   1      -0.889  -0.706   1.423  0.00  0.00     0.039 A 
ENDROOT
BRANCH   4   7
ATOM      7  O   UNL d   1       0.557   2.327   0.035  0.00  0.00    -0.526 OA
ATOM      8  H5  UNL d   1       0.742   2.548  -0.893  0.00  0.00     0.418 HD
ENDBRANCH   4   7
TORSDOF 1
ENDMDL
