MODEL 1
REMARK minimizedAffinity -1.40285969
REMARK minimizedRMSD -1
REMARK  0 active torsions:
REMARK  status: ('A' for Active; 'I' for Inactive)
ROOT
ATOM      1  C   UNL d   1      -2.005   0.831   4.053  0.00  0.00     0.078 C 
ATOM      2  C1  UNL d   1      -3.322   0.238   3.652  0.00  0.00    -0.077 A 
ATOM      3  C2  UNL d   1      -3.422  -1.105   3.268  0.00  0.00    -0.001 A 
ATOM      4  C3  UNL d   1      -4.653  -1.641   2.888  0.00  0.00     0.003 A 
ATOM      5  C4  UNL d   1      -5.794  -0.841   2.886  0.00  0.00    -0.005 A 
ATOM      6  C5  UNL d   1      -5.705   0.497   3.265  0.00  0.00     0.003 A 
ATOM      7  C6  UNL d   1      -4.474   1.035   3.646  0.00  0.00    -0.001 A 
ENDROOT
TORSDOF 0
ENDMDL
