MODEL 1
REMARK minimizedAffinity 4.83639908
REMARK minimizedRMSD -1
REMARK  0 active torsions:
REMARK  status: ('A' for Active; 'I' for Inactive)
ROOT
ATOM      1  C   UNL d   1      -2.476   0.691   4.785  0.00  0.00     0.078 C 
ATOM      2  C1  UNL d   1      -2.083  -0.031   3.531  0.00  0.00    -0.077 A 
ATOM      3  C2  UNL d   1      -2.991  -0.859   2.860  0.00  0.00    -0.001 A 
ATOM      4  C3  UNL d   1      -2.608  -1.532   1.699  0.00  0.00     0.003 A 
ATOM      5  C4  UNL d   1      -1.315  -1.386   1.199  0.00  0.00    -0.005 A 
ATOM      6  C5  UNL d   1      -0.404  -0.566   1.861  0.00  0.00     0.003 A 
ATOM      7  C6  UNL d   1      -0.785   0.108   3.022  0.00  0.00    -0.001 A 
ENDROOT
TORSDOF 0
ENDMDL
