MODEL 1
REMARK minimizedAffinity -1.3162955
REMARK minimizedRMSD -1
REMARK  0 active torsions:
REMARK  status: ('A' for Active; 'I' for Inactive)
ROOT
ATOM      1  C   UNL d   1      -2.676   1.071   5.999  0.00  0.00     0.078 C 
ATOM      2  C1  UNL d   1      -3.552   0.150   5.203  0.00  0.00    -0.077 A 
ATOM      3  C2  UNL d   1      -3.422   0.054   3.813  0.00  0.00    -0.001 A 
ATOM      4  C3  UNL d   1      -4.251  -0.800   3.084  0.00  0.00     0.003 A 
ATOM      5  C4  UNL d   1      -5.217  -1.563   3.736  0.00  0.00    -0.005 A 
ATOM      6  C5  UNL d   1      -5.356  -1.472   5.120  0.00  0.00     0.003 A 
ATOM      7  C6  UNL d   1      -4.528  -0.619   5.851  0.00  0.00    -0.001 A 
ENDROOT
TORSDOF 0
ENDMDL
