MODEL 1
REMARK minimizedAffinity 0.730975568
REMARK minimizedRMSD -1
REMARK  0 active torsions:
REMARK  status: ('A' for Active; 'I' for Inactive)
ROOT
ATOM      1  C   UNL d   1      -5.248   5.429  -3.371  0.00  0.00     0.078 C 
ATOM      2  C1  UNL d   1      -3.923   5.440  -4.074  0.00  0.00    -0.077 A 
ATOM      3  C2  UNL d   1      -3.790   5.997  -5.352  0.00  0.00    -0.001 A 
ATOM      4  C3  UNL d   1      -2.553   5.992  -5.999  0.00  0.00     0.003 A 
ATOM      5  C4  UNL d   1      -1.440   5.430  -5.376  0.00  0.00    -0.005 A 
ATOM      6  C5  UNL d   1      -1.564   4.871  -4.106  0.00  0.00     0.003 A 
ATOM      7  C6  UNL d   1      -2.800   4.875  -3.457  0.00  0.00    -0.001 A 
ENDROOT
TORSDOF 0
ENDMDL
