MODEL 1
REMARK minimizedAffinity 3.46890116
REMARK minimizedRMSD -1
REMARK  0 active torsions:
REMARK  status: ('A' for Active; 'I' for Inactive)
ROOT
ATOM      1  C   UNL d   1       2.592   1.448   0.733  0.00  0.00     0.078 C 
ATOM      2  C1  UNL d   1       3.775   2.369   0.779  0.00  0.00    -0.077 A 
ATOM      3  C2  UNL d   1       3.838   3.417   1.705  0.00  0.00    -0.001 A 
ATOM      4  C3  UNL d   1       4.941   4.271   1.730  0.00  0.00     0.003 A 
ATOM      5  C4  UNL d   1       5.989   4.088   0.829  0.00  0.00    -0.005 A 
ATOM      6  C5  UNL d   1       5.934   3.049  -0.098  0.00  0.00     0.003 A 
ATOM      7  C6  UNL d   1       4.832   2.193  -0.124  0.00  0.00    -0.001 A 
ENDROOT
TORSDOF 0
ENDMDL
