MODEL 1
REMARK minimizedAffinity 6.73517799
REMARK minimizedRMSD -1
REMARK  0 active torsions:
REMARK  status: ('A' for Active; 'I' for Inactive)
ROOT
ATOM      1  C   UNL d   1      -1.932   0.931   2.670  0.00  0.00     0.078 C 
ATOM      2  C1  UNL d   1      -1.274  -0.233   3.349  0.00  0.00    -0.077 A 
ATOM      3  C2  UNL d   1      -0.826  -1.338   2.615  0.00  0.00    -0.001 A 
ATOM      4  C3  UNL d   1      -0.224  -2.418   3.261  0.00  0.00     0.003 A 
ATOM      5  C4  UNL d   1      -0.065  -2.405   4.645  0.00  0.00    -0.005 A 
ATOM      6  C5  UNL d   1      -0.508  -1.311   5.385  0.00  0.00     0.003 A 
ATOM      7  C6  UNL d   1      -1.111  -0.229   4.740  0.00  0.00    -0.001 A 
ENDROOT
TORSDOF 0
ENDMDL
