MODEL 1
REMARK minimizedAffinity 2.83298659
REMARK minimizedRMSD -1
REMARK  0 active torsions:
REMARK  status: ('A' for Active; 'I' for Inactive)
ROOT
ATOM      1  C   UNL d   1      -1.054   6.000  -0.614  0.00  0.00     0.078 C 
ATOM      2  C1  UNL d   1      -1.304   4.689   0.069  0.00  0.00    -0.077 A 
ATOM      3  C2  UNL d   1      -0.294   4.052   0.799  0.00  0.00    -0.001 A 
ATOM      4  C3  UNL d   1      -0.538   2.826   1.422  0.00  0.00     0.003 A 
ATOM      5  C4  UNL d   1      -1.792   2.227   1.319  0.00  0.00    -0.005 A 
ATOM      6  C5  UNL d   1      -2.803   2.852   0.592  0.00  0.00     0.003 A 
ATOM      7  C6  UNL d   1      -2.561   4.077  -0.031  0.00  0.00    -0.001 A 
ENDROOT
TORSDOF 0
ENDMDL
