MODEL 1
REMARK minimizedAffinity 8.6687479
REMARK minimizedRMSD -1
REMARK  0 active torsions:
REMARK  status: ('A' for Active; 'I' for Inactive)
ROOT
ATOM      1  C   UNL d   1       3.318   3.758  -1.166  0.00  0.00     0.078 C 
ATOM      2  C1  UNL d   1       3.237   2.472  -1.932  0.00  0.00    -0.077 A 
ATOM      3  C2  UNL d   1       2.256   2.276  -2.911  0.00  0.00    -0.001 A 
ATOM      4  C3  UNL d   1       2.187   1.070  -3.610  0.00  0.00     0.003 A 
ATOM      5  C4  UNL d   1       3.095   0.049  -3.335  0.00  0.00    -0.005 A 
ATOM      6  C5  UNL d   1       4.073   0.234  -2.361  0.00  0.00     0.003 A 
ATOM      7  C6  UNL d   1       4.144   1.440  -1.661  0.00  0.00    -0.001 A 
ENDROOT
TORSDOF 0
ENDMDL
