MODEL 1
REMARK minimizedAffinity 2.50380468
REMARK minimizedRMSD -1
REMARK  0 active torsions:
REMARK  status: ('A' for Active; 'I' for Inactive)
ROOT
ATOM      1  C   UNL d   1       1.961  -3.620  -0.039  0.00  0.00     0.078 C 
ATOM      2  C1  UNL d   1       3.372  -4.129  -0.038  0.00  0.00    -0.077 A 
ATOM      3  C2  UNL d   1       4.458  -3.246  -0.084  0.00  0.00    -0.001 A 
ATOM      4  C3  UNL d   1       5.765  -3.734  -0.093  0.00  0.00     0.003 A 
ATOM      5  C4  UNL d   1       5.999  -5.107  -0.058  0.00  0.00    -0.005 A 
ATOM      6  C5  UNL d   1       4.925  -5.994  -0.015  0.00  0.00     0.003 A 
ATOM      7  C6  UNL d   1       3.617  -5.507  -0.006  0.00  0.00    -0.001 A 
ENDROOT
TORSDOF 0
ENDMDL
