MODEL 1
REMARK minimizedAffinity 2.20657539
REMARK minimizedRMSD -1
REMARK  0 active torsions:
REMARK  status: ('A' for Active; 'I' for Inactive)
ROOT
ATOM      1  C   UNL d   1      -4.054   2.198   0.110  0.00  0.00     0.078 C 
ATOM      2  C1  UNL d   1      -3.193   1.848   1.287  0.00  0.00    -0.077 A 
ATOM      3  C2  UNL d   1      -2.987   0.513   1.658  0.00  0.00    -0.001 A 
ATOM      4  C3  UNL d   1      -2.191   0.202   2.762  0.00  0.00     0.003 A 
ATOM      5  C4  UNL d   1      -1.597   1.220   3.505  0.00  0.00    -0.005 A 
ATOM      6  C5  UNL d   1      -1.798   2.551   3.145  0.00  0.00     0.003 A 
ATOM      7  C6  UNL d   1      -2.593   2.864   2.041  0.00  0.00    -0.001 A 
ENDROOT
TORSDOF 0
ENDMDL
