MODEL 1
REMARK minimizedAffinity 6.31551266
REMARK minimizedRMSD -1
REMARK  0 active torsions:
REMARK  status: ('A' for Active; 'I' for Inactive)
ROOT
ATOM      1  C   UNL d   1       5.531  -1.194   0.786  0.00  0.00     0.078 C 
ATOM      2  C1  UNL d   1       4.372  -2.009   0.293  0.00  0.00    -0.077 A 
ATOM      3  C2  UNL d   1       3.065  -1.511   0.351  0.00  0.00    -0.001 A 
ATOM      4  C3  UNL d   1       1.995  -2.284  -0.102  0.00  0.00     0.003 A 
ATOM      5  C4  UNL d   1       2.220  -3.560  -0.614  0.00  0.00    -0.005 A 
ATOM      6  C5  UNL d   1       3.518  -4.065  -0.673  0.00  0.00     0.003 A 
ATOM      7  C6  UNL d   1       4.589  -3.293  -0.221  0.00  0.00    -0.001 A 
ENDROOT
TORSDOF 0
ENDMDL
