MODEL 1
REMARK minimizedAffinity 2.31267428
REMARK minimizedRMSD -1
REMARK  0 active torsions:
REMARK  status: ('A' for Active; 'I' for Inactive)
ROOT
ATOM      1  C   UNL d   1       5.379  -6.000   0.175  0.00  0.00     0.078 C 
ATOM      2  C1  UNL d   1       4.510  -4.778   0.198  0.00  0.00    -0.077 A 
ATOM      3  C2  UNL d   1       3.127  -4.880   0.388  0.00  0.00    -0.001 A 
ATOM      4  C3  UNL d   1       2.329  -3.735   0.397  0.00  0.00     0.003 A 
ATOM      5  C4  UNL d   1       2.905  -2.480   0.216  0.00  0.00    -0.005 A 
ATOM      6  C5  UNL d   1       4.280  -2.368   0.023  0.00  0.00     0.003 A 
ATOM      7  C6  UNL d   1       5.080  -3.512   0.014  0.00  0.00    -0.001 A 
ENDROOT
TORSDOF 0
ENDMDL
