MODEL 1
REMARK minimizedAffinity -2.25375819
REMARK minimizedRMSD -1
REMARK  0 active torsions:
REMARK  status: ('A' for Active; 'I' for Inactive)
ROOT
ATOM      1  C   UNL d   1      -5.255  -4.504   1.720  0.00  0.00     0.078 C 
ATOM      2  C1  UNL d   1      -5.312  -4.646   3.212  0.00  0.00    -0.077 A 
ATOM      3  C2  UNL d   1      -5.711  -3.577   4.023  0.00  0.00    -0.001 A 
ATOM      4  C3  UNL d   1      -5.750  -3.720   5.411  0.00  0.00     0.003 A 
ATOM      5  C4  UNL d   1      -5.389  -4.930   6.000  0.00  0.00    -0.005 A 
ATOM      6  C5  UNL d   1      -4.988  -5.999   5.201  0.00  0.00     0.003 A 
ATOM      7  C6  UNL d   1      -4.949  -5.858   3.813  0.00  0.00    -0.001 A 
ENDROOT
TORSDOF 0
ENDMDL
