MODEL 1
REMARK minimizedAffinity 10.1038265
REMARK minimizedRMSD -1
REMARK  0 active torsions:
REMARK  status: ('A' for Active; 'I' for Inactive)
ROOT
ATOM      1  C   UNL d   1       3.929   3.593  -0.521  0.00  0.00     0.078 C 
ATOM      2  C1  UNL d   1       3.452   2.552  -1.489  0.00  0.00    -0.077 A 
ATOM      3  C2  UNL d   1       4.072   1.299  -1.564  0.00  0.00    -0.001 A 
ATOM      4  C3  UNL d   1       3.623   0.343  -2.477  0.00  0.00     0.003 A 
ATOM      5  C4  UNL d   1       2.555   0.631  -3.323  0.00  0.00    -0.005 A 
ATOM      6  C5  UNL d   1       1.933   1.876  -3.258  0.00  0.00     0.003 A 
ATOM      7  C6  UNL d   1       2.380   2.833  -2.345  0.00  0.00    -0.001 A 
ENDROOT
TORSDOF 0
ENDMDL
