MODEL 1
REMARK minimizedAffinity 2.95753503
REMARK minimizedRMSD -1
REMARK  2 active torsions:
REMARK  status: ('A' for Active; 'I' for Inactive)
REMARK    1  A    between atoms: C1_2  and  C2_3 
REMARK    2  A    between atoms: C2_3  and  C3_4 
ROOT
ATOM      1  C3  UNL d   1      -3.627   0.602  -1.725  0.00  0.00    -0.075 A 
ATOM      2  C4  UNL d   1      -3.165  -0.016  -0.554  0.00  0.00     0.002 A 
ATOM      3  C5  UNL d   1      -4.066  -0.514   0.387  0.00  0.00     0.002 A 
ATOM      4  C6  UNL d   1      -5.438  -0.393   0.174  0.00  0.00    -0.004 A 
ATOM      5  C7  UNL d   1      -5.908   0.233  -0.978  0.00  0.00     0.002 A 
ATOM      6  C8  UNL d   1      -5.008   0.729  -1.923  0.00  0.00     0.002 A 
ENDROOT
BRANCH   1   7
ATOM      7  C2  UNL d   1      -2.657   1.117  -2.761  0.00  0.00     0.056 C 
BRANCH   7   8
ATOM      8  C1  UNL d   1      -1.200   1.151  -2.289  0.00  0.00     0.007 C 
ATOM      9  C   UNL d   1      -0.356   2.188  -3.019  0.00  0.00     0.009 C 
ENDBRANCH   7   8
ENDBRANCH   1   7
TORSDOF 2
ENDMDL
