MODEL 1
REMARK minimizedAffinity 2.02794456
REMARK minimizedRMSD -1
REMARK  2 active torsions:
REMARK  status: ('A' for Active; 'I' for Inactive)
REMARK    1  A    between atoms: C1_2  and  C2_3 
REMARK    2  A    between atoms: C2_3  and  C3_4 
ROOT
ATOM      1  C3  UNL d   1      -1.596  -5.540  -3.668  0.00  0.00    -0.075 A 
ATOM      2  C4  UNL d   1      -0.462  -5.093  -2.975  0.00  0.00     0.002 A 
ATOM      3  C5  UNL d   1       0.789  -5.087  -3.593  0.00  0.00     0.002 A 
ATOM      4  C6  UNL d   1       0.923  -5.536  -4.905  0.00  0.00    -0.004 A 
ATOM      5  C7  UNL d   1      -0.194  -5.997  -5.598  0.00  0.00     0.002 A 
ATOM      6  C8  UNL d   1      -1.447  -6.000  -4.983  0.00  0.00     0.002 A 
ENDROOT
BRANCH   1   7
ATOM      7  C2  UNL d   1      -2.958  -5.521  -3.015  0.00  0.00     0.056 C 
BRANCH   7   8
ATOM      8  C1  UNL d   1      -2.923  -5.239  -1.510  0.00  0.00     0.007 C 
ATOM      9  C   UNL d   1      -3.989  -6.000  -0.732  0.00  0.00     0.009 C 
ENDBRANCH   7   8
ENDBRANCH   1   7
TORSDOF 2
ENDMDL
