MODEL 1
REMARK minimizedAffinity 2.31909037
REMARK minimizedRMSD -1
REMARK  2 active torsions:
REMARK  status: ('A' for Active; 'I' for Inactive)
REMARK    1  A    between atoms: C1_2  and  C2_3 
REMARK    2  A    between atoms: C2_3  and  C3_4 
ROOT
ATOM      1  C3  UNL d   1       1.646  -0.529   1.061  0.00  0.00    -0.075 A 
ATOM      2  C4  UNL d   1       1.398  -1.836   0.618  0.00  0.00     0.002 A 
ATOM      3  C5  UNL d   1       1.421  -2.904   1.516  0.00  0.00     0.002 A 
ATOM      4  C6  UNL d   1       1.702  -2.681   2.862  0.00  0.00    -0.004 A 
ATOM      5  C7  UNL d   1       1.966  -1.388   3.310  0.00  0.00     0.002 A 
ATOM      6  C8  UNL d   1       1.939  -0.317   2.415  0.00  0.00     0.002 A 
ENDROOT
BRANCH   1   7
ATOM      7  C2  UNL d   1       1.593   0.635   0.101  0.00  0.00     0.056 C 
BRANCH   7   8
ATOM      8  C1  UNL d   1       0.272   1.411   0.133  0.00  0.00     0.007 C 
ATOM      9  C   UNL d   1       0.452   2.911  -0.061  0.00  0.00     0.009 C 
ENDBRANCH   7   8
ENDBRANCH   1   7
TORSDOF 2
ENDMDL
