MODEL 1
REMARK minimizedAffinity 3.62438369
REMARK minimizedRMSD -1
REMARK  2 active torsions:
REMARK  status: ('A' for Active; 'I' for Inactive)
REMARK    1  A    between atoms: C1_2  and  C2_3 
REMARK    2  A    between atoms: C2_3  and  C3_4 
ROOT
ATOM      1  C3  UNL d   1       1.365  -0.388   1.106  0.00  0.00    -0.075 A 
ATOM      2  C4  UNL d   1       1.898  -0.278   2.398  0.00  0.00     0.002 A 
ATOM      3  C5  UNL d   1       1.884  -1.370   3.266  0.00  0.00     0.002 A 
ATOM      4  C6  UNL d   1       1.329  -2.581   2.858  0.00  0.00    -0.004 A 
ATOM      5  C7  UNL d   1       0.782  -2.697   1.582  0.00  0.00     0.002 A 
ATOM      6  C8  UNL d   1       0.799  -1.607   0.710  0.00  0.00     0.002 A 
ENDROOT
BRANCH   1   7
ATOM      7  C2  UNL d   1       1.404   0.781   0.151  0.00  0.00     0.056 C 
BRANCH   7   8
ATOM      8  C1  UNL d   1       0.595   1.996   0.620  0.00  0.00     0.007 C 
ATOM      9  C   UNL d   1       1.256   3.325   0.279  0.00  0.00     0.009 C 
ENDBRANCH   7   8
ENDBRANCH   1   7
TORSDOF 2
ENDMDL
