MODEL 1
REMARK minimizedAffinity 0.0348662734
REMARK minimizedRMSD -1
REMARK  2 active torsions:
REMARK  status: ('A' for Active; 'I' for Inactive)
REMARK    1  A    between atoms: C1_2  and  C2_3 
REMARK    2  A    between atoms: C2_3  and  C3_4 
ROOT
ATOM      1  C3  UNL d   1      -0.003  -5.306  -2.745  0.00  0.00    -0.075 A 
ATOM      2  C4  UNL d   1       0.948  -5.306  -3.775  0.00  0.00     0.002 A 
ATOM      3  C5  UNL d   1       0.580  -5.635  -5.080  0.00  0.00     0.002 A 
ATOM      4  C6  UNL d   1      -0.739  -5.978  -5.369  0.00  0.00    -0.004 A 
ATOM      5  C7  UNL d   1      -1.689  -5.999  -4.350  0.00  0.00     0.002 A 
ATOM      6  C8  UNL d   1      -1.324  -5.665  -3.044  0.00  0.00     0.002 A 
ENDROOT
BRANCH   1   7
ATOM      7  C2  UNL d   1       0.384  -4.923  -1.336  0.00  0.00     0.056 C 
BRANCH   7   8
ATOM      8  C1  UNL d   1       0.317  -3.417  -1.060  0.00  0.00     0.007 C 
ATOM      9  C   UNL d   1       0.281  -3.080   0.425  0.00  0.00     0.009 C 
ENDBRANCH   7   8
ENDBRANCH   1   7
TORSDOF 2
ENDMDL
