MODEL 1
REMARK minimizedAffinity 1.22307599
REMARK minimizedRMSD -1
REMARK  2 active torsions:
REMARK  status: ('A' for Active; 'I' for Inactive)
REMARK    1  A    between atoms: C1_2  and  C2_3 
REMARK    2  A    between atoms: C2_3  and  C3_4 
ROOT
ATOM      1  C3  UNL d   1      -1.054  -5.962  -4.191  0.00  0.00    -0.075 A 
ATOM      2  C4  UNL d   1      -0.028  -5.946  -3.235  0.00  0.00     0.002 A 
ATOM      3  C5  UNL d   1      -0.329  -5.968  -1.873  0.00  0.00     0.002 A 
ATOM      4  C6  UNL d   1      -1.656  -5.995  -1.450  0.00  0.00    -0.004 A 
ATOM      5  C7  UNL d   1      -2.683  -5.994  -2.391  0.00  0.00     0.002 A 
ATOM      6  C8  UNL d   1      -2.385  -5.977  -3.755  0.00  0.00     0.002 A 
ENDROOT
BRANCH   1   7
ATOM      7  C2  UNL d   1      -0.734  -5.968  -5.667  0.00  0.00     0.056 C 
BRANCH   7   8
ATOM      8  C1  UNL d   1       0.766  -5.992  -5.981  0.00  0.00     0.007 C 
ATOM      9  C   UNL d   1       1.549  -4.909  -5.251  0.00  0.00     0.009 C 
ENDBRANCH   7   8
ENDBRANCH   1   7
TORSDOF 2
ENDMDL
