MODEL 1
REMARK minimizedAffinity -0.381075501
REMARK minimizedRMSD -1
REMARK  2 active torsions:
REMARK  status: ('A' for Active; 'I' for Inactive)
REMARK    1  A    between atoms: C1_2  and  C2_3 
REMARK    2  A    between atoms: C2_3  and  C3_4 
ROOT
ATOM      1  C3  UNL d   1      -1.231  -5.973  -4.296  0.00  0.00    -0.075 A 
ATOM      2  C4  UNL d   1      -0.324  -5.969  -3.226  0.00  0.00     0.002 A 
ATOM      3  C5  UNL d   1      -0.783  -5.988  -1.909  0.00  0.00     0.002 A 
ATOM      4  C6  UNL d   1      -2.151  -6.000  -1.645  0.00  0.00    -0.004 A 
ATOM      5  C7  UNL d   1      -3.061  -5.987  -2.700  0.00  0.00     0.002 A 
ATOM      6  C8  UNL d   1      -2.604  -5.973  -4.019  0.00  0.00     0.002 A 
ENDROOT
BRANCH   1   7
ATOM      7  C2  UNL d   1      -0.740  -5.982  -5.724  0.00  0.00     0.056 C 
BRANCH   7   8
ATOM      8  C1  UNL d   1       0.786  -5.991  -5.859  0.00  0.00     0.007 C 
ATOM      9  C   UNL d   1       1.463  -4.862  -5.093  0.00  0.00     0.009 C 
ENDBRANCH   7   8
ENDBRANCH   1   7
TORSDOF 2
ENDMDL
