MODEL 1
REMARK minimizedAffinity 1.05808401
REMARK minimizedRMSD -1
REMARK  2 active torsions:
REMARK  status: ('A' for Active; 'I' for Inactive)
REMARK    1  A    between atoms: C1_2  and  C2_3 
REMARK    2  A    between atoms: C2_3  and  C3_4 
ROOT
ATOM      1  C3  UNL d   1      -0.242  -5.903  -2.991  0.00  0.00    -0.075 A 
ATOM      2  C4  UNL d   1      -1.246  -5.895  -2.011  0.00  0.00     0.002 A 
ATOM      3  C5  UNL d   1      -2.592  -5.943  -2.374  0.00  0.00     0.002 A 
ATOM      4  C6  UNL d   1      -2.952  -5.988  -3.719  0.00  0.00    -0.004 A 
ATOM      5  C7  UNL d   1      -1.964  -5.980  -4.702  0.00  0.00     0.002 A 
ATOM      6  C8  UNL d   1      -0.616  -5.936  -4.341  0.00  0.00     0.002 A 
ENDROOT
BRANCH   1   7
ATOM      7  C2  UNL d   1       1.217  -5.881  -2.603  0.00  0.00     0.056 C 
BRANCH   7   8
ATOM      8  C1  UNL d   1       2.180  -5.957  -3.793  0.00  0.00     0.007 C 
ATOM      9  C   UNL d   1       1.600  -5.371  -5.073  0.00  0.00     0.009 C 
ENDBRANCH   7   8
ENDBRANCH   1   7
TORSDOF 2
ENDMDL
