MODEL 1
REMARK minimizedAffinity 7.03066111
REMARK minimizedRMSD -1
REMARK  2 active torsions:
REMARK  status: ('A' for Active; 'I' for Inactive)
REMARK    1  A    between atoms: C1_2  and  C2_3 
REMARK    2  A    between atoms: C2_3  and  C3_4 
ROOT
ATOM      1  C3  UNL d   1       0.732  -0.485   0.826  0.00  0.00    -0.075 A 
ATOM      2  C4  UNL d   1       0.334  -1.783   1.179  0.00  0.00     0.002 A 
ATOM      3  C5  UNL d   1       1.283  -2.750   1.510  0.00  0.00     0.002 A 
ATOM      4  C6  UNL d   1       2.640  -2.436   1.484  0.00  0.00    -0.004 A 
ATOM      5  C7  UNL d   1       3.048  -1.154   1.120  0.00  0.00     0.002 A 
ATOM      6  C8  UNL d   1       2.100  -0.184   0.792  0.00  0.00     0.002 A 
ENDROOT
BRANCH   1   7
ATOM      7  C2  UNL d   1      -0.292   0.574   0.495  0.00  0.00     0.056 C 
BRANCH   7   8
ATOM      8  C1  UNL d   1      -1.219   0.203  -0.668  0.00  0.00     0.007 C 
ATOM      9  C   UNL d   1      -0.770   0.787  -2.002  0.00  0.00     0.009 C 
ENDBRANCH   7   8
ENDBRANCH   1   7
TORSDOF 2
ENDMDL
