MODEL 1
REMARK minimizedAffinity 5.54497337
REMARK minimizedRMSD -1
REMARK  2 active torsions:
REMARK  status: ('A' for Active; 'I' for Inactive)
REMARK    1  A    between atoms: C1_2  and  C2_3 
REMARK    2  A    between atoms: C2_3  and  C3_4 
ROOT
ATOM      1  C3  UNL d   1      -0.822  -5.938  -3.624  0.00  0.00    -0.075 A 
ATOM      2  C4  UNL d   1      -0.960  -5.894  -5.019  0.00  0.00     0.002 A 
ATOM      3  C5  UNL d   1       0.166  -5.868  -5.842  0.00  0.00     0.002 A 
ATOM      4  C6  UNL d   1       1.442  -5.877  -5.283  0.00  0.00    -0.004 A 
ATOM      5  C7  UNL d   1       1.591  -5.904  -3.898  0.00  0.00     0.002 A 
ATOM      6  C8  UNL d   1       0.466  -5.934  -3.072  0.00  0.00     0.002 A 
ENDROOT
BRANCH   1   7
ATOM      7  C2  UNL d   1      -2.036  -5.996  -2.729  0.00  0.00     0.056 C 
BRANCH   7   8
ATOM      8  C1  UNL d   1      -3.252  -5.242  -3.278  0.00  0.00     0.007 C 
ATOM      9  C   UNL d   1      -4.562  -5.995  -3.086  0.00  0.00     0.009 C 
ENDBRANCH   7   8
ENDBRANCH   1   7
TORSDOF 2
ENDMDL
