MODEL 1
REMARK minimizedAffinity 1.50983036
REMARK minimizedRMSD -1
REMARK  2 active torsions:
REMARK  status: ('A' for Active; 'I' for Inactive)
REMARK    1  A    between atoms: C1_2  and  C2_3 
REMARK    2  A    between atoms: C2_3  and  C3_4 
ROOT
ATOM      1  C3  UNL d   1      -1.471  -5.970  -3.177  0.00  0.00    -0.075 A 
ATOM      2  C4  UNL d   1      -1.769  -5.950  -4.547  0.00  0.00     0.002 A 
ATOM      3  C5  UNL d   1      -0.745  -5.967  -5.495  0.00  0.00     0.002 A 
ATOM      4  C6  UNL d   1       0.586  -5.994  -5.086  0.00  0.00    -0.004 A 
ATOM      5  C7  UNL d   1       0.894  -5.998  -3.727  0.00  0.00     0.002 A 
ATOM      6  C8  UNL d   1      -0.128  -5.985  -2.777  0.00  0.00     0.002 A 
ENDROOT
BRANCH   1   7
ATOM      7  C2  UNL d   1      -2.575  -5.981  -2.147  0.00  0.00     0.056 C 
BRANCH   7   8
ATOM      8  C1  UNL d   1      -3.986  -5.986  -2.744  0.00  0.00     0.007 C 
ATOM      9  C   UNL d   1      -5.084  -5.947  -1.690  0.00  0.00     0.009 C 
ENDBRANCH   7   8
ENDBRANCH   1   7
TORSDOF 2
ENDMDL
