MODEL 1
REMARK minimizedAffinity 3.73495865
REMARK minimizedRMSD -1
REMARK  2 active torsions:
REMARK  status: ('A' for Active; 'I' for Inactive)
REMARK    1  A    between atoms: C1_2  and  C2_3 
REMARK    2  A    between atoms: C2_3  and  C3_4 
ROOT
ATOM      1  C3  UNL d   1      -0.823  -1.026   0.876  0.00  0.00    -0.075 A 
ATOM      2  C4  UNL d   1      -0.039  -1.932   1.604  0.00  0.00     0.002 A 
ATOM      3  C5  UNL d   1       1.263  -1.600   1.979  0.00  0.00     0.002 A 
ATOM      4  C6  UNL d   1       1.801  -0.365   1.621  0.00  0.00    -0.004 A 
ATOM      5  C7  UNL d   1       1.036   0.536   0.884  0.00  0.00     0.002 A 
ATOM      6  C8  UNL d   1      -0.269   0.208   0.512  0.00  0.00     0.002 A 
ENDROOT
BRANCH   1   7
ATOM      7  C2  UNL d   1      -2.244  -1.368   0.494  0.00  0.00     0.056 C 
BRANCH   7   8
ATOM      8  C1  UNL d   1      -3.270  -0.302   0.891  0.00  0.00     0.007 C 
ATOM      9  C   UNL d   1      -4.539  -0.347   0.051  0.00  0.00     0.009 C 
ENDBRANCH   7   8
ENDBRANCH   1   7
TORSDOF 2
ENDMDL
