MODEL 1
REMARK minimizedAffinity 3.68556476
REMARK minimizedRMSD -1
REMARK  2 active torsions:
REMARK  status: ('A' for Active; 'I' for Inactive)
REMARK    1  A    between atoms: C1_2  and  C2_3 
REMARK    2  A    between atoms: C2_3  and  C3_4 
ROOT
ATOM      1  C3  UNL d   1      -3.421  -1.081  -0.045  0.00  0.00    -0.075 A 
ATOM      2  C4  UNL d   1      -3.859  -0.061   0.812  0.00  0.00     0.002 A 
ATOM      3  C5  UNL d   1      -4.747   0.914   0.357  0.00  0.00     0.002 A 
ATOM      4  C6  UNL d   1      -5.198   0.889  -0.961  0.00  0.00    -0.004 A 
ATOM      5  C7  UNL d   1      -4.757  -0.110  -1.826  0.00  0.00     0.002 A 
ATOM      6  C8  UNL d   1      -3.873  -1.090  -1.372  0.00  0.00     0.002 A 
ENDROOT
BRANCH   1   7
ATOM      7  C2  UNL d   1      -2.484  -2.157   0.450  0.00  0.00     0.056 C 
BRANCH   7   8
ATOM      8  C1  UNL d   1      -3.142  -3.172   1.391  0.00  0.00     0.007 C 
ATOM      9  C   UNL d   1      -3.164  -4.587   0.828  0.00  0.00     0.009 C 
ENDBRANCH   7   8
ENDBRANCH   1   7
TORSDOF 2
ENDMDL
