MODEL 1
REMARK minimizedAffinity 9.61357403
REMARK minimizedRMSD -1
REMARK  1 active torsions:
REMARK  status: ('A' for Active; 'I' for Inactive)
REMARK    1  A    between atoms: C1_2  and  C2_3 
ROOT
ATOM      1  C2  UNL d   1       2.103  -4.163   0.616  0.00  0.00    -0.081 A 
ATOM      2  C3  UNL d   1       0.884  -3.525   0.359  0.00  0.00     0.006 A 
ATOM      3  C4  UNL d   1       0.761  -2.142   0.517  0.00  0.00     0.002 A 
ATOM      4  C5  UNL d   1       1.856  -1.374   0.927  0.00  0.00    -0.080 A 
ATOM      5  C6  UNL d   1       1.745   0.114   1.071  0.00  0.00     0.076 C 
ATOM      6  C7  UNL d   1       3.069  -2.014   1.201  0.00  0.00     0.002 A 
ATOM      7  C8  UNL d   1       3.193  -3.396   1.044  0.00  0.00     0.006 A 
ENDROOT
BRANCH   1   8
ATOM      8  C1  UNL d   1       2.257  -5.644   0.384  0.00  0.00     0.054 C 
ATOM      9  C   UNL d   1       3.688  -6.000   0.008  0.00  0.00     0.018 C 
ENDBRANCH   1   8
TORSDOF 1
ENDMDL
