MODEL 1
REMARK minimizedAffinity 14.2877035
REMARK minimizedRMSD -1
REMARK  1 active torsions:
REMARK  status: ('A' for Active; 'I' for Inactive)
REMARK    1  A    between atoms: C1_2  and  C2_3 
ROOT
ATOM      1  C2  UNL d   1       2.341  -1.346   2.902  0.00  0.00    -0.081 A 
ATOM      2  C3  UNL d   1       1.021  -1.215   2.452  0.00  0.00     0.006 A 
ATOM      3  C4  UNL d   1       0.688  -1.535   1.133  0.00  0.00     0.002 A 
ATOM      4  C5  UNL d   1       1.666  -1.998   0.246  0.00  0.00    -0.080 A 
ATOM      5  C6  UNL d   1       1.315  -2.373  -1.163  0.00  0.00     0.076 C 
ATOM      6  C7  UNL d   1       2.987  -2.112   0.691  0.00  0.00     0.002 A 
ATOM      7  C8  UNL d   1       3.321  -1.792   2.009  0.00  0.00     0.006 A 
ENDROOT
BRANCH   1   8
ATOM      8  C1  UNL d   1       2.691  -1.064   4.341  0.00  0.00     0.054 C 
ATOM      9  C   UNL d   1       3.612  -2.136   4.906  0.00  0.00     0.018 C 
ENDBRANCH   1   8
TORSDOF 1
ENDMDL
