MODEL 1
REMARK minimizedAffinity 10.2193928
REMARK minimizedRMSD -1
REMARK  1 active torsions:
REMARK  status: ('A' for Active; 'I' for Inactive)
REMARK    1  A    between atoms: C1_2  and  C2_3 
ROOT
ATOM      1  C2  UNL d   1       2.440  -1.926   3.099  0.00  0.00    -0.081 A 
ATOM      2  C3  UNL d   1       2.297  -0.657   2.525  0.00  0.00     0.006 A 
ATOM      3  C4  UNL d   1       1.667  -0.506   1.288  0.00  0.00     0.002 A 
ATOM      4  C5  UNL d   1       1.164  -1.619   0.607  0.00  0.00    -0.080 A 
ATOM      5  C6  UNL d   1       0.459  -1.468  -0.708  0.00  0.00     0.076 C 
ATOM      6  C7  UNL d   1       1.322  -2.889   1.172  0.00  0.00     0.002 A 
ATOM      7  C8  UNL d   1       1.952  -3.041   2.409  0.00  0.00     0.006 A 
ENDROOT
BRANCH   1   8
ATOM      8  C1  UNL d   1       3.061  -2.085   4.463  0.00  0.00     0.054 C 
ATOM      9  C   UNL d   1       4.581  -2.067   4.385  0.00  0.00     0.018 C 
ENDBRANCH   1   8
TORSDOF 1
ENDMDL
