MODEL 1
REMARK minimizedAffinity 14.0065632
REMARK minimizedRMSD -1
REMARK  1 active torsions:
REMARK  status: ('A' for Active; 'I' for Inactive)
REMARK    1  A    between atoms: C1_2  and  C2_3 
ROOT
ATOM      1  C2  UNL d   1       3.330  -1.561   2.841  0.00  0.00    -0.081 A 
ATOM      2  C3  UNL d   1       1.967  -1.387   3.109  0.00  0.00     0.006 A 
ATOM      3  C4  UNL d   1       1.031  -1.420   2.072  0.00  0.00     0.002 A 
ATOM      4  C5  UNL d   1       1.442  -1.636   0.752  0.00  0.00    -0.080 A 
ATOM      5  C6  UNL d   1       0.445  -1.704  -0.366  0.00  0.00     0.076 C 
ATOM      6  C7  UNL d   1       2.806  -1.792   0.482  0.00  0.00     0.002 A 
ATOM      7  C8  UNL d   1       3.742  -1.759   1.518  0.00  0.00     0.006 A 
ENDROOT
BRANCH   1   8
ATOM      8  C1  UNL d   1       4.334  -1.590   3.964  0.00  0.00     0.054 C 
ATOM      9  C   UNL d   1       3.977  -2.648   4.999  0.00  0.00     0.018 C 
ENDBRANCH   1   8
TORSDOF 1
ENDMDL
