MODEL 1
REMARK minimizedAffinity 11.4579
REMARK minimizedRMSD -1
REMARK  1 active torsions:
REMARK  status: ('A' for Active; 'I' for Inactive)
REMARK    1  A    between atoms: C1_2  and  C2_3 
ROOT
ATOM      1  C2  UNL d   1      -3.251  -0.558  -1.439  0.00  0.00    -0.081 A 
ATOM      2  C3  UNL d   1      -1.872  -0.398  -1.249  0.00  0.00     0.006 A 
ATOM      3  C4  UNL d   1      -1.209   0.712  -1.777  0.00  0.00     0.002 A 
ATOM      4  C5  UNL d   1      -1.913   1.685  -2.495  0.00  0.00    -0.080 A 
ATOM      5  C6  UNL d   1      -1.218   2.897  -3.041  0.00  0.00     0.076 C 
ATOM      6  C7  UNL d   1      -3.287   1.517  -2.699  0.00  0.00     0.002 A 
ATOM      7  C8  UNL d   1      -3.951   0.406  -2.172  0.00  0.00     0.006 A 
ENDROOT
BRANCH   1   8
ATOM      8  C1  UNL d   1      -3.980  -1.720  -0.816  0.00  0.00     0.054 C 
ATOM      9  C   UNL d   1      -4.887  -2.409  -1.825  0.00  0.00     0.018 C 
ENDBRANCH   1   8
TORSDOF 1
ENDMDL
