MODEL 1
REMARK minimizedAffinity 5.34197187
REMARK minimizedRMSD -1
REMARK  1 active torsions:
REMARK  status: ('A' for Active; 'I' for Inactive)
REMARK    1  A    between atoms: C1_2  and  C2_3 
ROOT
ATOM      1  C2  UNL d   1      -4.797   0.673  -3.830  0.00  0.00    -0.081 A 
ATOM      2  C3  UNL d   1      -4.565   0.469  -2.464  0.00  0.00     0.006 A 
ATOM      3  C4  UNL d   1      -3.483   1.084  -1.830  0.00  0.00     0.002 A 
ATOM      4  C5  UNL d   1      -2.621   1.919  -2.548  0.00  0.00    -0.080 A 
ATOM      5  C6  UNL d   1      -1.473   2.610  -1.873  0.00  0.00     0.076 C 
ATOM      6  C7  UNL d   1      -2.842   2.109  -3.916  0.00  0.00     0.002 A 
ATOM      7  C8  UNL d   1      -3.923   1.494  -4.551  0.00  0.00     0.006 A 
ENDROOT
BRANCH   1   8
ATOM      8  C1  UNL d   1      -6.000   0.062  -4.503  0.00  0.00     0.054 C 
ATOM      9  C   UNL d   1      -5.588  -0.876  -5.628  0.00  0.00     0.018 C 
ENDBRANCH   1   8
TORSDOF 1
ENDMDL
