MODEL 1
REMARK minimizedAffinity 2.70234966
REMARK minimizedRMSD -1
REMARK  1 active torsions:
REMARK  status: ('A' for Active; 'I' for Inactive)
REMARK    1  A    between atoms: C1_2  and  C2_3 
ROOT
ATOM      1  C2  UNL d   1       1.775  -2.647   1.656  0.00  0.00    -0.081 A 
ATOM      2  C3  UNL d   1       1.141  -3.830   1.256  0.00  0.00     0.006 A 
ATOM      3  C4  UNL d   1       1.891  -4.911   0.786  0.00  0.00     0.002 A 
ATOM      4  C5  UNL d   1       3.285  -4.830   0.714  0.00  0.00    -0.080 A 
ATOM      5  C6  UNL d   1       4.104  -5.994   0.240  0.00  0.00     0.076 C 
ATOM      6  C7  UNL d   1       3.917  -3.642   1.097  0.00  0.00     0.002 A 
ATOM      7  C8  UNL d   1       3.169  -2.561   1.567  0.00  0.00     0.006 A 
ENDROOT
BRANCH   1   8
ATOM      8  C1  UNL d   1       0.975  -1.503   2.225  0.00  0.00     0.054 C 
ATOM      9  C   UNL d   1      -0.422  -1.953   2.631  0.00  0.00     0.018 C 
ENDBRANCH   1   8
TORSDOF 1
ENDMDL
