MODEL 1
REMARK minimizedAffinity 3.03545356
REMARK minimizedRMSD -1
REMARK  1 active torsions:
REMARK  status: ('A' for Active; 'I' for Inactive)
REMARK    1  A    between atoms: C1_2  and  C2_3 
ROOT
ATOM      1  C2  UNL d   1       2.653  -2.498   0.452  0.00  0.00    -0.081 A 
ATOM      2  C3  UNL d   1       1.906  -1.555   1.169  0.00  0.00     0.006 A 
ATOM      3  C4  UNL d   1       0.717  -1.045   0.642  0.00  0.00     0.002 A 
ATOM      4  C5  UNL d   1       0.251  -1.476  -0.605  0.00  0.00    -0.080 A 
ATOM      5  C6  UNL d   1      -1.040  -0.959  -1.168  0.00  0.00     0.076 C 
ATOM      6  C7  UNL d   1       1.006  -2.405  -1.328  0.00  0.00     0.002 A 
ATOM      7  C8  UNL d   1       2.195  -2.914  -0.803  0.00  0.00     0.006 A 
ENDROOT
BRANCH   1   8
ATOM      8  C1  UNL d   1       3.902  -3.097   1.046  0.00  0.00     0.054 C 
ATOM      9  C   UNL d   1       5.085  -2.961   0.099  0.00  0.00     0.018 C 
ENDBRANCH   1   8
TORSDOF 1
ENDMDL
