MODEL 1
REMARK minimizedAffinity -1.52508676
REMARK minimizedRMSD -1
REMARK  0 active torsions:
REMARK  status: ('A' for Active; 'I' for Inactive)
ROOT
ATOM      1  C   UNL d   1       1.191   2.418  -0.525  0.00  0.00     0.023 A 
ATOM      2  C1  UNL d   1      -0.042   1.862  -0.181  0.00  0.00     0.003 A 
ATOM      3  C2  UNL d   1      -0.096   0.737   0.645  0.00  0.00     0.048 A 
ATOM      4  C3  UNL d   1       1.087   0.175   1.125  0.00  0.00     0.023 A 
ATOM      5  C4  UNL d   1       2.322   0.728   0.784  0.00  0.00     0.048 A 
ATOM      6  C5  UNL d   1       2.371   1.852  -0.043  0.00  0.00     0.003 A 
ATOM      7  I   UNL d   1       1.009  -1.499   2.355  0.00  0.00    -0.146 I 
ENDROOT
TORSDOF 0
ENDMDL
