MODEL 1
REMARK minimizedAffinity -0.107799247
REMARK minimizedRMSD -1
REMARK  0 active torsions:
REMARK  status: ('A' for Active; 'I' for Inactive)
ROOT
ATOM      1  C   UNL d   1       1.075   0.000   1.166  0.00  0.00     0.023 A 
ATOM      2  C1  UNL d   1       0.390  -1.214   1.120  0.00  0.00     0.003 A 
ATOM      3  C2  UNL d   1       0.451  -2.094   2.203  0.00  0.00     0.048 A 
ATOM      4  C3  UNL d   1       1.199  -1.753   3.329  0.00  0.00     0.023 A 
ATOM      5  C4  UNL d   1       1.886  -0.539   3.380  0.00  0.00     0.048 A 
ATOM      6  C5  UNL d   1       1.822   0.338   2.295  0.00  0.00     0.003 A 
ATOM      7  I   UNL d   1       1.292  -3.061   4.942  0.00  0.00    -0.146 I 
ENDROOT
TORSDOF 0
ENDMDL
