MODEL 1
REMARK minimizedAffinity 0.915882349
REMARK minimizedRMSD -1
REMARK  0 active torsions:
REMARK  status: ('A' for Active; 'I' for Inactive)
ROOT
ATOM      1  C   UNL d   1       0.966  -0.388   1.529  0.00  0.00     0.023 A 
ATOM      2  C1  UNL d   1       2.272   0.031   1.787  0.00  0.00     0.003 A 
ATOM      3  C2  UNL d   1       3.106  -0.741   2.599  0.00  0.00     0.048 A 
ATOM      4  C3  UNL d   1       2.629  -1.931   3.148  0.00  0.00     0.023 A 
ATOM      5  C4  UNL d   1       1.324  -2.354   2.892  0.00  0.00     0.048 A 
ATOM      6  C5  UNL d   1       0.493  -1.579   2.081  0.00  0.00     0.003 A 
ATOM      7  I   UNL d   1       3.870  -3.081   4.355  0.00  0.00    -0.146 I 
ENDROOT
TORSDOF 0
ENDMDL
