MODEL 1
REMARK minimizedAffinity 8.09671593
REMARK minimizedRMSD -1
REMARK  0 active torsions:
REMARK  status: ('A' for Active; 'I' for Inactive)
ROOT
ATOM      1  C   UNL d   1       0.932  -3.198  -1.946  0.00  0.00     0.023 A 
ATOM      2  C1  UNL d   1       2.177  -2.571  -2.008  0.00  0.00     0.003 A 
ATOM      3  C2  UNL d   1       2.535  -1.630  -1.041  0.00  0.00     0.048 A 
ATOM      4  C3  UNL d   1       1.644  -1.321  -0.013  0.00  0.00     0.023 A 
ATOM      5  C4  UNL d   1       0.398  -1.946   0.053  0.00  0.00     0.048 A 
ATOM      6  C5  UNL d   1       0.044  -2.886  -0.917  0.00  0.00     0.003 A 
ATOM      7  I   UNL d   1       2.175   0.079   1.428  0.00  0.00    -0.146 I 
ENDROOT
TORSDOF 0
ENDMDL
