MODEL 1
REMARK minimizedAffinity 7.42119312
REMARK minimizedRMSD -1
REMARK  0 active torsions:
REMARK  status: ('A' for Active; 'I' for Inactive)
ROOT
ATOM      1  C   UNL d   1       1.398  -1.505   3.142  0.00  0.00     0.023 A 
ATOM      2  C1  UNL d   1       1.260  -0.690   2.018  0.00  0.00     0.003 A 
ATOM      3  C2  UNL d   1       1.058  -1.262   0.760  0.00  0.00     0.048 A 
ATOM      4  C3  UNL d   1       0.994  -2.649   0.633  0.00  0.00     0.023 A 
ATOM      5  C4  UNL d   1       1.131  -3.468   1.755  0.00  0.00     0.048 A 
ATOM      6  C5  UNL d   1       1.333  -2.892   3.010  0.00  0.00     0.003 A 
ATOM      7  I   UNL d   1       0.694  -3.503  -1.238  0.00  0.00    -0.146 I 
ENDROOT
TORSDOF 0
ENDMDL
