MODEL 1
REMARK minimizedAffinity 5.72121429
REMARK minimizedRMSD -1
REMARK  0 active torsions:
REMARK  status: ('A' for Active; 'I' for Inactive)
ROOT
ATOM      1  C   UNL d   1       1.621  -1.510   3.215  0.00  0.00     0.023 A 
ATOM      2  C1  UNL d   1       1.528  -0.665   2.109  0.00  0.00     0.003 A 
ATOM      3  C2  UNL d   1       1.518  -1.199   0.819  0.00  0.00     0.048 A 
ATOM      4  C3  UNL d   1       1.602  -2.580   0.642  0.00  0.00     0.023 A 
ATOM      5  C4  UNL d   1       1.695  -3.430   1.745  0.00  0.00     0.048 A 
ATOM      6  C5  UNL d   1       1.705  -2.891   3.033  0.00  0.00     0.003 A 
ATOM      7  I   UNL d   1       1.588  -3.377  -1.278  0.00  0.00    -0.146 I 
ENDROOT
TORSDOF 0
ENDMDL
