MODEL 1
REMARK minimizedAffinity 7.40860891
REMARK minimizedRMSD -1
REMARK  0 active torsions:
REMARK  status: ('A' for Active; 'I' for Inactive)
ROOT
ATOM      1  C   UNL d   1      -5.613   0.647   0.687  0.00  0.00     0.023 A 
ATOM      2  C1  UNL d   1      -5.879   1.116  -0.600  0.00  0.00     0.003 A 
ATOM      3  C2  UNL d   1      -5.990   2.488  -0.835  0.00  0.00     0.048 A 
ATOM      4  C3  UNL d   1      -5.834   3.385   0.220  0.00  0.00     0.023 A 
ATOM      5  C4  UNL d   1      -5.567   2.921   1.509  0.00  0.00     0.048 A 
ATOM      6  C5  UNL d   1      -5.457   1.548   1.740  0.00  0.00     0.003 A 
ATOM      7  I   UNL d   1      -5.999   5.428  -0.128  0.00  0.00    -0.146 I 
ENDROOT
TORSDOF 0
ENDMDL
