MODEL 1
REMARK minimizedAffinity 2.0685823
REMARK minimizedRMSD -1
REMARK  0 active torsions:
REMARK  status: ('A' for Active; 'I' for Inactive)
ROOT
ATOM      1  C   UNL d   1      -5.137   3.627   1.390  0.00  0.00     0.023 A 
ATOM      2  C1  UNL d   1      -5.996   3.987   0.351  0.00  0.00     0.003 A 
ATOM      3  C2  UNL d   1      -5.799   3.469  -0.930  0.00  0.00     0.048 A 
ATOM      4  C3  UNL d   1      -4.741   2.591  -1.166  0.00  0.00     0.023 A 
ATOM      5  C4  UNL d   1      -3.880   2.228  -0.130  0.00  0.00     0.048 A 
ATOM      6  C5  UNL d   1      -4.080   2.749   1.149  0.00  0.00     0.003 A 
ATOM      7  I   UNL d   1      -4.447   1.818  -3.073  0.00  0.00    -0.146 I 
ENDROOT
TORSDOF 0
ENDMDL
