MODEL 1
REMARK minimizedAffinity 1.04909337
REMARK minimizedRMSD -1
REMARK  0 active torsions:
REMARK  status: ('A' for Active; 'I' for Inactive)
ROOT
ATOM      1  C   UNL d   1       2.736   2.531   2.107  0.00  0.00     0.023 A 
ATOM      2  C1  UNL d   1       2.271   2.228   3.387  0.00  0.00     0.003 A 
ATOM      3  C2  UNL d   1       2.008   0.903   3.740  0.00  0.00     0.048 A 
ATOM      4  C3  UNL d   1       2.212  -0.114   2.809  0.00  0.00     0.023 A 
ATOM      5  C4  UNL d   1       2.677   0.184   1.527  0.00  0.00     0.048 A 
ATOM      6  C5  UNL d   1       2.939   1.510   1.178  0.00  0.00     0.003 A 
ATOM      7  I   UNL d   1       1.820  -2.087   3.332  0.00  0.00    -0.146 I 
ENDROOT
TORSDOF 0
ENDMDL
