MODEL 1
REMARK minimizedAffinity 9.90859985
REMARK minimizedRMSD -1
REMARK  2 active torsions:
REMARK  status: ('A' for Active; 'I' for Inactive)
REMARK    1  A    between atoms: C2'_3  and  C1'_4 
REMARK    2  A    between atoms: C1'_4  and  C1_5 
ROOT
ATOM      1  C1  I4B d   1       0.112   3.141  -0.172  0.00  0.00    -0.075 A 
ATOM      2  C2  I4B d   1      -0.482   2.357   0.786  0.00  0.00     0.003 A 
ATOM      3  C3  I4B d   1       0.019   2.348   2.110  0.00  0.00     0.002 A 
ATOM      4  C4  I4B d   1       1.138   3.094   2.418  0.00  0.00    -0.004 A 
ATOM      5  C5  I4B d   1       1.724   3.906   1.452  0.00  0.00     0.002 A 
ATOM      6  C6  I4B d   1       1.201   3.939   0.151  0.00  0.00     0.003 A 
ENDROOT
BRANCH   1   7
ATOM      7  C1' I4B d   1      -0.423   3.101  -1.569  0.00  0.00     0.060 C 
BRANCH   7   8
ATOM      8  C2' I4B d   1      -1.515   4.145  -1.681  0.00  0.00    -0.013 C 
ATOM      9  C4' I4B d   1      -1.211   5.136  -2.773  0.00  0.00     0.013 C 
ATOM     10  C3' I4B d   1      -2.810   3.435  -1.939  0.00  0.00     0.013 C 
ENDBRANCH   7   8
ENDBRANCH   1   7
TORSDOF 2
ENDMDL
