MODEL 1
REMARK minimizedAffinity 5.90044594
REMARK minimizedRMSD -1
REMARK  2 active torsions:
REMARK  status: ('A' for Active; 'I' for Inactive)
REMARK    1  A    between atoms: C2'_3  and  C1'_4 
REMARK    2  A    between atoms: C1'_4  and  C1_5 
ROOT
ATOM      1  C1  I4B d   1      -4.770   3.421  -3.229  0.00  0.00    -0.075 A 
ATOM      2  C2  I4B d   1      -3.687   3.906  -3.919  0.00  0.00     0.003 A 
ATOM      3  C3  I4B d   1      -3.753   4.071  -5.324  0.00  0.00     0.002 A 
ATOM      4  C4  I4B d   1      -4.895   3.694  -6.000  0.00  0.00    -0.004 A 
ATOM      5  C5  I4B d   1      -6.000   3.224  -5.296  0.00  0.00     0.002 A 
ATOM      6  C6  I4B d   1      -5.942   3.098  -3.901  0.00  0.00     0.003 A 
ENDROOT
BRANCH   1   7
ATOM      7  C1' I4B d   1      -4.655   3.229  -1.750  0.00  0.00     0.060 C 
BRANCH   7   8
ATOM      8  C2' I4B d   1      -4.606   1.739  -1.476  0.00  0.00    -0.013 C 
ATOM      9  C4' I4B d   1      -3.665   1.425  -0.343  0.00  0.00     0.013 C 
ATOM     10  C3' I4B d   1      -5.999   1.279  -1.166  0.00  0.00     0.013 C 
ENDBRANCH   7   8
ENDBRANCH   1   7
TORSDOF 2
ENDMDL
