MODEL 1
REMARK minimizedAffinity 3.30815887
REMARK minimizedRMSD -1
REMARK  2 active torsions:
REMARK  status: ('A' for Active; 'I' for Inactive)
REMARK    1  A    between atoms: C2'_3  and  C1'_4 
REMARK    2  A    between atoms: C1'_4  and  C1_5 
ROOT
ATOM      1  C1  I4B d   1       0.345   3.827   1.647  0.00  0.00    -0.075 A 
ATOM      2  C2  I4B d   1      -0.798   4.510   1.314  0.00  0.00     0.003 A 
ATOM      3  C3  I4B d   1      -0.774   5.480   0.283  0.00  0.00     0.002 A 
ATOM      4  C4  I4B d   1       0.417   5.770  -0.350  0.00  0.00    -0.004 A 
ATOM      5  C5  I4B d   1       1.570   5.061  -0.027  0.00  0.00     0.002 A 
ATOM      6  C6  I4B d   1       1.532   4.074   0.969  0.00  0.00     0.003 A 
ENDROOT
BRANCH   1   7
ATOM      7  C1' I4B d   1       0.292   2.832   2.763  0.00  0.00     0.060 C 
BRANCH   7   8
ATOM      8  C2' I4B d   1       0.159   1.452   2.152  0.00  0.00    -0.013 C 
ATOM      9  C4' I4B d   1       0.659   1.434   0.731  0.00  0.00     0.013 C 
ATOM     10  C3' I4B d   1       0.926   0.490   3.009  0.00  0.00     0.013 C 
ENDBRANCH   7   8
ENDBRANCH   1   7
TORSDOF 2
ENDMDL
