MODEL 1
REMARK minimizedAffinity 6.67614651
REMARK minimizedRMSD -1
REMARK  2 active torsions:
REMARK  status: ('A' for Active; 'I' for Inactive)
REMARK    1  A    between atoms: C2'_3  and  C1'_4 
REMARK    2  A    between atoms: C1'_4  and  C1_5 
ROOT
ATOM      1  C1  I4B d   1      -4.587   2.368  -2.832  0.00  0.00    -0.075 A 
ATOM      2  C2  I4B d   1      -5.839   2.125  -2.325  0.00  0.00     0.003 A 
ATOM      3  C3  I4B d   1      -5.989   1.475  -1.076  0.00  0.00     0.002 A 
ATOM      4  C4  I4B d   1      -4.868   1.044  -0.395  0.00  0.00    -0.004 A 
ATOM      5  C5  I4B d   1      -3.599   1.312  -0.900  0.00  0.00     0.002 A 
ATOM      6  C6  I4B d   1      -3.456   1.989  -2.119  0.00  0.00     0.003 A 
ENDROOT
BRANCH   1   7
ATOM      7  C1' I4B d   1      -4.466   3.027  -4.169  0.00  0.00     0.060 C 
BRANCH   7   8
ATOM      8  C2' I4B d   1      -5.805   3.653  -4.504  0.00  0.00    -0.013 C 
ATOM      9  C4' I4B d   1      -5.988   4.964  -3.785  0.00  0.00     0.013 C 
ATOM     10  C3' I4B d   1      -5.871   3.837  -5.991  0.00  0.00     0.013 C 
ENDBRANCH   7   8
ENDBRANCH   1   7
TORSDOF 2
ENDMDL
