MODEL 1
REMARK minimizedAffinity 7.06668186
REMARK minimizedRMSD -1
REMARK  2 active torsions:
REMARK  status: ('A' for Active; 'I' for Inactive)
REMARK    1  A    between atoms: C2'_3  and  C1'_4 
REMARK    2  A    between atoms: C1'_4  and  C1_5 
ROOT
ATOM      1  C1  I4B d   1       1.410   1.450   2.560  0.00  0.00    -0.075 A 
ATOM      2  C2  I4B d   1       0.707   1.516   3.737  0.00  0.00     0.003 A 
ATOM      3  C3  I4B d   1       0.633   0.386   4.588  0.00  0.00     0.002 A 
ATOM      4  C4  I4B d   1       1.231  -0.796   4.202  0.00  0.00    -0.004 A 
ATOM      5  C5  I4B d   1       1.963  -0.854   3.019  0.00  0.00     0.002 A 
ATOM      6  C6  I4B d   1       2.064   0.279   2.199  0.00  0.00     0.003 A 
ENDROOT
BRANCH   1   7
ATOM      7  C1' I4B d   1       1.439   2.651   1.670  0.00  0.00     0.060 C 
BRANCH   7   8
ATOM      8  C2' I4B d   1       0.169   2.652   0.844  0.00  0.00    -0.013 C 
ATOM      9  C4' I4B d   1      -0.351   4.051   0.644  0.00  0.00     0.013 C 
ATOM     10  C3' I4B d   1       0.470   1.993  -0.469  0.00  0.00     0.013 C 
ENDBRANCH   7   8
ENDBRANCH   1   7
TORSDOF 2
ENDMDL
