MODEL 1
REMARK minimizedAffinity 8.98345852
REMARK minimizedRMSD -1
REMARK  2 active torsions:
REMARK  status: ('A' for Active; 'I' for Inactive)
REMARK    1  A    between atoms: C2'_3  and  C1'_4 
REMARK    2  A    between atoms: C1'_4  and  C1_5 
ROOT
ATOM      1  C1  I4B d   1       0.451   2.385   1.202  0.00  0.00    -0.075 A 
ATOM      2  C2  I4B d   1      -0.797   2.676   1.696  0.00  0.00     0.003 A 
ATOM      3  C3  I4B d   1      -1.037   2.640   3.091  0.00  0.00     0.002 A 
ATOM      4  C4  I4B d   1      -0.022   2.263   3.946  0.00  0.00    -0.004 A 
ATOM      5  C5  I4B d   1       1.248   1.992   3.446  0.00  0.00     0.002 A 
ATOM      6  C6  I4B d   1       1.490   2.065   2.066  0.00  0.00     0.003 A 
ENDROOT
BRANCH   1   7
ATOM      7  C1' I4B d   1       0.661   2.400  -0.279  0.00  0.00     0.060 C 
BRANCH   7   8
ATOM      8  C2' I4B d   1      -0.186   1.298  -0.881  0.00  0.00    -0.013 C 
ATOM      9  C4' I4B d   1      -1.495   1.836  -1.396  0.00  0.00     0.013 C 
ATOM     10  C3' I4B d   1       0.606   0.655  -1.981  0.00  0.00     0.013 C 
ENDBRANCH   7   8
ENDBRANCH   1   7
TORSDOF 2
ENDMDL
