MODEL 1
REMARK minimizedAffinity 7.2904644
REMARK minimizedRMSD -1
REMARK  2 active torsions:
REMARK  status: ('A' for Active; 'I' for Inactive)
REMARK    1  A    between atoms: C2'_3  and  C1'_4 
REMARK    2  A    between atoms: C1'_4  and  C1_5 
ROOT
ATOM      1  C1  I4B d   1      -5.345   2.120  -1.945  0.00  0.00    -0.075 A 
ATOM      2  C2  I4B d   1      -4.396   1.732  -2.858  0.00  0.00     0.003 A 
ATOM      3  C3  I4B d   1      -4.084   2.565  -3.960  0.00  0.00     0.002 A 
ATOM      4  C4  I4B d   1      -4.777   3.746  -4.137  0.00  0.00    -0.004 A 
ATOM      5  C5  I4B d   1      -5.723   4.148  -3.198  0.00  0.00     0.002 A 
ATOM      6  C6  I4B d   1      -6.000   3.336  -2.088  0.00  0.00     0.003 A 
ENDROOT
BRANCH   1   7
ATOM      7  C1' I4B d   1      -5.672   1.201  -0.811  0.00  0.00     0.060 C 
BRANCH   7   8
ATOM      8  C2' I4B d   1      -4.473   1.154   0.113  0.00  0.00    -0.013 C 
ATOM      9  C4' I4B d   1      -4.895   1.224   1.557  0.00  0.00     0.013 C 
ATOM     10  C3' I4B d   1      -3.719  -0.111  -0.170  0.00  0.00     0.013 C 
ENDBRANCH   7   8
ENDBRANCH   1   7
TORSDOF 2
ENDMDL
