MODEL 1
REMARK minimizedAffinity 3.47280383
REMARK minimizedRMSD -1
REMARK  1 active torsions:
REMARK  status: ('A' for Active; 'I' for Inactive)
REMARK    1  A    between atoms: N_2  and  C1_3 
ROOT
ATOM      1  C1  UNL d   1      -3.563   1.523   4.425  0.00  0.00     0.143 A 
ATOM      2  C2  UNL d   1      -4.735   1.327   3.687  0.00  0.00    -0.057 A 
ATOM      3  C3  UNL d   1      -5.939   1.935   4.063  0.00  0.00     0.033 A 
ATOM      4  C4  UNL d   1      -5.999   2.729   5.203  0.00  0.00    -0.042 A 
ATOM      5  C5  UNL d   1      -4.852   2.918   5.965  0.00  0.00     0.033 A 
ATOM      6  C6  UNL d   1      -3.650   2.314   5.582  0.00  0.00    -0.057 A 
ENDROOT
BRANCH   1   7
ATOM      7  N   UNL d   1      -2.358   0.868   4.160  0.00  0.00    -0.732 N 
ATOM      8  C   UNL d   1      -2.180   0.120   2.933  0.00  0.00     0.284 C 
ATOM      9  H3  UNL d   1      -1.547   1.420   4.431  0.00  0.00     0.395 HD
ENDBRANCH   1   7
TORSDOF 1
ENDMDL
