MODEL 1
REMARK minimizedAffinity 6.03999138
REMARK minimizedRMSD -1
REMARK  1 active torsions:
REMARK  status: ('A' for Active; 'I' for Inactive)
REMARK    1  A    between atoms: N_2  and  C1_3 
ROOT
ATOM      1  C1  UNL d   1      -0.539  -2.118   2.053  0.00  0.00     0.143 A 
ATOM      2  C2  UNL d   1      -1.582  -2.918   1.575  0.00  0.00    -0.057 A 
ATOM      3  C3  UNL d   1      -2.842  -2.376   1.292  0.00  0.00     0.033 A 
ATOM      4  C4  UNL d   1      -3.090  -1.025   1.512  0.00  0.00    -0.042 A 
ATOM      5  C5  UNL d   1      -2.075  -0.216   2.011  0.00  0.00     0.033 A 
ATOM      6  C6  UNL d   1      -0.817  -0.761   2.285  0.00  0.00    -0.057 A 
ENDROOT
BRANCH   1   7
ATOM      7  N   UNL d   1       0.706  -2.615   2.446  0.00  0.00    -0.732 N 
ATOM      8  C   UNL d   1       1.340  -3.684   1.704  0.00  0.00     0.284 C 
ATOM      9  H3  UNL d   1       1.343  -1.879   2.741  0.00  0.00     0.395 HD
ENDBRANCH   1   7
TORSDOF 1
ENDMDL
