MODEL 1
REMARK minimizedAffinity 6.74611855
REMARK minimizedRMSD -1
REMARK  1 active torsions:
REMARK  status: ('A' for Active; 'I' for Inactive)
REMARK    1  A    between atoms: N_2  and  C1_3 
ROOT
ATOM      1  C1  UNL d   1      -3.950   1.896   5.331  0.00  0.00     0.143 A 
ATOM      2  C2  UNL d   1      -2.987   1.121   5.987  0.00  0.00    -0.057 A 
ATOM      3  C3  UNL d   1      -2.012   0.416   5.272  0.00  0.00     0.033 A 
ATOM      4  C4  UNL d   1      -2.000   0.450   3.881  0.00  0.00    -0.042 A 
ATOM      5  C5  UNL d   1      -2.962   1.194   3.207  0.00  0.00     0.033 A 
ATOM      6  C6  UNL d   1      -3.929   1.901   3.928  0.00  0.00    -0.057 A 
ENDROOT
BRANCH   1   7
ATOM      7  N   UNL d   1      -5.005   2.541   5.982  0.00  0.00    -0.732 N 
ATOM      8  C   UNL d   1      -5.092   3.985   5.992  0.00  0.00     0.284 C 
ATOM      9  H3  UNL d   1      -5.896   2.072   5.835  0.00  0.00     0.395 HD
ENDBRANCH   1   7
TORSDOF 1
ENDMDL
