MODEL 1
REMARK minimizedAffinity 9.45713615
REMARK minimizedRMSD -1
REMARK  1 active torsions:
REMARK  status: ('A' for Active; 'I' for Inactive)
REMARK    1  A    between atoms: N_2  and  C1_3 
ROOT
ATOM      1  C1  UNL d   1      -3.250   1.356   4.254  0.00  0.00     0.143 A 
ATOM      2  C2  UNL d   1      -2.273   0.749   5.049  0.00  0.00    -0.057 A 
ATOM      3  C3  UNL d   1      -1.289  -0.074   4.489  0.00  0.00     0.033 A 
ATOM      4  C4  UNL d   1      -1.282  -0.329   3.121  0.00  0.00    -0.042 A 
ATOM      5  C5  UNL d   1      -2.259   0.244   2.315  0.00  0.00     0.033 A 
ATOM      6  C6  UNL d   1      -3.235   1.070   2.879  0.00  0.00    -0.057 A 
ENDROOT
BRANCH   1   7
ATOM      7  N   UNL d   1      -4.314   2.105   4.763  0.00  0.00    -0.732 N 
ATOM      8  C   UNL d   1      -5.675   1.817   4.366  0.00  0.00     0.284 C 
ATOM      9  H3  UNL d   1      -4.204   2.310   5.754  0.00  0.00     0.395 HD
ENDBRANCH   1   7
TORSDOF 1
ENDMDL
