MODEL 1
REMARK minimizedAffinity 10.8891459
REMARK minimizedRMSD -1
REMARK  1 active torsions:
REMARK  status: ('A' for Active; 'I' for Inactive)
REMARK    1  A    between atoms: N_2  and  C1_3 
ROOT
ATOM      1  C1  UNL d   1       0.243  -4.992  -3.591  0.00  0.00     0.143 A 
ATOM      2  C2  UNL d   1      -0.467  -5.693  -4.571  0.00  0.00    -0.057 A 
ATOM      3  C3  UNL d   1      -1.827  -5.987  -4.413  0.00  0.00     0.033 A 
ATOM      4  C4  UNL d   1      -2.496  -5.609  -3.253  0.00  0.00    -0.042 A 
ATOM      5  C5  UNL d   1      -1.804  -4.933  -2.254  0.00  0.00     0.033 A 
ATOM      6  C6  UNL d   1      -0.448  -4.637  -2.422  0.00  0.00    -0.057 A 
ENDROOT
BRANCH   1   7
ATOM      7  N   UNL d   1       1.618  -4.756  -3.646  0.00  0.00    -0.732 N 
ATOM      8  C   UNL d   1       2.557  -5.856  -3.614  0.00  0.00     0.284 C 
ATOM      9  H3  UNL d   1       1.860  -4.022  -4.308  0.00  0.00     0.395 HD
ENDBRANCH   1   7
TORSDOF 1
ENDMDL
