MODEL 1
REMARK minimizedAffinity 4.7865324
REMARK minimizedRMSD -1
REMARK  1 active torsions:
REMARK  status: ('A' for Active; 'I' for Inactive)
REMARK    1  A    between atoms: N_2  and  C1_3 
ROOT
ATOM      1  C1  UNL d   1       3.285  -4.786  -0.082  0.00  0.00     0.143 A 
ATOM      2  C2  UNL d   1       3.938  -3.619  -0.491  0.00  0.00    -0.057 A 
ATOM      3  C3  UNL d   1       5.277  -3.640  -0.900  0.00  0.00     0.033 A 
ATOM      4  C4  UNL d   1       5.998  -4.829  -0.879  0.00  0.00    -0.042 A 
ATOM      5  C5  UNL d   1       5.377  -5.998  -0.452  0.00  0.00     0.033 A 
ATOM      6  C6  UNL d   1       4.038  -5.971  -0.051  0.00  0.00    -0.057 A 
ENDROOT
BRANCH   1   7
ATOM      7  N   UNL d   1       1.986  -4.813   0.430  0.00  0.00    -0.732 N 
ATOM      8  C   UNL d   1       1.584  -3.890   1.470  0.00  0.00     0.284 C 
ATOM      9  H3  UNL d   1       1.286  -4.953  -0.295  0.00  0.00     0.395 HD
ENDBRANCH   1   7
TORSDOF 1
ENDMDL
