MODEL 1
REMARK minimizedAffinity 8.76456165
REMARK minimizedRMSD -1
REMARK  1 active torsions:
REMARK  status: ('A' for Active; 'I' for Inactive)
REMARK    1  A    between atoms: N_2  and  C1_3 
ROOT
ATOM      1  C1  UNL d   1      -1.786   0.625   3.403  0.00  0.00     0.143 A 
ATOM      2  C2  UNL d   1      -2.912   1.398   3.101  0.00  0.00    -0.057 A 
ATOM      3  C3  UNL d   1      -3.636   2.050   4.107  0.00  0.00     0.033 A 
ATOM      4  C4  UNL d   1      -3.262   1.915   5.440  0.00  0.00    -0.042 A 
ATOM      5  C5  UNL d   1      -2.161   1.130   5.766  0.00  0.00     0.033 A 
ATOM      6  C6  UNL d   1      -1.438   0.488   4.756  0.00  0.00    -0.057 A 
ENDROOT
BRANCH   1   7
ATOM      7  N   UNL d   1      -1.083  -0.127   2.458  0.00  0.00    -0.732 N 
ATOM      8  C   UNL d   1      -1.720  -1.233   1.775  0.00  0.00     0.284 C 
ATOM      9  H3  UNL d   1      -0.499   0.451   1.859  0.00  0.00     0.395 HD
ENDBRANCH   1   7
TORSDOF 1
ENDMDL
