MODEL 1
REMARK minimizedAffinity 9.93093967
REMARK minimizedRMSD -1
REMARK  1 active torsions:
REMARK  status: ('A' for Active; 'I' for Inactive)
REMARK    1  A    between atoms: N_2  and  C1_3 
ROOT
ATOM      1  C1  UNL d   1      -1.480   0.240   3.156  0.00  0.00     0.143 A 
ATOM      2  C2  UNL d   1      -0.158  -0.068   2.817  0.00  0.00    -0.057 A 
ATOM      3  C3  UNL d   1       0.136  -1.019   1.833  0.00  0.00     0.033 A 
ATOM      4  C4  UNL d   1      -0.889  -1.703   1.189  0.00  0.00    -0.042 A 
ATOM      5  C5  UNL d   1      -2.210  -1.431   1.527  0.00  0.00     0.033 A 
ATOM      6  C6  UNL d   1      -2.498  -0.476   2.507  0.00  0.00    -0.057 A 
ENDROOT
BRANCH   1   7
ATOM      7  N   UNL d   1      -1.836   1.104   4.195  0.00  0.00    -0.732 N 
ATOM      8  C   UNL d   1      -2.987   1.971   4.071  0.00  0.00     0.284 C 
ATOM      9  H3  UNL d   1      -1.738   0.671   5.111  0.00  0.00     0.395 HD
ENDBRANCH   1   7
TORSDOF 1
ENDMDL
