MODEL 1
REMARK minimizedAffinity 5.96797466
REMARK minimizedRMSD -1
REMARK  1 active torsions:
REMARK  status: ('A' for Active; 'I' for Inactive)
REMARK    1  A    between atoms: N_2  and  C1_3 
ROOT
ATOM      1  C1  UNL d   1      -3.231   1.377   4.269  0.00  0.00     0.143 A 
ATOM      2  C2  UNL d   1      -3.869   0.978   3.090  0.00  0.00    -0.057 A 
ATOM      3  C3  UNL d   1      -5.238   1.200   2.894  0.00  0.00     0.033 A 
ATOM      4  C4  UNL d   1      -6.000   1.802   3.890  0.00  0.00    -0.042 A 
ATOM      5  C5  UNL d   1      -5.391   2.184   5.080  0.00  0.00     0.033 A 
ATOM      6  C6  UNL d   1      -4.023   1.965   5.267  0.00  0.00    -0.057 A 
ENDROOT
BRANCH   1   7
ATOM      7  N   UNL d   1      -1.894   1.095   4.563  0.00  0.00    -0.732 N 
ATOM      8  C   UNL d   1      -1.540   0.386   5.774  0.00  0.00     0.284 C 
ATOM      9  H3  UNL d   1      -1.369   0.804   3.742  0.00  0.00     0.395 HD
ENDBRANCH   1   7
TORSDOF 1
ENDMDL
