MODEL 1
REMARK minimizedAffinity 6.73171043
REMARK minimizedRMSD -1
REMARK  1 active torsions:
REMARK  status: ('A' for Active; 'I' for Inactive)
REMARK    1  A    between atoms: N_2  and  C1_3 
ROOT
ATOM      1  C1  UNL d   1       0.086  -5.252  -4.128  0.00  0.00     0.143 A 
ATOM      2  C2  UNL d   1      -0.781  -4.898  -3.089  0.00  0.00    -0.057 A 
ATOM      3  C3  UNL d   1      -2.161  -5.114  -3.188  0.00  0.00     0.033 A 
ATOM      4  C4  UNL d   1      -2.703  -5.663  -4.346  0.00  0.00    -0.042 A 
ATOM      5  C5  UNL d   1      -1.863  -6.000  -5.402  0.00  0.00     0.033 A 
ATOM      6  C6  UNL d   1      -0.486  -5.788  -5.293  0.00  0.00    -0.057 A 
ENDROOT
BRANCH   1   7
ATOM      7  N   UNL d   1       1.455  -4.973  -4.129  0.00  0.00    -0.732 N 
ATOM      8  C   UNL d   1       2.416  -5.999  -4.470  0.00  0.00     0.284 C 
ATOM      9  H3  UNL d   1       1.664  -4.059  -4.525  0.00  0.00     0.395 HD
ENDBRANCH   1   7
TORSDOF 1
ENDMDL
