MODEL 1
REMARK minimizedAffinity 17.3328876
REMARK minimizedRMSD -1
REMARK  1 active torsions:
REMARK  status: ('A' for Active; 'I' for Inactive)
REMARK    1  A    between atoms: N_2  and  C1_3 
ROOT
ATOM      1  C1  UNL d   1      -3.769   1.972   5.044  0.00  0.00     0.143 A 
ATOM      2  C2  UNL d   1      -2.896   1.179   5.797  0.00  0.00    -0.057 A 
ATOM      3  C3  UNL d   1      -1.891   0.421   5.183  0.00  0.00     0.033 A 
ATOM      4  C4  UNL d   1      -1.760   0.420   3.798  0.00  0.00    -0.042 A 
ATOM      5  C5  UNL d   1      -2.632   1.181   3.028  0.00  0.00     0.033 A 
ATOM      6  C6  UNL d   1      -3.629   1.942   3.647  0.00  0.00    -0.057 A 
ENDROOT
BRANCH   1   7
ATOM      7  N   UNL d   1      -4.850   2.671   5.587  0.00  0.00    -0.732 N 
ATOM      8  C   UNL d   1      -4.718   4.066   5.950  0.00  0.00     0.284 C 
ATOM      9  H3  UNL d   1      -5.729   2.441   5.130  0.00  0.00     0.395 HD
ENDBRANCH   1   7
TORSDOF 1
ENDMDL
