MODEL 1
REMARK minimizedAffinity 2.92454481
REMARK minimizedRMSD -1
REMARK  1 active torsions:
REMARK  status: ('A' for Active; 'I' for Inactive)
REMARK    1  A    between atoms: N_2  and  C1_3 
ROOT
ATOM      1  C1  UNL d   1      -2.129  -5.664  -3.513  0.00  0.00     0.143 A 
ATOM      2  C2  UNL d   1      -1.526  -5.149  -2.360  0.00  0.00    -0.057 A 
ATOM      3  C3  UNL d   1      -0.145  -4.927  -2.300  0.00  0.00     0.033 A 
ATOM      4  C4  UNL d   1       0.664  -5.244  -3.386  0.00  0.00    -0.042 A 
ATOM      5  C5  UNL d   1       0.090  -5.780  -4.534  0.00  0.00     0.033 A 
ATOM      6  C6  UNL d   1      -1.291  -5.993  -4.590  0.00  0.00    -0.057 A 
ENDROOT
BRANCH   1   7
ATOM      7  N   UNL d   1      -3.482  -5.999  -3.599  0.00  0.00    -0.732 N 
ATOM      8  C   UNL d   1      -4.173  -5.954  -4.870  0.00  0.00     0.284 C 
ATOM      9  H3  UNL d   1      -3.720  -6.805  -3.025  0.00  0.00     0.395 HD
ENDBRANCH   1   7
TORSDOF 1
ENDMDL
