MODEL 1
REMARK minimizedAffinity 6.91219139
REMARK minimizedRMSD -1
REMARK  1 active torsions:
REMARK  status: ('A' for Active; 'I' for Inactive)
REMARK    1  A    between atoms: N_2  and  C1_3 
ROOT
ATOM      1  C1  UNL d   1       0.426  -0.455   3.327  0.00  0.00     0.143 A 
ATOM      2  C2  UNL d   1      -0.072  -0.791   2.063  0.00  0.00    -0.057 A 
ATOM      3  C3  UNL d   1      -1.324  -0.338   1.632  0.00  0.00     0.033 A 
ATOM      4  C4  UNL d   1      -2.116   0.439   2.471  0.00  0.00    -0.042 A 
ATOM      5  C5  UNL d   1      -1.653   0.765   3.741  0.00  0.00     0.033 A 
ATOM      6  C6  UNL d   1      -0.398   0.314   4.163  0.00  0.00    -0.057 A 
ENDROOT
BRANCH   1   7
ATOM      7  N   UNL d   1       1.620  -0.956   3.851  0.00  0.00    -0.732 N 
ATOM      8  C   UNL d   1       2.406  -1.917   3.107  0.00  0.00     0.284 C 
ATOM      9  H3  UNL d   1       2.171  -0.239   4.316  0.00  0.00     0.395 HD
ENDBRANCH   1   7
TORSDOF 1
ENDMDL
