MODEL 1
REMARK minimizedAffinity 11.7548962
REMARK minimizedRMSD -1
REMARK  1 active torsions:
REMARK  status: ('A' for Active; 'I' for Inactive)
REMARK    1  A    between atoms: N_2  and  C1_3 
ROOT
ATOM      1  C1  UNL d   1      -3.416   0.199   2.202  0.00  0.00     0.143 A 
ATOM      2  C2  UNL d   1      -2.392  -0.478   1.531  0.00  0.00    -0.057 A 
ATOM      3  C3  UNL d   1      -1.094  -0.534   2.053  0.00  0.00     0.033 A 
ATOM      4  C4  UNL d   1      -0.790   0.112   3.247  0.00  0.00    -0.042 A 
ATOM      5  C5  UNL d   1      -1.786   0.811   3.919  0.00  0.00     0.033 A 
ATOM      6  C6  UNL d   1      -3.081   0.858   3.396  0.00  0.00    -0.057 A 
ENDROOT
BRANCH   1   7
ATOM      7  N   UNL d   1      -4.702   0.374   1.686  0.00  0.00    -0.732 N 
ATOM      8  C   UNL d   1      -4.927   1.237   0.546  0.00  0.00     0.284 C 
ATOM      9  H3  UNL d   1      -5.232  -0.494   1.661  0.00  0.00     0.395 HD
ENDBRANCH   1   7
TORSDOF 1
ENDMDL
