MODEL 1
REMARK minimizedAffinity 1.44424129
REMARK minimizedRMSD -1
REMARK  1 active torsions:
REMARK  status: ('A' for Active; 'I' for Inactive)
REMARK    1  A    between atoms: C1_2  and  C2_3 
ROOT
ATOM      1  C2  UNL d   1       3.644  -5.400   2.312  0.00  0.00    -0.077 A 
ATOM      2  C3  UNL d   1       3.639  -5.975   3.591  0.00  0.00     0.002 A 
ATOM      3  C4  UNL d   1       4.805  -6.000   4.358  0.00  0.00     0.002 A 
ATOM      4  C5  UNL d   1       5.982  -5.448   3.858  0.00  0.00    -0.004 A 
ATOM      5  C6  UNL d   1       5.998  -4.876   2.587  0.00  0.00     0.002 A 
ATOM      6  C7  UNL d   1       4.834  -4.851   1.818  0.00  0.00     0.002 A 
ENDROOT
BRANCH   1   7
ATOM      7  C1  UNL d   1       2.376  -5.328   1.502  0.00  0.00     0.055 C 
ATOM      8  C   UNL d   1       1.148  -5.269   2.400  0.00  0.00     0.019 C 
ENDBRANCH   1   7
TORSDOF 1
ENDMDL
