MODEL 1
REMARK minimizedAffinity 6.83295345
REMARK minimizedRMSD -1
REMARK  1 active torsions:
REMARK  status: ('A' for Active; 'I' for Inactive)
REMARK    1  A    between atoms: C1_2  and  C2_3 
ROOT
ATOM      1  C2  UNL d   1      -3.691  -4.465  -5.944  0.00  0.00    -0.077 A 
ATOM      2  C3  UNL d   1      -4.607  -3.404  -5.951  0.00  0.00     0.002 A 
ATOM      3  C4  UNL d   1      -4.157  -2.082  -5.954  0.00  0.00     0.002 A 
ATOM      4  C5  UNL d   1      -2.791  -1.809  -5.954  0.00  0.00    -0.004 A 
ATOM      5  C6  UNL d   1      -1.872  -2.858  -5.945  0.00  0.00     0.002 A 
ATOM      6  C7  UNL d   1      -2.320  -4.179  -5.941  0.00  0.00     0.002 A 
ENDROOT
BRANCH   1   7
ATOM      7  C1  UNL d   1      -4.174  -5.891  -5.991  0.00  0.00     0.055 C 
ATOM      8  C   UNL d   1      -5.686  -5.968  -5.842  0.00  0.00     0.019 C 
ENDBRANCH   1   7
TORSDOF 1
ENDMDL
