MODEL 1
REMARK minimizedAffinity 2.97493267
REMARK minimizedRMSD -1
REMARK  1 active torsions:
REMARK  status: ('A' for Active; 'I' for Inactive)
REMARK    1  A    between atoms: C1_2  and  C2_3 
ROOT
ATOM      1  C2  UNL d   1      -2.873  -3.091  -5.961  0.00  0.00    -0.077 A 
ATOM      2  C3  UNL d   1      -1.595  -3.667  -5.974  0.00  0.00     0.002 A 
ATOM      3  C4  UNL d   1      -1.447  -5.056  -5.984  0.00  0.00     0.002 A 
ATOM      4  C5  UNL d   1      -2.571  -5.878  -5.987  0.00  0.00    -0.004 A 
ATOM      5  C6  UNL d   1      -3.846  -5.315  -5.972  0.00  0.00     0.002 A 
ATOM      6  C7  UNL d   1      -3.997  -3.927  -5.960  0.00  0.00     0.002 A 
ENDROOT
BRANCH   1   7
ATOM      7  C1  UNL d   1      -3.036  -1.594  -5.999  0.00  0.00     0.055 C 
ATOM      8  C   UNL d   1      -4.504  -1.196  -5.997  0.00  0.00     0.019 C 
ENDBRANCH   1   7
TORSDOF 1
ENDMDL
