MODEL 1
REMARK minimizedAffinity 1.29282212
REMARK minimizedRMSD -1
REMARK  1 active torsions:
REMARK  status: ('A' for Active; 'I' for Inactive)
REMARK    1  A    between atoms: C1_2  and  C2_3 
ROOT
ATOM      1  C2  UNL d   1      -1.396   0.949   2.470  0.00  0.00    -0.077 A 
ATOM      2  C3  UNL d   1      -2.385   1.729   3.087  0.00  0.00     0.002 A 
ATOM      3  C4  UNL d   1      -3.615   1.934   2.460  0.00  0.00     0.002 A 
ATOM      4  C5  UNL d   1      -3.870   1.360   1.216  0.00  0.00    -0.004 A 
ATOM      5  C6  UNL d   1      -2.893   0.584   0.594  0.00  0.00     0.002 A 
ATOM      6  C7  UNL d   1      -1.662   0.379   1.219  0.00  0.00     0.002 A 
ENDROOT
BRANCH   1   7
ATOM      7  C1  UNL d   1      -0.087   0.685   3.167  0.00  0.00     0.055 C 
ATOM      8  C   UNL d   1       0.133  -0.804   3.388  0.00  0.00     0.019 C 
ENDBRANCH   1   7
TORSDOF 1
ENDMDL
