MODEL 1
REMARK minimizedAffinity 6.38568783
REMARK minimizedRMSD -1
REMARK  1 active torsions:
REMARK  status: ('A' for Active; 'I' for Inactive)
REMARK    1  A    between atoms: C1_2  and  C2_3 
ROOT
ATOM      1  C2  UNL d   1      -3.827   0.350   3.430  0.00  0.00    -0.077 A 
ATOM      2  C3  UNL d   1      -2.488  -0.046   3.559  0.00  0.00     0.002 A 
ATOM      3  C4  UNL d   1      -1.625   0.016   2.463  0.00  0.00     0.002 A 
ATOM      4  C5  UNL d   1      -2.089   0.477   1.233  0.00  0.00    -0.004 A 
ATOM      5  C6  UNL d   1      -3.420   0.871   1.094  0.00  0.00     0.002 A 
ATOM      6  C7  UNL d   1      -4.284   0.809   2.188  0.00  0.00     0.002 A 
ENDROOT
BRANCH   1   7
ATOM      7  C1  UNL d   1      -4.747   0.330   4.623  0.00  0.00     0.055 C 
ATOM      8  C   UNL d   1      -4.366  -0.775   5.597  0.00  0.00     0.019 C 
ENDBRANCH   1   7
TORSDOF 1
ENDMDL
