MODEL 1
REMARK minimizedAffinity 9.34541035
REMARK minimizedRMSD -1
REMARK  1 active torsions:
REMARK  status: ('A' for Active; 'I' for Inactive)
REMARK    1  A    between atoms: C1_2  and  C2_3 
ROOT
ATOM      1  C2  UNL d   1      -3.555  -1.075   0.397  0.00  0.00    -0.077 A 
ATOM      2  C3  UNL d   1      -4.239   0.101   0.057  0.00  0.00     0.002 A 
ATOM      3  C4  UNL d   1      -3.780   1.340   0.507  0.00  0.00     0.002 A 
ATOM      4  C5  UNL d   1      -2.633   1.416   1.294  0.00  0.00    -0.004 A 
ATOM      5  C6  UNL d   1      -1.947   0.252   1.639  0.00  0.00     0.002 A 
ATOM      6  C7  UNL d   1      -2.406  -0.988   1.192  0.00  0.00     0.002 A 
ENDROOT
BRANCH   1   7
ATOM      7  C1  UNL d   1      -4.021  -2.408  -0.128  0.00  0.00     0.055 C 
ATOM      8  C   UNL d   1      -2.946  -3.473   0.033  0.00  0.00     0.019 C 
ENDBRANCH   1   7
TORSDOF 1
ENDMDL
