MODEL 1
REMARK minimizedAffinity 2.27658582
REMARK minimizedRMSD -1
REMARK  1 active torsions:
REMARK  status: ('A' for Active; 'I' for Inactive)
REMARK    1  A    between atoms: C1_2  and  C2_3 
ROOT
ATOM      1  C2  UNL d   1      -0.358  -5.272   1.070  0.00  0.00    -0.077 A 
ATOM      2  C3  UNL d   1      -0.405  -3.871   1.048  0.00  0.00     0.002 A 
ATOM      3  C4  UNL d   1      -1.601  -3.210   0.760  0.00  0.00     0.002 A 
ATOM      4  C5  UNL d   1      -2.757  -3.940   0.497  0.00  0.00    -0.004 A 
ATOM      5  C6  UNL d   1      -2.720  -5.334   0.515  0.00  0.00     0.002 A 
ATOM      6  C7  UNL d   1      -1.526  -5.997   0.801  0.00  0.00     0.002 A 
ENDROOT
BRANCH   1   7
ATOM      7  C1  UNL d   1       0.919  -5.987   1.429  0.00  0.00     0.055 C 
ATOM      8  C   UNL d   1       1.681  -5.246   2.518  0.00  0.00     0.019 C 
ENDBRANCH   1   7
TORSDOF 1
ENDMDL
