MODEL 1
REMARK minimizedAffinity 2.26358533
REMARK minimizedRMSD -1
REMARK  1 active torsions:
REMARK  status: ('A' for Active; 'I' for Inactive)
REMARK    1  A    between atoms: C1_2  and  C2_3 
ROOT
ATOM      1  C2  UNL d   1      -1.725   0.613   2.090  0.00  0.00    -0.077 A 
ATOM      2  C3  UNL d   1      -2.388   0.322   3.291  0.00  0.00     0.002 A 
ATOM      3  C4  UNL d   1      -3.758   0.053   3.295  0.00  0.00     0.002 A 
ATOM      4  C5  UNL d   1      -4.476   0.068   2.100  0.00  0.00    -0.004 A 
ATOM      5  C6  UNL d   1      -3.826   0.358   0.901  0.00  0.00     0.002 A 
ATOM      6  C7  UNL d   1      -2.457   0.628   0.896  0.00  0.00     0.002 A 
ENDROOT
BRANCH   1   7
ATOM      7  C1  UNL d   1      -0.238   0.855   2.078  0.00  0.00     0.055 C 
ATOM      8  C   UNL d   1       0.446   0.153   3.242  0.00  0.00     0.019 C 
ENDBRANCH   1   7
TORSDOF 1
ENDMDL
