MODEL 1
REMARK minimizedAffinity 3.37662816
REMARK minimizedRMSD -1
REMARK  1 active torsions:
REMARK  status: ('A' for Active; 'I' for Inactive)
REMARK    1  A    between atoms: C1_2  and  C2_3 
ROOT
ATOM      1  C2  UNL d   1       3.148  -5.965   2.441  0.00  0.00    -0.077 A 
ATOM      2  C3  UNL d   1       3.787  -5.984   1.193  0.00  0.00     0.002 A 
ATOM      3  C4  UNL d   1       5.181  -5.999   1.114  0.00  0.00     0.002 A 
ATOM      4  C5  UNL d   1       5.947  -6.000   2.278  0.00  0.00    -0.004 A 
ATOM      5  C6  UNL d   1       5.320  -5.979   3.524  0.00  0.00     0.002 A 
ATOM      6  C7  UNL d   1       3.927  -5.962   3.605  0.00  0.00     0.002 A 
ENDROOT
BRANCH   1   7
ATOM      7  C1  UNL d   1       1.644  -5.998   2.529  0.00  0.00     0.055 C 
ATOM      8  C   UNL d   1       1.009  -5.990   1.146  0.00  0.00     0.019 C 
ENDBRANCH   1   7
TORSDOF 1
ENDMDL
