MODEL 1
REMARK minimizedAffinity 1.23034191
REMARK minimizedRMSD -1
REMARK  1 active torsions:
REMARK  status: ('A' for Active; 'I' for Inactive)
REMARK    1  A    between atoms: C1_2  and  C2_3 
ROOT
ATOM      1  C2  UNL d   1      -0.159  -5.533   1.212  0.00  0.00    -0.077 A 
ATOM      2  C3  UNL d   1      -0.345  -4.593   0.189  0.00  0.00     0.002 A 
ATOM      3  C4  UNL d   1      -1.625  -4.130  -0.120  0.00  0.00     0.002 A 
ATOM      4  C5  UNL d   1      -2.728  -4.598   0.592  0.00  0.00    -0.004 A 
ATOM      5  C6  UNL d   1      -2.553  -5.535   1.609  0.00  0.00     0.002 A 
ATOM      6  C7  UNL d   1      -1.274  -6.000   1.919  0.00  0.00     0.002 A 
ENDROOT
BRANCH   1   7
ATOM      7  C1  UNL d   1       1.227  -5.997   1.580  0.00  0.00     0.055 C 
ATOM      8  C   UNL d   1       1.447  -5.944   3.085  0.00  0.00     0.019 C 
ENDBRANCH   1   7
TORSDOF 1
ENDMDL
