MODEL 1
REMARK minimizedAffinity -1.00673366
REMARK minimizedRMSD -1
REMARK  1 active torsions:
REMARK  status: ('A' for Active; 'I' for Inactive)
REMARK    1  A    between atoms: C1_2  and  C2_3 
ROOT
ATOM      1  C2  UNL d   1       2.338   0.160   2.170  0.00  0.00    -0.077 A 
ATOM      2  C3  UNL d   1       1.773   0.488   0.929  0.00  0.00     0.002 A 
ATOM      3  C4  UNL d   1       2.563   0.507  -0.222  0.00  0.00     0.002 A 
ATOM      4  C5  UNL d   1       3.918   0.196  -0.145  0.00  0.00    -0.004 A 
ATOM      5  C6  UNL d   1       4.489  -0.129   1.085  0.00  0.00     0.002 A 
ATOM      6  C7  UNL d   1       3.703  -0.148   2.237  0.00  0.00     0.002 A 
ENDROOT
BRANCH   1   7
ATOM      7  C1  UNL d   1       1.478   0.090   3.405  0.00  0.00     0.055 C 
ATOM      8  C   UNL d   1       0.443   1.205   3.423  0.00  0.00     0.019 C 
ENDBRANCH   1   7
TORSDOF 1
ENDMDL
