MODEL 1
REMARK minimizedAffinity 5.70530605
REMARK minimizedRMSD -1
REMARK  1 active torsions:
REMARK  status: ('A' for Active; 'I' for Inactive)
REMARK    1  A    between atoms: C1_2  and  C2_3 
ROOT
ATOM      1  C2  UNL d   1      -3.833   0.868   2.556  0.00  0.00    -0.077 A 
ATOM      2  C3  UNL d   1      -2.457   1.131   2.599  0.00  0.00     0.002 A 
ATOM      3  C4  UNL d   1      -1.622   0.692   1.569  0.00  0.00     0.002 A 
ATOM      4  C5  UNL d   1      -2.155  -0.008   0.489  0.00  0.00    -0.004 A 
ATOM      5  C6  UNL d   1      -3.522  -0.276   0.438  0.00  0.00     0.002 A 
ATOM      6  C7  UNL d   1      -4.358   0.161   1.467  0.00  0.00     0.002 A 
ENDROOT
BRANCH   1   7
ATOM      7  C1  UNL d   1      -4.743   1.384   3.641  0.00  0.00     0.055 C 
ATOM      8  C   UNL d   1      -4.789   0.428   4.825  0.00  0.00     0.019 C 
ENDBRANCH   1   7
TORSDOF 1
ENDMDL
