MODEL 1
REMARK minimizedAffinity 2.24013472
REMARK minimizedRMSD -1
REMARK  1 active torsions:
REMARK  status: ('A' for Active; 'I' for Inactive)
REMARK    1  A    between atoms: C1_2  and  C2_3 
ROOT
ATOM      1  C2  UNL d   1      -1.969   1.023   1.696  0.00  0.00    -0.077 A 
ATOM      2  C3  UNL d   1      -0.993   0.114   2.128  0.00  0.00     0.002 A 
ATOM      3  C4  UNL d   1      -0.062   0.486   3.100  0.00  0.00     0.002 A 
ATOM      4  C5  UNL d   1      -0.100   1.766   3.650  0.00  0.00    -0.004 A 
ATOM      5  C6  UNL d   1      -1.065   2.678   3.224  0.00  0.00     0.002 A 
ATOM      6  C7  UNL d   1      -1.996   2.308   2.253  0.00  0.00     0.002 A 
ENDROOT
BRANCH   1   7
ATOM      7  C1  UNL d   1      -3.005   0.608   0.684  0.00  0.00     0.055 C 
ATOM      8  C   UNL d   1      -3.476  -0.818   0.928  0.00  0.00     0.019 C 
ENDBRANCH   1   7
TORSDOF 1
ENDMDL
