MODEL 1
REMARK minimizedAffinity 2.41220284
REMARK minimizedRMSD -1
REMARK  1 active torsions:
REMARK  status: ('A' for Active; 'I' for Inactive)
REMARK    1  A    between atoms: C1_2  and  C2_3 
ROOT
ATOM      1  C2  UNL d   1       3.352  -5.257   1.939  0.00  0.00    -0.077 A 
ATOM      2  C3  UNL d   1       3.743  -5.995   3.065  0.00  0.00     0.002 A 
ATOM      3  C4  UNL d   1       5.061  -5.939   3.523  0.00  0.00     0.002 A 
ATOM      4  C5  UNL d   1       5.997  -5.145   2.865  0.00  0.00    -0.004 A 
ATOM      5  C6  UNL d   1       5.618  -4.409   1.742  0.00  0.00     0.002 A 
ATOM      6  C7  UNL d   1       4.302  -4.464   1.282  0.00  0.00     0.002 A 
ENDROOT
BRANCH   1   7
ATOM      7  C1  UNL d   1       1.920  -5.276   1.472  0.00  0.00     0.055 C 
ATOM      8  C   UNL d   1       0.958  -5.055   2.630  0.00  0.00     0.019 C 
ENDBRANCH   1   7
TORSDOF 1
ENDMDL
