MODEL 1
REMARK minimizedAffinity 0.908486605
REMARK minimizedRMSD -1
REMARK  1 active torsions:
REMARK  status: ('A' for Active; 'I' for Inactive)
REMARK    1  A    between atoms: C1_2  and  C2_3 
ROOT
ATOM      1  C2  UNL d   1      -3.700   0.422   3.554  0.00  0.00    -0.077 A 
ATOM      2  C3  UNL d   1      -4.117   0.330   2.219  0.00  0.00     0.002 A 
ATOM      3  C4  UNL d   1      -3.188   0.418   1.181  0.00  0.00     0.002 A 
ATOM      4  C5  UNL d   1      -1.836   0.595   1.467  0.00  0.00    -0.004 A 
ATOM      5  C6  UNL d   1      -1.411   0.690   2.791  0.00  0.00     0.002 A 
ATOM      6  C7  UNL d   1      -2.338   0.603   3.830  0.00  0.00     0.002 A 
ENDROOT
BRANCH   1   7
ATOM      7  C1  UNL d   1      -4.694   0.278   4.677  0.00  0.00     0.055 C 
ATOM      8  C   UNL d   1      -5.676   1.441   4.700  0.00  0.00     0.019 C 
ENDBRANCH   1   7
TORSDOF 1
ENDMDL
