MODEL 1
REMARK minimizedAffinity 2.53379869
REMARK minimizedRMSD -1
REMARK  0 active torsions:
REMARK  status: ('A' for Active; 'I' for Inactive)
ROOT
ATOM      1  C   UNL d   1      -0.447  -0.230  -5.617  0.00  0.00     0.023 A 
ATOM      2  C1  UNL d   1      -0.139  -1.538  -5.242  0.00  0.00     0.003 A 
ATOM      3  C2  UNL d   1      -0.306  -1.944  -3.917  0.00  0.00     0.048 A 
ATOM      4  C3  UNL d   1      -0.784  -1.037  -2.971  0.00  0.00     0.023 A 
ATOM      5  C4  UNL d   1      -1.095   0.272  -3.341  0.00  0.00     0.048 A 
ATOM      6  C5  UNL d   1      -0.925   0.674  -4.667  0.00  0.00     0.003 A 
ATOM      7  I   UNL d   1      -1.034  -1.640  -0.998  0.00  0.00    -0.146 I 
ENDROOT
TORSDOF 0
ENDMDL
