MODEL 1
REMARK minimizedAffinity -1.95131648
REMARK minimizedRMSD -1
REMARK  0 active torsions:
REMARK  status: ('A' for Active; 'I' for Inactive)
ROOT
ATOM      1  C   UNL d   1      -1.730   0.404  -4.238  0.00  0.00     0.023 A 
ATOM      2  C1  UNL d   1      -1.409   0.336  -5.593  0.00  0.00     0.003 A 
ATOM      3  C2  UNL d   1      -0.072   0.272  -5.993  0.00  0.00     0.048 A 
ATOM      4  C3  UNL d   1       0.938   0.276  -5.032  0.00  0.00     0.023 A 
ATOM      5  C4  UNL d   1       0.621   0.343  -3.674  0.00  0.00     0.048 A 
ATOM      6  C5  UNL d   1      -0.717   0.408  -3.279  0.00  0.00     0.003 A 
ATOM      7  I   UNL d   1       2.928   0.181  -5.624  0.00  0.00    -0.146 I 
ENDROOT
TORSDOF 0
ENDMDL
