MODEL 1
REMARK minimizedAffinity -2.11934042
REMARK minimizedRMSD -1
REMARK  0 active torsions:
REMARK  status: ('A' for Active; 'I' for Inactive)
ROOT
ATOM      1  C   UNL d   1      -3.421   0.351   2.298  0.00  0.00     0.023 A 
ATOM      2  C1  UNL d   1      -3.821   0.436   0.965  0.00  0.00     0.003 A 
ATOM      3  C2  UNL d   1      -3.004  -0.076  -0.045  0.00  0.00     0.048 A 
ATOM      4  C3  UNL d   1      -1.787  -0.672   0.286  0.00  0.00     0.023 A 
ATOM      5  C4  UNL d   1      -1.383  -0.760   1.619  0.00  0.00     0.048 A 
ATOM      6  C5  UNL d   1      -2.204  -0.247   2.625  0.00  0.00     0.003 A 
ATOM      7  I   UNL d   1      -0.569  -1.434  -1.215  0.00  0.00    -0.146 I 
ENDROOT
TORSDOF 0
ENDMDL
