MODEL 1
REMARK minimizedAffinity -0.360255629
REMARK minimizedRMSD -1
REMARK  0 active torsions:
REMARK  status: ('A' for Active; 'I' for Inactive)
ROOT
ATOM      1  C   UNL d   1      -1.684  -0.322   1.745  0.00  0.00     0.023 A 
ATOM      2  C1  UNL d   1      -2.109  -0.796   0.504  0.00  0.00     0.003 A 
ATOM      3  C2  UNL d   1      -3.347  -0.403  -0.008  0.00  0.00     0.048 A 
ATOM      4  C3  UNL d   1      -4.155   0.465   0.726  0.00  0.00     0.023 A 
ATOM      5  C4  UNL d   1      -3.734   0.942   1.968  0.00  0.00     0.048 A 
ATOM      6  C5  UNL d   1      -2.495   0.546   2.476  0.00  0.00     0.003 A 
ATOM      7  I   UNL d   1      -5.999   1.050  -0.035  0.00  0.00    -0.146 I 
ENDROOT
TORSDOF 0
ENDMDL
