MODEL 1
REMARK minimizedAffinity 2.68648386
REMARK minimizedRMSD -1
REMARK  0 active torsions:
REMARK  status: ('A' for Active; 'I' for Inactive)
ROOT
ATOM      1  C   UNL d   1      -3.137   1.147   2.637  0.00  0.00     0.023 A 
ATOM      2  C1  UNL d   1      -1.986   0.446   2.997  0.00  0.00     0.003 A 
ATOM      3  C2  UNL d   1      -1.479  -0.545   2.154  0.00  0.00     0.048 A 
ATOM      4  C3  UNL d   1      -2.128  -0.830   0.953  0.00  0.00     0.023 A 
ATOM      5  C4  UNL d   1      -3.280  -0.131   0.589  0.00  0.00     0.048 A 
ATOM      6  C5  UNL d   1      -3.783   0.859   1.435  0.00  0.00     0.003 A 
ATOM      7  I   UNL d   1      -1.375  -2.305  -0.303  0.00  0.00    -0.146 I 
ENDROOT
TORSDOF 0
ENDMDL
