MODEL 1
REMARK minimizedAffinity 1.3530401
REMARK minimizedRMSD -1
REMARK  0 active torsions:
REMARK  status: ('A' for Active; 'I' for Inactive)
ROOT
ATOM      1  C   UNL d   1      -0.884   0.112  -5.998  0.00  0.00     0.023 A 
ATOM      2  C1  UNL d   1      -0.420  -1.203  -6.000  0.00  0.00     0.003 A 
ATOM      3  C2  UNL d   1      -0.222  -1.877  -4.793  0.00  0.00     0.048 A 
ATOM      4  C3  UNL d   1      -0.491  -1.229  -3.588  0.00  0.00     0.023 A 
ATOM      5  C4  UNL d   1      -0.955   0.087  -3.581  0.00  0.00     0.048 A 
ATOM      6  C5  UNL d   1      -1.151   0.757  -4.790  0.00  0.00     0.003 A 
ATOM      7  I   UNL d   1      -0.197  -2.230  -1.790  0.00  0.00    -0.146 I 
ENDROOT
TORSDOF 0
ENDMDL
