MODEL 1
REMARK minimizedAffinity -0.502267897
REMARK minimizedRMSD -1
REMARK  0 active torsions:
REMARK  status: ('A' for Active; 'I' for Inactive)
ROOT
ATOM      1  C   UNL d   1      -1.396  -0.367   1.551  0.00  0.00     0.023 A 
ATOM      2  C1  UNL d   1      -2.093   0.540   2.349  0.00  0.00     0.003 A 
ATOM      3  C2  UNL d   1      -3.381   0.942   1.990  0.00  0.00     0.048 A 
ATOM      4  C3  UNL d   1      -3.967   0.430   0.833  0.00  0.00     0.023 A 
ATOM      5  C4  UNL d   1      -3.274  -0.478   0.032  0.00  0.00     0.048 A 
ATOM      6  C5  UNL d   1      -1.985  -0.876   0.394  0.00  0.00     0.003 A 
ATOM      7  I   UNL d   1      -5.885   1.026   0.297  0.00  0.00    -0.146 I 
ENDROOT
TORSDOF 0
ENDMDL
