MODEL 1
REMARK minimizedAffinity 7.47060013
REMARK minimizedRMSD -1
REMARK  0 active torsions:
REMARK  status: ('A' for Active; 'I' for Inactive)
ROOT
ATOM      1  C   UNL d   1       1.579  -1.386   3.567  0.00  0.00     0.023 A 
ATOM      2  C1  UNL d   1       0.623  -2.074   2.820  0.00  0.00     0.003 A 
ATOM      3  C2  UNL d   1      -0.577  -1.449   2.474  0.00  0.00     0.048 A 
ATOM      4  C3  UNL d   1      -0.813  -0.136   2.877  0.00  0.00     0.023 A 
ATOM      5  C4  UNL d   1       0.141   0.557   3.624  0.00  0.00     0.048 A 
ATOM      6  C5  UNL d   1       1.339  -0.072   3.968  0.00  0.00     0.003 A 
ATOM      7  I   UNL d   1      -2.599   0.797   2.363  0.00  0.00    -0.146 I 
ENDROOT
TORSDOF 0
ENDMDL
