MODEL 1
REMARK minimizedAffinity -3.87789226
REMARK minimizedRMSD -1
REMARK  0 active torsions:
REMARK  status: ('A' for Active; 'I' for Inactive)
ROOT
ATOM      1  C   UNL d   1      -3.474   0.607   1.539  0.00  0.00     0.023 A 
ATOM      2  C1  UNL d   1      -2.297   0.118   2.106  0.00  0.00     0.003 A 
ATOM      3  C2  UNL d   1      -1.433  -0.675   1.348  0.00  0.00     0.048 A 
ATOM      4  C3  UNL d   1      -1.751  -0.974   0.024  0.00  0.00     0.023 A 
ATOM      5  C4  UNL d   1      -2.928  -0.486  -0.548  0.00  0.00     0.048 A 
ATOM      6  C5  UNL d   1      -3.789   0.306   0.214  0.00  0.00     0.003 A 
ATOM      7  I   UNL d   1      -0.466  -2.153  -1.106  0.00  0.00    -0.146 I 
ENDROOT
TORSDOF 0
ENDMDL
