MODEL 1
REMARK minimizedAffinity -2.09493947
REMARK minimizedRMSD -1
REMARK  0 active torsions:
REMARK  status: ('A' for Active; 'I' for Inactive)
ROOT
ATOM      1  C   UNL d   1      -0.249   0.114   0.473  0.00  0.00     0.172 C 
ATOM      2  N   UNL d   1       0.976   0.873   0.561  0.00  0.00    -0.070 N 
ATOM      3  C1  UNL d   1       1.250   1.843   1.488  0.00  0.00    -0.004 A 
ATOM      4  C2  UNL d   1       2.517   2.322   1.235  0.00  0.00    -0.047 A 
ATOM      5  C3  UNL d   1       3.022   1.617   0.117  0.00  0.00    -0.047 A 
ATOM      6  C4  UNL d   1       2.047   0.726  -0.280  0.00  0.00    -0.004 A 
ENDROOT
TORSDOF 0
ENDMDL
