MODEL 1
REMARK minimizedAffinity -3.14728212
REMARK minimizedRMSD -1
REMARK  0 active torsions:
REMARK  status: ('A' for Active; 'I' for Inactive)
ROOT
ATOM      1  C   UNL d   1      -0.003  -0.936  -0.392  0.00  0.00     0.172 C 
ATOM      2  N   UNL d   1       0.401   0.276   0.282  0.00  0.00    -0.070 N 
ATOM      3  C1  UNL d   1       1.519   1.014  -0.004  0.00  0.00    -0.004 A 
ATOM      4  C2  UNL d   1       1.547   2.089   0.858  0.00  0.00    -0.047 A 
ATOM      5  C3  UNL d   1       0.407   1.993   1.692  0.00  0.00    -0.047 A 
ATOM      6  C4  UNL d   1      -0.284   0.861   1.314  0.00  0.00    -0.004 A 
ENDROOT
TORSDOF 0
ENDMDL
