MODEL 1
REMARK minimizedAffinity -3.46997356
REMARK minimizedRMSD -1
REMARK  0 active torsions:
REMARK  status: ('A' for Active; 'I' for Inactive)
ROOT
ATOM      1  C   UNL d   1      -0.995  -0.864  -0.992  0.00  0.00     0.172 C 
ATOM      2  N   UNL d   1      -0.544   0.155  -0.074  0.00  0.00    -0.070 N 
ATOM      3  C1  UNL d   1      -1.222   0.589   1.034  0.00  0.00    -0.004 A 
ATOM      4  C2  UNL d   1      -0.460   1.565   1.640  0.00  0.00    -0.047 A 
ATOM      5  C3  UNL d   1       0.716   1.723   0.869  0.00  0.00    -0.047 A 
ATOM      6  C4  UNL d   1       0.638   0.839  -0.186  0.00  0.00    -0.004 A 
ENDROOT
TORSDOF 0
ENDMDL
