MODEL 1
REMARK minimizedAffinity -3.88908553
REMARK minimizedRMSD -1
REMARK  0 active torsions:
REMARK  status: ('A' for Active; 'I' for Inactive)
ROOT
ATOM      1  C   UNL d   1      -0.306  -1.163  -0.421  0.00  0.00     0.172 C 
ATOM      2  N   UNL d   1       0.357   0.028   0.057  0.00  0.00    -0.070 N 
ATOM      3  C1  UNL d   1      -0.184   0.957   0.904  0.00  0.00    -0.004 A 
ATOM      4  C2  UNL d   1       0.763   1.936   1.117  0.00  0.00    -0.047 A 
ATOM      5  C3  UNL d   1       1.912   1.583   0.370  0.00  0.00    -0.047 A 
ATOM      6  C4  UNL d   1       1.633   0.398  -0.277  0.00  0.00    -0.004 A 
ENDROOT
TORSDOF 0
ENDMDL
