MODEL 1
REMARK minimizedAffinity -3.83668733
REMARK minimizedRMSD -1
REMARK  0 active torsions:
REMARK  status: ('A' for Active; 'I' for Inactive)
ROOT
ATOM      1  C   UNL d   1      -0.085  -1.429  -0.936  0.00  0.00     0.172 C 
ATOM      2  N   UNL d   1       0.501  -0.138  -0.659  0.00  0.00    -0.070 N 
ATOM      3  C1  UNL d   1      -0.139   0.918  -0.068  0.00  0.00    -0.004 A 
ATOM      4  C2  UNL d   1       0.758   1.961   0.018  0.00  0.00    -0.047 A 
ATOM      5  C3  UNL d   1       1.980   1.515  -0.540  0.00  0.00    -0.047 A 
ATOM      6  C4  UNL d   1       1.792   0.212  -0.952  0.00  0.00    -0.004 A 
ENDROOT
TORSDOF 0
ENDMDL
