MODEL 1
REMARK minimizedAffinity -3.42775249
REMARK minimizedRMSD -1
REMARK  0 active torsions:
REMARK  status: ('A' for Active; 'I' for Inactive)
ROOT
ATOM      1  C   UNL d   1      -0.033  -0.819  -0.476  0.00  0.00     0.172 C 
ATOM      2  N   UNL d   1       0.193   0.438   0.196  0.00  0.00    -0.070 N 
ATOM      3  C1  UNL d   1      -0.362   0.817   1.389  0.00  0.00    -0.004 A 
ATOM      4  C2  UNL d   1       0.102   2.080   1.689  0.00  0.00    -0.047 A 
ATOM      5  C3  UNL d   1       0.964   2.474   0.638  0.00  0.00    -0.047 A 
ATOM      6  C4  UNL d   1       1.002   1.440  -0.273  0.00  0.00    -0.004 A 
ENDROOT
TORSDOF 0
ENDMDL
