MODEL 1
REMARK minimizedAffinity -1.99728799
REMARK minimizedRMSD -1
REMARK  0 active torsions:
REMARK  status: ('A' for Active; 'I' for Inactive)
ROOT
ATOM      1  C   UNL d   1      -0.259  -1.039  -0.807  0.00  0.00     0.172 C 
ATOM      2  N   UNL d   1       0.070   0.114  -0.001  0.00  0.00    -0.070 N 
ATOM      3  C1  UNL d   1       1.130   0.956  -0.207  0.00  0.00    -0.004 A 
ATOM      4  C2  UNL d   1       1.095   1.926   0.771  0.00  0.00    -0.047 A 
ATOM      5  C3  UNL d   1      -0.024   1.657   1.594  0.00  0.00    -0.047 A 
ATOM      6  C4  UNL d   1      -0.641   0.530   1.093  0.00  0.00    -0.004 A 
ENDROOT
TORSDOF 0
ENDMDL
