MODEL 1
REMARK minimizedAffinity -3.43089843
REMARK minimizedRMSD -1
REMARK  0 active torsions:
REMARK  status: ('A' for Active; 'I' for Inactive)
ROOT
ATOM      1  C   UNL d   1       0.849   2.525   0.587  0.00  0.00     0.172 C 
ATOM      2  N   UNL d   1       0.352   1.180   0.754  0.00  0.00    -0.070 N 
ATOM      3  C1  UNL d   1       0.574   0.135  -0.103  0.00  0.00    -0.004 A 
ATOM      4  C2  UNL d   1      -0.065  -0.974   0.410  0.00  0.00    -0.047 A 
ATOM      5  C3  UNL d   1      -0.693  -0.581   1.615  0.00  0.00    -0.047 A 
ATOM      6  C4  UNL d   1      -0.419   0.757   1.805  0.00  0.00    -0.004 A 
ENDROOT
TORSDOF 0
ENDMDL
