MODEL 1
REMARK minimizedAffinity -3.16195774
REMARK minimizedRMSD -1
REMARK  0 active torsions:
REMARK  status: ('A' for Active; 'I' for Inactive)
ROOT
ATOM      1  C   UNL d   1       0.885   2.734   1.133  0.00  0.00     0.172 C 
ATOM      2  N   UNL d   1       0.510   1.400   0.726  0.00  0.00    -0.070 N 
ATOM      3  C1  UNL d   1      -0.475   0.639   1.297  0.00  0.00    -0.004 A 
ATOM      4  C2  UNL d   1      -0.521  -0.564   0.626  0.00  0.00    -0.047 A 
ATOM      5  C3  UNL d   1       0.472  -0.525  -0.382  0.00  0.00    -0.047 A 
ATOM      6  C4  UNL d   1       1.095   0.702  -0.297  0.00  0.00    -0.004 A 
ENDROOT
TORSDOF 0
ENDMDL
