MODEL 1
REMARK minimizedAffinity -3.92947626
REMARK minimizedRMSD -1
REMARK  0 active torsions:
REMARK  status: ('A' for Active; 'I' for Inactive)
ROOT
ATOM      1  C   UNL d   1      -0.572  -0.248  -0.821  0.00  0.00     0.172 C 
ATOM      2  N   UNL d   1       0.021   0.754   0.033  0.00  0.00    -0.070 N 
ATOM      3  C1  UNL d   1      -0.029   0.769   1.401  0.00  0.00    -0.004 A 
ATOM      4  C2  UNL d   1       0.653   1.884   1.837  0.00  0.00    -0.047 A 
ATOM      5  C3  UNL d   1       1.130   2.563   0.691  0.00  0.00    -0.047 A 
ATOM      6  C4  UNL d   1       0.724   1.842  -0.413  0.00  0.00    -0.004 A 
ENDROOT
TORSDOF 0
ENDMDL
