MODEL 1
REMARK minimizedAffinity -4.26967192
REMARK minimizedRMSD -1
REMARK  0 active torsions:
REMARK  status: ('A' for Active; 'I' for Inactive)
ROOT
ATOM      1  C   UNL d   1      -0.186  -0.825  -0.455  0.00  0.00     0.172 C 
ATOM      2  N   UNL d   1       0.085   0.431   0.204  0.00  0.00    -0.070 N 
ATOM      3  C1  UNL d   1       1.028   1.347  -0.179  0.00  0.00    -0.004 A 
ATOM      4  C2  UNL d   1       0.973   2.405   0.702  0.00  0.00    -0.047 A 
ATOM      5  C3  UNL d   1      -0.038   2.114   1.649  0.00  0.00    -0.047 A 
ATOM      6  C4  UNL d   1      -0.572   0.887   1.317  0.00  0.00    -0.004 A 
ENDROOT
TORSDOF 0
ENDMDL
