MODEL 1
REMARK minimizedAffinity -3.88395619
REMARK minimizedRMSD -1
REMARK  0 active torsions:
REMARK  status: ('A' for Active; 'I' for Inactive)
ROOT
ATOM      1  C   UNL d   1      -0.169  -0.785  -0.614  0.00  0.00     0.172 C 
ATOM      2  N   UNL d   1       0.066   0.368   0.223  0.00  0.00    -0.070 N 
ATOM      3  C1  UNL d   1       1.019   1.328   0.011  0.00  0.00    -0.004 A 
ATOM      4  C2  UNL d   1       0.919   2.254   1.027  0.00  0.00    -0.047 A 
ATOM      5  C3  UNL d   1      -0.129   1.835   1.880  0.00  0.00    -0.047 A 
ATOM      6  C4  UNL d   1      -0.640   0.665   1.359  0.00  0.00    -0.004 A 
ENDROOT
TORSDOF 0
ENDMDL
