MODEL 1
REMARK minimizedAffinity -3.3414681
REMARK minimizedRMSD -1
REMARK  0 active torsions:
REMARK  status: ('A' for Active; 'I' for Inactive)
ROOT
ATOM      1  C   UNL d   1      -1.112  -0.011   1.291  0.00  0.00     0.172 C 
ATOM      2  N   UNL d   1      -0.187   1.049   0.962  0.00  0.00    -0.070 N 
ATOM      3  C1  UNL d   1      -0.013   2.205   1.674  0.00  0.00    -0.004 A 
ATOM      4  C2  UNL d   1       0.955   2.951   1.037  0.00  0.00    -0.047 A 
ATOM      5  C3  UNL d   1       1.375   2.218  -0.098  0.00  0.00    -0.047 A 
ATOM      6  C4  UNL d   1       0.652   1.045  -0.120  0.00  0.00    -0.004 A 
ENDROOT
TORSDOF 0
ENDMDL
