MODEL 1
REMARK minimizedAffinity -4.13443899
REMARK minimizedRMSD -1
REMARK  0 active torsions:
REMARK  status: ('A' for Active; 'I' for Inactive)
ROOT
ATOM      1  C   UNL d   1      -0.273  -0.531  -0.499  0.00  0.00     0.172 C 
ATOM      2  N   UNL d   1       0.268   0.607   0.206  0.00  0.00    -0.070 N 
ATOM      3  C1  UNL d   1       1.504   1.159   0.000  0.00  0.00    -0.004 A 
ATOM      4  C2  UNL d   1       1.641   2.223   0.866  0.00  0.00    -0.047 A 
ATOM      5  C3  UNL d   1       0.446   2.312   1.619  0.00  0.00    -0.047 A 
ATOM      6  C4  UNL d   1      -0.386   1.300   1.190  0.00  0.00    -0.004 A 
ENDROOT
TORSDOF 0
ENDMDL
