MODEL 1
REMARK minimizedAffinity -1.99877667
REMARK minimizedRMSD -1
REMARK  0 active torsions:
REMARK  status: ('A' for Active; 'I' for Inactive)
ROOT
ATOM      1  C   UNL d   1       1.631  -0.342  -0.588  0.00  0.00     0.172 C 
ATOM      2  N   UNL d   1       0.673   0.291   0.287  0.00  0.00    -0.070 N 
ATOM      3  C1  UNL d   1       0.916   1.380   1.081  0.00  0.00    -0.004 A 
ATOM      4  C2  UNL d   1      -0.248   1.675   1.759  0.00  0.00    -0.047 A 
ATOM      5  C3  UNL d   1      -1.222   0.731   1.359  0.00  0.00    -0.047 A 
ATOM      6  C4  UNL d   1      -0.625  -0.115   0.448  0.00  0.00    -0.004 A 
ENDROOT
TORSDOF 0
ENDMDL
