MODEL 1
REMARK minimizedAffinity -3.70256066
REMARK minimizedRMSD -1
REMARK  0 active torsions:
REMARK  status: ('A' for Active; 'I' for Inactive)
ROOT
ATOM      1  C   UNL d   1       0.764   2.321   1.322  0.00  0.00     0.172 C 
ATOM      2  N   UNL d   1       0.334   1.067   0.747  0.00  0.00    -0.070 N 
ATOM      3  C1  UNL d   1      -0.792   0.373   1.099  0.00  0.00    -0.004 A 
ATOM      4  C2  UNL d   1      -0.846  -0.765   0.323  0.00  0.00    -0.047 A 
ATOM      5  C3  UNL d   1       0.288  -0.754  -0.523  0.00  0.00    -0.047 A 
ATOM      6  C4  UNL d   1       1.002   0.391  -0.239  0.00  0.00    -0.004 A 
ENDROOT
TORSDOF 0
ENDMDL
