MODEL 1
REMARK minimizedAffinity -0.384988964
REMARK minimizedRMSD -1
REMARK  0 active torsions:
REMARK  status: ('A' for Active; 'I' for Inactive)
ROOT
ATOM      1  C   UNL d   1       0.577  -0.126   0.803  0.00  0.00     0.172 C 
ATOM      2  N   UNL d   1       1.235   0.840  -0.045  0.00  0.00    -0.070 N 
ATOM      3  C1  UNL d   1       1.116   2.201   0.054  0.00  0.00    -0.004 A 
ATOM      4  C2  UNL d   1       1.897   2.766  -0.931  0.00  0.00    -0.047 A 
ATOM      5  C3  UNL d   1       2.505   1.708  -1.648  0.00  0.00    -0.047 A 
ATOM      6  C4  UNL d   1       2.077   0.527  -1.078  0.00  0.00    -0.004 A 
ENDROOT
TORSDOF 0
ENDMDL
