MODEL 1
REMARK minimizedAffinity 1.83803344
REMARK minimizedRMSD -1
REMARK  0 active torsions:
REMARK  status: ('A' for Active; 'I' for Inactive)
ROOT
ATOM      1  C   UNL d   1       1.514   0.038   2.009  0.00  0.00     0.172 C 
ATOM      2  N   UNL d   1       0.265   0.351   2.663  0.00  0.00    -0.070 N 
ATOM      3  C1  UNL d   1      -0.748  -0.535   2.914  0.00  0.00    -0.004 A 
ATOM      4  C2  UNL d   1      -1.760   0.151   3.551  0.00  0.00    -0.047 A 
ATOM      5  C3  UNL d   1      -1.341   1.496   3.685  0.00  0.00    -0.047 A 
ATOM      6  C4  UNL d   1      -0.083   1.592   3.127  0.00  0.00    -0.004 A 
ENDROOT
TORSDOF 0
ENDMDL
