MODEL 1
REMARK minimizedAffinity 3.10478497
REMARK minimizedRMSD -1
REMARK  0 active torsions:
REMARK  status: ('A' for Active; 'I' for Inactive)
ROOT
ATOM      1  C   UNL d   1       1.906  -2.396   4.755  0.00  0.00     0.172 C 
ATOM      2  N   UNL d   1       1.267  -1.324   4.028  0.00  0.00    -0.070 N 
ATOM      3  C1  UNL d   1      -0.023  -1.330   3.568  0.00  0.00    -0.004 A 
ATOM      4  C2  UNL d   1      -0.249  -0.129   2.930  0.00  0.00    -0.047 A 
ATOM      5  C3  UNL d   1       0.947   0.624   3.009  0.00  0.00    -0.047 A 
ATOM      6  C4  UNL d   1       1.868  -0.140   3.694  0.00  0.00    -0.004 A 
ENDROOT
TORSDOF 0
ENDMDL
