MODEL 1
REMARK minimizedAffinity 8.4367857
REMARK minimizedRMSD -1
REMARK  0 active torsions:
REMARK  status: ('A' for Active; 'I' for Inactive)
ROOT
ATOM      1  C   UNL d   1      -0.433   1.699   2.358  0.00  0.00     0.172 C 
ATOM      2  N   UNL d   1       0.390   0.601   2.807  0.00  0.00    -0.070 N 
ATOM      3  C1  UNL d   1       0.228  -0.713   2.458  0.00  0.00    -0.004 A 
ATOM      4  C2  UNL d   1       1.210  -1.442   3.092  0.00  0.00    -0.047 A 
ATOM      5  C3  UNL d   1       1.989  -0.536   3.849  0.00  0.00    -0.047 A 
ATOM      6  C4  UNL d   1       1.459   0.723   3.655  0.00  0.00    -0.004 A 
ENDROOT
TORSDOF 0
ENDMDL
