MODEL 1
REMARK minimizedAffinity 5.18987942
REMARK minimizedRMSD -1
REMARK  0 active torsions:
REMARK  status: ('A' for Active; 'I' for Inactive)
ROOT
ATOM      1  C   UNL d   1       1.120  -2.348   4.425  0.00  0.00     0.172 C 
ATOM      2  N   UNL d   1       0.851  -1.275   3.496  0.00  0.00    -0.070 N 
ATOM      3  C1  UNL d   1       0.774  -1.398   2.135  0.00  0.00    -0.004 A 
ATOM      4  C2  UNL d   1       0.502  -0.152   1.613  0.00  0.00    -0.047 A 
ATOM      5  C3  UNL d   1       0.414   0.752   2.698  0.00  0.00    -0.047 A 
ATOM      6  C4  UNL d   1       0.634   0.030   3.852  0.00  0.00    -0.004 A 
ENDROOT
TORSDOF 0
ENDMDL
