MODEL 1
REMARK minimizedAffinity 2.01611376
REMARK minimizedRMSD -1
REMARK  0 active torsions:
REMARK  status: ('A' for Active; 'I' for Inactive)
ROOT
ATOM      1  C   UNL d   1       1.958  -0.133   1.554  0.00  0.00     0.172 C 
ATOM      2  N   UNL d   1       0.847   0.509   2.217  0.00  0.00    -0.070 N 
ATOM      3  C1  UNL d   1      -0.433   0.026   2.279  0.00  0.00    -0.004 A 
ATOM      4  C2  UNL d   1      -1.189   0.927   2.998  0.00  0.00    -0.047 A 
ATOM      5  C3  UNL d   1      -0.335   1.987   3.380  0.00  0.00    -0.047 A 
ATOM      6  C4  UNL d   1       0.920   1.703   2.884  0.00  0.00    -0.004 A 
ENDROOT
TORSDOF 0
ENDMDL
