MODEL 1
REMARK minimizedAffinity 3.77208281
REMARK minimizedRMSD -1
REMARK  0 active torsions:
REMARK  status: ('A' for Active; 'I' for Inactive)
ROOT
ATOM      1  C   UNL d   1       1.726  -0.153   2.805  0.00  0.00     0.172 C 
ATOM      2  N   UNL d   1       2.197  -0.123   1.440  0.00  0.00    -0.070 N 
ATOM      3  C1  UNL d   1       3.360  -0.684   0.984  0.00  0.00    -0.004 A 
ATOM      4  C2  UNL d   1       3.445  -0.438  -0.370  0.00  0.00    -0.047 A 
ATOM      5  C3  UNL d   1       2.293   0.296  -0.740  0.00  0.00    -0.047 A 
ATOM      6  C4  UNL d   1       1.538   0.478   0.400  0.00  0.00    -0.004 A 
ENDROOT
TORSDOF 0
ENDMDL
