MODEL 1
REMARK minimizedAffinity 8.13260841
REMARK minimizedRMSD -1
REMARK  0 active torsions:
REMARK  status: ('A' for Active; 'I' for Inactive)
ROOT
ATOM      1  C   UNL d   1      -1.209  -4.775  -2.016  0.00  0.00     0.172 C 
ATOM      2  N   UNL d   1      -1.100  -5.079  -3.423  0.00  0.00    -0.070 N 
ATOM      3  C1  UNL d   1       0.054  -5.415  -4.080  0.00  0.00    -0.004 A 
ATOM      4  C2  UNL d   1      -0.261  -5.629  -5.404  0.00  0.00    -0.047 A 
ATOM      5  C3  UNL d   1      -1.652  -5.412  -5.549  0.00  0.00    -0.047 A 
ATOM      6  C4  UNL d   1      -2.146  -5.073  -4.307  0.00  0.00    -0.004 A 
ENDROOT
TORSDOF 0
ENDMDL
