MODEL 1
REMARK minimizedAffinity 2.82333946
REMARK minimizedRMSD -1
REMARK  0 active torsions:
REMARK  status: ('A' for Active; 'I' for Inactive)
ROOT
ATOM      1  C   UNL d   1      -1.127  -3.044  -1.243  0.00  0.00     0.172 C 
ATOM      2  N   UNL d   1      -1.273  -3.723  -2.509  0.00  0.00    -0.070 N 
ATOM      3  C1  UNL d   1      -1.752  -3.165  -3.664  0.00  0.00    -0.004 A 
ATOM      4  C2  UNL d   1      -1.733  -4.136  -4.642  0.00  0.00    -0.047 A 
ATOM      5  C3  UNL d   1      -1.226  -5.319  -4.054  0.00  0.00    -0.047 A 
ATOM      6  C4  UNL d   1      -0.949  -5.035  -2.733  0.00  0.00    -0.004 A 
ENDROOT
TORSDOF 0
ENDMDL
