MODEL 1
REMARK minimizedAffinity 2.43242121
REMARK minimizedRMSD -1
REMARK  0 active torsions:
REMARK  status: ('A' for Active; 'I' for Inactive)
ROOT
ATOM      1  C   UNL d   1      -5.694   2.422  -0.213  0.00  0.00     0.172 C 
ATOM      2  N   UNL d   1      -5.766   3.863  -0.163  0.00  0.00    -0.070 N 
ATOM      3  C1  UNL d   1      -5.613   4.708  -1.230  0.00  0.00    -0.004 A 
ATOM      4  C2  UNL d   1      -5.752   5.999  -0.770  0.00  0.00    -0.047 A 
ATOM      5  C3  UNL d   1      -5.995   5.928   0.622  0.00  0.00    -0.047 A 
ATOM      6  C4  UNL d   1      -5.999   4.594   0.971  0.00  0.00    -0.004 A 
ENDROOT
TORSDOF 0
ENDMDL
