MODEL 1
REMARK minimizedAffinity -3.67154956
REMARK minimizedRMSD -1
REMARK  3 active torsions:
REMARK  status: ('A' for Active; 'I' for Inactive)
REMARK    1  A    between atoms: C3'_2  and  C2'_3 
REMARK    2  A    between atoms: C2'_3  and  C1'_4 
REMARK    3  A    between atoms: C1'_4  and  C1_5 
ROOT
ATOM      1  C1  N4B d   1      -1.765  -0.401   1.306  0.00  0.00    -0.075 A 
ATOM      2  C2  N4B d   1      -1.779   0.580   2.321  0.00  0.00     0.002 A 
ATOM      3  C3  N4B d   1      -2.959   1.193   2.667  0.00  0.00     0.002 A 
ATOM      4  C4  N4B d   1      -4.128   0.855   2.002  0.00  0.00    -0.004 A 
ATOM      5  C5  N4B d   1      -4.110  -0.112   1.040  0.00  0.00     0.002 A 
ATOM      6  C6  N4B d   1      -2.932  -0.739   0.685  0.00  0.00     0.002 A 
ENDROOT
BRANCH   1   7
ATOM      7  C1' N4B d   1      -0.486  -1.037   0.834  0.00  0.00     0.057 C 
BRANCH   7   8
ATOM      8  C2' N4B d   1      -0.797  -2.001  -0.307  0.00  0.00     0.009 C 
BRANCH   8   9
ATOM      9  C3' N4B d   1      -0.060  -1.629  -1.582  0.00  0.00     0.004 C 
ATOM     10  C4' N4B d   1      -0.831  -1.976  -2.820  0.00  0.00     0.003 C 
ENDBRANCH   8   9
ENDBRANCH   7   8
ENDBRANCH   1   7
TORSDOF 3
ENDMDL
