MODEL 1
REMARK minimizedAffinity -0.344699919
REMARK minimizedRMSD -1
REMARK  3 active torsions:
REMARK  status: ('A' for Active; 'I' for Inactive)
REMARK    1  A    between atoms: C3'_2  and  C2'_3 
REMARK    2  A    between atoms: C2'_3  and  C1'_4 
REMARK    3  A    between atoms: C1'_4  and  C1_5 
ROOT
ATOM      1  C1  N4B d   1      -1.261  -0.966   0.841  0.00  0.00    -0.075 A 
ATOM      2  C2  N4B d   1      -1.805  -0.331   1.978  0.00  0.00     0.002 A 
ATOM      3  C3  N4B d   1      -2.947   0.423   1.863  0.00  0.00     0.002 A 
ATOM      4  C4  N4B d   1      -3.549   0.571   0.623  0.00  0.00    -0.004 A 
ATOM      5  C5  N4B d   1      -3.032  -0.067  -0.466  0.00  0.00     0.002 A 
ATOM      6  C6  N4B d   1      -1.887  -0.831  -0.365  0.00  0.00     0.002 A 
ENDROOT
BRANCH   1   7
ATOM      7  C1' N4B d   1       0.034  -1.730   0.900  0.00  0.00     0.057 C 
BRANCH   7   8
ATOM      8  C2' N4B d   1       0.708  -1.467   2.244  0.00  0.00     0.009 C 
BRANCH   8   9
ATOM      9  C3' N4B d   1       2.223  -1.513   2.138  0.00  0.00     0.004 C 
ATOM     10  C4' N4B d   1       2.702  -2.434   1.055  0.00  0.00     0.003 C 
ENDBRANCH   8   9
ENDBRANCH   7   8
ENDBRANCH   1   7
TORSDOF 3
ENDMDL
