MODEL 1
REMARK minimizedAffinity -4.13576698
REMARK minimizedRMSD -1
REMARK  2 active torsions:
REMARK  status: ('A' for Active; 'I' for Inactive)
REMARK    1  A    between atoms: C1_2  and  C2_3 
REMARK    2  A    between atoms: C2_3  and  C3_4 
ROOT
ATOM      1  C3  UNL d   1      -0.028  -0.111   0.226  0.00  0.00    -0.075 A 
ATOM      2  C4  UNL d   1      -0.527  -0.783   1.351  0.00  0.00     0.002 A 
ATOM      3  C5  UNL d   1       0.261  -1.717   2.026  0.00  0.00     0.002 A 
ATOM      4  C6  UNL d   1       1.550  -1.997   1.579  0.00  0.00    -0.004 A 
ATOM      5  C7  UNL d   1       2.050  -1.347   0.453  0.00  0.00     0.002 A 
ATOM      6  C8  UNL d   1       1.266  -0.410  -0.222  0.00  0.00     0.002 A 
ENDROOT
BRANCH   1   7
ATOM      7  C2  UNL d   1      -0.864   0.921  -0.491  0.00  0.00     0.056 C 
BRANCH   7   8
ATOM      8  C1  UNL d   1      -1.655   0.367  -1.681  0.00  0.00     0.007 C 
ATOM      9  C   UNL d   1      -1.977   1.420  -2.732  0.00  0.00     0.009 C 
ENDBRANCH   7   8
ENDBRANCH   1   7
TORSDOF 2
ENDMDL
