MODEL 1
REMARK minimizedAffinity -5.99744654
REMARK minimizedRMSD -1
REMARK  2 active torsions:
REMARK  status: ('A' for Active; 'I' for Inactive)
REMARK    1  A    between atoms: C1_2  and  C2_3 
REMARK    2  A    between atoms: C2_3  and  C3_4 
ROOT
ATOM      1  C3  UNL d   1       0.029  -0.242   0.556  0.00  0.00    -0.075 A 
ATOM      2  C4  UNL d   1       1.217  -0.707  -0.027  0.00  0.00     0.002 A 
ATOM      3  C5  UNL d   1       1.925  -1.760   0.551  0.00  0.00     0.002 A 
ATOM      4  C6  UNL d   1       1.462  -2.355   1.723  0.00  0.00    -0.004 A 
ATOM      5  C7  UNL d   1       0.292  -1.891   2.320  0.00  0.00     0.002 A 
ATOM      6  C8  UNL d   1      -0.422  -0.840   1.740  0.00  0.00     0.002 A 
ENDROOT
BRANCH   1   7
ATOM      7  C2  UNL d   1      -0.758   0.878  -0.082  0.00  0.00     0.056 C 
BRANCH   7   8
ATOM      8  C1  UNL d   1      -1.068   0.657  -1.566  0.00  0.00     0.007 C 
ATOM      9  C   UNL d   1      -2.309   1.402  -2.038  0.00  0.00     0.009 C 
ENDBRANCH   7   8
ENDBRANCH   1   7
TORSDOF 2
ENDMDL
