MODEL 1
REMARK minimizedAffinity -6.03892279
REMARK minimizedRMSD -1
REMARK  2 active torsions:
REMARK  status: ('A' for Active; 'I' for Inactive)
REMARK    1  A    between atoms: C1_2  and  C2_3 
REMARK    2  A    between atoms: C2_3  and  C3_4 
ROOT
ATOM      1  C3  UNL d   1       0.366  -0.955   0.442  0.00  0.00    -0.075 A 
ATOM      2  C4  UNL d   1      -0.636  -0.955   1.423  0.00  0.00     0.002 A 
ATOM      3  C5  UNL d   1      -0.579  -1.848   2.494  0.00  0.00     0.002 A 
ATOM      4  C6  UNL d   1       0.472  -2.757   2.591  0.00  0.00    -0.004 A 
ATOM      5  C7  UNL d   1       1.464  -2.777   1.613  0.00  0.00     0.002 A 
ATOM      6  C8  UNL d   1       1.412  -1.881   0.543  0.00  0.00     0.002 A 
ENDROOT
BRANCH   1   7
ATOM      7  C2  UNL d   1       0.325   0.029  -0.703  0.00  0.00     0.056 C 
BRANCH   7   8
ATOM      8  C1  UNL d   1      -0.619   1.214  -0.474  0.00  0.00     0.007 C 
ATOM      9  C   UNL d   1      -0.733   2.133  -1.683  0.00  0.00     0.009 C 
ENDBRANCH   7   8
ENDBRANCH   1   7
TORSDOF 2
ENDMDL
