MODEL 1
REMARK minimizedAffinity -5.6458025
REMARK minimizedRMSD -1
REMARK  2 active torsions:
REMARK  status: ('A' for Active; 'I' for Inactive)
REMARK    1  A    between atoms: C1_2  and  C2_3 
REMARK    2  A    between atoms: C2_3  and  C3_4 
ROOT
ATOM      1  C3  UNL d   1       0.158  -0.675   0.303  0.00  0.00    -0.075 A 
ATOM      2  C4  UNL d   1       1.199  -1.609   0.415  0.00  0.00     0.002 A 
ATOM      3  C5  UNL d   1       1.309  -2.414   1.549  0.00  0.00     0.002 A 
ATOM      4  C6  UNL d   1       0.389  -2.289   2.588  0.00  0.00    -0.004 A 
ATOM      5  C7  UNL d   1      -0.639  -1.354   2.494  0.00  0.00     0.002 A 
ATOM      6  C8  UNL d   1      -0.754  -0.550   1.359  0.00  0.00     0.002 A 
ENDROOT
BRANCH   1   7
ATOM      7  C2  UNL d   1       0.016   0.178  -0.935  0.00  0.00     0.056 C 
BRANCH   7   8
ATOM      8  C1  UNL d   1      -1.248   1.044  -0.954  0.00  0.00     0.007 C 
ATOM      9  C   UNL d   1      -1.390   1.872  -2.224  0.00  0.00     0.009 C 
ENDBRANCH   7   8
ENDBRANCH   1   7
TORSDOF 2
ENDMDL
