MODEL 1
REMARK minimizedAffinity -4.55866337
REMARK minimizedRMSD -1
REMARK  2 active torsions:
REMARK  status: ('A' for Active; 'I' for Inactive)
REMARK    1  A    between atoms: C1_2  and  C2_3 
REMARK    2  A    between atoms: C2_3  and  C3_4 
ROOT
ATOM      1  C3  UNL d   1       0.149  -0.278   0.546  0.00  0.00    -0.075 A 
ATOM      2  C4  UNL d   1      -0.461  -0.752   1.716  0.00  0.00     0.002 A 
ATOM      3  C5  UNL d   1       0.166  -1.722   2.499  0.00  0.00     0.002 A 
ATOM      4  C6  UNL d   1       1.403  -2.236   2.117  0.00  0.00    -0.004 A 
ATOM      5  C7  UNL d   1       2.011  -1.784   0.948  0.00  0.00     0.002 A 
ATOM      6  C8  UNL d   1       1.388  -0.811   0.165  0.00  0.00     0.002 A 
ENDROOT
BRANCH   1   7
ATOM      7  C2  UNL d   1      -0.510   0.793  -0.290  0.00  0.00     0.056 C 
BRANCH   7   8
ATOM      8  C1  UNL d   1      -0.946   0.319  -1.681  0.00  0.00     0.007 C 
ATOM      9  C   UNL d   1      -1.875   1.298  -2.385  0.00  0.00     0.009 C 
ENDBRANCH   7   8
ENDBRANCH   1   7
TORSDOF 2
ENDMDL
