MODEL 1
REMARK minimizedAffinity -4.97181702
REMARK minimizedRMSD -1
REMARK  2 active torsions:
REMARK  status: ('A' for Active; 'I' for Inactive)
REMARK    1  A    between atoms: C1_2  and  C2_3 
REMARK    2  A    between atoms: C2_3  and  C3_4 
ROOT
ATOM      1  C3  UNL d   1       0.518  -0.838   0.442  0.00  0.00    -0.075 A 
ATOM      2  C4  UNL d   1      -0.342  -1.036   1.532  0.00  0.00     0.002 A 
ATOM      3  C5  UNL d   1      -0.173  -2.133   2.377  0.00  0.00     0.002 A 
ATOM      4  C6  UNL d   1       0.849  -3.049   2.138  0.00  0.00    -0.004 A 
ATOM      5  C7  UNL d   1       1.699  -2.871   1.048  0.00  0.00     0.002 A 
ATOM      6  C8  UNL d   1       1.535  -1.772   0.204  0.00  0.00     0.002 A 
ENDROOT
BRANCH   1   7
ATOM      7  C2  UNL d   1       0.358   0.364  -0.459  0.00  0.00     0.056 C 
BRANCH   7   8
ATOM      8  C1  UNL d   1      -0.843   1.250  -0.111  0.00  0.00     0.007 C 
ATOM      9  C   UNL d   1      -1.594   1.751  -1.336  0.00  0.00     0.009 C 
ENDBRANCH   7   8
ENDBRANCH   1   7
TORSDOF 2
ENDMDL
