MODEL 1
REMARK minimizedAffinity -3.75866961
REMARK minimizedRMSD -1
REMARK  2 active torsions:
REMARK  status: ('A' for Active; 'I' for Inactive)
REMARK    1  A    between atoms: C1_2  and  C2_3 
REMARK    2  A    between atoms: C2_3  and  C3_4 
ROOT
ATOM      1  C3  UNL d   1       0.668  -0.450  -0.082  0.00  0.00    -0.075 A 
ATOM      2  C4  UNL d   1      -0.169  -1.498  -0.492  0.00  0.00     0.002 A 
ATOM      3  C5  UNL d   1       0.149  -2.821  -0.182  0.00  0.00     0.002 A 
ATOM      4  C6  UNL d   1       1.310  -3.113   0.530  0.00  0.00    -0.004 A 
ATOM      5  C7  UNL d   1       2.157  -2.081   0.928  0.00  0.00     0.002 A 
ATOM      6  C8  UNL d   1       1.839  -0.756   0.624  0.00  0.00     0.002 A 
ENDROOT
BRANCH   1   7
ATOM      7  C2  UNL d   1       0.315   0.986  -0.388  0.00  0.00     0.056 C 
BRANCH   7   8
ATOM      8  C1  UNL d   1      -1.167   1.209  -0.708  0.00  0.00     0.007 C 
ATOM      9  C   UNL d   1      -1.393   2.178  -1.860  0.00  0.00     0.009 C 
ENDBRANCH   7   8
ENDBRANCH   1   7
TORSDOF 2
ENDMDL
