MODEL 1
REMARK minimizedAffinity -3.40661955
REMARK minimizedRMSD -1
REMARK  2 active torsions:
REMARK  status: ('A' for Active; 'I' for Inactive)
REMARK    1  A    between atoms: C1_2  and  C2_3 
REMARK    2  A    between atoms: C2_3  and  C3_4 
ROOT
ATOM      1  C3  UNL d   1       0.161  -0.072   0.571  0.00  0.00    -0.075 A 
ATOM      2  C4  UNL d   1       1.454  -0.539   0.296  0.00  0.00     0.002 A 
ATOM      3  C5  UNL d   1       2.073  -1.455   1.148  0.00  0.00     0.002 A 
ATOM      4  C6  UNL d   1       1.411  -1.908   2.287  0.00  0.00    -0.004 A 
ATOM      5  C7  UNL d   1       0.133  -1.438   2.579  0.00  0.00     0.002 A 
ATOM      6  C8  UNL d   1      -0.490  -0.525   1.727  0.00  0.00     0.002 A 
ENDROOT
BRANCH   1   7
ATOM      7  C2  UNL d   1      -0.526   0.897  -0.362  0.00  0.00     0.056 C 
BRANCH   7   8
ATOM      8  C1  UNL d   1      -1.138   0.239  -1.603  0.00  0.00     0.007 C 
ATOM      9  C   UNL d   1      -2.084   1.159  -2.364  0.00  0.00     0.009 C 
ENDBRANCH   7   8
ENDBRANCH   1   7
TORSDOF 2
ENDMDL
