MODEL 1
REMARK minimizedAffinity -4.79957151
REMARK minimizedRMSD -1
REMARK  2 active torsions:
REMARK  status: ('A' for Active; 'I' for Inactive)
REMARK    1  A    between atoms: C1_2  and  C2_3 
REMARK    2  A    between atoms: C2_3  and  C3_4 
ROOT
ATOM      1  C3  UNL d   1       0.257  -0.797   0.384  0.00  0.00    -0.075 A 
ATOM      2  C4  UNL d   1      -0.656  -0.831   1.449  0.00  0.00     0.002 A 
ATOM      3  C5  UNL d   1      -0.459  -1.699   2.523  0.00  0.00     0.002 A 
ATOM      4  C6  UNL d   1       0.644  -2.550   2.542  0.00  0.00    -0.004 A 
ATOM      5  C7  UNL d   1       1.548  -2.537   1.482  0.00  0.00     0.002 A 
ATOM      6  C8  UNL d   1       1.356  -1.666   0.408  0.00  0.00     0.002 A 
ENDROOT
BRANCH   1   7
ATOM      7  C2  UNL d   1       0.065   0.161  -0.767  0.00  0.00     0.056 C 
BRANCH   7   8
ATOM      8  C1  UNL d   1      -0.903   1.310  -0.468  0.00  0.00     0.007 C 
ATOM      9  C   UNL d   1      -1.330   2.075  -1.713  0.00  0.00     0.009 C 
ENDBRANCH   7   8
ENDBRANCH   1   7
TORSDOF 2
ENDMDL
