MODEL 1
REMARK minimizedAffinity -1.77054286
REMARK minimizedRMSD -1
REMARK  2 active torsions:
REMARK  status: ('A' for Active; 'I' for Inactive)
REMARK    1  A    between atoms: C1_2  and  C2_3 
REMARK    2  A    between atoms: C2_3  and  C3_4 
ROOT
ATOM      1  C3  UNL d   1      -1.900   1.707  -1.218  0.00  0.00    -0.075 A 
ATOM      2  C4  UNL d   1      -1.587   2.709  -2.148  0.00  0.00     0.002 A 
ATOM      3  C5  UNL d   1      -2.532   3.125  -3.086  0.00  0.00     0.002 A 
ATOM      4  C6  UNL d   1      -3.796   2.540  -3.113  0.00  0.00    -0.004 A 
ATOM      5  C7  UNL d   1      -4.112   1.532  -2.204  0.00  0.00     0.002 A 
ATOM      6  C8  UNL d   1      -3.170   1.117  -1.262  0.00  0.00     0.002 A 
ENDROOT
BRANCH   1   7
ATOM      7  C2  UNL d   1      -0.892   1.272  -0.181  0.00  0.00     0.056 C 
BRANCH   7   8
ATOM      8  C1  UNL d   1      -0.465  -0.194  -0.302  0.00  0.00     0.007 C 
ATOM      9  C   UNL d   1       1.046  -0.379  -0.336  0.00  0.00     0.009 C 
ENDBRANCH   7   8
ENDBRANCH   1   7
TORSDOF 2
ENDMDL
