MODEL 1
REMARK minimizedAffinity -4.19408226
REMARK minimizedRMSD -1
REMARK  2 active torsions:
REMARK  status: ('A' for Active; 'I' for Inactive)
REMARK    1  A    between atoms: C1_2  and  C2_3 
REMARK    2  A    between atoms: C2_3  and  C3_4 
ROOT
ATOM      1  C3  UNL d   1       0.297   0.063  -0.376  0.00  0.00    -0.075 A 
ATOM      2  C4  UNL d   1       1.013  -0.237   0.792  0.00  0.00     0.002 A 
ATOM      3  C5  UNL d   1       2.032  -1.189   0.773  0.00  0.00     0.002 A 
ATOM      4  C6  UNL d   1       2.342  -1.860  -0.408  0.00  0.00    -0.004 A 
ATOM      5  C7  UNL d   1       1.626  -1.583  -1.570  0.00  0.00     0.002 A 
ATOM      6  C8  UNL d   1       0.608  -0.627  -1.556  0.00  0.00     0.002 A 
ENDROOT
BRANCH   1   7
ATOM      7  C2  UNL d   1      -0.787   1.113  -0.370  0.00  0.00     0.056 C 
BRANCH   7   8
ATOM      8  C1  UNL d   1      -1.585   1.195  -1.676  0.00  0.00     0.007 C 
ATOM      9  C   UNL d   1      -1.582   2.586  -2.296  0.00  0.00     0.009 C 
ENDBRANCH   7   8
ENDBRANCH   1   7
TORSDOF 2
ENDMDL
