MODEL 1
REMARK minimizedAffinity -5.35357285
REMARK minimizedRMSD -1
REMARK  2 active torsions:
REMARK  status: ('A' for Active; 'I' for Inactive)
REMARK    1  A    between atoms: C1_2  and  C2_3 
REMARK    2  A    between atoms: C2_3  and  C3_4 
ROOT
ATOM      1  C3  UNL d   1      -0.536  -0.947   0.889  0.00  0.00    -0.075 A 
ATOM      2  C4  UNL d   1      -1.095  -1.215   2.147  0.00  0.00     0.002 A 
ATOM      3  C5  UNL d   1      -0.477  -2.110   3.021  0.00  0.00     0.002 A 
ATOM      4  C6  UNL d   1       0.700  -2.753   2.646  0.00  0.00    -0.004 A 
ATOM      5  C7  UNL d   1       1.256  -2.506   1.393  0.00  0.00     0.002 A 
ATOM      6  C8  UNL d   1       0.642  -1.608   0.518  0.00  0.00     0.002 A 
ENDROOT
BRANCH   1   7
ATOM      7  C2  UNL d   1      -1.184   0.043  -0.050  0.00  0.00     0.056 C 
BRANCH   7   8
ATOM      8  C1  UNL d   1      -0.188   0.874  -0.865  0.00  0.00     0.007 C 
ATOM      9  C   UNL d   1      -0.861   1.853  -1.818  0.00  0.00     0.009 C 
ENDBRANCH   7   8
ENDBRANCH   1   7
TORSDOF 2
ENDMDL
