MODEL 1
REMARK minimizedAffinity 19.8219757
REMARK minimizedRMSD -1
REMARK  0 active torsions:
REMARK  status: ('A' for Active; 'I' for Inactive)
ROOT
ATOM      1  C   UNL d   1       2.667  -2.277   4.304  0.00  0.00     0.124 A 
ATOM      2  C1  UNL d   1       3.820  -1.817   4.925  0.00  0.00     0.062 A 
ATOM      3  C2  UNL d   1       4.766  -2.720   5.402  0.00  0.00     0.162 A 
ATOM      4  C3  UNL d   1       4.563  -4.093   5.259  0.00  0.00    -0.034 A 
ATOM      5  C4  UNL d   1       3.401  -4.548   4.634  0.00  0.00     0.162 A 
ATOM      6  C5  UNL d   1       2.459  -3.641   4.159  0.00  0.00     0.062 A 
ATOM      7  F   UNL d   1       1.345  -4.088   3.559  0.00  0.00    -0.097 F 
ATOM      8  F1  UNL d   1       3.174  -5.861   4.480  0.00  0.00    -0.096 F 
ATOM      9  I   UNL d   1       5.975  -5.446   5.971  0.00  0.00    -0.060 I 
ATOM     10  F2  UNL d   1       5.871  -2.248   5.998  0.00  0.00    -0.096 F 
ATOM     11  F3  UNL d   1       4.024  -0.500   5.066  0.00  0.00    -0.097 F 
ATOM     12  F4  UNL d   1       1.758  -1.406   3.846  0.00  0.00    -0.092 F 
ENDROOT
TORSDOF 0
ENDMDL
