MODEL 1
REMARK minimizedAffinity 12.3984022
REMARK minimizedRMSD -1
REMARK  0 active torsions:
REMARK  status: ('A' for Active; 'I' for Inactive)
ROOT
ATOM      1  C   UNL d   1       1.960  -2.366  -3.819  0.00  0.00     0.124 A 
ATOM      2  C1  UNL d   1       0.645  -2.803  -3.904  0.00  0.00     0.062 A 
ATOM      3  C2  UNL d   1      -0.193  -2.719  -2.796  0.00  0.00     0.162 A 
ATOM      4  C3  UNL d   1       0.280  -2.195  -1.593  0.00  0.00    -0.034 A 
ATOM      5  C4  UNL d   1       1.604  -1.759  -1.515  0.00  0.00     0.162 A 
ATOM      6  C5  UNL d   1       2.438  -1.845  -2.625  0.00  0.00     0.062 A 
ATOM      7  F   UNL d   1       3.708  -1.423  -2.541  0.00  0.00    -0.097 F 
ATOM      8  F1  UNL d   1       2.092  -1.250  -0.374  0.00  0.00    -0.096 F 
ATOM      9  I   UNL d   1      -0.970  -2.068   0.066  0.00  0.00    -0.060 I 
ATOM     10  F2  UNL d   1      -1.459  -3.148  -2.907  0.00  0.00    -0.096 F 
ATOM     11  F3  UNL d   1       0.181  -3.308  -5.056  0.00  0.00    -0.097 F 
ATOM     12  F4  UNL d   1       2.765  -2.449  -4.886  0.00  0.00    -0.092 F 
ENDROOT
TORSDOF 0
ENDMDL
