MODEL 1
REMARK minimizedAffinity 12.1369276
REMARK minimizedRMSD -1
REMARK  0 active torsions:
REMARK  status: ('A' for Active; 'I' for Inactive)
ROOT
ATOM      1  C   UNL d   1       0.490  -4.186  -4.024  0.00  0.00     0.124 A 
ATOM      2  C1  UNL d   1      -0.788  -3.909  -3.561  0.00  0.00     0.062 A 
ATOM      3  C2  UNL d   1      -0.976  -2.999  -2.525  0.00  0.00     0.162 A 
ATOM      4  C3  UNL d   1       0.119  -2.358  -1.945  0.00  0.00    -0.034 A 
ATOM      5  C4  UNL d   1       1.402  -2.643  -2.415  0.00  0.00     0.162 A 
ATOM      6  C5  UNL d   1       1.584  -3.553  -3.451  0.00  0.00     0.062 A 
ATOM      7  F   UNL d   1       2.820  -3.820  -3.897  0.00  0.00    -0.097 F 
ATOM      8  F1  UNL d   1       2.477  -2.044  -1.880  0.00  0.00    -0.096 F 
ATOM      9  I   UNL d   1      -0.157  -0.996  -0.395  0.00  0.00    -0.060 I 
ATOM     10  F2  UNL d   1      -2.222  -2.750  -2.097  0.00  0.00    -0.096 F 
ATOM     11  F3  UNL d   1      -1.847  -4.520  -4.112  0.00  0.00    -0.097 F 
ATOM     12  F4  UNL d   1       0.668  -5.063  -5.021  0.00  0.00    -0.092 F 
ENDROOT
TORSDOF 0
ENDMDL
