MODEL 1
REMARK minimizedAffinity 11.0922871
REMARK minimizedRMSD -1
REMARK  0 active torsions:
REMARK  status: ('A' for Active; 'I' for Inactive)
ROOT
ATOM      1  C   UNL d   1      -2.290  -2.773   1.608  0.00  0.00     0.124 A 
ATOM      2  C1  UNL d   1      -2.907  -2.780   0.364  0.00  0.00     0.062 A 
ATOM      3  C2  UNL d   1      -2.201  -2.387  -0.769  0.00  0.00     0.162 A 
ATOM      4  C3  UNL d   1      -0.870  -1.984  -0.665  0.00  0.00    -0.034 A 
ATOM      5  C4  UNL d   1      -0.257  -1.978   0.589  0.00  0.00     0.162 A 
ATOM      6  C5  UNL d   1      -0.966  -2.372   1.719  0.00  0.00     0.062 A 
ATOM      7  F   UNL d   1      -0.368  -2.364   2.919  0.00  0.00    -0.097 F 
ATOM      8  F1  UNL d   1       1.022  -1.596   0.725  0.00  0.00    -0.096 F 
ATOM      9  I   UNL d   1       0.188  -1.395  -2.358  0.00  0.00    -0.060 I 
ATOM     10  F2  UNL d   1      -2.823  -2.404  -1.958  0.00  0.00    -0.096 F 
ATOM     11  F3  UNL d   1      -4.186  -3.166   0.254  0.00  0.00    -0.097 F 
ATOM     12  F4  UNL d   1      -2.971  -3.150   2.697  0.00  0.00    -0.092 F 
ENDROOT
TORSDOF 0
ENDMDL
