MODEL 1
REMARK minimizedAffinity 21.8207684
REMARK minimizedRMSD -1
REMARK  0 active torsions:
REMARK  status: ('A' for Active; 'I' for Inactive)
ROOT
ATOM      1  C   UNL d   1       4.915   5.185  -3.750  0.00  0.00     0.124 A 
ATOM      2  C1  UNL d   1       4.915   5.460  -2.389  0.00  0.00     0.062 A 
ATOM      3  C2  UNL d   1       3.790   5.178  -1.619  0.00  0.00     0.162 A 
ATOM      4  C3  UNL d   1       2.656   4.618  -2.207  0.00  0.00    -0.034 A 
ATOM      5  C4  UNL d   1       2.664   4.345  -3.576  0.00  0.00     0.162 A 
ATOM      6  C5  UNL d   1       3.790   4.628  -4.342  0.00  0.00     0.062 A 
ATOM      7  F   UNL d   1       3.789   4.362  -5.656  0.00  0.00    -0.097 F 
ATOM      8  F1  UNL d   1       1.591   3.806  -4.174  0.00  0.00    -0.096 F 
ATOM      9  I   UNL d   1       0.973   4.196  -1.059  0.00  0.00    -0.060 I 
ATOM     10  F2  UNL d   1       3.818   5.454  -0.307  0.00  0.00    -0.096 F 
ATOM     11  F3  UNL d   1       6.000   5.998  -1.815  0.00  0.00    -0.097 F 
ATOM     12  F4  UNL d   1       5.998   5.457  -4.489  0.00  0.00    -0.092 F 
ENDROOT
TORSDOF 0
ENDMDL
