MODEL 1
REMARK minimizedAffinity 22.8873291
REMARK minimizedRMSD -1
REMARK  0 active torsions:
REMARK  status: ('A' for Active; 'I' for Inactive)
ROOT
ATOM      1  C   UNL d   1       0.304  -0.956  -1.789  0.00  0.00     0.124 A 
ATOM      2  C1  UNL d   1       0.252  -2.145  -1.076  0.00  0.00     0.062 A 
ATOM      3  C2  UNL d   1       1.238  -3.111  -1.254  0.00  0.00     0.162 A 
ATOM      4  C3  UNL d   1       2.285  -2.892  -2.148  0.00  0.00    -0.034 A 
ATOM      5  C4  UNL d   1       2.330  -1.693  -2.863  0.00  0.00     0.162 A 
ATOM      6  C5  UNL d   1       1.343  -0.731  -2.682  0.00  0.00     0.062 A 
ATOM      7  F   UNL d   1       1.395   0.418  -3.372  0.00  0.00    -0.097 F 
ATOM      8  F1  UNL d   1       3.323  -1.450  -3.731  0.00  0.00    -0.096 F 
ATOM      9  I   UNL d   1       3.761  -4.334  -2.417  0.00  0.00    -0.060 I 
ATOM     10  F2  UNL d   1       1.162  -4.252  -0.552  0.00  0.00    -0.096 F 
ATOM     11  F3  UNL d   1      -0.751  -2.365  -0.214  0.00  0.00    -0.097 F 
ATOM     12  F4  UNL d   1      -0.647  -0.028  -1.617  0.00  0.00    -0.092 F 
ENDROOT
TORSDOF 0
ENDMDL
