MODEL 1
REMARK minimizedAffinity 16.6389275
REMARK minimizedRMSD -1
REMARK  0 active torsions:
REMARK  status: ('A' for Active; 'I' for Inactive)
ROOT
ATOM      1  C   UNL d   1      -1.907  -2.694   0.790  0.00  0.00     0.124 A 
ATOM      2  C1  UNL d   1      -0.525  -2.636   0.668  0.00  0.00     0.062 A 
ATOM      3  C2  UNL d   1       0.062  -2.533  -0.590  0.00  0.00     0.162 A 
ATOM      4  C3  UNL d   1      -0.731  -2.486  -1.736  0.00  0.00    -0.034 A 
ATOM      5  C4  UNL d   1      -2.120  -2.545  -1.605  0.00  0.00     0.162 A 
ATOM      6  C5  UNL d   1      -2.702  -2.648  -0.346  0.00  0.00     0.062 A 
ATOM      7  F   UNL d   1      -4.037  -2.704  -0.230  0.00  0.00    -0.097 F 
ATOM      8  F1  UNL d   1      -2.913  -2.502  -2.686  0.00  0.00    -0.096 F 
ATOM      9  I   UNL d   1       0.143  -2.331  -3.618  0.00  0.00    -0.060 I 
ATOM     10  F2  UNL d   1       1.400  -2.479  -0.678  0.00  0.00    -0.096 F 
ATOM     11  F3  UNL d   1       0.246  -2.681   1.764  0.00  0.00    -0.097 F 
ATOM     12  F4  UNL d   1      -2.469  -2.794   2.001  0.00  0.00    -0.092 F 
ENDROOT
TORSDOF 0
ENDMDL
