MODEL 1
REMARK minimizedAffinity 13.4961996
REMARK minimizedRMSD -1
REMARK  0 active torsions:
REMARK  status: ('A' for Active; 'I' for Inactive)
ROOT
ATOM      1  C   UNL d   1       5.030  -1.989   4.661  0.00  0.00     0.124 A 
ATOM      2  C1  UNL d   1       4.535  -0.872   4.001  0.00  0.00     0.062 A 
ATOM      3  C2  UNL d   1       4.530  -0.826   2.610  0.00  0.00     0.162 A 
ATOM      4  C3  UNL d   1       5.022  -1.900   1.868  0.00  0.00    -0.034 A 
ATOM      5  C4  UNL d   1       5.519  -3.019   2.539  0.00  0.00     0.162 A 
ATOM      6  C5  UNL d   1       5.521  -3.061   3.929  0.00  0.00     0.062 A 
ATOM      7  F   UNL d   1       6.000  -4.140   4.565  0.00  0.00    -0.097 F 
ATOM      8  F1  UNL d   1       5.999  -4.070   1.857  0.00  0.00    -0.096 F 
ATOM      9  I   UNL d   1       5.017  -1.835  -0.212  0.00  0.00    -0.060 I 
ATOM     10  F2  UNL d   1       4.046   0.266   1.999  0.00  0.00    -0.096 F 
ATOM     11  F3  UNL d   1       4.060   0.165   4.705  0.00  0.00    -0.097 F 
ATOM     12  F4  UNL d   1       5.034  -2.030   5.999  0.00  0.00    -0.092 F 
ENDROOT
TORSDOF 0
ENDMDL
