MODEL 1
REMARK minimizedAffinity 18.6394043
REMARK minimizedRMSD -1
REMARK  0 active torsions:
REMARK  status: ('A' for Active; 'I' for Inactive)
ROOT
ATOM      1  C   UNL d   1       4.833   5.250  -2.955  0.00  0.00     0.124 A 
ATOM      2  C1  UNL d   1       3.633   5.540  -3.589  0.00  0.00     0.062 A 
ATOM      3  C2  UNL d   1       2.439   5.512  -2.874  0.00  0.00     0.162 A 
ATOM      4  C3  UNL d   1       2.440   5.196  -1.516  0.00  0.00    -0.034 A 
ATOM      5  C4  UNL d   1       3.651   4.905  -0.885  0.00  0.00     0.162 A 
ATOM      6  C5  UNL d   1       4.841   4.934  -1.604  0.00  0.00     0.062 A 
ATOM      7  F   UNL d   1       6.000   4.654  -0.990  0.00  0.00    -0.097 F 
ATOM      8  F1  UNL d   1       3.687   4.597   0.420  0.00  0.00    -0.096 F 
ATOM      9  I   UNL d   1       0.657   5.154  -0.443  0.00  0.00    -0.060 I 
ATOM     10  F2  UNL d   1       1.294   5.796  -3.513  0.00  0.00    -0.096 F 
ATOM     11  F3  UNL d   1       3.622   5.845  -4.895  0.00  0.00    -0.097 F 
ATOM     12  F4  UNL d   1       5.980   5.276  -3.646  0.00  0.00    -0.092 F 
ENDROOT
TORSDOF 0
ENDMDL
