MODEL 1
REMARK minimizedAffinity 22.0105953
REMARK minimizedRMSD -1
REMARK  0 active torsions:
REMARK  status: ('A' for Active; 'I' for Inactive)
ROOT
ATOM      1  C   UNL d   1      -0.264  -3.244  -0.450  0.00  0.00     0.124 A 
ATOM      2  C1  UNL d   1      -0.585  -1.973  -0.906  0.00  0.00     0.062 A 
ATOM      3  C2  UNL d   1      -0.339  -1.622  -2.230  0.00  0.00     0.162 A 
ATOM      4  C3  UNL d   1       0.229  -2.544  -3.109  0.00  0.00    -0.034 A 
ATOM      5  C4  UNL d   1       0.550  -3.820  -2.642  0.00  0.00     0.162 A 
ATOM      6  C5  UNL d   1       0.303  -4.166  -1.318  0.00  0.00     0.062 A 
ATOM      7  F   UNL d   1       0.614  -5.394  -0.879  0.00  0.00    -0.097 F 
ATOM      8  F1  UNL d   1       1.098  -4.731  -3.460  0.00  0.00    -0.096 F 
ATOM      9  I   UNL d   1       0.598  -2.024  -5.090  0.00  0.00    -0.060 I 
ATOM     10  F2  UNL d   1      -0.660  -0.387  -2.644  0.00  0.00    -0.096 F 
ATOM     11  F3  UNL d   1      -1.132  -1.080  -0.069  0.00  0.00    -0.097 F 
ATOM     12  F4  UNL d   1      -0.500  -3.579   0.825  0.00  0.00    -0.092 F 
ENDROOT
TORSDOF 0
ENDMDL
