MODEL 1
REMARK minimizedAffinity 9.72486401
REMARK minimizedRMSD -1
REMARK  0 active torsions:
REMARK  status: ('A' for Active; 'I' for Inactive)
ROOT
ATOM      1  C   UNL d   1      -0.662  -2.958  -0.792  0.00  0.00     0.124 A 
ATOM      2  C1  UNL d   1      -0.651  -2.919  -2.179  0.00  0.00     0.062 A 
ATOM      3  C2  UNL d   1       0.490  -2.502  -2.859  0.00  0.00     0.162 A 
ATOM      4  C3  UNL d   1       1.630  -2.120  -2.152  0.00  0.00    -0.034 A 
ATOM      5  C4  UNL d   1       1.612  -2.161  -0.756  0.00  0.00     0.162 A 
ATOM      6  C5  UNL d   1       0.469  -2.579  -0.082  0.00  0.00     0.062 A 
ATOM      7  F   UNL d   1       0.460  -2.616   1.259  0.00  0.00    -0.097 F 
ATOM      8  F1  UNL d   1       2.690  -1.801  -0.045  0.00  0.00    -0.096 F 
ATOM      9  I   UNL d   1       3.338  -1.496  -3.164  0.00  0.00    -0.060 I 
ATOM     10  F2  UNL d   1       0.473  -2.474  -4.200  0.00  0.00    -0.096 F 
ATOM     11  F3  UNL d   1      -1.742  -3.284  -2.867  0.00  0.00    -0.097 F 
ATOM     12  F4  UNL d   1      -1.761  -3.359  -0.140  0.00  0.00    -0.092 F 
ENDROOT
TORSDOF 0
ENDMDL
