MODEL 1
REMARK minimizedAffinity 10.471097
REMARK minimizedRMSD -1
REMARK  0 active torsions:
REMARK  status: ('A' for Active; 'I' for Inactive)
ROOT
ATOM      1  C   UNL d   1      -0.019  -2.295  -2.244  0.00  0.00     0.124 A 
ATOM      2  C1  UNL d   1       0.393  -1.951  -3.524  0.00  0.00     0.062 A 
ATOM      3  C2  UNL d   1       0.118  -2.792  -4.598  0.00  0.00     0.162 A 
ATOM      4  C3  UNL d   1      -0.574  -3.986  -4.397  0.00  0.00    -0.034 A 
ATOM      5  C4  UNL d   1      -0.984  -4.326  -3.107  0.00  0.00     0.162 A 
ATOM      6  C5  UNL d   1      -0.707  -3.481  -2.037  0.00  0.00     0.062 A 
ATOM      7  F   UNL d   1      -1.106  -3.816  -0.801  0.00  0.00    -0.097 F 
ATOM      8  F1  UNL d   1      -1.652  -5.467  -2.878  0.00  0.00    -0.096 F 
ATOM      9  I   UNL d   1      -0.987  -5.248  -6.000  0.00  0.00    -0.060 I 
ATOM     10  F2  UNL d   1       0.528  -2.434  -5.824  0.00  0.00    -0.096 F 
ATOM     11  F3  UNL d   1       1.059  -0.805  -3.727  0.00  0.00    -0.097 F 
ATOM     12  F4  UNL d   1       0.248  -1.483  -1.213  0.00  0.00    -0.092 F 
ENDROOT
TORSDOF 0
ENDMDL
