MODEL 1
REMARK minimizedAffinity 16.0827427
REMARK minimizedRMSD -1
REMARK  0 active torsions:
REMARK  status: ('A' for Active; 'I' for Inactive)
ROOT
ATOM      1  C   UNL d   1      -1.360  -2.794   0.113  0.00  0.00     0.124 A 
ATOM      2  C1  UNL d   1      -0.050  -2.959  -0.315  0.00  0.00     0.062 A 
ATOM      3  C2  UNL d   1       0.256  -2.901  -1.672  0.00  0.00     0.162 A 
ATOM      4  C3  UNL d   1      -0.751  -2.675  -2.611  0.00  0.00    -0.034 A 
ATOM      5  C4  UNL d   1      -2.066  -2.510  -2.173  0.00  0.00     0.162 A 
ATOM      6  C5  UNL d   1      -2.366  -2.569  -0.816  0.00  0.00     0.062 A 
ATOM      7  F   UNL d   1      -3.632  -2.409  -0.404  0.00  0.00    -0.097 F 
ATOM      8  F1  UNL d   1      -3.058  -2.292  -3.049  0.00  0.00    -0.096 F 
ATOM      9  I   UNL d   1      -0.298  -2.588  -4.641  0.00  0.00    -0.060 I 
ATOM     10  F2  UNL d   1       1.530  -3.065  -2.057  0.00  0.00    -0.096 F 
ATOM     11  F3  UNL d   1       0.924  -3.177   0.580  0.00  0.00    -0.097 F 
ATOM     12  F4  UNL d   1      -1.651  -2.851   1.419  0.00  0.00    -0.092 F 
ENDROOT
TORSDOF 0
ENDMDL
