MODEL 1
REMARK minimizedAffinity 6.0857091
REMARK minimizedRMSD -1
REMARK  0 active torsions:
REMARK  status: ('A' for Active; 'I' for Inactive)
ROOT
ATOM      1  C   UNL d   1       1.450  -3.186  -3.477  0.00  0.00     0.124 A 
ATOM      2  C1  UNL d   1       0.480  -4.177  -3.418  0.00  0.00     0.062 A 
ATOM      3  C2  UNL d   1      -0.612  -4.038  -2.565  0.00  0.00     0.162 A 
ATOM      4  C3  UNL d   1      -0.740  -2.902  -1.765  0.00  0.00    -0.034 A 
ATOM      5  C4  UNL d   1       0.240  -1.910  -1.830  0.00  0.00     0.162 A 
ATOM      6  C5  UNL d   1       1.329  -2.054  -2.684  0.00  0.00     0.062 A 
ATOM      7  F   UNL d   1       2.265  -1.095  -2.740  0.00  0.00    -0.097 F 
ATOM      8  F1  UNL d   1       0.148  -0.805  -1.075  0.00  0.00    -0.096 F 
ATOM      9  I   UNL d   1      -2.371  -2.690  -0.489  0.00  0.00    -0.060 I 
ATOM     10  F2  UNL d   1      -1.534  -5.011  -2.528  0.00  0.00    -0.096 F 
ATOM     11  F3  UNL d   1       0.594  -5.272  -4.183  0.00  0.00    -0.097 F 
ATOM     12  F4  UNL d   1       2.499  -3.322  -4.298  0.00  0.00    -0.092 F 
ENDROOT
TORSDOF 0
ENDMDL
