MODEL 1
REMARK minimizedAffinity 16.56394
REMARK minimizedRMSD -1
REMARK  0 active torsions:
REMARK  status: ('A' for Active; 'I' for Inactive)
ROOT
ATOM      1  C   UNL d   1       2.587   4.873  -1.779  0.00  0.00     0.124 A 
ATOM      2  C1  UNL d   1       2.158   4.767  -3.094  0.00  0.00     0.062 A 
ATOM      3  C2  UNL d   1       3.024   5.076  -4.140  0.00  0.00     0.162 A 
ATOM      4  C3  UNL d   1       4.327   5.495  -3.874  0.00  0.00    -0.034 A 
ATOM      5  C4  UNL d   1       4.751   5.600  -2.548  0.00  0.00     0.162 A 
ATOM      6  C5  UNL d   1       3.883   5.290  -1.507  0.00  0.00     0.062 A 
ATOM      7  F   UNL d   1       4.299   5.393  -0.236  0.00  0.00    -0.097 F 
ATOM      8  F1  UNL d   1       5.998   6.000  -2.257  0.00  0.00    -0.096 F 
ATOM      9  I   UNL d   1       5.624   5.959  -5.434  0.00  0.00    -0.060 I 
ATOM     10  F2  UNL d   1       2.582   4.964  -5.402  0.00  0.00    -0.096 F 
ATOM     11  F3  UNL d   1       0.907   4.365  -3.360  0.00  0.00    -0.097 F 
ATOM     12  F4  UNL d   1       1.752   4.576  -0.775  0.00  0.00    -0.092 F 
ENDROOT
TORSDOF 0
ENDMDL
