MODEL 1
REMARK minimizedAffinity 17.1092186
REMARK minimizedRMSD -1
REMARK  0 active torsions:
REMARK  status: ('A' for Active; 'I' for Inactive)
ROOT
ATOM      1  C   UNL d   1      -2.605  -2.975   1.220  0.00  0.00     0.124 A 
ATOM      2  C1  UNL d   1      -3.061  -3.026  -0.090  0.00  0.00     0.062 A 
ATOM      3  C2  UNL d   1      -2.241  -2.609  -1.134  0.00  0.00     0.162 A 
ATOM      4  C3  UNL d   1      -0.954  -2.138  -0.873  0.00  0.00    -0.034 A 
ATOM      5  C4  UNL d   1      -0.502  -2.089   0.447  0.00  0.00     0.162 A 
ATOM      6  C5  UNL d   1      -1.326  -2.507   1.487  0.00  0.00     0.062 A 
ATOM      7  F   UNL d   1      -0.883  -2.457   2.752  0.00  0.00    -0.097 F 
ATOM      8  F1  UNL d   1       0.729  -1.641   0.733  0.00  0.00    -0.096 F 
ATOM      9  I   UNL d   1       0.275  -1.514  -2.432  0.00  0.00    -0.060 I 
ATOM     10  F2  UNL d   1      -2.709  -2.670  -2.390  0.00  0.00    -0.096 F 
ATOM     11  F3  UNL d   1      -4.297  -3.478  -0.350  0.00  0.00    -0.097 F 
ATOM     12  F4  UNL d   1      -3.396  -3.376   2.223  0.00  0.00    -0.092 F 
ENDROOT
TORSDOF 0
ENDMDL
