MODEL 1
REMARK minimizedAffinity -1.82998264
REMARK minimizedRMSD -1
REMARK  0 active torsions:
REMARK  status: ('A' for Active; 'I' for Inactive)
ROOT
ATOM      1  N1  IND d   1       0.987   1.349   0.508  0.00  0.00    -0.196 N 
ATOM      2  C2  IND d   1      -0.129   2.024   0.919  0.00  0.00     0.054 A 
ATOM      3  C3  IND d   1      -1.245   1.368   0.532  0.00  0.00    -0.031 A 
ATOM      4  C4  IND d   1      -1.476  -0.883  -0.696  0.00  0.00     0.051 A 
ATOM      5  C5  IND d   1      -0.738  -1.857  -1.308  0.00  0.00    -0.031 A 
ATOM      6  C6  IND d   1       0.640  -1.812  -1.345  0.00  0.00     0.015 A 
ATOM      7  C7  IND d   1       1.336  -0.793  -0.758  0.00  0.00    -0.016 A 
ATOM      8  C8  IND d   1       0.589   0.201  -0.141  0.00  0.00    -0.047 A 
ATOM      9  C9  IND d   1      -0.811   0.183  -0.138  0.00  0.00    -0.096 A 
ATOM     10  HN1 IND d   1       1.799   1.599   0.634  0.00  0.00     0.298 HD
ENDROOT
TORSDOF 0
ENDMDL
