MODEL 1
REMARK minimizedAffinity -5.24230528
REMARK minimizedRMSD -1
REMARK  0 active torsions:
REMARK  status: ('A' for Active; 'I' for Inactive)
ROOT
ATOM      1  N1  IND d   1       0.944  -0.171  -1.065  0.00  0.00    -0.196 N 
ATOM      2  C2  IND d   1      -0.063  -1.089  -0.955  0.00  0.00     0.054 A 
ATOM      3  C3  IND d   1      -0.852  -0.798   0.104  0.00  0.00    -0.031 A 
ATOM      4  C4  IND d   1      -0.734   1.193   1.732  0.00  0.00     0.051 A 
ATOM      5  C5  IND d   1       0.034   2.276   2.055  0.00  0.00    -0.031 A 
ATOM      6  C6  IND d   1       1.166   2.607   1.339  0.00  0.00     0.015 A 
ATOM      7  C7  IND d   1       1.567   1.871   0.261  0.00  0.00    -0.016 A 
ATOM      8  C8  IND d   1       0.794   0.766  -0.066  0.00  0.00    -0.047 A 
ATOM      9  C9  IND d   1      -0.332   0.400   0.683  0.00  0.00    -0.096 A 
ATOM     10  HN1 IND d   1       1.567  -0.178  -1.658  0.00  0.00     0.298 HD
ENDROOT
TORSDOF 0
ENDMDL
