MODEL 1
REMARK minimizedAffinity -1.4388684
REMARK minimizedRMSD -1
REMARK  0 active torsions:
REMARK  status: ('A' for Active; 'I' for Inactive)
ROOT
ATOM      1  N1  IND d   1      -0.244   0.024  -1.329  0.00  0.00    -0.196 N 
ATOM      2  C2  IND d   1      -0.336  -1.328  -1.145  0.00  0.00     0.054 A 
ATOM      3  C3  IND d   1      -0.160  -1.639   0.159  0.00  0.00    -0.031 A 
ATOM      4  C4  IND d   1       0.189  -0.081   2.179  0.00  0.00     0.051 A 
ATOM      5  C5  IND d   1       0.379   1.232   2.506  0.00  0.00    -0.031 A 
ATOM      6  C6  IND d   1       0.368   2.230   1.553  0.00  0.00     0.015 A 
ATOM      7  C7  IND d   1       0.155   1.952   0.232  0.00  0.00    -0.016 A 
ATOM      8  C8  IND d   1      -0.032   0.619  -0.104  0.00  0.00    -0.047 A 
ATOM      9  C9  IND d   1       0.020  -0.403   0.853  0.00  0.00    -0.096 A 
ATOM     10  HN1 IND d   1      -0.308   0.433  -2.082  0.00  0.00     0.298 HD
ENDROOT
TORSDOF 0
ENDMDL
