MODEL 1
REMARK minimizedAffinity -1.93513238
REMARK minimizedRMSD -1
REMARK  0 active torsions:
REMARK  status: ('A' for Active; 'I' for Inactive)
ROOT
ATOM      1  N1  IND d   1       0.773  -0.030  -0.819  0.00  0.00    -0.196 N 
ATOM      2  C2  IND d   1       0.197   0.094   0.414  0.00  0.00     0.054 A 
ATOM      3  C3  IND d   1      -1.116  -0.223   0.355  0.00  0.00    -0.031 A 
ATOM      4  C4  IND d   1      -2.505  -1.067  -1.641  0.00  0.00     0.051 A 
ATOM      5  C5  IND d   1      -2.427  -1.306  -2.985  0.00  0.00    -0.031 A 
ATOM      6  C6  IND d   1      -1.253  -1.130  -3.689  0.00  0.00     0.015 A 
ATOM      7  C7  IND d   1      -0.106  -0.718  -3.071  0.00  0.00    -0.016 A 
ATOM      8  C8  IND d   1      -0.184  -0.468  -1.708  0.00  0.00    -0.047 A 
ATOM      9  C9  IND d   1      -1.383  -0.604  -0.996  0.00  0.00    -0.096 A 
ATOM     10  HN1 IND d   1       1.594   0.139  -1.009  0.00  0.00     0.298 HD
ENDROOT
TORSDOF 0
ENDMDL
