MODEL 1
REMARK minimizedAffinity -5.4374218
REMARK minimizedRMSD -1
REMARK  0 active torsions:
REMARK  status: ('A' for Active; 'I' for Inactive)
ROOT
ATOM      1  N1  IND d   1       0.786  -0.178  -1.263  0.00  0.00    -0.196 N 
ATOM      2  C2  IND d   1      -0.008  -1.271  -1.056  0.00  0.00     0.054 A 
ATOM      3  C3  IND d   1      -0.736  -1.116   0.073  0.00  0.00    -0.031 A 
ATOM      4  C4  IND d   1      -0.856   0.892   1.679  0.00  0.00     0.051 A 
ATOM      5  C5  IND d   1      -0.287   2.110   1.925  0.00  0.00    -0.031 A 
ATOM      6  C6  IND d   1       0.687   2.640   1.103  0.00  0.00     0.015 A 
ATOM      7  C7  IND d   1       1.122   1.973  -0.007  0.00  0.00    -0.016 A 
ATOM      8  C8  IND d   1       0.551   0.733  -0.257  0.00  0.00    -0.047 A 
ATOM      9  C9  IND d   1      -0.407   0.171   0.597  0.00  0.00    -0.096 A 
ATOM     10  HN1 IND d   1       1.340  -0.076  -1.913  0.00  0.00     0.298 HD
ENDROOT
TORSDOF 0
ENDMDL
