MODEL 1
REMARK minimizedAffinity -1.67728984
REMARK minimizedRMSD -1
REMARK  0 active torsions:
REMARK  status: ('A' for Active; 'I' for Inactive)
ROOT
ATOM      1  N1  IND d   1       0.150  -0.153  -1.116  0.00  0.00    -0.196 N 
ATOM      2  C2  IND d   1      -0.644  -1.260  -0.998  0.00  0.00     0.054 A 
ATOM      3  C3  IND d   1      -1.031  -1.426   0.287  0.00  0.00    -0.031 A 
ATOM      4  C4  IND d   1      -0.563   0.056   2.340  0.00  0.00     0.051 A 
ATOM      5  C5  IND d   1       0.145   1.156   2.736  0.00  0.00    -0.031 A 
ATOM      6  C6  IND d   1       0.903   1.892   1.849  0.00  0.00     0.015 A 
ATOM      7  C7  IND d   1       0.974   1.561   0.526  0.00  0.00    -0.016 A 
ATOM      8  C8  IND d   1       0.262   0.441   0.122  0.00  0.00    -0.047 A 
ATOM      9  C9  IND d   1      -0.475  -0.336   1.025  0.00  0.00    -0.096 A 
ATOM     10  HN1 IND d   1       0.518   0.125  -1.842  0.00  0.00     0.298 HD
ENDROOT
TORSDOF 0
ENDMDL
