MODEL 1
REMARK minimizedAffinity -1.063164
REMARK minimizedRMSD -1
REMARK  0 active torsions:
REMARK  status: ('A' for Active; 'I' for Inactive)
ROOT
ATOM      1  N1  IND d   1       0.758   0.072  -0.922  0.00  0.00    -0.196 N 
ATOM      2  C2  IND d   1       0.487  -0.091   0.408  0.00  0.00     0.054 A 
ATOM      3  C3  IND d   1      -0.610  -0.864   0.573  0.00  0.00    -0.031 A 
ATOM      4  C4  IND d   1      -2.054  -2.052  -1.195  0.00  0.00     0.051 A 
ATOM      5  C5  IND d   1      -2.221  -2.173  -2.547  0.00  0.00    -0.031 A 
ATOM      6  C6  IND d   1      -1.384  -1.541  -3.443  0.00  0.00     0.015 A 
ATOM      7  C7  IND d   1      -0.338  -0.770  -3.020  0.00  0.00    -0.016 A 
ATOM      8  C8  IND d   1      -0.170  -0.640  -1.649  0.00  0.00    -0.047 A 
ATOM      9  C9  IND d   1      -1.042  -1.244  -0.734  0.00  0.00    -0.096 A 
ATOM     10  HN1 IND d   1       1.401   0.540  -1.249  0.00  0.00     0.298 HD
ENDROOT
TORSDOF 0
ENDMDL
