MODEL 1
REMARK minimizedAffinity -2.96905422
REMARK minimizedRMSD -1
REMARK  0 active torsions:
REMARK  status: ('A' for Active; 'I' for Inactive)
ROOT
ATOM      1  N1  IND d   1       1.518  -0.590  -0.697  0.00  0.00    -0.196 N 
ATOM      2  C2  IND d   1       0.618  -1.619  -0.693  0.00  0.00     0.054 A 
ATOM      3  C3  IND d   1      -0.506  -1.259  -0.035  0.00  0.00    -0.031 A 
ATOM      4  C4  IND d   1      -1.125   1.003   1.027  0.00  0.00     0.051 A 
ATOM      5  C5  IND d   1      -0.612   2.238   1.308  0.00  0.00    -0.031 A 
ATOM      6  C6  IND d   1       0.663   2.602   0.924  0.00  0.00     0.015 A 
ATOM      7  C7  IND d   1       1.471   1.744   0.232  0.00  0.00    -0.016 A 
ATOM      8  C8  IND d   1       0.955   0.487  -0.048  0.00  0.00    -0.047 A 
ATOM      9  C9  IND d   1      -0.322   0.097   0.376  0.00  0.00    -0.096 A 
ATOM     10  HN1 IND d   1       2.303  -0.611  -1.047  0.00  0.00     0.298 HD
ENDROOT
TORSDOF 0
ENDMDL
