MODEL 1
REMARK minimizedAffinity -4.90759659
REMARK minimizedRMSD -1
REMARK  0 active torsions:
REMARK  status: ('A' for Active; 'I' for Inactive)
ROOT
ATOM      1  N1  IND d   1       1.572   0.966   1.508  0.00  0.00    -0.196 N 
ATOM      2  C2  IND d   1       1.081   1.916   2.359  0.00  0.00     0.054 A 
ATOM      3  C3  IND d   1      -0.226   2.149   2.101  0.00  0.00    -0.031 A 
ATOM      4  C4  IND d   1      -1.784   1.013   0.396  0.00  0.00     0.051 A 
ATOM      5  C5  IND d   1      -1.782   0.111  -0.631  0.00  0.00    -0.031 A 
ATOM      6  C6  IND d   1      -0.640  -0.568  -1.003  0.00  0.00     0.015 A 
ATOM      7  C7  IND d   1       0.546  -0.378  -0.351  0.00  0.00    -0.016 A 
ATOM      8  C8  IND d   1       0.550   0.543   0.687  0.00  0.00    -0.047 A 
ATOM      9  C9  IND d   1      -0.596   1.267   1.041  0.00  0.00    -0.096 A 
ATOM     10  HN1 IND d   1       2.383   0.681   1.488  0.00  0.00     0.298 HD
ENDROOT
TORSDOF 0
ENDMDL
