MODEL 1
REMARK minimizedAffinity -4.7782836
REMARK minimizedRMSD -1
REMARK  0 active torsions:
REMARK  status: ('A' for Active; 'I' for Inactive)
ROOT
ATOM      1  N1  IND d   1       0.018  -0.293  -0.795  0.00  0.00    -0.196 N 
ATOM      2  C2  IND d   1      -0.935  -0.838   0.019  0.00  0.00     0.054 A 
ATOM      3  C3  IND d   1      -0.819  -0.346   1.273  0.00  0.00    -0.031 A 
ATOM      4  C4  IND d   1       0.796   1.437   2.188  0.00  0.00     0.051 A 
ATOM      5  C5  IND d   1       1.873   2.200   1.831  0.00  0.00    -0.031 A 
ATOM      6  C6  IND d   1       2.394   2.172   0.553  0.00  0.00     0.015 A 
ATOM      7  C7  IND d   1       1.850   1.386  -0.422  0.00  0.00    -0.016 A 
ATOM      8  C8  IND d   1       0.761   0.604  -0.061  0.00  0.00    -0.047 A 
ATOM      9  C9  IND d   1       0.254   0.596   1.245  0.00  0.00    -0.096 A 
ATOM     10  HN1 IND d   1       0.133  -0.480  -1.627  0.00  0.00     0.298 HD
ENDROOT
TORSDOF 0
ENDMDL
