MODEL 1
REMARK minimizedAffinity 1.48276079
REMARK minimizedRMSD -1
REMARK  0 active torsions:
REMARK  status: ('A' for Active; 'I' for Inactive)
ROOT
ATOM      1  N1  IND d   1       2.194  -0.753  -1.036  0.00  0.00    -0.196 N 
ATOM      2  C2  IND d   1       2.938   0.216  -0.424  0.00  0.00     0.054 A 
ATOM      3  C3  IND d   1       2.167   0.939   0.419  0.00  0.00    -0.031 A 
ATOM      4  C4  IND d   1      -0.317   0.641   1.025  0.00  0.00     0.051 A 
ATOM      5  C5  IND d   1      -1.427  -0.087   0.695  0.00  0.00    -0.031 A 
ATOM      6  C6  IND d   1      -1.384  -1.096  -0.245  0.00  0.00     0.015 A 
ATOM      7  C7  IND d   1      -0.223  -1.424  -0.886  0.00  0.00    -0.016 A 
ATOM      8  C8  IND d   1       0.904  -0.683  -0.559  0.00  0.00    -0.047 A 
ATOM      9  C9  IND d   1       0.857   0.371   0.364  0.00  0.00    -0.096 A 
ATOM     10  HN1 IND d   1       2.483  -1.313  -1.622  0.00  0.00     0.298 HD
ENDROOT
TORSDOF 0
ENDMDL
