MODEL 1
REMARK minimizedAffinity -4.15235043
REMARK minimizedRMSD -1
REMARK  0 active torsions:
REMARK  status: ('A' for Active; 'I' for Inactive)
ROOT
ATOM      1  N1  IND d   1       2.136   1.745   0.201  0.00  0.00    -0.196 N 
ATOM      2  C2  IND d   1       1.541   2.484   1.185  0.00  0.00     0.054 A 
ATOM      3  C3  IND d   1       0.398   1.889   1.594  0.00  0.00    -0.031 A 
ATOM      4  C4  IND d   1      -0.635  -0.351   0.858  0.00  0.00     0.051 A 
ATOM      5  C5  IND d   1      -0.474  -1.368  -0.041  0.00  0.00    -0.031 A 
ATOM      6  C6  IND d   1       0.588  -1.401  -0.922  0.00  0.00     0.015 A 
ATOM      7  C7  IND d   1       1.539  -0.420  -0.928  0.00  0.00    -0.016 A 
ATOM      8  C8  IND d   1       1.375   0.618  -0.021  0.00  0.00    -0.047 A 
ATOM      9  C9  IND d   1       0.277   0.678   0.846  0.00  0.00    -0.096 A 
ATOM     10  HN1 IND d   1       2.862   1.949  -0.211  0.00  0.00     0.298 HD
ENDROOT
TORSDOF 0
ENDMDL
