MODEL 1
REMARK minimizedAffinity -2.63815451
REMARK minimizedRMSD -1
REMARK  0 active torsions:
REMARK  status: ('A' for Active; 'I' for Inactive)
ROOT
ATOM      1  N1  IND d   1       0.967  -0.075  -1.000  0.00  0.00    -0.196 N 
ATOM      2  C2  IND d   1      -0.109  -0.919  -1.019  0.00  0.00     0.054 A 
ATOM      3  C3  IND d   1      -0.972  -0.603  -0.027  0.00  0.00    -0.031 A 
ATOM      4  C4  IND d   1      -0.868   1.320   1.681  0.00  0.00     0.051 A 
ATOM      5  C5  IND d   1      -0.059   2.332   2.115  0.00  0.00    -0.031 A 
ATOM      6  C6  IND d   1       1.157   2.601   1.520  0.00  0.00     0.015 A 
ATOM      7  C7  IND d   1       1.605   1.871   0.456  0.00  0.00    -0.016 A 
ATOM      8  C8  IND d   1       0.790   0.838   0.016  0.00  0.00    -0.047 A 
ATOM      9  C9  IND d   1      -0.425   0.534   0.644  0.00  0.00    -0.096 A 
ATOM     10  HN1 IND d   1       1.641  -0.110  -1.532  0.00  0.00     0.298 HD
ENDROOT
TORSDOF 0
ENDMDL
