MODEL 1
REMARK minimizedAffinity -1.6758579
REMARK minimizedRMSD -1
REMARK  0 active torsions:
REMARK  status: ('A' for Active; 'I' for Inactive)
ROOT
ATOM      1  N1  IND d   1       0.520   0.030  -1.206  0.00  0.00    -0.196 N 
ATOM      2  C2  IND d   1      -0.209  -1.117  -1.058  0.00  0.00     0.054 A 
ATOM      3  C3  IND d   1      -0.752  -1.173   0.179  0.00  0.00    -0.031 A 
ATOM      4  C4  IND d   1      -0.658   0.555   2.086  0.00  0.00     0.051 A 
ATOM      5  C5  IND d   1      -0.082   1.744   2.434  0.00  0.00    -0.031 A 
ATOM      6  C6  IND d   1       0.738   2.438   1.569  0.00  0.00     0.015 A 
ATOM      7  C7  IND d   1       1.005   1.972   0.313  0.00  0.00    -0.016 A 
ATOM      8  C8  IND d   1       0.428   0.761  -0.042  0.00  0.00    -0.047 A 
ATOM      9  C9  IND d   1      -0.371   0.031   0.847  0.00  0.00    -0.096 A 
ATOM     10  HN1 IND d   1       0.962   0.256  -1.908  0.00  0.00     0.298 HD
ENDROOT
TORSDOF 0
ENDMDL
