MODEL 1
REMARK minimizedAffinity -2.09789348
REMARK minimizedRMSD -1
REMARK  0 active torsions:
REMARK  status: ('A' for Active; 'I' for Inactive)
ROOT
ATOM      1  N1  IND d   1      -0.983   1.086   1.415  0.00  0.00    -0.196 N 
ATOM      2  C2  IND d   1      -0.180   2.153   1.705  0.00  0.00     0.054 A 
ATOM      3  C3  IND d   1       1.015   2.024   1.085  0.00  0.00    -0.031 A 
ATOM      4  C4  IND d   1       1.830   0.196  -0.533  0.00  0.00     0.051 A 
ATOM      5  C5  IND d   1       1.463  -1.005  -1.074  0.00  0.00    -0.031 A 
ATOM      6  C6  IND d   1       0.237  -1.580  -0.811  0.00  0.00     0.015 A 
ATOM      7  C7  IND d   1      -0.677  -0.967  -0.001  0.00  0.00    -0.016 A 
ATOM      8  C8  IND d   1      -0.306   0.248   0.556  0.00  0.00    -0.047 A 
ATOM      9  C9  IND d   1       0.954   0.816   0.326  0.00  0.00    -0.096 A 
ATOM     10  HN1 IND d   1      -1.778   0.959   1.718  0.00  0.00     0.298 HD
ENDROOT
TORSDOF 0
ENDMDL
