MODEL 1
REMARK minimizedAffinity -4.68733931
REMARK minimizedRMSD -1
REMARK  0 active torsions:
REMARK  status: ('A' for Active; 'I' for Inactive)
ROOT
ATOM      1  N1  IND d   1      -0.417   1.833   1.546  0.00  0.00    -0.196 N 
ATOM      2  C2  IND d   1       0.548   2.725   1.924  0.00  0.00     0.054 A 
ATOM      3  C3  IND d   1       1.731   2.408   1.352  0.00  0.00    -0.031 A 
ATOM      4  C4  IND d   1       2.289   0.529  -0.317  0.00  0.00     0.051 A 
ATOM      5  C5  IND d   1       1.743  -0.562  -0.933  0.00  0.00    -0.031 A 
ATOM      6  C6  IND d   1       0.421  -0.916  -0.752  0.00  0.00     0.015 A 
ATOM      7  C7  IND d   1      -0.410  -0.182   0.046  0.00  0.00    -0.016 A 
ATOM      8  C8  IND d   1       0.143   0.922   0.678  0.00  0.00    -0.047 A 
ATOM      9  C9  IND d   1       1.494   1.262   0.532  0.00  0.00    -0.096 A 
ATOM     10  HN1 IND d   1      -1.237   1.840   1.807  0.00  0.00     0.298 HD
ENDROOT
TORSDOF 0
ENDMDL
