MODEL 1
REMARK minimizedAffinity -0.529037714
REMARK minimizedRMSD -1
REMARK  0 active torsions:
REMARK  status: ('A' for Active; 'I' for Inactive)
ROOT
ATOM      1  N1  IND d   1      -0.770  -0.694   0.694  0.00  0.00    -0.196 N 
ATOM      2  C2  IND d   1      -0.366  -1.521  -0.317  0.00  0.00     0.054 A 
ATOM      3  C3  IND d   1       0.657  -0.962  -1.001  0.00  0.00    -0.031 A 
ATOM      4  C4  IND d   1       1.895   1.254  -0.572  0.00  0.00     0.051 A 
ATOM      5  C5  IND d   1       1.863   2.370   0.217  0.00  0.00    -0.031 A 
ATOM      6  C6  IND d   1       0.936   2.524   1.227  0.00  0.00     0.015 A 
ATOM      7  C7  IND d   1       0.008   1.557   1.494  0.00  0.00    -0.016 A 
ATOM      8  C8  IND d   1       0.032   0.426   0.692  0.00  0.00    -0.047 A 
ATOM      9  C9  IND d   1       0.944   0.283  -0.362  0.00  0.00    -0.096 A 
ATOM     10  HN1 IND d   1      -1.416  -0.848   1.241  0.00  0.00     0.298 HD
ENDROOT
TORSDOF 0
ENDMDL
