MODEL 1
REMARK minimizedAffinity -1.75963044
REMARK minimizedRMSD -1
REMARK  0 active torsions:
REMARK  status: ('A' for Active; 'I' for Inactive)
ROOT
ATOM      1  N1  IND d   1      -0.565  -0.467   1.043  0.00  0.00    -0.196 N 
ATOM      2  C2  IND d   1      -0.984  -0.037   2.271  0.00  0.00     0.054 A 
ATOM      3  C3  IND d   1      -0.531   1.214   2.512  0.00  0.00    -0.031 A 
ATOM      4  C4  IND d   1       0.830   2.781   0.989  0.00  0.00     0.051 A 
ATOM      5  C5  IND d   1       1.479   2.819  -0.213  0.00  0.00    -0.031 A 
ATOM      6  C6  IND d   1       1.477   1.743  -1.077  0.00  0.00     0.015 A 
ATOM      7  C7  IND d   1       0.814   0.588  -0.774  0.00  0.00    -0.016 A 
ATOM      8  C8  IND d   1       0.160   0.543   0.449  0.00  0.00    -0.047 A 
ATOM      9  C9  IND d   1       0.194   1.616   1.349  0.00  0.00    -0.096 A 
ATOM     10  HN1 IND d   1      -0.727  -1.238   0.699  0.00  0.00     0.298 HD
ENDROOT
TORSDOF 0
ENDMDL
