MODEL 1
REMARK minimizedAffinity -1.8674742
REMARK minimizedRMSD -1
REMARK  0 active torsions:
REMARK  status: ('A' for Active; 'I' for Inactive)
ROOT
ATOM      1  C1  BNZ d   1       0.842   0.000  -0.069  0.00  0.00     0.000 A 
ATOM      2  C2  BNZ d   1       0.375   1.287  -0.062  0.00  0.00     0.000 A 
ATOM      3  C3  BNZ d   1      -0.702   1.637   0.704  0.00  0.00     0.000 A 
ATOM      4  C4  BNZ d   1      -1.334   0.692   1.430  0.00  0.00     0.000 A 
ATOM      5  C5  BNZ d   1      -0.881  -0.612   1.426  0.00  0.00     0.000 A 
ATOM      6  C6  BNZ d   1       0.227  -0.952   0.684  0.00  0.00     0.000 A 
ENDROOT
TORSDOF 0
ENDMDL
