MODEL 1
REMARK minimizedAffinity -4.44683361
REMARK minimizedRMSD -1
REMARK  0 active torsions:
REMARK  status: ('A' for Active; 'I' for Inactive)
ROOT
ATOM      1  C1  BNZ d   1      -2.471  -0.927   0.918  0.00  0.00     0.000 A 
ATOM      2  C2  BNZ d   1      -2.210   0.374   1.257  0.00  0.00     0.000 A 
ATOM      3  C3  BNZ d   1      -1.056   0.985   0.852  0.00  0.00     0.000 A 
ATOM      4  C4  BNZ d   1      -0.148   0.283   0.143  0.00  0.00     0.000 A 
ATOM      5  C5  BNZ d   1      -0.393  -1.032  -0.199  0.00  0.00     0.000 A 
ATOM      6  C6  BNZ d   1      -1.573  -1.632   0.178  0.00  0.00     0.000 A 
ENDROOT
TORSDOF 0
ENDMDL
