MODEL 1
REMARK minimizedAffinity -4.10501862
REMARK minimizedRMSD -1
REMARK  0 active torsions:
REMARK  status: ('A' for Active; 'I' for Inactive)
ROOT
ATOM      1  C1  BNZ d   1       0.742   0.251   0.160  0.00  0.00     0.000 A 
ATOM      2  C2  BNZ d   1       1.142  -1.035   0.409  0.00  0.00     0.000 A 
ATOM      3  C3  BNZ d   1       0.234  -1.995   0.757  0.00  0.00     0.000 A 
ATOM      4  C4  BNZ d   1      -1.065  -1.661   0.894  0.00  0.00     0.000 A 
ATOM      5  C5  BNZ d   1      -1.483  -0.366   0.656  0.00  0.00     0.000 A 
ATOM      6  C6  BNZ d   1      -0.572   0.589   0.267  0.00  0.00     0.000 A 
ENDROOT
TORSDOF 0
ENDMDL
