MODEL 1
REMARK minimizedAffinity -3.73014832
REMARK minimizedRMSD -1
REMARK  0 active torsions:
REMARK  status: ('A' for Active; 'I' for Inactive)
ROOT
ATOM      1  C1  BNZ d   1      -1.927  -1.172   0.580  0.00  0.00     0.000 A 
ATOM      2  C2  BNZ d   1      -1.276  -0.073   0.084  0.00  0.00     0.000 A 
ATOM      3  C3  BNZ d   1       0.090  -0.019   0.062  0.00  0.00     0.000 A 
ATOM      4  C4  BNZ d   1       0.802  -1.045   0.573  0.00  0.00     0.000 A 
ATOM      5  C5  BNZ d   1       0.160  -2.155   1.085  0.00  0.00     0.000 A 
ATOM      6  C6  BNZ d   1      -1.214  -2.222   1.069  0.00  0.00     0.000 A 
ENDROOT
TORSDOF 0
ENDMDL
