MODEL 1
REMARK minimizedAffinity -4.12102556
REMARK minimizedRMSD -1
REMARK  0 active torsions:
REMARK  status: ('A' for Active; 'I' for Inactive)
ROOT
ATOM      1  C1  BNZ d   1      -1.920  -1.375   1.177  0.00  0.00     0.000 A 
ATOM      2  C2  BNZ d   1      -1.582  -0.295   0.405  0.00  0.00     0.000 A 
ATOM      3  C3  BNZ d   1      -0.290  -0.100   0.003  0.00  0.00     0.000 A 
ATOM      4  C4  BNZ d   1       0.667  -0.961   0.406  0.00  0.00     0.000 A 
ATOM      5  C5  BNZ d   1       0.343  -2.049   1.192  0.00  0.00     0.000 A 
ATOM      6  C6  BNZ d   1      -0.965  -2.263   1.562  0.00  0.00     0.000 A 
ENDROOT
TORSDOF 0
ENDMDL
