MODEL 1
REMARK minimizedAffinity -5.26947498
REMARK minimizedRMSD -1
REMARK  0 active torsions:
REMARK  status: ('A' for Active; 'I' for Inactive)
ROOT
ATOM      1  C1  BNZ d   1      -1.233   0.007   0.553  0.00  0.00     0.000 A 
ATOM      2  C2  BNZ d   1      -2.221   0.358   1.434  0.00  0.00     0.000 A 
ATOM      3  C3  BNZ d   1      -2.850  -0.589   2.194  0.00  0.00     0.000 A 
ATOM      4  C4  BNZ d   1      -2.518  -1.887   2.043  0.00  0.00     0.000 A 
ATOM      5  C5  BNZ d   1      -1.531  -2.258   1.152  0.00  0.00     0.000 A 
ATOM      6  C6  BNZ d   1      -0.873  -1.298   0.417  0.00  0.00     0.000 A 
ENDROOT
TORSDOF 0
ENDMDL
