MODEL 1
REMARK minimizedAffinity -5.02891207
REMARK minimizedRMSD -1
REMARK  0 active torsions:
REMARK  status: ('A' for Active; 'I' for Inactive)
ROOT
ATOM      1  C1  BNZ d   1      -1.831  -0.164   1.764  0.00  0.00     0.000 A 
ATOM      2  C2  BNZ d   1      -1.671  -1.523   1.803  0.00  0.00     0.000 A 
ATOM      3  C3  BNZ d   1      -0.989  -2.176   0.815  0.00  0.00     0.000 A 
ATOM      4  C4  BNZ d   1      -0.502  -1.475  -0.230  0.00  0.00     0.000 A 
ATOM      5  C5  BNZ d   1      -0.663  -0.105  -0.288  0.00  0.00     0.000 A 
ATOM      6  C6  BNZ d   1      -1.317   0.554   0.729  0.00  0.00     0.000 A 
ENDROOT
TORSDOF 0
ENDMDL
