MODEL 1
REMARK minimizedAffinity -3.56132936
REMARK minimizedRMSD -1
REMARK  0 active torsions:
REMARK  status: ('A' for Active; 'I' for Inactive)
ROOT
ATOM      1  C1  BNZ d   1       0.457  -1.590   1.055  0.00  0.00     0.000 A 
ATOM      2  C2  BNZ d   1      -0.613  -2.439   1.150  0.00  0.00     0.000 A 
ATOM      3  C3  BNZ d   1      -1.810  -2.124   0.570  0.00  0.00     0.000 A 
ATOM      4  C4  BNZ d   1      -1.947  -0.945  -0.069  0.00  0.00     0.000 A 
ATOM      5  C5  BNZ d   1      -0.880  -0.074  -0.166  0.00  0.00     0.000 A 
ATOM      6  C6  BNZ d   1       0.334  -0.412   0.386  0.00  0.00     0.000 A 
ENDROOT
TORSDOF 0
ENDMDL
