MODEL 1
REMARK minimizedAffinity -4.52662325
REMARK minimizedRMSD -1
REMARK  0 active torsions:
REMARK  status: ('A' for Active; 'I' for Inactive)
ROOT
ATOM      1  C1  BNZ d   1       0.900  -1.465   0.233  0.00  0.00     0.000 A 
ATOM      2  C2  BNZ d   1      -0.223  -2.178   0.559  0.00  0.00     0.000 A 
ATOM      3  C3  BNZ d   1      -1.462  -1.605   0.481  0.00  0.00     0.000 A 
ATOM      4  C4  BNZ d   1      -1.573  -0.312   0.117  0.00  0.00     0.000 A 
ATOM      5  C5  BNZ d   1      -0.450   0.423  -0.205  0.00  0.00     0.000 A 
ATOM      6  C6  BNZ d   1       0.793  -0.168  -0.164  0.00  0.00     0.000 A 
ENDROOT
TORSDOF 0
ENDMDL
