MODEL 1
REMARK minimizedAffinity -0.240347937
REMARK minimizedRMSD -1
REMARK  0 active torsions:
REMARK  status: ('A' for Active; 'I' for Inactive)
ROOT
ATOM      1  C1  BNZ d   1      -1.390  -5.653  -3.650  0.00  0.00     0.000 A 
ATOM      2  C2  BNZ d   1      -0.788  -5.281  -4.823  0.00  0.00     0.000 A 
ATOM      3  C3  BNZ d   1      -1.496  -5.243  -5.991  0.00  0.00     0.000 A 
ATOM      4  C4  BNZ d   1      -2.793  -5.614  -5.993  0.00  0.00     0.000 A 
ATOM      5  C5  BNZ d   1      -3.412  -6.000  -4.821  0.00  0.00     0.000 A 
ATOM      6  C6  BNZ d   1      -2.706  -6.000  -3.640  0.00  0.00     0.000 A 
ENDROOT
TORSDOF 0
ENDMDL
