MODEL 1
REMARK minimizedAffinity -1.80203581
REMARK minimizedRMSD -1
REMARK  0 active torsions:
REMARK  status: ('A' for Active; 'I' for Inactive)
ROOT
ATOM      1  C1  BNZ d   1      -0.212   1.185  -0.123  0.00  0.00     0.000 A 
ATOM      2  C2  BNZ d   1      -0.325  -0.150  -0.405  0.00  0.00     0.000 A 
ATOM      3  C3  BNZ d   1      -1.474  -0.832  -0.115  0.00  0.00     0.000 A 
ATOM      4  C4  BNZ d   1      -2.491  -0.189   0.494  0.00  0.00     0.000 A 
ATOM      5  C5  BNZ d   1      -2.388   1.155   0.794  0.00  0.00     0.000 A 
ATOM      6  C6  BNZ d   1      -1.245   1.847   0.465  0.00  0.00     0.000 A 
ENDROOT
TORSDOF 0
ENDMDL
