MODEL 1
REMARK minimizedAffinity -4.84080362
REMARK minimizedRMSD -1
REMARK  0 active torsions:
REMARK  status: ('A' for Active; 'I' for Inactive)
ROOT
ATOM      1  C1  BNZ d   1      -2.075  -1.450   0.568  0.00  0.00     0.000 A 
ATOM      2  C2  BNZ d   1      -1.321  -0.508  -0.080  0.00  0.00     0.000 A 
ATOM      3  C3  BNZ d   1       0.041  -0.501   0.036  0.00  0.00     0.000 A 
ATOM      4  C4  BNZ d   1       0.643  -1.410   0.829  0.00  0.00     0.000 A 
ATOM      5  C5  BNZ d   1      -0.104  -2.361   1.496  0.00  0.00     0.000 A 
ATOM      6  C6  BNZ d   1      -1.471  -2.389   1.346  0.00  0.00     0.000 A 
ENDROOT
TORSDOF 0
ENDMDL
