MODEL 1
REMARK minimizedAffinity -3.67631531
REMARK minimizedRMSD -1
REMARK  0 active torsions:
REMARK  status: ('A' for Active; 'I' for Inactive)
ROOT
ATOM      1  C1  BNZ d   1       0.867  -0.778   0.492  0.00  0.00     0.000 A 
ATOM      2  C2  BNZ d   1       0.095  -1.908   0.549  0.00  0.00     0.000 A 
ATOM      3  C3  BNZ d   1      -1.260  -1.839   0.380  0.00  0.00     0.000 A 
ATOM      4  C4  BNZ d   1      -1.845  -0.639   0.193  0.00  0.00     0.000 A 
ATOM      5  C5  BNZ d   1      -1.081   0.511   0.142  0.00  0.00     0.000 A 
ATOM      6  C6  BNZ d   1       0.286   0.434   0.275  0.00  0.00     0.000 A 
ENDROOT
TORSDOF 0
ENDMDL
