MODEL 1
REMARK minimizedAffinity -3.0875833
REMARK minimizedRMSD -1
REMARK  0 active torsions:
REMARK  status: ('A' for Active; 'I' for Inactive)
ROOT
ATOM      1  C1  BNZ d   1      -1.770  -1.370   0.159  0.00  0.00     0.000 A 
ATOM      2  C2  BNZ d   1      -1.649  -2.294   1.163  0.00  0.00     0.000 A 
ATOM      3  C3  BNZ d   1      -0.507  -2.367   1.912  0.00  0.00     0.000 A 
ATOM      4  C4  BNZ d   1       0.525  -1.546   1.630  0.00  0.00     0.000 A 
ATOM      5  C5  BNZ d   1       0.421  -0.616   0.614  0.00  0.00     0.000 A 
ATOM      6  C6  BNZ d   1      -0.744  -0.519  -0.112  0.00  0.00     0.000 A 
ENDROOT
TORSDOF 0
ENDMDL
