MODEL 1
REMARK minimizedAffinity -4.22070074
REMARK minimizedRMSD -1
REMARK  0 active torsions:
REMARK  status: ('A' for Active; 'I' for Inactive)
ROOT
ATOM      1  C1  BNZ d   1      -1.038   0.508   0.960  0.00  0.00     0.000 A 
ATOM      2  C2  BNZ d   1      -0.973  -0.839   1.202  0.00  0.00     0.000 A 
ATOM      3  C3  BNZ d   1       0.129  -1.562   0.840  0.00  0.00     0.000 A 
ATOM      4  C4  BNZ d   1       1.146  -0.947   0.202  0.00  0.00     0.000 A 
ATOM      5  C5  BNZ d   1       1.091   0.408  -0.057  0.00  0.00     0.000 A 
ATOM      6  C6  BNZ d   1      -0.003   1.140   0.344  0.00  0.00     0.000 A 
ENDROOT
TORSDOF 0
ENDMDL
