MODEL 1
REMARK minimizedAffinity -2.91639066
REMARK minimizedRMSD -1
REMARK  0 active torsions:
REMARK  status: ('A' for Active; 'I' for Inactive)
ROOT
ATOM      1  C1  BNZ d   1      -0.884  -1.884   1.537  0.00  0.00     0.000 A 
ATOM      2  C2  BNZ d   1      -1.174  -0.546   1.520  0.00  0.00     0.000 A 
ATOM      3  C3  BNZ d   1      -0.661   0.270   0.550  0.00  0.00     0.000 A 
ATOM      4  C4  BNZ d   1       0.172  -0.246  -0.377  0.00  0.00     0.000 A 
ATOM      5  C5  BNZ d   1       0.482  -1.591  -0.368  0.00  0.00     0.000 A 
ATOM      6  C6  BNZ d   1      -0.067  -2.416   0.587  0.00  0.00     0.000 A 
ENDROOT
TORSDOF 0
ENDMDL
