MODEL 1
REMARK minimizedAffinity 12.843648
REMARK minimizedRMSD -1
REMARK  0 active torsions:
REMARK  status: ('A' for Active; 'I' for Inactive)
ROOT
ATOM      1  C1  DEN d   1       1.557  -0.236   3.830  0.00  0.00     0.130 A 
ATOM      2  C2  DEN d   1       0.309  -0.992   3.896  0.00  0.00    -0.031 A 
ATOM      3  C3  DEN d   1      -0.762  -0.155   3.319  0.00  0.00     0.027 A 
ATOM      4  C4  DEN d   1      -0.609   2.223   2.331  0.00  0.00     0.027 A 
ATOM      5  C5  DEN d   1       0.238   3.277   2.068  0.00  0.00    -0.003 A 
ATOM      6  C6  DEN d   1       1.567   3.247   2.402  0.00  0.00     0.001 A 
ATOM      7  C7  DEN d   1       2.097   2.123   2.977  0.00  0.00     0.017 A 
ATOM      8  C8  DEN d   1       1.247   1.059   3.253  0.00  0.00    -0.094 A 
ATOM      9  C9  DEN d   1      -0.090   1.104   2.896  0.00  0.00    -0.072 A 
ENDROOT
TORSDOF 0
ENDMDL
