MODEL 1
REMARK minimizedAffinity 8.16398048
REMARK minimizedRMSD -1
REMARK  0 active torsions:
REMARK  status: ('A' for Active; 'I' for Inactive)
ROOT
ATOM      1  C1  DEN d   1       0.506   3.347   0.216  0.00  0.00     0.130 A 
ATOM      2  C2  DEN d   1      -0.693   2.821  -0.431  0.00  0.00    -0.031 A 
ATOM      3  C3  DEN d   1      -1.300   1.825   0.473  0.00  0.00     0.027 A 
ATOM      4  C4  DEN d   1      -0.507   1.052   2.803  0.00  0.00     0.027 A 
ATOM      5  C5  DEN d   1       0.467   1.204   3.765  0.00  0.00    -0.003 A 
ATOM      6  C6  DEN d   1       1.531   2.050   3.598  0.00  0.00     0.001 A 
ATOM      7  C7  DEN d   1       1.624   2.809   2.462  0.00  0.00     0.017 A 
ATOM      8  C8  DEN d   1       0.650   2.655   1.484  0.00  0.00    -0.094 A 
ATOM      9  C9  DEN d   1      -0.425   1.804   1.676  0.00  0.00    -0.072 A 
ENDROOT
TORSDOF 0
ENDMDL
