MODEL 1
REMARK minimizedAffinity 7.49939442
REMARK minimizedRMSD -1
REMARK  0 active torsions:
REMARK  status: ('A' for Active; 'I' for Inactive)
ROOT
ATOM      1  C1  DEN d   1      -1.425   5.638   0.071  0.00  0.00     0.130 A 
ATOM      2  C2  DEN d   1      -0.981   5.885  -1.298  0.00  0.00    -0.031 A 
ATOM      3  C3  DEN d   1      -0.500   4.607  -1.860  0.00  0.00     0.027 A 
ATOM      4  C4  DEN d   1      -0.406   2.280  -0.751  0.00  0.00     0.027 A 
ATOM      5  C5  DEN d   1      -0.662   1.576   0.405  0.00  0.00    -0.003 A 
ATOM      6  C6  DEN d   1      -1.155   2.179   1.532  0.00  0.00     0.001 A 
ATOM      7  C7  DEN d   1      -1.449   3.516   1.514  0.00  0.00     0.017 A 
ATOM      8  C8  DEN d   1      -1.186   4.234   0.354  0.00  0.00    -0.094 A 
ATOM      9  C9  DEN d   1      -0.700   3.604  -0.779  0.00  0.00    -0.072 A 
ENDROOT
TORSDOF 0
ENDMDL
