MODEL 1
REMARK minimizedAffinity 10.0764351
REMARK minimizedRMSD -1
REMARK  0 active torsions:
REMARK  status: ('A' for Active; 'I' for Inactive)
ROOT
ATOM      1  C1  DEN d   1      -1.118   4.742  -2.224  0.00  0.00     0.130 A 
ATOM      2  C2  DEN d   1      -1.036   6.000  -1.487  0.00  0.00    -0.031 A 
ATOM      3  C3  DEN d   1      -0.732   5.684  -0.077  0.00  0.00     0.027 A 
ATOM      4  C4  DEN d   1      -0.376   3.381   1.029  0.00  0.00     0.027 A 
ATOM      5  C5  DEN d   1      -0.358   2.021   0.810  0.00  0.00    -0.003 A 
ATOM      6  C6  DEN d   1      -0.624   1.476  -0.418  0.00  0.00     0.001 A 
ATOM      7  C7  DEN d   1      -0.874   2.297  -1.485  0.00  0.00     0.017 A 
ATOM      8  C8  DEN d   1      -0.901   3.669  -1.271  0.00  0.00    -0.094 A 
ATOM      9  C9  DEN d   1      -0.618   4.201  -0.025  0.00  0.00    -0.072 A 
ENDROOT
TORSDOF 0
ENDMDL
