MODEL 1
REMARK minimizedAffinity 11.6005821
REMARK minimizedRMSD -1
REMARK  0 active torsions:
REMARK  status: ('A' for Active; 'I' for Inactive)
ROOT
ATOM      1  C1  DEN d   1       2.966  -1.130  -1.639  0.00  0.00     0.130 A 
ATOM      2  C2  DEN d   1       1.631  -1.673  -1.404  0.00  0.00    -0.031 A 
ATOM      3  C3  DEN d   1       1.781  -2.981  -0.735  0.00  0.00     0.027 A 
ATOM      4  C4  DEN d   1       3.939  -4.209  -0.038  0.00  0.00     0.027 A 
ATOM      5  C5  DEN d   1       5.315  -4.149  -0.039  0.00  0.00    -0.003 A 
ATOM      6  C6  DEN d   1       6.000  -3.103  -0.599  0.00  0.00     0.001 A 
ATOM      7  C7  DEN d   1       5.309  -2.052  -1.142  0.00  0.00     0.017 A 
ATOM      8  C8  DEN d   1       3.921  -2.109  -1.151  0.00  0.00    -0.094 A 
ATOM      9  C9  DEN d   1       3.247  -3.169  -0.570  0.00  0.00    -0.072 A 
ENDROOT
TORSDOF 0
ENDMDL
