MODEL 1
REMARK minimizedAffinity 12.931447
REMARK minimizedRMSD -1
REMARK  0 active torsions:
REMARK  status: ('A' for Active; 'I' for Inactive)
ROOT
ATOM      1  C1  DEN d   1      -1.061   1.332   2.280  0.00  0.00     0.130 A 
ATOM      2  C2  DEN d   1      -0.439   1.942   3.452  0.00  0.00    -0.031 A 
ATOM      3  C3  DEN d   1       0.270   3.160   3.011  0.00  0.00     0.027 A 
ATOM      4  C4  DEN d   1       0.461   4.158   0.640  0.00  0.00     0.027 A 
ATOM      5  C5  DEN d   1       0.111   3.987  -0.681  0.00  0.00    -0.003 A 
ATOM      6  C6  DEN d   1      -0.620   2.911  -1.110  0.00  0.00     0.001 A 
ATOM      7  C7  DEN d   1      -1.063   1.986  -0.202  0.00  0.00     0.017 A 
ATOM      8  C8  DEN d   1      -0.708   2.147   1.131  0.00  0.00    -0.094 A 
ATOM      9  C9  DEN d   1       0.022   3.248   1.547  0.00  0.00    -0.072 A 
ENDROOT
TORSDOF 0
ENDMDL
