MODEL 1
REMARK minimizedAffinity 7.4851408
REMARK minimizedRMSD -1
REMARK  0 active torsions:
REMARK  status: ('A' for Active; 'I' for Inactive)
ROOT
ATOM      1  C1  DEN d   1      -1.201   1.897   2.669  0.00  0.00     0.130 A 
ATOM      2  C2  DEN d   1      -0.733   2.763   1.591  0.00  0.00    -0.031 A 
ATOM      3  C3  DEN d   1       0.579   2.259   1.137  0.00  0.00     0.027 A 
ATOM      4  C4  DEN d   1       1.920   0.228   1.991  0.00  0.00     0.027 A 
ATOM      5  C5  DEN d   1       1.935  -0.805   2.902  0.00  0.00    -0.003 A 
ATOM      6  C6  DEN d   1       0.929  -0.989   3.814  0.00  0.00     0.001 A 
ATOM      7  C7  DEN d   1      -0.155  -0.152   3.806  0.00  0.00     0.017 A 
ATOM      8  C8  DEN d   1      -0.174   0.896   2.896  0.00  0.00    -0.094 A 
ATOM      9  C9  DEN d   1       0.846   1.058   1.974  0.00  0.00    -0.072 A 
ENDROOT
TORSDOF 0
ENDMDL
