MODEL 1
REMARK minimizedAffinity 5.61752653
REMARK minimizedRMSD -1
REMARK  1 active torsions:
REMARK  status: ('A' for Active; 'I' for Inactive)
REMARK    1  A    between atoms: C1_2  and  C2_3 
ROOT
ATOM      1  C2  UNL d   1       3.108  -0.607   3.611  0.00  0.00    -0.076 A 
ATOM      2  C3  UNL d   1       3.739   0.649   3.625  0.00  0.00     0.004 A 
ATOM      3  C4  UNL d   1       3.841   1.388   4.802  0.00  0.00    -0.003 A 
ATOM      4  C5  UNL d   1       3.314   0.883   5.985  0.00  0.00     0.000 A 
ATOM      5  C6  UNL d   1       2.700  -0.369   5.994  0.00  0.00     0.000 A 
ATOM      6  C7  UNL d   1       2.603  -1.134   4.819  0.00  0.00    -0.073 A 
ATOM      7  C8  UNL d   1       1.925  -2.475   4.885  0.00  0.00     0.078 C 
ENDROOT
BRANCH   1   8
ATOM      8  C1  UNL d   1       3.003  -1.351   2.299  0.00  0.00     0.053 C 
ATOM      9  C   UNL d   1       2.657  -0.434   1.136  0.00  0.00     0.018 C 
ENDBRANCH   1   8
TORSDOF 1
ENDMDL
