MODEL 1
REMARK minimizedAffinity 0.0237371977
REMARK minimizedRMSD -1
REMARK  1 active torsions:
REMARK  status: ('A' for Active; 'I' for Inactive)
REMARK    1  A    between atoms: C1_2  and  C2_3 
ROOT
ATOM      1  C2  UNL d   1       3.051   2.429   5.089  0.00  0.00    -0.076 A 
ATOM      2  C3  UNL d   1       2.058   2.831   6.000  0.00  0.00     0.004 A 
ATOM      3  C4  UNL d   1       1.566   4.135   5.996  0.00  0.00    -0.003 A 
ATOM      4  C5  UNL d   1       2.059   5.059   5.081  0.00  0.00     0.000 A 
ATOM      5  C6  UNL d   1       3.031   4.673   4.158  0.00  0.00     0.000 A 
ATOM      6  C7  UNL d   1       3.526   3.358   4.138  0.00  0.00    -0.073 A 
ATOM      7  C8  UNL d   1       4.578   2.998   3.125  0.00  0.00     0.078 C 
ENDROOT
BRANCH   1   8
ATOM      8  C1  UNL d   1       3.565   1.009   5.158  0.00  0.00     0.053 C 
ATOM      9  C   UNL d   1       2.663   0.102   5.981  0.00  0.00     0.018 C 
ENDBRANCH   1   8
TORSDOF 1
ENDMDL
