MODEL 1
REMARK minimizedAffinity 7.20008755
REMARK minimizedRMSD -1
REMARK  1 active torsions:
REMARK  status: ('A' for Active; 'I' for Inactive)
REMARK    1  A    between atoms: C1_2  and  C2_3 
ROOT
ATOM      1  C2  UNL d   1       3.131   2.549   5.982  0.00  0.00    -0.076 A 
ATOM      2  C3  UNL d   1       1.897   3.222   5.990  0.00  0.00     0.004 A 
ATOM      3  C4  UNL d   1       1.839   4.614   6.000  0.00  0.00    -0.003 A 
ATOM      4  C5  UNL d   1       3.015   5.357   6.000  0.00  0.00     0.000 A 
ATOM      5  C6  UNL d   1       4.248   4.706   5.974  0.00  0.00     0.000 A 
ATOM      6  C7  UNL d   1       4.324   3.303   5.948  0.00  0.00    -0.073 A 
ATOM      7  C8  UNL d   1       5.680   2.653   5.927  0.00  0.00     0.078 C 
ENDROOT
BRANCH   1   8
ATOM      8  C1  UNL d   1       3.132   1.037   6.000  0.00  0.00     0.053 C 
ATOM      9  C   UNL d   1       3.398   0.438   4.628  0.00  0.00     0.018 C 
ENDBRANCH   1   8
TORSDOF 1
ENDMDL
