MODEL 1
REMARK minimizedAffinity 13.1690845
REMARK minimizedRMSD -1
REMARK  1 active torsions:
REMARK  status: ('A' for Active; 'I' for Inactive)
REMARK    1  A    between atoms: C1_2  and  C2_3 
ROOT
ATOM      1  C2  UNL d   1       0.956  -2.948   3.651  0.00  0.00    -0.076 A 
ATOM      2  C3  UNL d   1       1.094  -3.634   2.431  0.00  0.00     0.004 A 
ATOM      3  C4  UNL d   1       1.847  -3.098   1.388  0.00  0.00    -0.003 A 
ATOM      4  C5  UNL d   1       2.475  -1.867   1.547  0.00  0.00     0.000 A 
ATOM      5  C6  UNL d   1       2.363  -1.182   2.756  0.00  0.00     0.000 A 
ATOM      6  C7  UNL d   1       1.621  -1.716   3.824  0.00  0.00    -0.073 A 
ATOM      7  C8  UNL d   1       1.529  -0.930   5.103  0.00  0.00     0.078 C 
ENDROOT
BRANCH   1   8
ATOM      8  C1  UNL d   1       0.104  -3.566   4.736  0.00  0.00     0.053 C 
ATOM      9  C   UNL d   1      -0.683  -4.770   4.245  0.00  0.00     0.018 C 
ENDBRANCH   1   8
TORSDOF 1
ENDMDL
