MODEL 1
REMARK minimizedAffinity 3.54922438
REMARK minimizedRMSD -1
REMARK  1 active torsions:
REMARK  status: ('A' for Active; 'I' for Inactive)
REMARK    1  A    between atoms: C1_2  and  C2_3 
ROOT
ATOM      1  C2  UNL d   1      -0.170  -3.767   4.959  0.00  0.00    -0.076 A 
ATOM      2  C3  UNL d   1      -1.069  -4.056   6.000  0.00  0.00     0.004 A 
ATOM      3  C4  UNL d   1      -1.914  -5.163   5.932  0.00  0.00    -0.003 A 
ATOM      4  C5  UNL d   1      -1.872  -6.000   4.822  0.00  0.00     0.000 A 
ATOM      5  C6  UNL d   1      -0.974  -5.738   3.788  0.00  0.00     0.000 A 
ATOM      6  C7  UNL d   1      -0.104  -4.636   3.848  0.00  0.00    -0.073 A 
ATOM      7  C8  UNL d   1       0.840  -4.398   2.702  0.00  0.00     0.078 C 
ENDROOT
BRANCH   1   8
ATOM      8  C1  UNL d   1       0.702  -2.538   5.075  0.00  0.00     0.053 C 
ATOM      9  C   UNL d   1       0.236  -1.405   4.174  0.00  0.00     0.018 C 
ENDBRANCH   1   8
TORSDOF 1
ENDMDL
