MODEL 1
REMARK minimizedAffinity 9.87559223
REMARK minimizedRMSD -1
REMARK  1 active torsions:
REMARK  status: ('A' for Active; 'I' for Inactive)
REMARK    1  A    between atoms: C1_2  and  C2_3 
ROOT
ATOM      1  C2  UNL d   1       3.267   0.041  -0.757  0.00  0.00    -0.076 A 
ATOM      2  C3  UNL d   1       2.868   0.414   0.538  0.00  0.00     0.004 A 
ATOM      3  C4  UNL d   1       3.422   1.528   1.166  0.00  0.00    -0.003 A 
ATOM      4  C5  UNL d   1       4.383   2.287   0.510  0.00  0.00     0.000 A 
ATOM      5  C6  UNL d   1       4.779   1.942  -0.782  0.00  0.00     0.000 A 
ATOM      6  C7  UNL d   1       4.218   0.832  -1.437  0.00  0.00    -0.073 A 
ATOM      7  C8  UNL d   1       4.686   0.502  -2.828  0.00  0.00     0.078 C 
ENDROOT
BRANCH   1   8
ATOM      8  C1  UNL d   1       2.652  -1.193  -1.378  0.00  0.00     0.053 C 
ATOM      9  C   UNL d   1       2.655  -2.384  -0.432  0.00  0.00     0.018 C 
ENDBRANCH   1   8
TORSDOF 1
ENDMDL
