MODEL 1
REMARK minimizedAffinity -4.44021177
REMARK minimizedRMSD -1
REMARK  1 active torsions:
REMARK  status: ('A' for Active; 'I' for Inactive)
REMARK    1  A    between atoms: N_2  and  C1_3 
ROOT
ATOM      1  C1  UNL d   1       0.775  -4.924  -0.701  0.00  0.00     0.143 A 
ATOM      2  C2  UNL d   1      -0.615  -5.012  -0.833  0.00  0.00    -0.057 A 
ATOM      3  C3  UNL d   1      -1.370  -3.930  -1.301  0.00  0.00     0.033 A 
ATOM      4  C4  UNL d   1      -0.749  -2.726  -1.618  0.00  0.00    -0.042 A 
ATOM      5  C5  UNL d   1       0.628  -2.607  -1.470  0.00  0.00     0.033 A 
ATOM      6  C6  UNL d   1       1.378  -3.694  -1.009  0.00  0.00    -0.057 A 
ENDROOT
BRANCH   1   7
ATOM      7  N   UNL d   1       1.570  -5.931  -0.148  0.00  0.00    -0.732 N 
ATOM      8  C   UNL d   1       2.909  -5.642   0.317  0.00  0.00     0.284 C 
ATOM      9  H3  UNL d   1       1.042  -6.551   0.463  0.00  0.00     0.395 HD
ENDBRANCH   1   7
TORSDOF 1
ENDMDL
