MODEL 1
REMARK minimizedAffinity -0.104561836
REMARK minimizedRMSD -1
REMARK  1 active torsions:
REMARK  status: ('A' for Active; 'I' for Inactive)
REMARK    1  A    between atoms: N_2  and  C1_3 
ROOT
ATOM      1  C1  UNL d   1      -0.181  -2.117  -0.887  0.00  0.00     0.143 A 
ATOM      2  C2  UNL d   1      -1.183  -1.622  -0.044  0.00  0.00    -0.057 A 
ATOM      3  C3  UNL d   1      -1.027  -0.408   0.634  0.00  0.00     0.033 A 
ATOM      4  C4  UNL d   1       0.149   0.323   0.504  0.00  0.00    -0.042 A 
ATOM      5  C5  UNL d   1       1.169  -0.161  -0.309  0.00  0.00     0.033 A 
ATOM      6  C6  UNL d   1       1.004  -1.372  -0.989  0.00  0.00    -0.057 A 
ENDROOT
BRANCH   1   7
ATOM      7  N   UNL d   1      -0.236  -3.365  -1.511  0.00  0.00    -0.732 N 
ATOM      8  C   UNL d   1      -0.176  -4.583  -0.731  0.00  0.00     0.284 C 
ATOM      9  H3  UNL d   1      -0.912  -3.391  -2.270  0.00  0.00     0.395 HD
ENDBRANCH   1   7
TORSDOF 1
ENDMDL
