MODEL 1
REMARK minimizedAffinity -3.88848042
REMARK minimizedRMSD -1
REMARK  1 active torsions:
REMARK  status: ('A' for Active; 'I' for Inactive)
REMARK    1  A    between atoms: N_2  and  C1_3 
ROOT
ATOM      1  C1  UNL d   1       0.172  -0.127   0.138  0.00  0.00     0.143 A 
ATOM      2  C2  UNL d   1       0.731  -0.076   1.420  0.00  0.00    -0.057 A 
ATOM      3  C3  UNL d   1       0.278   0.843   2.374  0.00  0.00     0.033 A 
ATOM      4  C4  UNL d   1      -0.726   1.751   2.052  0.00  0.00    -0.042 A 
ATOM      5  C5  UNL d   1      -1.279   1.735   0.777  0.00  0.00     0.033 A 
ATOM      6  C6  UNL d   1      -0.827   0.810  -0.170  0.00  0.00    -0.057 A 
ENDROOT
BRANCH   1   7
ATOM      7  N   UNL d   1       0.646  -0.951  -0.885  0.00  0.00    -0.732 N 
ATOM      8  C   UNL d   1       0.067  -2.259  -1.106  0.00  0.00     0.284 C 
ATOM      9  H3  UNL d   1       0.844  -0.435  -1.739  0.00  0.00     0.395 HD
ENDBRANCH   1   7
TORSDOF 1
ENDMDL
