MODEL 1
REMARK minimizedAffinity -5.09553432
REMARK minimizedRMSD -1
REMARK  1 active torsions:
REMARK  status: ('A' for Active; 'I' for Inactive)
REMARK    1  A    between atoms: N_2  and  C1_3 
ROOT
ATOM      1  C1  UNL d   1       0.129   0.146  -0.059  0.00  0.00     0.143 A 
ATOM      2  C2  UNL d   1       0.617   0.358   1.235  0.00  0.00    -0.057 A 
ATOM      3  C3  UNL d   1       0.022   1.292   2.092  0.00  0.00     0.033 A 
ATOM      4  C4  UNL d   1      -1.056   2.055   1.658  0.00  0.00    -0.042 A 
ATOM      5  C5  UNL d   1      -1.542   1.880   0.367  0.00  0.00     0.033 A 
ATOM      6  C6  UNL d   1      -0.949   0.941  -0.482  0.00  0.00    -0.057 A 
ENDROOT
BRANCH   1   7
ATOM      7  N   UNL d   1       0.737  -0.697  -0.992  0.00  0.00    -0.732 N 
ATOM      8  C   UNL d   1       0.277  -2.058  -1.165  0.00  0.00     0.284 C 
ATOM      9  H3  UNL d   1       0.957  -0.219  -1.862  0.00  0.00     0.395 HD
ENDBRANCH   1   7
TORSDOF 1
ENDMDL
