MODEL 1
REMARK minimizedAffinity -3.72648239
REMARK minimizedRMSD -1
REMARK  1 active torsions:
REMARK  status: ('A' for Active; 'I' for Inactive)
REMARK    1  A    between atoms: N_2  and  C1_3 
ROOT
ATOM      1  C1  UNL d   1       0.106   0.194  -0.324  0.00  0.00     0.143 A 
ATOM      2  C2  UNL d   1       0.098   0.217   1.074  0.00  0.00    -0.057 A 
ATOM      3  C3  UNL d   1      -0.185   1.393   1.780  0.00  0.00     0.033 A 
ATOM      4  C4  UNL d   1      -0.436   2.578   1.096  0.00  0.00    -0.042 A 
ATOM      5  C5  UNL d   1      -0.408   2.585  -0.294  0.00  0.00     0.033 A 
ATOM      6  C6  UNL d   1      -0.132   1.406  -0.993  0.00  0.00    -0.057 A 
ENDROOT
BRANCH   1   7
ATOM      7  N   UNL d   1       0.476  -0.920  -1.082  0.00  0.00    -0.732 N 
ATOM      8  C   UNL d   1      -0.252  -2.165  -0.967  0.00  0.00     0.284 C 
ATOM      9  H3  UNL d   1       0.731  -0.673  -2.036  0.00  0.00     0.395 HD
ENDBRANCH   1   7
TORSDOF 1
ENDMDL
