MODEL 1
REMARK minimizedAffinity 9.66259193
REMARK minimizedRMSD -1
REMARK  0 active torsions:
REMARK  status: ('A' for Active; 'I' for Inactive)
ROOT
ATOM      1  C   UNL d   1      -2.931   3.640   1.657  0.00  0.00     0.124 A 
ATOM      2  C1  UNL d   1      -1.882   3.776   0.760  0.00  0.00     0.062 A 
ATOM      3  C2  UNL d   1      -1.364   2.658   0.113  0.00  0.00     0.162 A 
ATOM      4  C3  UNL d   1      -1.895   1.393   0.361  0.00  0.00    -0.034 A 
ATOM      5  C4  UNL d   1      -2.950   1.263   1.266  0.00  0.00     0.162 A 
ATOM      6  C5  UNL d   1      -3.465   2.384   1.910  0.00  0.00     0.062 A 
ATOM      7  F   UNL d   1      -4.479   2.250   2.777  0.00  0.00    -0.097 F 
ATOM      8  F1  UNL d   1      -3.485   0.061   1.527  0.00  0.00    -0.096 F 
ATOM      9  I   UNL d   1      -1.123  -0.282  -0.604  0.00  0.00    -0.060 I 
ATOM     10  F2  UNL d   1      -0.349   2.820  -0.750  0.00  0.00    -0.096 F 
ATOM     11  F3  UNL d   1      -1.364   4.989   0.515  0.00  0.00    -0.097 F 
ATOM     12  F4  UNL d   1      -3.427   4.717   2.279  0.00  0.00    -0.092 F 
ENDROOT
TORSDOF 0
ENDMDL
