MODEL 1
REMARK minimizedAffinity 3.6822052
REMARK minimizedRMSD -1
REMARK  0 active torsions:
REMARK  status: ('A' for Active; 'I' for Inactive)
ROOT
ATOM      1  C   UNL d   1      -4.536   0.407   0.084  0.00  0.00     0.124 A 
ATOM      2  C1  UNL d   1      -4.204   1.275   1.115  0.00  0.00     0.062 A 
ATOM      3  C2  UNL d   1      -2.948   1.875   1.147  0.00  0.00     0.162 A 
ATOM      4  C3  UNL d   1      -2.015   1.609   0.145  0.00  0.00    -0.034 A 
ATOM      5  C4  UNL d   1      -2.356   0.734  -0.888  0.00  0.00     0.162 A 
ATOM      6  C5  UNL d   1      -3.612   0.137  -0.916  0.00  0.00     0.062 A 
ATOM      7  F   UNL d   1      -3.932  -0.702  -1.912  0.00  0.00    -0.097 F 
ATOM      8  F1  UNL d   1      -1.483   0.456  -1.867  0.00  0.00    -0.096 F 
ATOM      9  I   UNL d   1      -0.136   2.503   0.190  0.00  0.00    -0.060 I 
ATOM     10  F2  UNL d   1      -2.654   2.709   2.155  0.00  0.00    -0.096 F 
ATOM     11  F3  UNL d   1      -5.094   1.537   2.082  0.00  0.00    -0.097 F 
ATOM     12  F4  UNL d   1      -5.745  -0.170   0.056  0.00  0.00    -0.092 F 
ENDROOT
TORSDOF 0
ENDMDL
