MODEL 1
REMARK minimizedAffinity 11.5575037
REMARK minimizedRMSD -1
REMARK  0 active torsions:
REMARK  status: ('A' for Active; 'I' for Inactive)
ROOT
ATOM      1  C   UNL d   1      -4.500   3.880  -4.547  0.00  0.00     0.124 A 
ATOM      2  C1  UNL d   1      -5.260   4.221  -3.436  0.00  0.00     0.062 A 
ATOM      3  C2  UNL d   1      -5.256   3.406  -2.308  0.00  0.00     0.162 A 
ATOM      4  C3  UNL d   1      -4.490   2.241  -2.284  0.00  0.00    -0.034 A 
ATOM      5  C4  UNL d   1      -3.729   1.903  -3.405  0.00  0.00     0.162 A 
ATOM      6  C5  UNL d   1      -3.736   2.722  -4.530  0.00  0.00     0.062 A 
ATOM      7  F   UNL d   1      -3.001   2.390  -5.602  0.00  0.00    -0.097 F 
ATOM      8  F1  UNL d   1      -2.981   0.790  -3.416  0.00  0.00    -0.096 F 
ATOM      9  I   UNL d   1      -4.482   1.019  -0.600  0.00  0.00    -0.060 I 
ATOM     10  F2  UNL d   1      -6.000   3.760  -1.250  0.00  0.00    -0.096 F 
ATOM     11  F3  UNL d   1      -6.000   5.339  -3.450  0.00  0.00    -0.097 F 
ATOM     12  F4  UNL d   1      -4.506   4.666  -5.631  0.00  0.00    -0.092 F 
ENDROOT
TORSDOF 0
ENDMDL
