MODEL 1
REMARK minimizedAffinity 12.6467438
REMARK minimizedRMSD -1
REMARK  0 active torsions:
REMARK  status: ('A' for Active; 'I' for Inactive)
ROOT
ATOM      1  C   UNL d   1       1.940  -1.863  -0.389  0.00  0.00     0.124 A 
ATOM      2  C1  UNL d   1       2.713  -0.981   0.353  0.00  0.00     0.062 A 
ATOM      3  C2  UNL d   1       2.363   0.363   0.429  0.00  0.00     0.162 A 
ATOM      4  C3  UNL d   1       1.233   0.835  -0.239  0.00  0.00    -0.034 A 
ATOM      5  C4  UNL d   1       0.461  -0.058  -0.985  0.00  0.00     0.162 A 
ATOM      6  C5  UNL d   1       0.815  -1.401  -1.057  0.00  0.00     0.062 A 
ATOM      7  F   UNL d   1       0.067  -2.252  -1.775  0.00  0.00    -0.097 F 
ATOM      8  F1  UNL d   1      -0.632   0.362  -1.639  0.00  0.00    -0.096 F 
ATOM      9  I   UNL d   1       0.706   2.846  -0.129  0.00  0.00    -0.060 I 
ATOM     10  F2  UNL d   1       3.129   1.193   1.153  0.00  0.00    -0.096 F 
ATOM     11  F3  UNL d   1       3.801  -1.426   0.999  0.00  0.00    -0.097 F 
ATOM     12  F4  UNL d   1       2.280  -3.157  -0.461  0.00  0.00    -0.092 F 
ENDROOT
TORSDOF 0
ENDMDL
