MODEL 1
REMARK minimizedAffinity 1.66799557
REMARK minimizedRMSD -1
REMARK  0 active torsions:
REMARK  status: ('A' for Active; 'I' for Inactive)
ROOT
ATOM      1  C   UNL d   1      -4.165   0.929   0.768  0.00  0.00     0.124 A 
ATOM      2  C1  UNL d   1      -3.242   0.483  -0.168  0.00  0.00     0.062 A 
ATOM      3  C2  UNL d   1      -1.917   0.903  -0.098  0.00  0.00     0.162 A 
ATOM      4  C3  UNL d   1      -1.506   1.773   0.912  0.00  0.00    -0.034 A 
ATOM      5  C4  UNL d   1      -2.441   2.217   1.849  0.00  0.00     0.162 A 
ATOM      6  C5  UNL d   1      -3.764   1.795   1.775  0.00  0.00     0.062 A 
ATOM      7  F   UNL d   1      -4.655   2.227   2.679  0.00  0.00    -0.097 F 
ATOM      8  F1  UNL d   1      -2.080   3.054   2.833  0.00  0.00    -0.096 F 
ATOM      9  I   UNL d   1       0.474   2.403   1.020  0.00  0.00    -0.060 I 
ATOM     10  F2  UNL d   1      -1.046   0.457  -1.016  0.00  0.00    -0.096 F 
ATOM     11  F3  UNL d   1      -3.627  -0.353  -1.143  0.00  0.00    -0.097 F 
ATOM     12  F4  UNL d   1      -5.440   0.524   0.697  0.00  0.00    -0.092 F 
ENDROOT
TORSDOF 0
ENDMDL
