MODEL 1
REMARK minimizedAffinity 12.6849661
REMARK minimizedRMSD -1
REMARK  0 active torsions:
REMARK  status: ('A' for Active; 'I' for Inactive)
ROOT
ATOM      1  C   UNL d   1       2.041   1.572   1.638  0.00  0.00     0.124 A 
ATOM      2  C1  UNL d   1       0.958   1.807   0.801  0.00  0.00     0.062 A 
ATOM      3  C2  UNL d   1       0.534   0.824  -0.088  0.00  0.00     0.162 A 
ATOM      4  C3  UNL d   1       1.193  -0.405  -0.145  0.00  0.00    -0.034 A 
ATOM      5  C4  UNL d   1       2.281  -0.634   0.698  0.00  0.00     0.162 A 
ATOM      6  C5  UNL d   1       2.701   0.352   1.586  0.00  0.00     0.062 A 
ATOM      7  F   UNL d   1       3.747   0.123   2.393  0.00  0.00    -0.097 F 
ATOM      8  F1  UNL d   1       2.937  -1.804   0.669  0.00  0.00    -0.096 F 
ATOM      9  I   UNL d   1       0.562  -1.877  -1.474  0.00  0.00    -0.060 I 
ATOM     10  F2  UNL d   1      -0.514   1.078  -0.885  0.00  0.00    -0.096 F 
ATOM     11  F3  UNL d   1       0.319   2.985   0.849  0.00  0.00    -0.097 F 
ATOM     12  F4  UNL d   1       2.447   2.520   2.492  0.00  0.00    -0.092 F 
ENDROOT
TORSDOF 0
ENDMDL
