MODEL 1
REMARK minimizedAffinity 12.8295612
REMARK minimizedRMSD -1
REMARK  0 active torsions:
REMARK  status: ('A' for Active; 'I' for Inactive)
ROOT
ATOM      1  C   UNL d   1      -4.576   1.573  -4.700  0.00  0.00     0.124 A 
ATOM      2  C1  UNL d   1      -5.201   2.501  -3.879  0.00  0.00     0.062 A 
ATOM      3  C2  UNL d   1      -5.391   2.225  -2.528  0.00  0.00     0.162 A 
ATOM      4  C3  UNL d   1      -4.954   1.015  -1.989  0.00  0.00    -0.034 A 
ATOM      5  C4  UNL d   1      -4.327   0.086  -2.821  0.00  0.00     0.162 A 
ATOM      6  C5  UNL d   1      -4.139   0.367  -4.171  0.00  0.00     0.062 A 
ATOM      7  F   UNL d   1      -3.535  -0.531  -4.962  0.00  0.00    -0.097 F 
ATOM      8  F1  UNL d   1      -3.895  -1.087  -2.336  0.00  0.00    -0.096 F 
ATOM      9  I   UNL d   1      -5.237   0.598   0.030  0.00  0.00    -0.060 I 
ATOM     10  F2  UNL d   1      -5.999   3.140  -1.758  0.00  0.00    -0.096 F 
ATOM     11  F3  UNL d   1      -5.624   3.667  -4.388  0.00  0.00    -0.097 F 
ATOM     12  F4  UNL d   1      -4.395   1.841  -6.000  0.00  0.00    -0.092 F 
ENDROOT
TORSDOF 0
ENDMDL
