MODEL 1
REMARK minimizedAffinity 7.69724798
REMARK minimizedRMSD -1
REMARK  0 active torsions:
REMARK  status: ('A' for Active; 'I' for Inactive)
ROOT
ATOM      1  C   UNL d   1      -4.889   0.737  -4.300  0.00  0.00     0.124 A 
ATOM      2  C1  UNL d   1      -4.600  -0.397  -3.553  0.00  0.00     0.062 A 
ATOM      3  C2  UNL d   1      -4.781  -0.392  -2.173  0.00  0.00     0.162 A 
ATOM      4  C3  UNL d   1      -5.255   0.752  -1.530  0.00  0.00    -0.034 A 
ATOM      5  C4  UNL d   1      -5.542   1.889  -2.287  0.00  0.00     0.162 A 
ATOM      6  C5  UNL d   1      -5.359   1.879  -3.666  0.00  0.00     0.062 A 
ATOM      7  F   UNL d   1      -5.639   2.975  -4.385  0.00  0.00    -0.097 F 
ATOM      8  F1  UNL d   1      -6.000   3.005  -1.701  0.00  0.00    -0.096 F 
ATOM      9  I   UNL d   1      -5.527   0.763   0.533  0.00  0.00    -0.060 I 
ATOM     10  F2  UNL d   1      -4.494  -1.502  -1.478  0.00  0.00    -0.096 F 
ATOM     11  F3  UNL d   1      -4.144  -1.501  -4.163  0.00  0.00    -0.097 F 
ATOM     12  F4  UNL d   1      -4.712   0.730  -5.627  0.00  0.00    -0.092 F 
ENDROOT
TORSDOF 0
ENDMDL
