MODEL 1
REMARK minimizedAffinity 11.6026516
REMARK minimizedRMSD -1
REMARK  0 active torsions:
REMARK  status: ('A' for Active; 'I' for Inactive)
ROOT
ATOM      1  C   UNL d   1      -4.584   0.924  -4.656  0.00  0.00     0.124 A 
ATOM      2  C1  UNL d   1      -3.909  -0.057  -3.943  0.00  0.00     0.062 A 
ATOM      3  C2  UNL d   1      -3.932  -0.052  -2.551  0.00  0.00     0.162 A 
ATOM      4  C3  UNL d   1      -4.635   0.938  -1.863  0.00  0.00    -0.034 A 
ATOM      5  C4  UNL d   1      -5.310   1.921  -2.588  0.00  0.00     0.162 A 
ATOM      6  C5  UNL d   1      -5.284   1.912  -3.978  0.00  0.00     0.062 A 
ATOM      7  F   UNL d   1      -5.936   2.860  -4.666  0.00  0.00    -0.097 F 
ATOM      8  F1  UNL d   1      -5.995   2.888  -1.958  0.00  0.00    -0.096 F 
ATOM      9  I   UNL d   1      -4.672   0.949   0.218  0.00  0.00    -0.060 I 
ATOM     10  F2  UNL d   1      -3.271  -1.012  -1.888  0.00  0.00    -0.096 F 
ATOM     11  F3  UNL d   1      -3.231  -1.012  -4.596  0.00  0.00    -0.097 F 
ATOM     12  F4  UNL d   1      -4.559   0.917  -5.995  0.00  0.00    -0.092 F 
ENDROOT
TORSDOF 0
ENDMDL
