MODEL 1
REMARK minimizedAffinity 26.0416164
REMARK minimizedRMSD -1
REMARK  0 active torsions:
REMARK  status: ('A' for Active; 'I' for Inactive)
ROOT
ATOM      1  C   UNL d   1       0.781   2.155   2.341  0.00  0.00     0.124 A 
ATOM      2  C1  UNL d   1       0.111   3.001   1.467  0.00  0.00     0.062 A 
ATOM      3  C2  UNL d   1      -1.277   2.959   1.381  0.00  0.00     0.162 A 
ATOM      4  C3  UNL d   1      -2.006   2.070   2.171  0.00  0.00    -0.034 A 
ATOM      5  C4  UNL d   1      -1.325   1.222   3.046  0.00  0.00     0.162 A 
ATOM      6  C5  UNL d   1       0.063   1.267   3.129  0.00  0.00     0.062 A 
ATOM      7  F   UNL d   1       0.709   0.449   3.973  0.00  0.00    -0.097 F 
ATOM      8  F1  UNL d   1      -1.994   0.355   3.820  0.00  0.00    -0.096 F 
ATOM      9  I   UNL d   1      -4.082   2.005   2.044  0.00  0.00    -0.060 I 
ATOM     10  F2  UNL d   1      -1.899   3.788   0.528  0.00  0.00    -0.096 F 
ATOM     11  F3  UNL d   1       0.803   3.859   0.704  0.00  0.00    -0.097 F 
ATOM     12  F4  UNL d   1       2.118   2.196   2.421  0.00  0.00    -0.092 F 
ENDROOT
TORSDOF 0
ENDMDL
