MODEL 1
REMARK minimizedAffinity 3.98132372
REMARK minimizedRMSD -1
REMARK  1 active torsions:
REMARK  status: ('A' for Active; 'I' for Inactive)
REMARK    1  A    between atoms: N_2  and  C1_3 
ROOT
ATOM      1  C1  UNL d   1       4.269  -3.728   2.072  0.00  0.00     0.143 A 
ATOM      2  C2  UNL d   1       4.451  -4.436   0.879  0.00  0.00    -0.057 A 
ATOM      3  C3  UNL d   1       3.717  -4.122  -0.271  0.00  0.00     0.033 A 
ATOM      4  C4  UNL d   1       2.763  -3.110  -0.240  0.00  0.00    -0.042 A 
ATOM      5  C5  UNL d   1       2.547  -2.410   0.942  0.00  0.00     0.033 A 
ATOM      6  C6  UNL d   1       3.288  -2.723   2.085  0.00  0.00    -0.057 A 
ENDROOT
BRANCH   1   7
ATOM      7  N   UNL d   1       4.898  -4.056   3.275  0.00  0.00    -0.732 N 
ATOM      8  C   UNL d   1       5.183  -3.035   4.261  0.00  0.00     0.284 C 
ATOM      9  H3  UNL d   1       4.552  -4.928   3.669  0.00  0.00     0.395 HD
ENDBRANCH   1   7
TORSDOF 1
ENDMDL
