MODEL 1
REMARK minimizedAffinity 5.90302849
REMARK minimizedRMSD -1
REMARK  1 active torsions:
REMARK  status: ('A' for Active; 'I' for Inactive)
REMARK    1  A    between atoms: N_2  and  C1_3 
ROOT
ATOM      1  C1  UNL d   1       2.635   3.024  -5.993  0.00  0.00     0.143 A 
ATOM      2  C2  UNL d   1       1.818   4.159  -5.993  0.00  0.00    -0.057 A 
ATOM      3  C3  UNL d   1       2.365   5.448  -5.986  0.00  0.00     0.033 A 
ATOM      4  C4  UNL d   1       3.744   5.625  -5.948  0.00  0.00    -0.042 A 
ATOM      5  C5  UNL d   1       4.576   4.511  -5.922  0.00  0.00     0.033 A 
ATOM      6  C6  UNL d   1       4.023   3.226  -5.937  0.00  0.00    -0.057 A 
ENDROOT
BRANCH   1   7
ATOM      7  N   UNL d   1       2.151   1.717  -5.900  0.00  0.00    -0.732 N 
ATOM      8  C   UNL d   1       0.729   1.462  -5.816  0.00  0.00     0.284 C 
ATOM      9  H3  UNL d   1       2.654   1.073  -6.506  0.00  0.00     0.395 HD
ENDBRANCH   1   7
TORSDOF 1
ENDMDL
