MODEL 1
REMARK minimizedAffinity 0.622928023
REMARK minimizedRMSD -1
REMARK  1 active torsions:
REMARK  status: ('A' for Active; 'I' for Inactive)
REMARK    1  A    between atoms: N_2  and  C1_3 
ROOT
ATOM      1  C1  UNL d   1       4.356  -4.161  -0.383  0.00  0.00     0.143 A 
ATOM      2  C2  UNL d   1       5.249  -5.181  -0.040  0.00  0.00    -0.057 A 
ATOM      3  C3  UNL d   1       5.828  -5.999  -1.019  0.00  0.00     0.033 A 
ATOM      4  C4  UNL d   1       5.500  -5.828  -2.359  0.00  0.00    -0.042 A 
ATOM      5  C5  UNL d   1       4.595  -4.836  -2.721  0.00  0.00     0.033 A 
ATOM      6  C6  UNL d   1       4.025  -4.019  -1.740  0.00  0.00    -0.057 A 
ENDROOT
BRANCH   1   7
ATOM      7  N   UNL d   1       3.672  -3.380   0.552  0.00  0.00    -0.732 N 
ATOM      8  C   UNL d   1       2.338  -3.742   0.980  0.00  0.00     0.284 C 
ATOM      9  H3  UNL d   1       4.276  -3.055   1.303  0.00  0.00     0.395 HD
ENDBRANCH   1   7
TORSDOF 1
ENDMDL
