MODEL 1
REMARK minimizedAffinity 6.33678579
REMARK minimizedRMSD -1
REMARK  1 active torsions:
REMARK  status: ('A' for Active; 'I' for Inactive)
REMARK    1  A    between atoms: N_2  and  C1_3 
ROOT
ATOM      1  C1  UNL d   1       2.087   2.577  -5.909  0.00  0.00     0.143 A 
ATOM      2  C2  UNL d   1       2.344   3.952  -5.939  0.00  0.00    -0.057 A 
ATOM      3  C3  UNL d   1       3.654   4.444  -5.999  0.00  0.00     0.033 A 
ATOM      4  C4  UNL d   1       4.733   3.567  -6.000  0.00  0.00    -0.042 A 
ATOM      5  C5  UNL d   1       4.502   2.198  -5.945  0.00  0.00     0.033 A 
ATOM      6  C6  UNL d   1       3.192   1.712  -5.892  0.00  0.00    -0.057 A 
ENDROOT
BRANCH   1   7
ATOM      7  N   UNL d   1       0.812   2.028  -5.749  0.00  0.00    -0.732 N 
ATOM      8  C   UNL d   1       0.048   2.274  -4.545  0.00  0.00     0.284 C 
ATOM      9  H3  UNL d   1       0.263   2.067  -6.605  0.00  0.00     0.395 HD
ENDBRANCH   1   7
TORSDOF 1
ENDMDL
