MODEL 1
REMARK minimizedAffinity 0.00756530324
REMARK minimizedRMSD -1
REMARK  1 active torsions:
REMARK  status: ('A' for Active; 'I' for Inactive)
REMARK    1  A    between atoms: N_2  and  C1_3 
ROOT
ATOM      1  C1  UNL d   1       3.217   3.338  -5.896  0.00  0.00     0.143 A 
ATOM      2  C2  UNL d   1       4.594   3.575  -5.963  0.00  0.00    -0.057 A 
ATOM      3  C3  UNL d   1       5.106   4.878  -5.999  0.00  0.00     0.033 A 
ATOM      4  C4  UNL d   1       4.244   5.970  -5.998  0.00  0.00    -0.042 A 
ATOM      5  C5  UNL d   1       2.871   5.758  -5.958  0.00  0.00     0.033 A 
ATOM      6  C6  UNL d   1       2.366   4.454  -5.915  0.00  0.00    -0.057 A 
ENDROOT
BRANCH   1   7
ATOM      7  N   UNL d   1       2.643   2.066  -5.958  0.00  0.00    -0.732 N 
ATOM      8  C   UNL d   1       1.205   1.907  -5.996  0.00  0.00     0.284 C 
ATOM      9  H3  UNL d   1       3.147   1.442  -6.584  0.00  0.00     0.395 HD
ENDBRANCH   1   7
TORSDOF 1
ENDMDL
