MODEL 1
REMARK minimizedAffinity 8.21518803
REMARK minimizedRMSD -1
REMARK  1 active torsions:
REMARK  status: ('A' for Active; 'I' for Inactive)
REMARK    1  A    between atoms: N_2  and  C1_3 
ROOT
ATOM      1  C1  UNL d   1      -4.383   2.316   4.733  0.00  0.00     0.143 A 
ATOM      2  C2  UNL d   1      -5.700   2.251   4.264  0.00  0.00    -0.057 A 
ATOM      3  C3  UNL d   1      -5.995   1.723   3.002  0.00  0.00     0.033 A 
ATOM      4  C4  UNL d   1      -4.973   1.276   2.171  0.00  0.00    -0.042 A 
ATOM      5  C5  UNL d   1      -3.655   1.354   2.607  0.00  0.00     0.033 A 
ATOM      6  C6  UNL d   1      -3.367   1.877   3.871  0.00  0.00    -0.057 A 
ENDROOT
BRANCH   1   7
ATOM      7  N   UNL d   1      -4.016   2.921   5.938  0.00  0.00    -0.732 N 
ATOM      8  C   UNL d   1      -3.755   4.343   6.000  0.00  0.00     0.284 C 
ATOM      9  H3  UNL d   1      -4.543   2.560   6.730  0.00  0.00     0.395 HD
ENDBRANCH   1   7
TORSDOF 1
ENDMDL
