MODEL 1
REMARK minimizedAffinity -3.65850401
REMARK minimizedRMSD -1
REMARK  0 active torsions:
REMARK  status: ('A' for Active; 'I' for Inactive)
ROOT
ATOM      1  C   UNL d   1      -4.506  -4.837  -2.128  0.00  0.00     0.077 C 
ATOM      2  C1  UNL d   1      -4.484  -4.167  -3.470  0.00  0.00    -0.074 A 
ATOM      3  C2  UNL d   1      -3.777  -4.725  -4.540  0.00  0.00    -0.005 A 
ATOM      4  C3  UNL d   1      -3.774  -4.095  -5.784  0.00  0.00     0.006 A 
ATOM      5  C4  UNL d   1      -4.477  -2.904  -5.972  0.00  0.00    -0.005 A 
ATOM      6  C5  UNL d   1      -5.190  -2.333  -4.913  0.00  0.00    -0.074 A 
ATOM      7  C6  UNL d   1      -5.959  -1.059  -5.100  0.00  0.00     0.077 C 
ATOM      8  C7  UNL d   1      -5.195  -2.975  -3.668  0.00  0.00    -0.001 A 
ENDROOT
TORSDOF 0
ENDMDL
