MODEL 1
REMARK minimizedAffinity -1.31204605
REMARK minimizedRMSD -1
REMARK  0 active torsions:
REMARK  status: ('A' for Active; 'I' for Inactive)
ROOT
ATOM      1  C   UNL d   1      -5.999  -0.466  -2.025  0.00  0.00     0.077 C 
ATOM      2  C1  UNL d   1      -6.000  -1.030  -3.415  0.00  0.00    -0.074 A 
ATOM      3  C2  UNL d   1      -5.999  -0.189  -4.532  0.00  0.00    -0.005 A 
ATOM      4  C3  UNL d   1      -5.990  -0.729  -5.818  0.00  0.00     0.006 A 
ATOM      5  C4  UNL d   1      -5.982  -2.112  -6.000  0.00  0.00    -0.005 A 
ATOM      6  C5  UNL d   1      -5.982  -2.969  -4.894  0.00  0.00    -0.074 A 
ATOM      7  C6  UNL d   1      -5.963  -4.458  -5.072  0.00  0.00     0.077 C 
ATOM      8  C7  UNL d   1      -5.984  -2.419  -3.605  0.00  0.00    -0.001 A 
ENDROOT
TORSDOF 0
ENDMDL
