MODEL 1
REMARK minimizedAffinity 3.81685209
REMARK minimizedRMSD -1
REMARK  0 active torsions:
REMARK  status: ('A' for Active; 'I' for Inactive)
ROOT
ATOM      1  C   UNL d   1      -1.289  -6.000  -6.000  0.00  0.00     0.077 C 
ATOM      2  C1  UNL d   1      -2.332  -5.239  -5.236  0.00  0.00    -0.074 A 
ATOM      3  C2  UNL d   1      -2.353  -5.255  -3.837  0.00  0.00    -0.005 A 
ATOM      4  C3  UNL d   1      -3.323  -4.535  -3.140  0.00  0.00     0.006 A 
ATOM      5  C4  UNL d   1      -4.281  -3.794  -3.833  0.00  0.00    -0.005 A 
ATOM      6  C5  UNL d   1      -4.275  -3.766  -5.231  0.00  0.00    -0.074 A 
ATOM      7  C6  UNL d   1      -5.291  -2.966  -5.991  0.00  0.00     0.077 C 
ATOM      8  C7  UNL d   1      -3.293  -4.486  -5.924  0.00  0.00    -0.001 A 
ENDROOT
TORSDOF 0
ENDMDL
