MODEL 1
REMARK minimizedAffinity -2.70473576
REMARK minimizedRMSD -1
REMARK  0 active torsions:
REMARK  status: ('A' for Active; 'I' for Inactive)
ROOT
ATOM      1  C   UNL d   1      -5.999  -1.688  -3.367  0.00  0.00     0.077 C 
ATOM      2  C1  UNL d   1      -5.369  -2.804  -4.147  0.00  0.00    -0.074 A 
ATOM      3  C2  UNL d   1      -5.999  -3.335  -5.277  0.00  0.00    -0.005 A 
ATOM      4  C3  UNL d   1      -5.397  -4.366  -5.998  0.00  0.00     0.006 A 
ATOM      5  C4  UNL d   1      -4.162  -4.876  -5.597  0.00  0.00    -0.005 A 
ATOM      6  C5  UNL d   1      -3.517  -4.357  -4.470  0.00  0.00    -0.074 A 
ATOM      7  C6  UNL d   1      -2.184  -4.886  -4.031  0.00  0.00     0.077 C 
ATOM      8  C7  UNL d   1      -4.125  -3.316  -3.755  0.00  0.00    -0.001 A 
ENDROOT
TORSDOF 0
ENDMDL
