MODEL 1
REMARK minimizedAffinity -3.59450126
REMARK minimizedRMSD -1
REMARK  0 active torsions:
REMARK  status: ('A' for Active; 'I' for Inactive)
ROOT
ATOM      1  C   UNL d   1      -1.346  -4.955  -5.258  0.00  0.00     0.077 C 
ATOM      2  C1  UNL d   1      -2.837  -4.887  -5.405  0.00  0.00    -0.074 A 
ATOM      3  C2  UNL d   1      -3.564  -5.989  -5.867  0.00  0.00    -0.005 A 
ATOM      4  C3  UNL d   1      -4.952  -5.914  -5.989  0.00  0.00     0.006 A 
ATOM      5  C4  UNL d   1      -5.625  -4.740  -5.652  0.00  0.00    -0.005 A 
ATOM      6  C5  UNL d   1      -4.914  -3.628  -5.187  0.00  0.00    -0.074 A 
ATOM      7  C6  UNL d   1      -5.623  -2.361  -4.811  0.00  0.00     0.077 C 
ATOM      8  C7  UNL d   1      -3.521  -3.713  -5.060  0.00  0.00    -0.001 A 
ENDROOT
TORSDOF 0
ENDMDL
