MODEL 1
REMARK minimizedAffinity -3.07392168
REMARK minimizedRMSD -1
REMARK  0 active torsions:
REMARK  status: ('A' for Active; 'I' for Inactive)
ROOT
ATOM      1  C   UNL d   1      -2.254  -5.495  -3.883  0.00  0.00     0.077 C 
ATOM      2  C1  UNL d   1      -3.556  -5.060  -4.486  0.00  0.00    -0.074 A 
ATOM      3  C2  UNL d   1      -4.196  -5.839  -5.455  0.00  0.00    -0.005 A 
ATOM      4  C3  UNL d   1      -5.412  -5.426  -6.000  0.00  0.00     0.006 A 
ATOM      5  C4  UNL d   1      -5.999  -4.231  -5.582  0.00  0.00    -0.005 A 
ATOM      6  C5  UNL d   1      -5.374  -3.439  -4.614  0.00  0.00    -0.074 A 
ATOM      7  C6  UNL d   1      -5.996  -2.156  -4.147  0.00  0.00     0.077 C 
ATOM      8  C7  UNL d   1      -4.156  -3.864  -4.066  0.00  0.00    -0.001 A 
ENDROOT
TORSDOF 0
ENDMDL
