MODEL 1
REMARK minimizedAffinity -0.150515273
REMARK minimizedRMSD -1
REMARK  0 active torsions:
REMARK  status: ('A' for Active; 'I' for Inactive)
ROOT
ATOM      1  C   UNL d   1      -0.636  -6.000  -5.941  0.00  0.00     0.077 C 
ATOM      2  C1  UNL d   1      -1.710  -5.225  -5.238  0.00  0.00    -0.074 A 
ATOM      3  C2  UNL d   1      -2.055  -5.514  -3.913  0.00  0.00    -0.005 A 
ATOM      4  C3  UNL d   1      -3.049  -4.778  -3.269  0.00  0.00     0.006 A 
ATOM      5  C4  UNL d   1      -3.707  -3.747  -3.941  0.00  0.00    -0.005 A 
ATOM      6  C5  UNL d   1      -3.375  -3.443  -5.265  0.00  0.00    -0.074 A 
ATOM      7  C6  UNL d   1      -4.066  -2.332  -5.998  0.00  0.00     0.077 C 
ATOM      8  C7  UNL d   1      -2.370  -4.182  -5.903  0.00  0.00    -0.001 A 
ENDROOT
TORSDOF 0
ENDMDL
