MODEL 1
REMARK minimizedAffinity -3.20002556
REMARK minimizedRMSD -1
REMARK  0 active torsions:
REMARK  status: ('A' for Active; 'I' for Inactive)
ROOT
ATOM      1  C   UNL d   1      -5.744  -2.393  -4.320  0.00  0.00     0.077 C 
ATOM      2  C1  UNL d   1      -5.170  -3.652  -4.899  0.00  0.00    -0.074 A 
ATOM      3  C2  UNL d   1      -5.999  -4.630  -5.456  0.00  0.00    -0.005 A 
ATOM      4  C3  UNL d   1      -5.450  -5.792  -6.000  0.00  0.00     0.006 A 
ATOM      5  C4  UNL d   1      -4.068  -5.986  -5.991  0.00  0.00    -0.005 A 
ATOM      6  C5  UNL d   1      -3.223  -5.018  -5.438  0.00  0.00    -0.074 A 
ATOM      7  C6  UNL d   1      -1.735  -5.207  -5.430  0.00  0.00     0.077 C 
ATOM      8  C7  UNL d   1      -3.782  -3.851  -4.901  0.00  0.00    -0.001 A 
ENDROOT
TORSDOF 0
ENDMDL
