MODEL 1
REMARK minimizedAffinity 0.577940404
REMARK minimizedRMSD -1
REMARK  0 active torsions:
REMARK  status: ('A' for Active; 'I' for Inactive)
ROOT
ATOM      1  C   UNL d   1      -5.911  -4.787  -5.634  0.00  0.00     0.077 C 
ATOM      2  C1  UNL d   1      -4.486  -4.872  -5.173  0.00  0.00    -0.074 A 
ATOM      3  C2  UNL d   1      -3.438  -4.442  -5.993  0.00  0.00    -0.005 A 
ATOM      4  C3  UNL d   1      -2.119  -4.519  -5.547  0.00  0.00     0.006 A 
ATOM      5  C4  UNL d   1      -1.835  -5.026  -4.278  0.00  0.00    -0.005 A 
ATOM      6  C5  UNL d   1      -2.870  -5.461  -3.444  0.00  0.00    -0.074 A 
ATOM      7  C6  UNL d   1      -2.582  -6.000  -2.074  0.00  0.00     0.077 C 
ATOM      8  C7  UNL d   1      -4.193  -5.374  -3.897  0.00  0.00    -0.001 A 
ENDROOT
TORSDOF 0
ENDMDL
