MODEL 1
REMARK minimizedAffinity -1.8026911
REMARK minimizedRMSD -1
REMARK  0 active torsions:
REMARK  status: ('A' for Active; 'I' for Inactive)
ROOT
ATOM      1  C   UNL d   1      -1.236  -5.113  -5.999  0.00  0.00     0.077 C 
ATOM      2  C1  UNL d   1      -2.470  -4.737  -5.235  0.00  0.00    -0.074 A 
ATOM      3  C2  UNL d   1      -2.491  -4.779  -3.837  0.00  0.00    -0.005 A 
ATOM      4  C3  UNL d   1      -3.643  -4.418  -3.139  0.00  0.00     0.006 A 
ATOM      5  C4  UNL d   1      -4.785  -4.011  -3.831  0.00  0.00    -0.005 A 
ATOM      6  C5  UNL d   1      -4.783  -3.962  -5.228  0.00  0.00    -0.074 A 
ATOM      7  C6  UNL d   1      -5.998  -3.517  -5.987  0.00  0.00     0.077 C 
ATOM      8  C7  UNL d   1      -3.619  -4.320  -5.922  0.00  0.00    -0.001 A 
ENDROOT
TORSDOF 0
ENDMDL
