MODEL 1
REMARK minimizedAffinity 3.67749572
REMARK minimizedRMSD -1
REMARK  0 active torsions:
REMARK  status: ('A' for Active; 'I' for Inactive)
ROOT
ATOM      1  C   UNL d   1      -2.948  -5.704  -3.592  0.00  0.00     0.077 C 
ATOM      2  C1  UNL d   1      -3.975  -4.777  -4.171  0.00  0.00    -0.074 A 
ATOM      3  C2  UNL d   1      -4.441  -4.946  -5.479  0.00  0.00    -0.005 A 
ATOM      4  C3  UNL d   1      -5.404  -4.082  -6.000  0.00  0.00     0.006 A 
ATOM      5  C4  UNL d   1      -5.910  -3.042  -5.220  0.00  0.00    -0.005 A 
ATOM      6  C5  UNL d   1      -5.457  -2.857  -3.910  0.00  0.00    -0.074 A 
ATOM      7  C6  UNL d   1      -5.998  -1.750  -3.055  0.00  0.00     0.077 C 
ATOM      8  C7  UNL d   1      -4.495  -3.734  -3.391  0.00  0.00    -0.001 A 
ENDROOT
TORSDOF 0
ENDMDL
