MODEL 1
REMARK minimizedAffinity -3.5560863
REMARK minimizedRMSD -1
REMARK  0 active torsions:
REMARK  status: ('A' for Active; 'I' for Inactive)
ROOT
ATOM      1  C   UNL d   1      -1.117  -5.253  -5.998  0.00  0.00     0.077 C 
ATOM      2  C1  UNL d   1      -2.396  -4.758  -5.390  0.00  0.00    -0.074 A 
ATOM      3  C2  UNL d   1      -3.142  -5.568  -4.527  0.00  0.00    -0.005 A 
ATOM      4  C3  UNL d   1      -4.324  -5.090  -3.961  0.00  0.00     0.006 A 
ATOM      5  C4  UNL d   1      -4.771  -3.801  -4.252  0.00  0.00    -0.005 A 
ATOM      6  C5  UNL d   1      -4.038  -2.977  -5.112  0.00  0.00    -0.074 A 
ATOM      7  C6  UNL d   1      -4.500  -1.585  -5.427  0.00  0.00     0.077 C 
ATOM      8  C7  UNL d   1      -2.848  -3.461  -5.671  0.00  0.00    -0.001 A 
ENDROOT
TORSDOF 0
ENDMDL
