MODEL 1
REMARK minimizedAffinity -3.64156055
REMARK minimizedRMSD -1
REMARK  0 active torsions:
REMARK  status: ('A' for Active; 'I' for Inactive)
ROOT
ATOM      1  C   UNL d   1      -1.974  -4.644  -6.000  0.00  0.00     0.077 C 
ATOM      2  C1  UNL d   1      -3.380  -4.350  -5.568  0.00  0.00    -0.074 A 
ATOM      3  C2  UNL d   1      -4.093  -5.255  -4.776  0.00  0.00    -0.005 A 
ATOM      4  C3  UNL d   1      -5.396  -4.964  -4.374  0.00  0.00     0.006 A 
ATOM      5  C4  UNL d   1      -5.999  -3.766  -4.760  0.00  0.00    -0.005 A 
ATOM      6  C5  UNL d   1      -5.302  -2.848  -5.551  0.00  0.00    -0.074 A 
ATOM      7  C6  UNL d   1      -5.931  -1.552  -5.966  0.00  0.00     0.077 C 
ATOM      8  C7  UNL d   1      -3.990  -3.145  -5.945  0.00  0.00    -0.001 A 
ENDROOT
TORSDOF 0
ENDMDL
