MODEL 1
REMARK minimizedAffinity 4.15571499
REMARK minimizedRMSD -1
REMARK  0 active torsions:
REMARK  status: ('A' for Active; 'I' for Inactive)
ROOT
ATOM      1  C   UNL d   1      -6.000  -1.881  -3.449  0.00  0.00     0.077 C 
ATOM      2  C1  UNL d   1      -4.854  -2.392  -4.270  0.00  0.00    -0.074 A 
ATOM      3  C2  UNL d   1      -4.176  -1.552  -5.159  0.00  0.00    -0.005 A 
ATOM      4  C3  UNL d   1      -3.106  -2.039  -5.910  0.00  0.00     0.006 A 
ATOM      5  C4  UNL d   1      -2.704  -3.368  -5.779  0.00  0.00    -0.005 A 
ATOM      6  C5  UNL d   1      -3.369  -4.223  -4.895  0.00  0.00    -0.074 A 
ATOM      7  C6  UNL d   1      -2.943  -5.652  -4.735  0.00  0.00     0.077 C 
ATOM      8  C7  UNL d   1      -4.439  -3.725  -4.139  0.00  0.00    -0.001 A 
ENDROOT
TORSDOF 0
ENDMDL
