MODEL 1
REMARK minimizedAffinity -0.448233008
REMARK minimizedRMSD -1
REMARK  0 active torsions:
REMARK  status: ('A' for Active; 'I' for Inactive)
ROOT
ATOM      1  C   UNL d   1      -1.555  -4.802  -5.930  0.00  0.00     0.077 C 
ATOM      2  C1  UNL d   1      -3.054  -4.799  -5.954  0.00  0.00    -0.074 A 
ATOM      3  C2  UNL d   1      -3.776  -5.997  -5.946  0.00  0.00    -0.005 A 
ATOM      4  C3  UNL d   1      -5.171  -5.978  -5.959  0.00  0.00     0.006 A 
ATOM      5  C4  UNL d   1      -5.857  -4.763  -5.979  0.00  0.00    -0.005 A 
ATOM      6  C5  UNL d   1      -5.152  -3.555  -5.986  0.00  0.00    -0.074 A 
ATOM      7  C6  UNL d   1      -5.874  -2.240  -5.999  0.00  0.00     0.077 C 
ATOM      8  C7  UNL d   1      -3.751  -3.582  -5.966  0.00  0.00    -0.001 A 
ENDROOT
TORSDOF 0
ENDMDL
