MODEL 1
REMARK minimizedAffinity -2.26939225
REMARK minimizedRMSD -1
REMARK  0 active torsions:
REMARK  status: ('A' for Active; 'I' for Inactive)
ROOT
ATOM      1  C   UNL d   1      -2.159  -3.759  -2.631  0.00  0.00     0.077 C 
ATOM      2  C1  UNL d   1      -3.020  -4.100  -3.811  0.00  0.00    -0.074 A 
ATOM      3  C2  UNL d   1      -2.806  -5.272  -4.542  0.00  0.00    -0.005 A 
ATOM      4  C3  UNL d   1      -3.621  -5.580  -5.632  0.00  0.00     0.006 A 
ATOM      5  C4  UNL d   1      -4.656  -4.720  -6.000  0.00  0.00    -0.005 A 
ATOM      6  C5  UNL d   1      -4.885  -3.544  -5.280  0.00  0.00    -0.074 A 
ATOM      7  C6  UNL d   1      -6.000  -2.613  -5.657  0.00  0.00     0.077 C 
ATOM      8  C7  UNL d   1      -4.067  -3.244  -4.183  0.00  0.00    -0.001 A 
ENDROOT
TORSDOF 0
ENDMDL
