MODEL 1
REMARK minimizedAffinity 2.731673
REMARK minimizedRMSD -1
REMARK  0 active torsions:
REMARK  status: ('A' for Active; 'I' for Inactive)
ROOT
ATOM      1  C   UNL d   1      -1.575  -5.988  -5.985  0.00  0.00     0.077 C 
ATOM      2  C1  UNL d   1      -2.549  -5.130  -5.234  0.00  0.00    -0.074 A 
ATOM      3  C2  UNL d   1      -2.428  -4.944  -3.853  0.00  0.00    -0.005 A 
ATOM      4  C3  UNL d   1      -3.336  -4.135  -3.170  0.00  0.00     0.006 A 
ATOM      5  C4  UNL d   1      -4.372  -3.504  -3.860  0.00  0.00    -0.005 A 
ATOM      6  C5  UNL d   1      -4.508  -3.677  -5.241  0.00  0.00    -0.074 A 
ATOM      7  C6  UNL d   1      -5.610  -2.998  -5.999  0.00  0.00     0.077 C 
ATOM      8  C7  UNL d   1      -3.587  -4.486  -5.921  0.00  0.00    -0.001 A 
ENDROOT
TORSDOF 0
ENDMDL
