MODEL 1
REMARK minimizedAffinity 0.174220264
REMARK minimizedRMSD -1
REMARK  0 active torsions:
REMARK  status: ('A' for Active; 'I' for Inactive)
ROOT
ATOM      1  C   UNL d   1      -1.641  -5.995  -6.000  0.00  0.00     0.077 C 
ATOM      2  C1  UNL d   1      -2.596  -5.117  -5.247  0.00  0.00    -0.074 A 
ATOM      3  C2  UNL d   1      -2.456  -4.918  -3.870  0.00  0.00    -0.005 A 
ATOM      4  C3  UNL d   1      -3.346  -4.090  -3.185  0.00  0.00     0.006 A 
ATOM      5  C4  UNL d   1      -4.383  -3.454  -3.870  0.00  0.00    -0.005 A 
ATOM      6  C5  UNL d   1      -4.537  -3.641  -5.247  0.00  0.00    -0.074 A 
ATOM      7  C6  UNL d   1      -5.640  -2.957  -6.000  0.00  0.00     0.077 C 
ATOM      8  C7  UNL d   1      -3.635  -4.468  -5.929  0.00  0.00    -0.001 A 
ENDROOT
TORSDOF 0
ENDMDL
