MODEL 1
REMARK minimizedAffinity 16.2511196
REMARK minimizedRMSD -1
REMARK  0 active torsions:
REMARK  status: ('A' for Active; 'I' for Inactive)
ROOT
ATOM      1  C2' OXE d   1      -5.123   4.631  -0.796  0.00  0.00     0.078 C 
ATOM      2  C1' OXE d   1      -4.661   1.967  -1.550  0.00  0.00     0.078 C 
ATOM      3  C1  OXE d   1      -3.697   3.015  -2.046  0.00  0.00    -0.078 A 
ATOM      4  C2  OXE d   1      -3.957   4.322  -1.711  0.00  0.00    -0.078 A 
ATOM      5  C3  OXE d   1      -3.069   5.323  -2.096  0.00  0.00     0.003 A 
ATOM      6  C4  OXE d   1      -1.999   5.030  -2.950  0.00  0.00    -0.002 A 
ATOM      7  C5  OXE d   1      -1.739   3.711  -3.335  0.00  0.00    -0.002 A 
ATOM      8  C6  OXE d   1      -2.551   2.688  -2.858  0.00  0.00     0.003 A 
ENDROOT
TORSDOF 0
ENDMDL
