MODEL 1
REMARK minimizedAffinity 15.2520447
REMARK minimizedRMSD -1
REMARK  0 active torsions:
REMARK  status: ('A' for Active; 'I' for Inactive)
ROOT
ATOM      1  C2' OXE d   1      -3.730   5.999  -1.071  0.00  0.00     0.078 C 
ATOM      2  C1' OXE d   1      -4.806   3.491  -0.413  0.00  0.00     0.078 C 
ATOM      3  C1  OXE d   1      -3.870   3.567  -1.592  0.00  0.00    -0.078 A 
ATOM      4  C2  OXE d   1      -3.385   4.806  -1.936  0.00  0.00    -0.078 A 
ATOM      5  C3  OXE d   1      -2.474   4.924  -2.982  0.00  0.00     0.003 A 
ATOM      6  C4  OXE d   1      -2.168   3.817  -3.783  0.00  0.00    -0.002 A 
ATOM      7  C5  OXE d   1      -2.682   2.553  -3.475  0.00  0.00    -0.002 A 
ATOM      8  C6  OXE d   1      -3.499   2.404  -2.360  0.00  0.00     0.003 A 
ENDROOT
TORSDOF 0
ENDMDL
