MODEL 1
REMARK minimizedAffinity 9.68216228
REMARK minimizedRMSD -1
REMARK  0 active torsions:
REMARK  status: ('A' for Active; 'I' for Inactive)
ROOT
ATOM      1  C2' OXE d   1      -5.052   4.497  -0.642  0.00  0.00     0.078 C 
ATOM      2  C1' OXE d   1      -4.521   2.026  -1.864  0.00  0.00     0.078 C 
ATOM      3  C1  OXE d   1      -3.707   3.218  -2.303  0.00  0.00    -0.078 A 
ATOM      4  C2  OXE d   1      -4.006   4.432  -1.733  0.00  0.00    -0.078 A 
ATOM      5  C3  OXE d   1      -3.248   5.553  -2.062  0.00  0.00     0.003 A 
ATOM      6  C4  OXE d   1      -2.289   5.486  -3.080  0.00  0.00    -0.002 A 
ATOM      7  C5  OXE d   1      -1.997   4.268  -3.702  0.00  0.00    -0.002 A 
ATOM      8  C6  OXE d   1      -2.666   3.118  -3.296  0.00  0.00     0.003 A 
ENDROOT
TORSDOF 0
ENDMDL
