MODEL 1
REMARK minimizedAffinity 16.0407124
REMARK minimizedRMSD -1
REMARK  0 active torsions:
REMARK  status: ('A' for Active; 'I' for Inactive)
ROOT
ATOM      1  C2' OXE d   1      -3.107  -3.968   2.215  0.00  0.00     0.078 C 
ATOM      2  C1' OXE d   1      -5.757  -3.119   1.841  0.00  0.00     0.078 C 
ATOM      3  C1  OXE d   1      -5.205  -4.144   0.882  0.00  0.00    -0.078 A 
ATOM      4  C2  OXE d   1      -3.893  -4.519   1.044  0.00  0.00    -0.078 A 
ATOM      5  C3  OXE d   1      -3.350  -5.501   0.221  0.00  0.00     0.003 A 
ATOM      6  C4  OXE d   1      -4.079  -5.999  -0.866  0.00  0.00    -0.002 A 
ATOM      7  C5  OXE d   1      -5.404  -5.601  -1.073  0.00  0.00    -0.002 A 
ATOM      8  C6  OXE d   1      -5.994  -4.708  -0.185  0.00  0.00     0.003 A 
ENDROOT
TORSDOF 0
ENDMDL
