MODEL 1
REMARK minimizedAffinity 18.2495956
REMARK minimizedRMSD -1
REMARK  0 active torsions:
REMARK  status: ('A' for Active; 'I' for Inactive)
ROOT
ATOM      1  C2' OXE d   1      -1.945   3.265  -6.000  0.00  0.00     0.078 C 
ATOM      2  C1' OXE d   1      -1.740   5.999  -5.397  0.00  0.00     0.078 C 
ATOM      3  C1  OXE d   1      -1.981   5.043  -4.255  0.00  0.00    -0.078 A 
ATOM      4  C2  OXE d   1      -2.127   3.713  -4.565  0.00  0.00    -0.078 A 
ATOM      5  C3  OXE d   1      -2.297   2.782  -3.544  0.00  0.00     0.003 A 
ATOM      6  C4  OXE d   1      -2.474   3.205  -2.222  0.00  0.00    -0.002 A 
ATOM      7  C5  OXE d   1      -2.369   4.560  -1.889  0.00  0.00    -0.002 A 
ATOM      8  C6  OXE d   1      -2.081   5.485  -2.886  0.00  0.00     0.003 A 
ENDROOT
TORSDOF 0
ENDMDL
