MODEL 1
REMARK minimizedAffinity 12.5258808
REMARK minimizedRMSD -1
REMARK  0 active torsions:
REMARK  status: ('A' for Active; 'I' for Inactive)
ROOT
ATOM      1  C2' OXE d   1      -3.869   3.791  -1.981  0.00  0.00     0.078 C 
ATOM      2  C1' OXE d   1      -2.405   3.689  -4.374  0.00  0.00     0.078 C 
ATOM      3  C1  OXE d   1      -1.678   3.376  -3.090  0.00  0.00    -0.078 A 
ATOM      4  C2  OXE d   1      -2.391   3.474  -1.920  0.00  0.00    -0.078 A 
ATOM      5  C3  OXE d   1      -1.782   3.144  -0.712  0.00  0.00     0.003 A 
ATOM      6  C4  OXE d   1      -0.412   2.862  -0.663  0.00  0.00    -0.002 A 
ATOM      7  C5  OXE d   1       0.342   2.795  -1.840  0.00  0.00    -0.002 A 
ATOM      8  C6  OXE d   1      -0.284   3.008  -3.063  0.00  0.00     0.003 A 
ENDROOT
TORSDOF 0
ENDMDL
