MODEL 1
REMARK minimizedAffinity 10.13379
REMARK minimizedRMSD -1
REMARK  0 active torsions:
REMARK  status: ('A' for Active; 'I' for Inactive)
ROOT
ATOM      1  C2' OXE d   1       0.041  -3.342   2.496  0.00  0.00     0.078 C 
ATOM      2  C1' OXE d   1       0.241  -0.708   3.444  0.00  0.00     0.078 C 
ATOM      3  C1  OXE d   1       1.190  -1.137   2.353  0.00  0.00    -0.078 A 
ATOM      4  C2  OXE d   1       1.116  -2.441   1.928  0.00  0.00    -0.078 A 
ATOM      5  C3  OXE d   1       1.931  -2.874   0.886  0.00  0.00     0.003 A 
ATOM      6  C4  OXE d   1       2.930  -2.037   0.373  0.00  0.00    -0.002 A 
ATOM      7  C5  OXE d   1       3.049  -0.717   0.820  0.00  0.00    -0.002 A 
ATOM      8  C6  OXE d   1       2.161  -0.239   1.777  0.00  0.00     0.003 A 
ENDROOT
TORSDOF 0
ENDMDL
