MODEL 1
REMARK minimizedAffinity 19.0018559
REMARK minimizedRMSD -1
REMARK  0 active torsions:
REMARK  status: ('A' for Active; 'I' for Inactive)
ROOT
ATOM      1  C2' OXE d   1      -1.476   6.000  -5.913  0.00  0.00     0.078 C 
ATOM      2  C1' OXE d   1      -2.462   3.373  -5.999  0.00  0.00     0.078 C 
ATOM      3  C1  OXE d   1      -2.071   3.934  -4.655  0.00  0.00    -0.078 A 
ATOM      4  C2  OXE d   1      -1.545   5.203  -4.628  0.00  0.00    -0.078 A 
ATOM      5  C3  OXE d   1      -1.219   5.789  -3.408  0.00  0.00     0.003 A 
ATOM      6  C4  OXE d   1      -1.277   5.042  -2.226  0.00  0.00    -0.002 A 
ATOM      7  C5  OXE d   1      -1.772   3.733  -2.236  0.00  0.00    -0.002 A 
ATOM      8  C6  OXE d   1      -2.212   3.181  -3.434  0.00  0.00     0.003 A 
ENDROOT
TORSDOF 0
ENDMDL
