MODEL 1
REMARK minimizedAffinity 5.58797836
REMARK minimizedRMSD -1
REMARK  0 active torsions:
REMARK  status: ('A' for Active; 'I' for Inactive)
ROOT
ATOM      1  C2' OXE d   1       0.820  -2.515   2.069  0.00  0.00     0.078 C 
ATOM      2  C1' OXE d   1      -1.417  -4.072   2.745  0.00  0.00     0.078 C 
ATOM      3  C1  OXE d   1      -1.138  -2.843   3.575  0.00  0.00    -0.078 A 
ATOM      4  C2  OXE d   1      -0.015  -2.113   3.266  0.00  0.00    -0.078 A 
ATOM      5  C3  OXE d   1       0.258  -0.941   3.964  0.00  0.00     0.003 A 
ATOM      6  C4  OXE d   1      -0.514  -0.581   5.076  0.00  0.00    -0.002 A 
ATOM      7  C5  OXE d   1      -1.639  -1.333   5.432  0.00  0.00    -0.002 A 
ATOM      8  C6  OXE d   1      -1.989  -2.440   4.667  0.00  0.00     0.003 A 
ENDROOT
TORSDOF 0
ENDMDL
