MODEL 1
REMARK minimizedAffinity 10.4912863
REMARK minimizedRMSD -1
REMARK  0 active torsions:
REMARK  status: ('A' for Active; 'I' for Inactive)
ROOT
ATOM      1  C2' OXE d   1      -1.055  -0.477   4.080  0.00  0.00     0.078 C 
ATOM      2  C1' OXE d   1      -1.605  -2.829   2.650  0.00  0.00     0.078 C 
ATOM      3  C1  OXE d   1      -0.318  -2.104   2.343  0.00  0.00    -0.078 A 
ATOM      4  C2  OXE d   1      -0.079  -0.929   3.014  0.00  0.00    -0.078 A 
ATOM      5  C3  OXE d   1       1.118  -0.249   2.809  0.00  0.00     0.003 A 
ATOM      6  C4  OXE d   1       2.010  -0.668   1.815  0.00  0.00    -0.002 A 
ATOM      7  C5  OXE d   1       1.766  -1.841   1.091  0.00  0.00    -0.002 A 
ATOM      8  C6  OXE d   1       0.630  -2.592   1.373  0.00  0.00     0.003 A 
ENDROOT
TORSDOF 0
ENDMDL
