MODEL 1
REMARK minimizedAffinity 8.25193691
REMARK minimizedRMSD -1
REMARK  0 active torsions:
REMARK  status: ('A' for Active; 'I' for Inactive)
ROOT
ATOM      1  C2' OXE d   1      -1.223  -0.761   4.817  0.00  0.00     0.078 C 
ATOM      2  C1' OXE d   1      -1.991  -2.950   3.237  0.00  0.00     0.078 C 
ATOM      3  C1  OXE d   1      -0.701  -2.250   2.890  0.00  0.00    -0.078 A 
ATOM      4  C2  OXE d   1      -0.357  -1.151   3.640  0.00  0.00    -0.078 A 
ATOM      5  C3  OXE d   1       0.850  -0.502   3.397  0.00  0.00     0.003 A 
ATOM      6  C4  OXE d   1       1.641  -0.863   2.299  0.00  0.00    -0.002 A 
ATOM      7  C5  OXE d   1       1.288  -1.954   1.498  0.00  0.00    -0.002 A 
ATOM      8  C6  OXE d   1       0.145  -2.684   1.806  0.00  0.00     0.003 A 
ENDROOT
TORSDOF 0
ENDMDL
