MODEL 1
REMARK minimizedAffinity 6.40888453
REMARK minimizedRMSD -1
REMARK  0 active torsions:
REMARK  status: ('A' for Active; 'I' for Inactive)
ROOT
ATOM      1  C2' OXE d   1      -0.868  -0.722   4.293  0.00  0.00     0.078 C 
ATOM      2  C1' OXE d   1      -1.157  -3.060   2.766  0.00  0.00     0.078 C 
ATOM      3  C1  OXE d   1       0.040  -2.184   2.492  0.00  0.00    -0.078 A 
ATOM      4  C2  OXE d   1       0.148  -1.018   3.212  0.00  0.00    -0.078 A 
ATOM      5  C3  OXE d   1       1.262  -0.201   3.037  0.00  0.00     0.003 A 
ATOM      6  C4  OXE d   1       2.192  -0.477   2.028  0.00  0.00    -0.002 A 
ATOM      7  C5  OXE d   1       2.079  -1.639   1.257  0.00  0.00    -0.002 A 
ATOM      8  C6  OXE d   1       1.035  -2.522   1.504  0.00  0.00     0.003 A 
ENDROOT
TORSDOF 0
ENDMDL
