MODEL 1
REMARK minimizedAffinity 10.0663328
REMARK minimizedRMSD -1
REMARK  0 active torsions:
REMARK  status: ('A' for Active; 'I' for Inactive)
ROOT
ATOM      1  C2' OXE d   1      -1.515   3.020  -3.323  0.00  0.00     0.078 C 
ATOM      2  C1' OXE d   1      -1.728   5.817  -3.220  0.00  0.00     0.078 C 
ATOM      3  C1  OXE d   1      -2.694   5.007  -2.392  0.00  0.00    -0.078 A 
ATOM      4  C2  OXE d   1      -2.613   3.638  -2.485  0.00  0.00    -0.078 A 
ATOM      5  C3  OXE d   1      -3.444   2.844  -1.700  0.00  0.00     0.003 A 
ATOM      6  C4  OXE d   1      -4.463   3.423  -0.935  0.00  0.00    -0.002 A 
ATOM      7  C5  OXE d   1      -4.589   4.815  -0.858  0.00  0.00    -0.002 A 
ATOM      8  C6  OXE d   1      -3.687   5.620  -1.545  0.00  0.00     0.003 A 
ENDROOT
TORSDOF 0
ENDMDL
