MODEL 1
REMARK minimizedAffinity 3.08537269
REMARK minimizedRMSD -1
REMARK  0 active torsions:
REMARK  status: ('A' for Active; 'I' for Inactive)
ROOT
ATOM      1  C2' OXE d   1      -1.874  -0.704   5.335  0.00  0.00     0.078 C 
ATOM      2  C1' OXE d   1      -3.012  -2.702   3.725  0.00  0.00     0.078 C 
ATOM      3  C1  OXE d   1      -1.643  -2.190   3.350  0.00  0.00    -0.078 A 
ATOM      4  C2  OXE d   1      -1.114  -1.180   4.116  0.00  0.00    -0.078 A 
ATOM      5  C3  OXE d   1       0.168  -0.709   3.847  0.00  0.00     0.003 A 
ATOM      6  C4  OXE d   1       0.860  -1.148   2.712  0.00  0.00    -0.002 A 
ATOM      7  C5  OXE d   1       0.322  -2.149   1.895  0.00  0.00    -0.002 A 
ATOM      8  C6  OXE d   1      -0.907  -2.709   2.224  0.00  0.00     0.003 A 
ENDROOT
TORSDOF 0
ENDMDL
