MODEL 1
REMARK minimizedAffinity 13.1292286
REMARK minimizedRMSD -1
REMARK  0 active torsions:
REMARK  status: ('A' for Active; 'I' for Inactive)
ROOT
ATOM      1  C2' OXE d   1       1.589  -2.824   1.152  0.00  0.00     0.078 C 
ATOM      2  C1' OXE d   1       1.711  -0.132   1.937  0.00  0.00     0.078 C 
ATOM      3  C1  OXE d   1       0.617  -0.987   2.524  0.00  0.00    -0.078 A 
ATOM      4  C2  OXE d   1       0.536  -2.291   2.099  0.00  0.00    -0.078 A 
ATOM      5  C3  OXE d   1      -0.421  -3.138   2.651  0.00  0.00     0.003 A 
ATOM      6  C4  OXE d   1      -1.398  -2.634   3.519  0.00  0.00    -0.002 A 
ATOM      7  C5  OXE d   1      -1.358  -1.299   3.934  0.00  0.00    -0.002 A 
ATOM      8  C6  OXE d   1      -0.334  -0.475   3.480  0.00  0.00     0.003 A 
ENDROOT
TORSDOF 0
ENDMDL
