MODEL 1
REMARK minimizedAffinity 14.4472904
REMARK minimizedRMSD -1
REMARK  0 active torsions:
REMARK  status: ('A' for Active; 'I' for Inactive)
ROOT
ATOM      1  C2' OXE d   1      -3.311   1.864  -2.656  0.00  0.00     0.078 C 
ATOM      2  C1' OXE d   1      -4.488   3.730  -0.921  0.00  0.00     0.078 C 
ATOM      3  C1  OXE d   1      -3.443   4.229  -1.886  0.00  0.00    -0.078 A 
ATOM      4  C2  OXE d   1      -2.839   3.301  -2.699  0.00  0.00    -0.078 A 
ATOM      5  C3  OXE d   1      -1.907   3.716  -3.647  0.00  0.00     0.003 A 
ATOM      6  C4  OXE d   1      -1.468   5.045  -3.674  0.00  0.00    -0.002 A 
ATOM      7  C5  OXE d   1      -2.041   6.000  -2.827  0.00  0.00    -0.002 A 
ATOM      8  C6  OXE d   1      -3.058   5.617  -1.959  0.00  0.00     0.003 A 
ENDROOT
TORSDOF 0
ENDMDL
