MODEL 1
REMARK minimizedAffinity 11.3204784
REMARK minimizedRMSD -1
REMARK  0 active torsions:
REMARK  status: ('A' for Active; 'I' for Inactive)
ROOT
ATOM      1  C2' OXE d   1       1.094  -0.249   4.009  0.00  0.00     0.078 C 
ATOM      2  C1' OXE d   1       1.456  -1.997   1.842  0.00  0.00     0.078 C 
ATOM      3  C1  OXE d   1       0.148  -2.065   2.591  0.00  0.00    -0.078 A 
ATOM      4  C2  OXE d   1      -0.001  -1.239   3.679  0.00  0.00    -0.078 A 
ATOM      5  C3  OXE d   1      -1.209  -1.223   4.372  0.00  0.00     0.003 A 
ATOM      6  C4  OXE d   1      -2.213  -2.149   4.066  0.00  0.00    -0.002 A 
ATOM      7  C5  OXE d   1      -2.065  -3.027   2.987  0.00  0.00    -0.002 A 
ATOM      8  C6  OXE d   1      -0.910  -2.969   2.215  0.00  0.00     0.003 A 
ENDROOT
TORSDOF 0
ENDMDL
