MODEL 1
REMARK minimizedAffinity 13.0501728
REMARK minimizedRMSD -1
REMARK  0 active torsions:
REMARK  status: ('A' for Active; 'I' for Inactive)
ROOT
ATOM      1  C2' OXE d   1      -2.960   1.805  -2.978  0.00  0.00     0.078 C 
ATOM      2  C1' OXE d   1      -3.729   3.695  -1.051  0.00  0.00     0.078 C 
ATOM      3  C1  OXE d   1      -3.008   4.195  -2.278  0.00  0.00    -0.078 A 
ATOM      4  C2  OXE d   1      -2.595   3.258  -3.194  0.00  0.00    -0.078 A 
ATOM      5  C3  OXE d   1      -1.974   3.670  -4.369  0.00  0.00     0.003 A 
ATOM      6  C4  OXE d   1      -1.631   5.014  -4.556  0.00  0.00    -0.002 A 
ATOM      7  C5  OXE d   1      -2.007   5.980  -3.617  0.00  0.00    -0.002 A 
ATOM      8  C6  OXE d   1      -2.733   5.594  -2.495  0.00  0.00     0.003 A 
ENDROOT
TORSDOF 0
ENDMDL
