MODEL 1
REMARK minimizedAffinity 11.3439255
REMARK minimizedRMSD -1
REMARK  0 active torsions:
REMARK  status: ('A' for Active; 'I' for Inactive)
ROOT
ATOM      1  C   UNL d   1       2.648   0.073   4.343  0.00  0.00     0.020 A 
ATOM      2  C1  UNL d   1       2.152  -0.650   3.259  0.00  0.00     0.020 A 
ATOM      3  C2  UNL d   1       0.837  -0.453   2.832  0.00  0.00     0.034 A 
ATOM      4  C3  UNL d   1       0.014   0.469   3.489  0.00  0.00     0.017 A 
ATOM      5  C4  UNL d   1       0.513   1.194   4.577  0.00  0.00     0.017 A 
ATOM      6  C5  UNL d   1       1.831   0.993   5.001  0.00  0.00     0.034 A 
ATOM      7 Cl   UNL d   1      -0.442   2.349   5.438  0.00  0.00    -0.070 Cl
ATOM      8 Cl1  UNL d   1      -1.601   0.662   2.906  0.00  0.00    -0.070 Cl
ENDROOT
TORSDOF 0
ENDMDL
