MODEL 1
REMARK minimizedAffinity 14.9339609
REMARK minimizedRMSD -1
REMARK  0 active torsions:
REMARK  status: ('A' for Active; 'I' for Inactive)
ROOT
ATOM      1  C   UNL d   1       4.178   6.000   2.986  0.00  0.00     0.020 A 
ATOM      2  C1  UNL d   1       4.619   5.398   4.163  0.00  0.00     0.020 A 
ATOM      3  C2  UNL d   1       4.847   4.020   4.201  0.00  0.00     0.034 A 
ATOM      4  C3  UNL d   1       4.635   3.241   3.058  0.00  0.00     0.017 A 
ATOM      5  C4  UNL d   1       4.192   3.846   1.876  0.00  0.00     0.017 A 
ATOM      6  C5  UNL d   1       3.965   5.225   1.845  0.00  0.00     0.034 A 
ATOM      7 Cl   UNL d   1       3.907   2.949   0.426  0.00  0.00    -0.070 Cl
ATOM      8 Cl1  UNL d   1       4.937   1.544   3.176  0.00  0.00    -0.070 Cl
ENDROOT
TORSDOF 0
ENDMDL
