MODEL 1
REMARK minimizedAffinity 7.48911858
REMARK minimizedRMSD -1
REMARK  0 active torsions:
REMARK  status: ('A' for Active; 'I' for Inactive)
ROOT
ATOM      1  C   UNL d   1       3.995   4.348   1.085  0.00  0.00     0.020 A 
ATOM      2  C1  UNL d   1       5.378   4.268   1.240  0.00  0.00     0.020 A 
ATOM      3  C2  UNL d   1       5.976   4.726   2.416  0.00  0.00     0.034 A 
ATOM      4  C3  UNL d   1       5.191   5.266   3.441  0.00  0.00     0.017 A 
ATOM      5  C4  UNL d   1       3.803   5.345   3.285  0.00  0.00     0.017 A 
ATOM      6  C5  UNL d   1       3.209   4.886   2.105  0.00  0.00     0.034 A 
ATOM      7 Cl   UNL d   1       2.768   5.999   4.505  0.00  0.00    -0.070 Cl
ATOM      8 Cl1  UNL d   1       5.998   5.812   4.868  0.00  0.00    -0.070 Cl
ENDROOT
TORSDOF 0
ENDMDL
