MODEL 1
REMARK minimizedAffinity 15.9187746
REMARK minimizedRMSD -1
REMARK  0 active torsions:
REMARK  status: ('A' for Active; 'I' for Inactive)
ROOT
ATOM      1  C   UNL d   1       1.411  -0.784   3.713  0.00  0.00     0.020 A 
ATOM      2  C1  UNL d   1       0.680  -0.671   2.531  0.00  0.00     0.020 A 
ATOM      3  C2  UNL d   1      -0.265   0.348   2.389  0.00  0.00     0.034 A 
ATOM      4  C3  UNL d   1      -0.481   1.257   3.430  0.00  0.00     0.017 A 
ATOM      5  C4  UNL d   1       0.253   1.143   4.617  0.00  0.00     0.017 A 
ATOM      6  C5  UNL d   1       1.197   0.121   4.754  0.00  0.00     0.034 A 
ATOM      7 Cl   UNL d   1       0.041   2.227   5.946  0.00  0.00    -0.070 Cl
ATOM      8 Cl1  UNL d   1      -1.665   2.492   3.186  0.00  0.00    -0.070 Cl
ENDROOT
TORSDOF 0
ENDMDL
