MODEL 1
REMARK minimizedAffinity 9.22117424
REMARK minimizedRMSD -1
REMARK  0 active torsions:
REMARK  status: ('A' for Active; 'I' for Inactive)
ROOT
ATOM      1  C   UNL d   1       5.722   5.988   2.414  0.00  0.00     0.020 A 
ATOM      2  C1  UNL d   1       4.714   5.999   1.452  0.00  0.00     0.020 A 
ATOM      3  C2  UNL d   1       3.982   4.838   1.193  0.00  0.00     0.034 A 
ATOM      4  C3  UNL d   1       4.258   3.661   1.899  0.00  0.00     0.017 A 
ATOM      5  C4  UNL d   1       5.270   3.651   2.865  0.00  0.00     0.017 A 
ATOM      6  C5  UNL d   1       6.000   4.816   3.119  0.00  0.00     0.034 A 
ATOM      7 Cl   UNL d   1       5.668   2.237   3.776  0.00  0.00    -0.070 Cl
ATOM      8 Cl1  UNL d   1       3.314   2.262   1.528  0.00  0.00    -0.070 Cl
ENDROOT
TORSDOF 0
ENDMDL
