MODEL 1
REMARK minimizedAffinity 17.923418
REMARK minimizedRMSD -1
REMARK  0 active torsions:
REMARK  status: ('A' for Active; 'I' for Inactive)
ROOT
ATOM      1  C   UNL d   1       1.047  -1.496   4.411  0.00  0.00     0.020 A 
ATOM      2  C1  UNL d   1       2.102  -0.945   3.686  0.00  0.00     0.020 A 
ATOM      3  C2  UNL d   1       1.843  -0.181   2.546  0.00  0.00     0.034 A 
ATOM      4  C3  UNL d   1       0.525   0.034   2.127  0.00  0.00     0.017 A 
ATOM      5  C4  UNL d   1      -0.534  -0.521   2.856  0.00  0.00     0.017 A 
ATOM      6  C5  UNL d   1      -0.269  -1.284   3.996  0.00  0.00     0.034 A 
ATOM      7 Cl   UNL d   1      -2.187  -0.300   2.401  0.00  0.00    -0.070 Cl
ATOM      8 Cl1  UNL d   1       0.277   0.989   0.709  0.00  0.00    -0.070 Cl
ENDROOT
TORSDOF 0
ENDMDL
