MODEL 1
REMARK minimizedAffinity 17.9242802
REMARK minimizedRMSD -1
REMARK  0 active torsions:
REMARK  status: ('A' for Active; 'I' for Inactive)
ROOT
ATOM      1  C   UNL d   1       5.617   6.000   2.288  0.00  0.00     0.020 A 
ATOM      2  C1  UNL d   1       4.826   5.907   3.433  0.00  0.00     0.020 A 
ATOM      3  C2  UNL d   1       4.385   4.659   3.878  0.00  0.00     0.034 A 
ATOM      4  C3  UNL d   1       4.735   3.498   3.177  0.00  0.00     0.017 A 
ATOM      5  C4  UNL d   1       5.528   3.593   2.028  0.00  0.00     0.017 A 
ATOM      6  C5  UNL d   1       5.967   4.845   1.588  0.00  0.00     0.034 A 
ATOM      7 Cl   UNL d   1       6.000   2.206   1.111  0.00  0.00    -0.070 Cl
ATOM      8 Cl1  UNL d   1       4.154   1.988   3.784  0.00  0.00    -0.070 Cl
ENDROOT
TORSDOF 0
ENDMDL
