MODEL 1
REMARK minimizedAffinity 4.88087368
REMARK minimizedRMSD -1
REMARK  0 active torsions:
REMARK  status: ('A' for Active; 'I' for Inactive)
ROOT
ATOM      1  C   UNL d   1      -0.150  -5.279  -6.000  0.00  0.00     0.020 A 
ATOM      2  C1  UNL d   1      -1.205  -4.368  -5.976  0.00  0.00     0.020 A 
ATOM      3  C2  UNL d   1      -0.948  -3.006  -5.807  0.00  0.00     0.034 A 
ATOM      4  C3  UNL d   1       0.368  -2.551  -5.662  0.00  0.00     0.017 A 
ATOM      5  C4  UNL d   1       1.426  -3.466  -5.686  0.00  0.00     0.017 A 
ATOM      6  C5  UNL d   1       1.163  -4.829  -5.855  0.00  0.00     0.034 A 
ATOM      7 Cl   UNL d   1       3.076  -2.981  -5.512  0.00  0.00    -0.070 Cl
ATOM      8 Cl1  UNL d   1       0.613  -0.853  -5.457  0.00  0.00    -0.070 Cl
ENDROOT
TORSDOF 0
ENDMDL
