MODEL 1
REMARK minimizedAffinity 10.4406223
REMARK minimizedRMSD -1
REMARK  0 active torsions:
REMARK  status: ('A' for Active; 'I' for Inactive)
ROOT
ATOM      1  C   UNL d   1       2.099  -0.289   3.678  0.00  0.00     0.020 A 
ATOM      2  C1  UNL d   1       1.550  -1.513   3.298  0.00  0.00     0.020 A 
ATOM      3  C2  UNL d   1       0.251  -1.567   2.788  0.00  0.00     0.034 A 
ATOM      4  C3  UNL d   1      -0.502  -0.395   2.655  0.00  0.00     0.017 A 
ATOM      5  C4  UNL d   1       0.050   0.833   3.037  0.00  0.00     0.017 A 
ATOM      6  C5  UNL d   1       1.351   0.881   3.547  0.00  0.00     0.034 A 
ATOM      7 Cl   UNL d   1      -0.819   2.321   2.903  0.00  0.00    -0.070 Cl
ATOM      8 Cl1  UNL d   1      -2.101  -0.536   2.016  0.00  0.00    -0.070 Cl
ENDROOT
TORSDOF 0
ENDMDL
