MODEL 1
REMARK minimizedAffinity 6.6879096
REMARK minimizedRMSD -1
REMARK  0 active torsions:
REMARK  status: ('A' for Active; 'I' for Inactive)
ROOT
ATOM      1  C   UNL d   1       2.242  -0.572   4.042  0.00  0.00     0.020 A 
ATOM      2  C1  UNL d   1       1.660  -1.826   3.862  0.00  0.00     0.020 A 
ATOM      3  C2  UNL d   1       0.390  -1.931   3.291  0.00  0.00     0.034 A 
ATOM      4  C3  UNL d   1      -0.302  -0.779   2.898  0.00  0.00     0.017 A 
ATOM      5  C4  UNL d   1       0.283   0.479   3.080  0.00  0.00     0.017 A 
ATOM      6  C5  UNL d   1       1.555   0.578   3.652  0.00  0.00     0.034 A 
ATOM      7 Cl   UNL d   1      -0.509   1.945   2.620  0.00  0.00    -0.070 Cl
ATOM      8 Cl1  UNL d   1      -1.869  -0.983   2.199  0.00  0.00    -0.070 Cl
ENDROOT
TORSDOF 0
ENDMDL
