MODEL 1
REMARK minimizedAffinity 14.8635139
REMARK minimizedRMSD -1
REMARK  0 active torsions:
REMARK  status: ('A' for Active; 'I' for Inactive)
ROOT
ATOM      1  C   UNL d   1       0.752  -0.305  -4.246  0.00  0.00     0.020 A 
ATOM      2  C1  UNL d   1      -0.288  -0.890  -4.968  0.00  0.00     0.020 A 
ATOM      3  C2  UNL d   1      -0.135  -2.171  -5.501  0.00  0.00     0.034 A 
ATOM      4  C3  UNL d   1       1.062  -2.873  -5.313  0.00  0.00     0.017 A 
ATOM      5  C4  UNL d   1       2.106  -2.285  -4.589  0.00  0.00     0.017 A 
ATOM      6  C5  UNL d   1       1.946  -1.002  -4.057  0.00  0.00     0.034 A 
ATOM      7 Cl   UNL d   1       3.611  -3.089  -4.316  0.00  0.00    -0.070 Cl
ATOM      8 Cl1  UNL d   1       1.182  -4.454  -6.000  0.00  0.00    -0.070 Cl
ENDROOT
TORSDOF 0
ENDMDL
