MODEL 1
REMARK minimizedAffinity 4.09373283
REMARK minimizedRMSD -1
REMARK  0 active torsions:
REMARK  status: ('A' for Active; 'I' for Inactive)
ROOT
ATOM      1  C   UNL d   1       0.832   0.410   3.092  0.00  0.00     0.020 A 
ATOM      2  C1  UNL d   1       1.684  -0.410   3.830  0.00  0.00     0.020 A 
ATOM      3  C2  UNL d   1       1.318  -1.729   4.106  0.00  0.00     0.034 A 
ATOM      4  C3  UNL d   1       0.096  -2.232   3.643  0.00  0.00     0.017 A 
ATOM      5  C4  UNL d   1      -0.759  -1.408   2.902  0.00  0.00     0.017 A 
ATOM      6  C5  UNL d   1      -0.387  -0.088   2.629  0.00  0.00     0.034 A 
ATOM      7 Cl   UNL d   1      -2.282  -1.958   2.298  0.00  0.00    -0.070 Cl
ATOM      8 Cl1  UNL d   1      -0.292  -3.873   4.021  0.00  0.00    -0.070 Cl
ENDROOT
TORSDOF 0
ENDMDL
