MODEL 1
REMARK minimizedAffinity -2.97244668
REMARK minimizedRMSD -1
REMARK  0 active torsions:
REMARK  status: ('A' for Active; 'I' for Inactive)
ROOT
ATOM      1  C   UNL d   1       3.052   2.548  -2.758  0.00  0.00     0.124 A 
ATOM      2  C1  UNL d   1       1.758   2.575  -3.260  0.00  0.00     0.062 A 
ATOM      3  C2  UNL d   1       0.681   2.263  -2.436  0.00  0.00     0.162 A 
ATOM      4  C3  UNL d   1       0.892   1.923  -1.100  0.00  0.00    -0.034 A 
ATOM      5  C4  UNL d   1       2.196   1.898  -0.602  0.00  0.00     0.162 A 
ATOM      6  C5  UNL d   1       3.270   2.210  -1.430  0.00  0.00     0.062 A 
ATOM      7  F   UNL d   1       4.519   2.184  -0.943  0.00  0.00    -0.097 F 
ATOM      8  F1  UNL d   1       2.436   1.575   0.677  0.00  0.00    -0.096 F 
ATOM      9  I   UNL d   1      -0.716   1.456   0.136  0.00  0.00    -0.060 I 
ATOM     10  F2  UNL d   1      -0.558   2.297  -2.948  0.00  0.00    -0.096 F 
ATOM     11  F3  UNL d   1       1.545   2.901  -4.543  0.00  0.00    -0.097 F 
ATOM     12  F4  UNL d   1       4.087   2.848  -3.554  0.00  0.00    -0.092 F 
ENDROOT
TORSDOF 0
ENDMDL
