MODEL 1
REMARK minimizedAffinity 1.67898631
REMARK minimizedRMSD -1
REMARK  0 active torsions:
REMARK  status: ('A' for Active; 'I' for Inactive)
ROOT
ATOM      1  C   UNL d   1      -1.555  -1.352   0.644  0.00  0.00     0.124 A 
ATOM      2  C1  UNL d   1      -0.254  -1.829   0.561  0.00  0.00     0.062 A 
ATOM      3  C2  UNL d   1       0.796  -0.956   0.295  0.00  0.00     0.162 A 
ATOM      4  C3  UNL d   1       0.550   0.405   0.111  0.00  0.00    -0.034 A 
ATOM      5  C4  UNL d   1      -0.761   0.877   0.196  0.00  0.00     0.162 A 
ATOM      6  C5  UNL d   1      -1.807   0.000   0.462  0.00  0.00     0.062 A 
ATOM      7  F   UNL d   1      -3.063   0.463   0.542  0.00  0.00    -0.097 F 
ATOM      8  F1  UNL d   1      -1.033   2.180   0.025  0.00  0.00    -0.096 F 
ATOM      9  I   UNL d   1       2.118   1.715  -0.287  0.00  0.00    -0.060 I 
ATOM     10  F2  UNL d   1       2.043  -1.444   0.219  0.00  0.00    -0.096 F 
ATOM     11  F3  UNL d   1      -0.008  -3.136   0.736  0.00  0.00    -0.097 F 
ATOM     12  F4  UNL d   1      -2.564  -2.195   0.899  0.00  0.00    -0.092 F 
ENDROOT
TORSDOF 0
ENDMDL
