MODEL 1
REMARK minimizedAffinity -0.304305047
REMARK minimizedRMSD -1
REMARK  0 active torsions:
REMARK  status: ('A' for Active; 'I' for Inactive)
ROOT
ATOM      1  C   UNL d   1       1.308   2.530  -3.929  0.00  0.00     0.124 A 
ATOM      2  C1  UNL d   1       0.409   2.525  -2.871  0.00  0.00     0.062 A 
ATOM      3  C2  UNL d   1       0.868   2.394  -1.563  0.00  0.00     0.162 A 
ATOM      4  C3  UNL d   1       2.233   2.266  -1.306  0.00  0.00    -0.034 A 
ATOM      5  C4  UNL d   1       3.130   2.271  -2.375  0.00  0.00     0.162 A 
ATOM      6  C5  UNL d   1       2.667   2.403  -3.680  0.00  0.00     0.062 A 
ATOM      7  F   UNL d   1       3.537   2.407  -4.701  0.00  0.00    -0.097 F 
ATOM      8  F1  UNL d   1       4.449   2.150  -2.163  0.00  0.00    -0.096 F 
ATOM      9  I   UNL d   1       2.922   2.069   0.648  0.00  0.00    -0.060 I 
ATOM     10  F2  UNL d   1      -0.023   2.393  -0.561  0.00  0.00    -0.096 F 
ATOM     11  F3  UNL d   1      -0.905   2.647  -3.109  0.00  0.00    -0.097 F 
ATOM     12  F4  UNL d   1       0.864   2.656  -5.186  0.00  0.00    -0.092 F 
ENDROOT
TORSDOF 0
ENDMDL
