MODEL 1
REMARK minimizedAffinity -1.27784085
REMARK minimizedRMSD -1
REMARK  0 active torsions:
REMARK  status: ('A' for Active; 'I' for Inactive)
ROOT
ATOM      1  C   UNL d   1       1.641   2.208  -3.682  0.00  0.00     0.124 A 
ATOM      2  C1  UNL d   1       0.703   1.972  -2.686  0.00  0.00     0.062 A 
ATOM      3  C2  UNL d   1       1.113   1.774  -1.371  0.00  0.00     0.162 A 
ATOM      4  C3  UNL d   1       2.469   1.811  -1.043  0.00  0.00    -0.034 A 
ATOM      5  C4  UNL d   1       3.406   2.047  -2.050  0.00  0.00     0.162 A 
ATOM      6  C5  UNL d   1       2.991   2.245  -3.363  0.00  0.00     0.062 A 
ATOM      7  F   UNL d   1       3.899   2.473  -4.324  0.00  0.00    -0.097 F 
ATOM      8  F1  UNL d   1       4.717   2.090  -1.770  0.00  0.00    -0.096 F 
ATOM      9  I   UNL d   1       3.086   1.515   0.922  0.00  0.00    -0.060 I 
ATOM     10  F2  UNL d   1       0.185   1.548  -0.429  0.00  0.00    -0.096 F 
ATOM     11  F3  UNL d   1      -0.602   1.935  -2.992  0.00  0.00    -0.097 F 
ATOM     12  F4  UNL d   1       1.244   2.397  -4.947  0.00  0.00    -0.092 F 
ENDROOT
TORSDOF 0
ENDMDL
