MODEL 1
REMARK minimizedAffinity 1.17413163
REMARK minimizedRMSD -1
REMARK  0 active torsions:
REMARK  status: ('A' for Active; 'I' for Inactive)
ROOT
ATOM      1  C   UNL d   1      -1.945   0.105   0.454  0.00  0.00     0.124 A 
ATOM      2  C1  UNL d   1      -0.991  -0.797   0.003  0.00  0.00     0.062 A 
ATOM      3  C2  UNL d   1       0.362  -0.478   0.071  0.00  0.00     0.162 A 
ATOM      4  C3  UNL d   1       0.770   0.750   0.594  0.00  0.00    -0.034 A 
ATOM      5  C4  UNL d   1      -0.195   1.652   1.045  0.00  0.00     0.162 A 
ATOM      6  C5  UNL d   1      -1.546   1.328   0.974  0.00  0.00     0.062 A 
ATOM      7  F   UNL d   1      -2.466   2.201   1.411  0.00  0.00    -0.097 F 
ATOM      8  F1  UNL d   1       0.162   2.841   1.553  0.00  0.00    -0.096 F 
ATOM      9  I   UNL d   1       2.792   1.231   0.697  0.00  0.00    -0.060 I 
ATOM     10  F2  UNL d   1       1.261  -1.368  -0.372  0.00  0.00    -0.096 F 
ATOM     11  F3  UNL d   1      -1.374  -1.979  -0.501  0.00  0.00    -0.097 F 
ATOM     12  F4  UNL d   1      -3.246  -0.205   0.387  0.00  0.00    -0.092 F 
ENDROOT
TORSDOF 0
ENDMDL
