MODEL 1
REMARK minimizedAffinity 10.405879
REMARK minimizedRMSD -1
REMARK  0 active torsions:
REMARK  status: ('A' for Active; 'I' for Inactive)
ROOT
ATOM      1  C   UNL d   1       4.444   0.736   2.773  0.00  0.00     0.124 A 
ATOM      2  C1  UNL d   1       3.576   0.949   1.711  0.00  0.00     0.062 A 
ATOM      3  C2  UNL d   1       3.359   2.237   1.231  0.00  0.00     0.162 A 
ATOM      4  C3  UNL d   1       4.013   3.324   1.813  0.00  0.00    -0.034 A 
ATOM      5  C4  UNL d   1       4.884   3.102   2.881  0.00  0.00     0.162 A 
ATOM      6  C5  UNL d   1       5.096   1.812   3.357  0.00  0.00     0.062 A 
ATOM      7  F   UNL d   1       5.935   1.608   4.383  0.00  0.00    -0.097 F 
ATOM      8  F1  UNL d   1       5.528   4.124   3.463  0.00  0.00    -0.096 F 
ATOM      9  I   UNL d   1       3.692   5.252   1.098  0.00  0.00    -0.060 I 
ATOM     10  F2  UNL d   1       2.515   2.414   0.203  0.00  0.00    -0.096 F 
ATOM     11  F3  UNL d   1       2.943  -0.089   1.145  0.00  0.00    -0.097 F 
ATOM     12  F4  UNL d   1       4.649  -0.505   3.233  0.00  0.00    -0.092 F 
ENDROOT
TORSDOF 0
ENDMDL
