MODEL 1
REMARK minimizedAffinity 2.19183898
REMARK minimizedRMSD -1
REMARK  0 active torsions:
REMARK  status: ('A' for Active; 'I' for Inactive)
ROOT
ATOM      1  C   UNL d   1       4.607   0.853   2.591  0.00  0.00     0.124 A 
ATOM      2  C1  UNL d   1       4.131   2.038   2.048  0.00  0.00     0.062 A 
ATOM      3  C2  UNL d   1       2.960   2.043   1.296  0.00  0.00     0.162 A 
ATOM      4  C3  UNL d   1       2.256   0.857   1.082  0.00  0.00    -0.034 A 
ATOM      5  C4  UNL d   1       2.742  -0.331   1.631  0.00  0.00     0.162 A 
ATOM      6  C5  UNL d   1       3.912  -0.330   2.382  0.00  0.00     0.062 A 
ATOM      7  F   UNL d   1       4.371  -1.476   2.906  0.00  0.00    -0.097 F 
ATOM      8  F1  UNL d   1       2.090  -1.488   1.445  0.00  0.00    -0.096 F 
ATOM      9  I   UNL d   1       0.504   0.860  -0.042  0.00  0.00    -0.060 I 
ATOM     10  F2  UNL d   1       2.523   3.203   0.783  0.00  0.00    -0.096 F 
ATOM     11  F3  UNL d   1       4.801   3.182   2.248  0.00  0.00    -0.097 F 
ATOM     12  F4  UNL d   1       5.734   0.851   3.314  0.00  0.00    -0.092 F 
ENDROOT
TORSDOF 0
ENDMDL
