MODEL 1
REMARK minimizedAffinity 5.12205458
REMARK minimizedRMSD -1
REMARK  0 active torsions:
REMARK  status: ('A' for Active; 'I' for Inactive)
ROOT
ATOM      1  C   UNL d   1       1.115   1.406   0.686  0.00  0.00     0.124 A 
ATOM      2  C1  UNL d   1       1.377   0.143   0.173  0.00  0.00     0.062 A 
ATOM      3  C2  UNL d   1       2.574  -0.500   0.475  0.00  0.00     0.162 A 
ATOM      4  C3  UNL d   1       3.518   0.118   1.296  0.00  0.00    -0.034 A 
ATOM      5  C4  UNL d   1       3.247   1.388   1.807  0.00  0.00     0.162 A 
ATOM      6  C5  UNL d   1       2.049   2.027   1.503  0.00  0.00     0.062 A 
ATOM      7  F   UNL d   1       1.798   3.247   2.000  0.00  0.00    -0.097 F 
ATOM      8  F1  UNL d   1       4.132   2.011   2.600  0.00  0.00    -0.096 F 
ATOM      9  I   UNL d   1       5.308  -0.841   1.749  0.00  0.00    -0.060 I 
ATOM     10  F2  UNL d   1       2.801  -1.720  -0.035  0.00  0.00    -0.096 F 
ATOM     11  F3  UNL d   1       0.476  -0.459  -0.617  0.00  0.00    -0.097 F 
ATOM     12  F4  UNL d   1      -0.037   2.023   0.394  0.00  0.00    -0.092 F 
ENDROOT
TORSDOF 0
ENDMDL
