MODEL 1
REMARK minimizedAffinity -0.1543414
REMARK minimizedRMSD -1
REMARK  0 active torsions:
REMARK  status: ('A' for Active; 'I' for Inactive)
ROOT
ATOM      1  C   UNL d   1       1.491   0.931   0.050  0.00  0.00     0.124 A 
ATOM      2  C1  UNL d   1       1.850  -0.217   0.743  0.00  0.00     0.062 A 
ATOM      3  C2  UNL d   1       0.890  -1.175   1.054  0.00  0.00     0.162 A 
ATOM      4  C3  UNL d   1      -0.439  -0.990   0.671  0.00  0.00    -0.034 A 
ATOM      5  C4  UNL d   1      -0.792   0.167  -0.024  0.00  0.00     0.162 A 
ATOM      6  C5  UNL d   1       0.171   1.122  -0.333  0.00  0.00     0.062 A 
ATOM      7  F   UNL d   1      -0.177   2.231  -1.002  0.00  0.00    -0.097 F 
ATOM      8  F1  UNL d   1      -2.060   0.377  -0.407  0.00  0.00    -0.096 F 
ATOM      9  I   UNL d   1      -1.878  -2.421   1.134  0.00  0.00    -0.060 I 
ATOM     10  F2  UNL d   1       1.264  -2.275   1.724  0.00  0.00    -0.096 F 
ATOM     11  F3  UNL d   1       3.124  -0.403   1.115  0.00  0.00    -0.097 F 
ATOM     12  F4  UNL d   1       2.417   1.852  -0.246  0.00  0.00    -0.092 F 
ENDROOT
TORSDOF 0
ENDMDL
