MODEL 1
REMARK minimizedAffinity -3.57273531
REMARK minimizedRMSD -1
REMARK  0 active torsions:
REMARK  status: ('A' for Active; 'I' for Inactive)
ROOT
ATOM      1  C   UNL d   1      -0.531  -1.979   0.706  0.00  0.00     0.124 A 
ATOM      2  C1  UNL d   1      -0.866  -0.632   0.713  0.00  0.00     0.062 A 
ATOM      3  C2  UNL d   1       0.117   0.333   0.914  0.00  0.00     0.162 A 
ATOM      4  C3  UNL d   1       1.446  -0.046   1.108  0.00  0.00    -0.034 A 
ATOM      5  C4  UNL d   1       1.775  -1.402   1.100  0.00  0.00     0.162 A 
ATOM      6  C5  UNL d   1       0.789  -2.363   0.899  0.00  0.00     0.062 A 
ATOM      7  F   UNL d   1       1.114  -3.663   0.892  0.00  0.00    -0.097 F 
ATOM      8  F1  UNL d   1       3.042  -1.801   1.284  0.00  0.00    -0.096 F 
ATOM      9  I   UNL d   1       2.918   1.394   1.409  0.00  0.00    -0.060 I 
ATOM     10  F2  UNL d   1      -0.235   1.627   0.916  0.00  0.00    -0.096 F 
ATOM     11  F3  UNL d   1      -2.140  -0.258   0.527  0.00  0.00    -0.097 F 
ATOM     12  F4  UNL d   1      -1.479  -2.905   0.513  0.00  0.00    -0.092 F 
ENDROOT
TORSDOF 0
ENDMDL
