MODEL 1
REMARK minimizedAffinity 0.354149491
REMARK minimizedRMSD -1
REMARK  0 active torsions:
REMARK  status: ('A' for Active; 'I' for Inactive)
ROOT
ATOM      1  C   UNL d   1       2.389   1.737  -0.729  0.00  0.00     0.124 A 
ATOM      2  C1  UNL d   1       1.131   1.518  -1.274  0.00  0.00     0.062 A 
ATOM      3  C2  UNL d   1       0.311   0.517  -0.762  0.00  0.00     0.162 A 
ATOM      4  C3  UNL d   1       0.744  -0.273   0.303  0.00  0.00    -0.034 A 
ATOM      5  C4  UNL d   1       2.011  -0.048   0.845  0.00  0.00     0.162 A 
ATOM      6  C5  UNL d   1       2.827   0.954   0.330  0.00  0.00     0.062 A 
ATOM      7  F   UNL d   1       4.042   1.164   0.858  0.00  0.00    -0.097 F 
ATOM      8  F1  UNL d   1       2.459  -0.789   1.870  0.00  0.00    -0.096 F 
ATOM      9  I   UNL d   1      -0.480  -1.770   1.071  0.00  0.00    -0.060 I 
ATOM     10  F2  UNL d   1      -0.900   0.328  -1.308  0.00  0.00    -0.096 F 
ATOM     11  F3  UNL d   1       0.706   2.272  -2.297  0.00  0.00    -0.097 F 
ATOM     12  F4  UNL d   1       3.177   2.699  -1.224  0.00  0.00    -0.092 F 
ENDROOT
TORSDOF 0
ENDMDL
