MODEL 1
REMARK minimizedAffinity -2.7727747
REMARK minimizedRMSD -1
REMARK  0 active torsions:
REMARK  status: ('A' for Active; 'I' for Inactive)
ROOT
ATOM      1  C   UNL d   1      -1.123  -1.541   0.509  0.00  0.00     0.124 A 
ATOM      2  C1  UNL d   1      -1.260  -0.160   0.519  0.00  0.00     0.062 A 
ATOM      3  C2  UNL d   1      -0.138   0.654   0.632  0.00  0.00     0.162 A 
ATOM      4  C3  UNL d   1       1.134   0.090   0.736  0.00  0.00    -0.034 A 
ATOM      5  C4  UNL d   1       1.264  -1.300   0.727  0.00  0.00     0.162 A 
ATOM      6  C5  UNL d   1       0.139  -2.110   0.613  0.00  0.00     0.062 A 
ATOM      7  F   UNL d   1       0.274  -3.444   0.604  0.00  0.00    -0.097 F 
ATOM      8  F1  UNL d   1       2.472  -1.876   0.825  0.00  0.00    -0.096 F 
ATOM      9  I   UNL d   1       2.815   1.305   0.906  0.00  0.00    -0.060 I 
ATOM     10  F2  UNL d   1      -0.300   1.986   0.639  0.00  0.00    -0.096 F 
ATOM     11  F3  UNL d   1      -2.478   0.391   0.419  0.00  0.00    -0.097 F 
ATOM     12  F4  UNL d   1      -2.205  -2.323   0.401  0.00  0.00    -0.092 F 
ENDROOT
TORSDOF 0
ENDMDL
