MODEL 1
REMARK minimizedAffinity -2.10115647
REMARK minimizedRMSD -1
REMARK  0 active torsions:
REMARK  status: ('A' for Active; 'I' for Inactive)
ROOT
ATOM      1  C   UNL d   1      -1.281  -2.317   1.420  0.00  0.00     0.124 A 
ATOM      2  C1  UNL d   1       0.056  -1.972   1.562  0.00  0.00     0.062 A 
ATOM      3  C2  UNL d   1       0.611  -0.977   0.762  0.00  0.00     0.162 A 
ATOM      4  C3  UNL d   1      -0.171  -0.318  -0.186  0.00  0.00    -0.034 A 
ATOM      5  C4  UNL d   1      -1.515  -0.671  -0.324  0.00  0.00     0.162 A 
ATOM      6  C5  UNL d   1      -2.065  -1.666   0.477  0.00  0.00     0.062 A 
ATOM      7  F   UNL d   1      -3.357  -1.998   0.339  0.00  0.00    -0.097 F 
ATOM      8  F1  UNL d   1      -2.296  -0.058  -1.226  0.00  0.00    -0.096 F 
ATOM      9  I   UNL d   1       0.655   1.171  -1.383  0.00  0.00    -0.060 I 
ATOM     10  F2  UNL d   1       1.906  -0.664   0.921  0.00  0.00    -0.096 F 
ATOM     11  F3  UNL d   1       0.816  -2.600   2.471  0.00  0.00    -0.097 F 
ATOM     12  F4  UNL d   1      -1.812  -3.276   2.189  0.00  0.00    -0.092 F 
ENDROOT
TORSDOF 0
ENDMDL
