MODEL 1
REMARK minimizedAffinity -1.58865821
REMARK minimizedRMSD -1
REMARK  0 active torsions:
REMARK  status: ('A' for Active; 'I' for Inactive)
ROOT
ATOM      1  C   UNL d   1      -1.304  -1.750   0.911  0.00  0.00     0.124 A 
ATOM      2  C1  UNL d   1      -1.530  -0.443   0.503  0.00  0.00     0.062 A 
ATOM      3  C2  UNL d   1      -0.475   0.462   0.433  0.00  0.00     0.162 A 
ATOM      4  C3  UNL d   1       0.818   0.062   0.772  0.00  0.00    -0.034 A 
ATOM      5  C4  UNL d   1       1.037  -1.254   1.183  0.00  0.00     0.162 A 
ATOM      6  C5  UNL d   1      -0.021  -2.154   1.251  0.00  0.00     0.062 A 
ATOM      7  F   UNL d   1       0.199  -3.417   1.646  0.00  0.00    -0.097 F 
ATOM      8  F1  UNL d   1       2.268  -1.672   1.516  0.00  0.00    -0.096 F 
ATOM      9  I   UNL d   1       2.399   1.411   0.670  0.00  0.00    -0.060 I 
ATOM     10  F2  UNL d   1      -0.722   1.718   0.035  0.00  0.00    -0.096 F 
ATOM     11  F3  UNL d   1      -2.770  -0.049   0.175  0.00  0.00    -0.097 F 
ATOM     12  F4  UNL d   1      -2.322  -2.618   0.978  0.00  0.00    -0.092 F 
ENDROOT
TORSDOF 0
ENDMDL
