MODEL 1
REMARK minimizedAffinity -4.22413778
REMARK minimizedRMSD -1
REMARK  0 active torsions:
REMARK  status: ('A' for Active; 'I' for Inactive)
ROOT
ATOM      1  C   UNL d   1      -0.135  -0.152   0.494  0.00  0.00     0.172 C 
ATOM      2  N   UNL d   1       0.653  -0.528  -0.656  0.00  0.00    -0.070 N 
ATOM      3  C1  UNL d   1       1.086  -1.794  -0.948  0.00  0.00    -0.004 A 
ATOM      4  C2  UNL d   1       1.803  -1.734  -2.124  0.00  0.00    -0.047 A 
ATOM      5  C3  UNL d   1       1.801  -0.386  -2.553  0.00  0.00    -0.047 A 
ATOM      6  C4  UNL d   1       1.082   0.339  -1.626  0.00  0.00    -0.004 A 
ENDROOT
TORSDOF 0
ENDMDL
