MODEL 1
REMARK minimizedAffinity -1.39196563
REMARK minimizedRMSD -1
REMARK  0 active torsions:
REMARK  status: ('A' for Active; 'I' for Inactive)
ROOT
ATOM      1  C   UNL d   1      -0.227  -0.038   0.483  0.00  0.00     0.172 C 
ATOM      2  N   UNL d   1      -1.565   0.027   1.023  0.00  0.00    -0.070 N 
ATOM      3  C1  UNL d   1      -1.905  -0.161   2.336  0.00  0.00    -0.004 A 
ATOM      4  C2  UNL d   1      -3.272  -0.017   2.443  0.00  0.00    -0.047 A 
ATOM      5  C3  UNL d   1      -3.770   0.265   1.149  0.00  0.00    -0.047 A 
ATOM      6  C4  UNL d   1      -2.692   0.287   0.289  0.00  0.00    -0.004 A 
ENDROOT
TORSDOF 0
ENDMDL
