MODEL 1
REMARK minimizedAffinity -2.04015112
REMARK minimizedRMSD -1
REMARK  0 active torsions:
REMARK  status: ('A' for Active; 'I' for Inactive)
ROOT
ATOM      1  C   UNL d   1      -0.429  -0.709  -0.321  0.00  0.00     0.172 C 
ATOM      2  N   UNL d   1      -1.464  -0.286   0.592  0.00  0.00    -0.070 N 
ATOM      3  C1  UNL d   1      -2.812  -0.367   0.364  0.00  0.00    -0.004 A 
ATOM      4  C2  UNL d   1      -3.458   0.137   1.472  0.00  0.00    -0.047 A 
ATOM      5  C3  UNL d   1      -2.465   0.534   2.398  0.00  0.00    -0.047 A 
ATOM      6  C4  UNL d   1      -1.239   0.261   1.828  0.00  0.00    -0.004 A 
ENDROOT
TORSDOF 0
ENDMDL
