MODEL 1
REMARK minimizedAffinity -2.31477141
REMARK minimizedRMSD -1
REMARK  0 active torsions:
REMARK  status: ('A' for Active; 'I' for Inactive)
ROOT
ATOM      1  C   UNL d   1      -0.429   0.304   0.952  0.00  0.00     0.172 C 
ATOM      2  N   UNL d   1       0.429   0.130  -0.196  0.00  0.00    -0.070 N 
ATOM      3  C1  UNL d   1       0.311  -0.857  -1.138  0.00  0.00    -0.004 A 
ATOM      4  C2  UNL d   1       1.315  -0.678  -2.064  0.00  0.00    -0.047 A 
ATOM      5  C3  UNL d   1       2.063   0.455  -1.665  0.00  0.00    -0.047 A 
ATOM      6  C4  UNL d   1       1.493   0.935  -0.505  0.00  0.00    -0.004 A 
ENDROOT
TORSDOF 0
ENDMDL
