MODEL 1
REMARK minimizedAffinity -3.92382812
REMARK minimizedRMSD -1
REMARK  0 active torsions:
REMARK  status: ('A' for Active; 'I' for Inactive)
ROOT
ATOM      1  C   UNL d   1       0.663   0.803  -0.325  0.00  0.00     0.172 C 
ATOM      2  N   UNL d   1       1.233  -0.099  -1.298  0.00  0.00    -0.070 N 
ATOM      3  C1  UNL d   1       0.982  -1.443  -1.383  0.00  0.00    -0.004 A 
ATOM      4  C2  UNL d   1       1.714  -1.942  -2.439  0.00  0.00    -0.047 A 
ATOM      5  C3  UNL d   1       2.430  -0.862  -3.006  0.00  0.00    -0.047 A 
ATOM      6  C4  UNL d   1       2.114   0.267  -2.281  0.00  0.00    -0.004 A 
ENDROOT
TORSDOF 0
ENDMDL
