MODEL 1
REMARK minimizedAffinity -3.10107589
REMARK minimizedRMSD -1
REMARK  0 active torsions:
REMARK  status: ('A' for Active; 'I' for Inactive)
ROOT
ATOM      1  C   UNL d   1       1.172   0.010  -2.717  0.00  0.00     0.172 C 
ATOM      2  N   UNL d   1       0.908  -0.229  -1.317  0.00  0.00    -0.070 N 
ATOM      3  C1  UNL d   1       1.046   0.690  -0.311  0.00  0.00    -0.004 A 
ATOM      4  C2  UNL d   1       0.698   0.074   0.872  0.00  0.00    -0.047 A 
ATOM      5  C3  UNL d   1       0.340  -1.260   0.567  0.00  0.00    -0.047 A 
ATOM      6  C4  UNL d   1       0.479  -1.421  -0.796  0.00  0.00    -0.004 A 
ENDROOT
TORSDOF 0
ENDMDL
