MODEL 1
REMARK minimizedAffinity -2.22277617
REMARK minimizedRMSD -1
REMARK  0 active torsions:
REMARK  status: ('A' for Active; 'I' for Inactive)
ROOT
ATOM      1  C   UNL d   1      -0.431  -1.148   0.324  0.00  0.00     0.172 C 
ATOM      2  N   UNL d   1       0.207  -0.792  -0.921  0.00  0.00    -0.070 N 
ATOM      3  C1  UNL d   1       0.995   0.309  -1.129  0.00  0.00    -0.004 A 
ATOM      4  C2  UNL d   1       1.410   0.289  -2.443  0.00  0.00    -0.047 A 
ATOM      5  C3  UNL d   1       0.851  -0.862  -3.046  0.00  0.00    -0.047 A 
ATOM      6  C4  UNL d   1       0.111  -1.513  -2.082  0.00  0.00    -0.004 A 
ENDROOT
TORSDOF 0
ENDMDL
