MODEL 1
REMARK minimizedAffinity -3.5189147
REMARK minimizedRMSD -1
REMARK  0 active torsions:
REMARK  status: ('A' for Active; 'I' for Inactive)
ROOT
ATOM      1  C   UNL d   1      -0.799   0.360   0.191  0.00  0.00     0.172 C 
ATOM      2  N   UNL d   1       0.314   0.309  -0.728  0.00  0.00    -0.070 N 
ATOM      3  C1  UNL d   1       0.562  -0.694  -1.627  0.00  0.00    -0.004 A 
ATOM      4  C2  UNL d   1       1.712  -0.371  -2.314  0.00  0.00    -0.047 A 
ATOM      5  C3  UNL d   1       2.173   0.868  -1.809  0.00  0.00    -0.047 A 
ATOM      6  C4  UNL d   1       1.289   1.266  -0.829  0.00  0.00    -0.004 A 
ENDROOT
TORSDOF 0
ENDMDL
