MODEL 1
REMARK minimizedAffinity -4.01308632
REMARK minimizedRMSD -1
REMARK  0 active torsions:
REMARK  status: ('A' for Active; 'I' for Inactive)
ROOT
ATOM      1  C   UNL d   1      -0.212  -0.498   0.813  0.00  0.00     0.172 C 
ATOM      2  N   UNL d   1       0.509  -0.604  -0.434  0.00  0.00    -0.070 N 
ATOM      3  C1  UNL d   1       0.771  -1.766  -1.109  0.00  0.00    -0.004 A 
ATOM      4  C2  UNL d   1       1.477  -1.443  -2.248  0.00  0.00    -0.047 A 
ATOM      5  C3  UNL d   1       1.645  -0.038  -2.258  0.00  0.00    -0.047 A 
ATOM      6  C4  UNL d   1       1.036   0.456  -1.124  0.00  0.00    -0.004 A 
ENDROOT
TORSDOF 0
ENDMDL
