MODEL 1
REMARK minimizedAffinity -2.03847861
REMARK minimizedRMSD -1
REMARK  0 active torsions:
REMARK  status: ('A' for Active; 'I' for Inactive)
ROOT
ATOM      1  C   UNL d   1      -1.162  -0.115   1.143  0.00  0.00     0.172 C 
ATOM      2  N   UNL d   1      -0.251  -0.027   0.026  0.00  0.00    -0.070 N 
ATOM      3  C1  UNL d   1       0.566   1.035  -0.256  0.00  0.00    -0.004 A 
ATOM      4  C2  UNL d   1       1.275   0.731  -1.398  0.00  0.00    -0.047 A 
ATOM      5  C3  UNL d   1       0.870  -0.558  -1.818  0.00  0.00    -0.047 A 
ATOM      6  C4  UNL d   1      -0.076  -1.004  -0.919  0.00  0.00    -0.004 A 
ENDROOT
TORSDOF 0
ENDMDL
