MODEL 1
REMARK minimizedAffinity -3.20720196
REMARK minimizedRMSD -1
REMARK  0 active torsions:
REMARK  status: ('A' for Active; 'I' for Inactive)
ROOT
ATOM      1  C   UNL d   1       0.331  -2.358  -1.049  0.00  0.00     0.172 C 
ATOM      2  N   UNL d   1       0.213  -1.132  -0.294  0.00  0.00    -0.070 N 
ATOM      3  C1  UNL d   1      -0.243  -1.028   0.993  0.00  0.00    -0.004 A 
ATOM      4  C2  UNL d   1      -0.201   0.302   1.349  0.00  0.00    -0.047 A 
ATOM      5  C3  UNL d   1       0.297   1.023   0.237  0.00  0.00    -0.047 A 
ATOM      6  C4  UNL d   1       0.545   0.110  -0.766  0.00  0.00    -0.004 A 
ENDROOT
TORSDOF 0
ENDMDL
