MODEL 1
REMARK minimizedAffinity -3.55451632
REMARK minimizedRMSD -1
REMARK  0 active torsions:
REMARK  status: ('A' for Active; 'I' for Inactive)
ROOT
ATOM      1  C   UNL d   1       1.515   0.155  -2.520  0.00  0.00     0.172 C 
ATOM      2  N   UNL d   1       0.890  -0.024  -1.231  0.00  0.00    -0.070 N 
ATOM      3  C1  UNL d   1       0.680   0.959  -0.302  0.00  0.00    -0.004 A 
ATOM      4  C2  UNL d   1       0.059   0.386   0.787  0.00  0.00    -0.047 A 
ATOM      5  C3  UNL d   1      -0.109  -0.990   0.503  0.00  0.00    -0.047 A 
ATOM      6  C4  UNL d   1       0.414  -1.217  -0.753  0.00  0.00    -0.004 A 
ENDROOT
TORSDOF 0
ENDMDL
