MODEL 1
REMARK minimizedAffinity -3.00159121
REMARK minimizedRMSD -1
REMARK  0 active torsions:
REMARK  status: ('A' for Active; 'I' for Inactive)
ROOT
ATOM      1  C   UNL d   1       1.476  -0.155  -2.604  0.00  0.00     0.172 C 
ATOM      2  N   UNL d   1       0.845  -0.112  -1.305  0.00  0.00    -0.070 N 
ATOM      3  C1  UNL d   1       0.063  -1.098  -0.765  0.00  0.00    -0.004 A 
ATOM      4  C2  UNL d   1      -0.345  -0.676   0.482  0.00  0.00    -0.047 A 
ATOM      5  C3  UNL d   1       0.210   0.607   0.698  0.00  0.00    -0.047 A 
ATOM      6  C4  UNL d   1       0.942   0.932  -0.424  0.00  0.00    -0.004 A 
ENDROOT
TORSDOF 0
ENDMDL
