MODEL 1
REMARK minimizedAffinity -2.62195826
REMARK minimizedRMSD -1
REMARK  0 active torsions:
REMARK  status: ('A' for Active; 'I' for Inactive)
ROOT
ATOM      1  C   UNL d   1       1.509  -0.185  -2.686  0.00  0.00     0.172 C 
ATOM      2  N   UNL d   1       0.932  -0.516  -1.404  0.00  0.00    -0.070 N 
ATOM      3  C1  UNL d   1       0.801  -1.777  -0.889  0.00  0.00    -0.004 A 
ATOM      4  C2  UNL d   1       0.205  -1.668   0.349  0.00  0.00    -0.047 A 
ATOM      5  C3  UNL d   1      -0.031  -0.293   0.586  0.00  0.00    -0.047 A 
ATOM      6  C4  UNL d   1       0.428   0.398  -0.516  0.00  0.00    -0.004 A 
ENDROOT
TORSDOF 0
ENDMDL
