MODEL 1
REMARK minimizedAffinity -3.74423862
REMARK minimizedRMSD -1
REMARK  0 active torsions:
REMARK  status: ('A' for Active; 'I' for Inactive)
ROOT
ATOM      1  C   UNL d   1      -0.007  -0.745   1.127  0.00  0.00     0.172 C 
ATOM      2  N   UNL d   1       0.545  -0.029   0.001  0.00  0.00    -0.070 N 
ATOM      3  C1  UNL d   1       1.147   1.200   0.054  0.00  0.00    -0.004 A 
ATOM      4  C2  UNL d   1       1.537   1.534  -1.224  0.00  0.00    -0.047 A 
ATOM      5  C3  UNL d   1       1.156   0.469  -2.075  0.00  0.00    -0.047 A 
ATOM      6  C4  UNL d   1       0.544  -0.485  -1.291  0.00  0.00    -0.004 A 
ENDROOT
TORSDOF 0
ENDMDL
