MODEL 1
REMARK minimizedAffinity -3.1101191
REMARK minimizedRMSD -1
REMARK  2 active torsions:
REMARK  status: ('A' for Active; 'I' for Inactive)
REMARK    1  A    between atoms: C1_2  and  C2_3 
REMARK    2  A    between atoms: C2_3  and  C3_4 
ROOT
ATOM      1  C3  UNL d   1      -0.150   0.060   0.020  0.00  0.00    -0.075 A 
ATOM      2  C4  UNL d   1      -0.663   0.017   1.325  0.00  0.00     0.002 A 
ATOM      3  C5  UNL d   1      -1.101  -1.188   1.875  0.00  0.00     0.002 A 
ATOM      4  C6  UNL d   1      -1.042  -2.361   1.126  0.00  0.00    -0.004 A 
ATOM      5  C7  UNL d   1      -0.549  -2.328  -0.177  0.00  0.00     0.002 A 
ATOM      6  C8  UNL d   1      -0.106  -1.124  -0.728  0.00  0.00     0.002 A 
ENDROOT
BRANCH   1   7
ATOM      7  C2  UNL d   1       0.352   1.355  -0.570  0.00  0.00     0.056 C 
BRANCH   7   8
ATOM      8  C1  UNL d   1       0.961   2.315   0.458  0.00  0.00     0.007 C 
ATOM      9  C   UNL d   1       2.339   2.826   0.060  0.00  0.00     0.009 C 
ENDBRANCH   7   8
ENDBRANCH   1   7
TORSDOF 2
ENDMDL
