MODEL 1
REMARK minimizedAffinity -5.73197556
REMARK minimizedRMSD -1
REMARK  2 active torsions:
REMARK  status: ('A' for Active; 'I' for Inactive)
REMARK    1  A    between atoms: C1_2  and  C2_3 
REMARK    2  A    between atoms: C2_3  and  C3_4 
ROOT
ATOM      1  C3  UNL d   1      -0.175  -0.077   0.240  0.00  0.00    -0.075 A 
ATOM      2  C4  UNL d   1      -0.903  -0.560   1.337  0.00  0.00     0.002 A 
ATOM      3  C5  UNL d   1      -0.950  -1.928   1.609  0.00  0.00     0.002 A 
ATOM      4  C6  UNL d   1      -0.279  -2.828   0.785  0.00  0.00    -0.004 A 
ATOM      5  C7  UNL d   1       0.434  -2.361  -0.317  0.00  0.00     0.002 A 
ATOM      6  C8  UNL d   1       0.486  -0.993  -0.589  0.00  0.00     0.002 A 
ENDROOT
BRANCH   1   7
ATOM      7  C2  UNL d   1      -0.096   1.404  -0.043  0.00  0.00     0.056 C 
BRANCH   7   8
ATOM      8  C1  UNL d   1       1.231   2.049   0.369  0.00  0.00     0.007 C 
ATOM      9  C   UNL d   1       1.081   3.493   0.828  0.00  0.00     0.009 C 
ENDBRANCH   7   8
ENDBRANCH   1   7
TORSDOF 2
ENDMDL
