MODEL 1
REMARK minimizedAffinity -1.51391113
REMARK minimizedRMSD -1
REMARK  2 active torsions:
REMARK  status: ('A' for Active; 'I' for Inactive)
REMARK    1  A    between atoms: C1_2  and  C2_3 
REMARK    2  A    between atoms: C2_3  and  C3_4 
ROOT
ATOM      1  C3  UNL d   1      -0.011  -1.429  -0.115  0.00  0.00    -0.075 A 
ATOM      2  C4  UNL d   1      -0.287  -2.394   0.864  0.00  0.00     0.002 A 
ATOM      3  C5  UNL d   1      -1.214  -2.133   1.874  0.00  0.00     0.002 A 
ATOM      4  C6  UNL d   1      -1.867  -0.903   1.924  0.00  0.00    -0.004 A 
ATOM      5  C7  UNL d   1      -1.588   0.069   0.965  0.00  0.00     0.002 A 
ATOM      6  C8  UNL d   1      -0.665  -0.191  -0.049  0.00  0.00     0.002 A 
ENDROOT
BRANCH   1   7
ATOM      7  C2  UNL d   1       0.969  -1.716  -1.228  0.00  0.00     0.056 C 
BRANCH   7   8
ATOM      8  C1  UNL d   1       0.395  -1.508  -2.633  0.00  0.00     0.007 C 
ATOM      9  C   UNL d   1       0.344  -0.044  -3.050  0.00  0.00     0.009 C 
ENDBRANCH   7   8
ENDBRANCH   1   7
TORSDOF 2
ENDMDL
