MODEL 1
REMARK minimizedAffinity -2.94344306
REMARK minimizedRMSD -1
REMARK  2 active torsions:
REMARK  status: ('A' for Active; 'I' for Inactive)
REMARK    1  A    between atoms: C1_2  and  C2_3 
REMARK    2  A    between atoms: C2_3  and  C3_4 
ROOT
ATOM      1  C3  UNL d   1       0.371  -1.486  -0.357  0.00  0.00    -0.075 A 
ATOM      2  C4  UNL d   1      -0.200  -1.410   0.922  0.00  0.00     0.002 A 
ATOM      3  C5  UNL d   1      -0.832  -0.241   1.347  0.00  0.00     0.002 A 
ATOM      4  C6  UNL d   1      -0.893   0.867   0.505  0.00  0.00    -0.004 A 
ATOM      5  C7  UNL d   1      -0.315   0.809  -0.761  0.00  0.00     0.002 A 
ATOM      6  C8  UNL d   1       0.315  -0.361  -1.191  0.00  0.00     0.002 A 
ENDROOT
BRANCH   1   7
ATOM      7  C2  UNL d   1       1.031  -2.757  -0.834  0.00  0.00     0.056 C 
BRANCH   7   8
ATOM      8  C1  UNL d   1       0.250  -4.031  -0.495  0.00  0.00     0.007 C 
ATOM      9  C   UNL d   1      -1.259  -3.828  -0.497  0.00  0.00     0.009 C 
ENDBRANCH   7   8
ENDBRANCH   1   7
TORSDOF 2
ENDMDL
