MODEL 1
REMARK minimizedAffinity -3.61921954
REMARK minimizedRMSD -1
REMARK  2 active torsions:
REMARK  status: ('A' for Active; 'I' for Inactive)
REMARK    1  A    between atoms: C1_2  and  C2_3 
REMARK    2  A    between atoms: C2_3  and  C3_4 
ROOT
ATOM      1  C3  UNL d   1      -0.337   0.840   0.639  0.00  0.00    -0.075 A 
ATOM      2  C4  UNL d   1      -1.028   0.519   1.817  0.00  0.00     0.002 A 
ATOM      3  C5  UNL d   1      -1.496  -0.778   2.033  0.00  0.00     0.002 A 
ATOM      4  C6  UNL d   1      -1.288  -1.765   1.072  0.00  0.00    -0.004 A 
ATOM      5  C7  UNL d   1      -0.617  -1.454  -0.108  0.00  0.00     0.002 A 
ATOM      6  C8  UNL d   1      -0.144  -0.158  -0.325  0.00  0.00     0.002 A 
ENDROOT
BRANCH   1   7
ATOM      7  C2  UNL d   1       0.197   2.234   0.413  0.00  0.00     0.056 C 
BRANCH   7   8
ATOM      8  C1  UNL d   1       1.706   2.289   0.154  0.00  0.00     0.007 C 
ATOM      9  C   UNL d   1       2.387   3.475   0.824  0.00  0.00     0.009 C 
ENDBRANCH   7   8
ENDBRANCH   1   7
TORSDOF 2
ENDMDL
