MODEL 1
REMARK minimizedAffinity -3.29977775
REMARK minimizedRMSD -1
REMARK  2 active torsions:
REMARK  status: ('A' for Active; 'I' for Inactive)
REMARK    1  A    between atoms: C1_2  and  C2_3 
REMARK    2  A    between atoms: C2_3  and  C3_4 
ROOT
ATOM      1  C3  UNL d   1       0.012   0.116   0.184  0.00  0.00    -0.075 A 
ATOM      2  C4  UNL d   1      -0.886  -0.440   1.107  0.00  0.00     0.002 A 
ATOM      3  C5  UNL d   1      -0.989  -1.824   1.250  0.00  0.00     0.002 A 
ATOM      4  C6  UNL d   1      -0.205  -2.668   0.466  0.00  0.00    -0.004 A 
ATOM      5  C7  UNL d   1       0.678  -2.127  -0.466  0.00  0.00     0.002 A 
ATOM      6  C8  UNL d   1       0.786  -0.743  -0.607  0.00  0.00     0.002 A 
ENDROOT
BRANCH   1   7
ATOM      7  C2  UNL d   1       0.149   1.613   0.046  0.00  0.00     0.056 C 
BRANCH   7   8
ATOM      8  C1  UNL d   1       1.563   2.138   0.322  0.00  0.00     0.007 C 
ATOM      9  C   UNL d   1       1.581   3.375   1.210  0.00  0.00     0.009 C 
ENDBRANCH   7   8
ENDBRANCH   1   7
TORSDOF 2
ENDMDL
