MODEL 1
REMARK minimizedAffinity -3.36972499
REMARK minimizedRMSD -1
REMARK  2 active torsions:
REMARK  status: ('A' for Active; 'I' for Inactive)
REMARK    1  A    between atoms: C1_2  and  C2_3 
REMARK    2  A    between atoms: C2_3  and  C3_4 
ROOT
ATOM      1  C3  UNL d   1       0.005  -0.115   0.031  0.00  0.00    -0.075 A 
ATOM      2  C4  UNL d   1      -0.652  -0.622   1.162  0.00  0.00     0.002 A 
ATOM      3  C5  UNL d   1      -0.644  -1.991   1.431  0.00  0.00     0.002 A 
ATOM      4  C6  UNL d   1       0.010  -2.870   0.570  0.00  0.00    -0.004 A 
ATOM      5  C7  UNL d   1       0.651  -2.379  -0.565  0.00  0.00     0.002 A 
ATOM      6  C8  UNL d   1       0.649  -1.009  -0.834  0.00  0.00     0.002 A 
ENDROOT
BRANCH   1   7
ATOM      7  C2  UNL d   1       0.025   1.368  -0.250  0.00  0.00     0.056 C 
BRANCH   7   8
ATOM      8  C1  UNL d   1       0.579   2.214   0.902  0.00  0.00     0.007 C 
ATOM      9  C   UNL d   1       2.055   2.553   0.741  0.00  0.00     0.009 C 
ENDBRANCH   7   8
ENDBRANCH   1   7
TORSDOF 2
ENDMDL
