MODEL 1
REMARK minimizedAffinity -4.18924475
REMARK minimizedRMSD -1
REMARK  2 active torsions:
REMARK  status: ('A' for Active; 'I' for Inactive)
REMARK    1  A    between atoms: C1_2  and  C2_3 
REMARK    2  A    between atoms: C2_3  and  C3_4 
ROOT
ATOM      1  C3  UNL d   1       0.363   1.119   0.537  0.00  0.00    -0.075 A 
ATOM      2  C4  UNL d   1      -0.309   2.273   0.109  0.00  0.00     0.002 A 
ATOM      3  C5  UNL d   1       0.346   3.505   0.083  0.00  0.00     0.002 A 
ATOM      4  C6  UNL d   1       1.673   3.601   0.494  0.00  0.00    -0.004 A 
ATOM      5  C7  UNL d   1       2.346   2.464   0.936  0.00  0.00     0.002 A 
ATOM      6  C8  UNL d   1       1.695   1.229   0.959  0.00  0.00     0.002 A 
ENDROOT
BRANCH   1   7
ATOM      7  C2  UNL d   1      -0.330  -0.222   0.540  0.00  0.00     0.056 C 
BRANCH   7   8
ATOM      8  C1  UNL d   1       0.624  -1.417   0.644  0.00  0.00     0.007 C 
ATOM      9  C   UNL d   1      -0.065  -2.756   0.420  0.00  0.00     0.009 C 
ENDBRANCH   7   8
ENDBRANCH   1   7
TORSDOF 2
ENDMDL
