MODEL 1
REMARK minimizedAffinity -3.86814594
REMARK minimizedRMSD -1
REMARK  2 active torsions:
REMARK  status: ('A' for Active; 'I' for Inactive)
REMARK    1  A    between atoms: C1_2  and  C2_3 
REMARK    2  A    between atoms: C2_3  and  C3_4 
ROOT
ATOM      1  C3  UNL d   1       0.051  -0.116  -0.188  0.00  0.00    -0.075 A 
ATOM      2  C4  UNL d   1       0.616  -1.196  -0.882  0.00  0.00     0.002 A 
ATOM      3  C5  UNL d   1       0.198  -2.502  -0.622  0.00  0.00     0.002 A 
ATOM      4  C6  UNL d   1      -0.780  -2.745   0.341  0.00  0.00    -0.004 A 
ATOM      5  C7  UNL d   1      -1.335  -1.681   1.048  0.00  0.00     0.002 A 
ATOM      6  C8  UNL d   1      -0.922  -0.373   0.787  0.00  0.00     0.002 A 
ENDROOT
BRANCH   1   7
ATOM      7  C2  UNL d   1       0.478   1.301  -0.485  0.00  0.00     0.056 C 
BRANCH   7   8
ATOM      8  C1  UNL d   1       0.272   2.273   0.682  0.00  0.00     0.007 C 
ATOM      9  C   UNL d   1       1.438   3.233   0.876  0.00  0.00     0.009 C 
ENDBRANCH   7   8
ENDBRANCH   1   7
TORSDOF 2
ENDMDL
