MODEL 1
REMARK minimizedAffinity -4.65236568
REMARK minimizedRMSD -1
REMARK  2 active torsions:
REMARK  status: ('A' for Active; 'I' for Inactive)
REMARK    1  A    between atoms: C1_2  and  C2_3 
REMARK    2  A    between atoms: C2_3  and  C3_4 
ROOT
ATOM      1  C3  UNL d   1       0.081  -0.187   0.183  0.00  0.00    -0.075 A 
ATOM      2  C4  UNL d   1      -0.976  -0.777   0.892  0.00  0.00     0.002 A 
ATOM      3  C5  UNL d   1      -1.038  -2.162   1.048  0.00  0.00     0.002 A 
ATOM      4  C6  UNL d   1      -0.052  -2.973   0.490  0.00  0.00    -0.004 A 
ATOM      5  C7  UNL d   1       0.993  -2.399  -0.230  0.00  0.00     0.002 A 
ATOM      6  C8  UNL d   1       1.060  -1.014  -0.384  0.00  0.00     0.002 A 
ENDROOT
BRANCH   1   7
ATOM      7  C2  UNL d   1       0.170   1.314   0.036  0.00  0.00     0.056 C 
BRANCH   7   8
ATOM      8  C1  UNL d   1       1.601   1.860   0.072  0.00  0.00     0.007 C 
ATOM      9  C   UNL d   1       1.828   2.875   1.185  0.00  0.00     0.009 C 
ENDBRANCH   7   8
ENDBRANCH   1   7
TORSDOF 2
ENDMDL
