MODEL 1
REMARK minimizedAffinity -3.81014276
REMARK minimizedRMSD -1
REMARK  2 active torsions:
REMARK  status: ('A' for Active; 'I' for Inactive)
REMARK    1  A    between atoms: C1_2  and  C2_3 
REMARK    2  A    between atoms: C2_3  and  C3_4 
ROOT
ATOM      1  C3  UNL d   1       0.362  -0.134   0.005  0.00  0.00    -0.075 A 
ATOM      2  C4  UNL d   1      -0.604  -0.676   0.865  0.00  0.00     0.002 A 
ATOM      3  C5  UNL d   1      -0.783  -2.058   0.949  0.00  0.00     0.002 A 
ATOM      4  C6  UNL d   1      -0.007  -2.912   0.168  0.00  0.00    -0.004 A 
ATOM      5  C7  UNL d   1       0.944  -2.384  -0.702  0.00  0.00     0.002 A 
ATOM      6  C8  UNL d   1       1.128  -1.002  -0.784  0.00  0.00     0.002 A 
ENDROOT
BRANCH   1   7
ATOM      7  C2  UNL d   1       0.581   1.358  -0.069  0.00  0.00     0.056 C 
BRANCH   7   8
ATOM      8  C1  UNL d   1       1.999   1.800   0.306  0.00  0.00     0.007 C 
ATOM      9  C   UNL d   1       2.046   3.172   0.965  0.00  0.00     0.009 C 
ENDBRANCH   7   8
ENDBRANCH   1   7
TORSDOF 2
ENDMDL
