MODEL 1
REMARK minimizedAffinity -4.79794645
REMARK minimizedRMSD -1
REMARK  2 active torsions:
REMARK  status: ('A' for Active; 'I' for Inactive)
REMARK    1  A    between atoms: C1_2  and  C2_3 
REMARK    2  A    between atoms: C2_3  and  C3_4 
ROOT
ATOM      1  C3  UNL d   1      -0.079   0.307   0.171  0.00  0.00    -0.075 A 
ATOM      2  C4  UNL d   1       0.512  -0.803  -0.450  0.00  0.00     0.002 A 
ATOM      3  C5  UNL d   1       0.256  -2.094   0.013  0.00  0.00     0.002 A 
ATOM      4  C6  UNL d   1      -0.584  -2.291   1.107  0.00  0.00    -0.004 A 
ATOM      5  C7  UNL d   1      -1.164  -1.195   1.742  0.00  0.00     0.002 A 
ATOM      6  C8  UNL d   1      -0.913   0.098   1.278  0.00  0.00     0.002 A 
ENDROOT
BRANCH   1   7
ATOM      7  C2  UNL d   1       0.171   1.704  -0.344  0.00  0.00     0.056 C 
BRANCH   7   8
ATOM      8  C1  UNL d   1       0.008   2.798   0.717  0.00  0.00     0.007 C 
ATOM      9  C   UNL d   1       1.314   3.159   1.413  0.00  0.00     0.009 C 
ENDBRANCH   7   8
ENDBRANCH   1   7
TORSDOF 2
ENDMDL
