MODEL 1
REMARK minimizedAffinity -5.47100067
REMARK minimizedRMSD -1
REMARK  2 active torsions:
REMARK  status: ('A' for Active; 'I' for Inactive)
REMARK    1  A    between atoms: C1_2  and  C2_3 
REMARK    2  A    between atoms: C2_3  and  C3_4 
ROOT
ATOM      1  C3  UNL d   1       0.186   0.403  -0.400  0.00  0.00    -0.075 A 
ATOM      2  C4  UNL d   1      -0.837   0.093   0.509  0.00  0.00     0.002 A 
ATOM      3  C5  UNL d   1      -1.040  -1.223   0.926  0.00  0.00     0.002 A 
ATOM      4  C6  UNL d   1      -0.233  -2.245   0.432  0.00  0.00    -0.004 A 
ATOM      5  C7  UNL d   1       0.774  -1.952  -0.485  0.00  0.00     0.002 A 
ATOM      6  C8  UNL d   1       0.983  -0.635  -0.899  0.00  0.00     0.002 A 
ENDROOT
BRANCH   1   7
ATOM      7  C2  UNL d   1       0.430   1.829  -0.831  0.00  0.00     0.056 C 
BRANCH   7   8
ATOM      8  C1  UNL d   1       0.799   2.774   0.317  0.00  0.00     0.007 C 
ATOM      9  C   UNL d   1       2.252   3.229   0.277  0.00  0.00     0.009 C 
ENDBRANCH   7   8
ENDBRANCH   1   7
TORSDOF 2
ENDMDL
