MODEL 1
REMARK minimizedAffinity -6.47512007
REMARK minimizedRMSD -1
REMARK  0 active torsions:
REMARK  status: ('A' for Active; 'I' for Inactive)
ROOT
ATOM      1  C1  DEN d   1      -0.864   0.418   0.099  0.00  0.00     0.130 A 
ATOM      2  C2  DEN d   1       0.215   0.805  -0.806  0.00  0.00    -0.031 A 
ATOM      3  C3  DEN d   1       1.347  -0.119  -0.590  0.00  0.00     0.027 A 
ATOM      4  C4  DEN d   1       1.529  -2.105   1.046  0.00  0.00     0.027 A 
ATOM      5  C5  DEN d   1       0.873  -2.816   2.026  0.00  0.00    -0.003 A 
ATOM      6  C6  DEN d   1      -0.384  -2.480   2.454  0.00  0.00     0.001 A 
ATOM      7  C7  DEN d   1      -1.043  -1.433   1.867  0.00  0.00     0.017 A 
ATOM      8  C8  DEN d   1      -0.386  -0.707   0.883  0.00  0.00    -0.094 A 
ATOM      9  C9  DEN d   1       0.881  -1.070   0.456  0.00  0.00    -0.072 A 
ENDROOT
TORSDOF 0
ENDMDL
