MODEL 1
REMARK minimizedAffinity -4.83290577
REMARK minimizedRMSD -1
REMARK  0 active torsions:
REMARK  status: ('A' for Active; 'I' for Inactive)
ROOT
ATOM      1  C1  DEN d   1      -0.751   1.128   0.667  0.00  0.00     0.130 A 
ATOM      2  C2  DEN d   1       0.126   0.033   1.075  0.00  0.00    -0.031 A 
ATOM      3  C3  DEN d   1       0.526  -0.707  -0.138  0.00  0.00     0.027 A 
ATOM      4  C4  DEN d   1      -0.118  -0.265  -2.596  0.00  0.00     0.027 A 
ATOM      5  C5  DEN d   1      -0.850   0.544  -3.437  0.00  0.00    -0.003 A 
ATOM      6  C6  DEN d   1      -1.621   1.576  -2.969  0.00  0.00     0.001 A 
ATOM      7  C7  DEN d   1      -1.642   1.853  -1.627  0.00  0.00     0.017 A 
ATOM      8  C8  DEN d   1      -0.912   1.037  -0.773  0.00  0.00    -0.094 A 
ATOM      9  C9  DEN d   1      -0.130   0.006  -1.267  0.00  0.00    -0.072 A 
ENDROOT
TORSDOF 0
ENDMDL
