MODEL 1
REMARK minimizedAffinity -5.53206873
REMARK minimizedRMSD -1
REMARK  0 active torsions:
REMARK  status: ('A' for Active; 'I' for Inactive)
ROOT
ATOM      1  C1  DEN d   1      -1.755   0.701  -3.167  0.00  0.00     0.130 A 
ATOM      2  C2  DEN d   1      -2.613   1.805  -2.745  0.00  0.00    -0.031 A 
ATOM      3  C3  DEN d   1      -2.284   2.128  -1.342  0.00  0.00     0.027 A 
ATOM      4  C4  DEN d   1      -0.535   1.036   0.207  0.00  0.00     0.027 A 
ATOM      5  C5  DEN d   1       0.426   0.053   0.299  0.00  0.00    -0.003 A 
ATOM      6  C6  DEN d   1       0.701  -0.798  -0.739  0.00  0.00     0.001 A 
ATOM      7  C7  DEN d   1       0.039  -0.653  -1.929  0.00  0.00     0.017 A 
ATOM      8  C8  DEN d   1      -0.936   0.331  -2.027  0.00  0.00    -0.094 A 
ATOM      9  C9  DEN d   1      -1.191   1.189  -0.970  0.00  0.00    -0.072 A 
ENDROOT
TORSDOF 0
ENDMDL
