MODEL 1
REMARK minimizedAffinity -6.70424557
REMARK minimizedRMSD -1
REMARK  0 active torsions:
REMARK  status: ('A' for Active; 'I' for Inactive)
ROOT
ATOM      1  C1  DEN d   1       0.691  -0.433  -0.597  0.00  0.00     0.130 A 
ATOM      2  C2  DEN d   1      -0.183   0.665  -0.192  0.00  0.00    -0.031 A 
ATOM      3  C3  DEN d   1      -0.818   0.295   1.089  0.00  0.00     0.027 A 
ATOM      4  C4  DEN d   1      -0.530  -1.858   2.480  0.00  0.00     0.027 A 
ATOM      5  C5  DEN d   1       0.098  -3.083   2.536  0.00  0.00    -0.003 A 
ATOM      6  C6  DEN d   1       0.935  -3.521   1.543  0.00  0.00     0.001 A 
ATOM      7  C7  DEN d   1       1.201  -2.709   0.473  0.00  0.00     0.017 A 
ATOM      8  C8  DEN d   1       0.566  -1.476   0.406  0.00  0.00    -0.094 A 
ATOM      9  C9  DEN d   1      -0.266  -1.046   1.425  0.00  0.00    -0.072 A 
ENDROOT
TORSDOF 0
ENDMDL
