MODEL 1
REMARK minimizedAffinity 0.588859141
REMARK minimizedRMSD -1
REMARK  0 active torsions:
REMARK  status: ('A' for Active; 'I' for Inactive)
ROOT
ATOM      1  C1  DEN d   1       0.278  -1.022  -1.308  0.00  0.00     0.130 A 
ATOM      2  C2  DEN d   1       1.042  -1.237  -0.082  0.00  0.00    -0.031 A 
ATOM      3  C3  DEN d   1       0.625  -0.218   0.902  0.00  0.00     0.027 A 
ATOM      4  C4  DEN d   1      -1.125   1.660   0.649  0.00  0.00     0.027 A 
ATOM      5  C5  DEN d   1      -2.024   2.248  -0.214  0.00  0.00    -0.003 A 
ATOM      6  C6  DEN d   1      -2.193   1.812  -1.501  0.00  0.00     0.001 A 
ATOM      7  C7  DEN d   1      -1.484   0.729  -1.950  0.00  0.00     0.017 A 
ATOM      8  C8  DEN d   1      -0.570   0.136  -1.089  0.00  0.00    -0.094 A 
ATOM      9  C9  DEN d   1      -0.423   0.583   0.213  0.00  0.00    -0.072 A 
ENDROOT
TORSDOF 0
ENDMDL
