MODEL 1
REMARK minimizedAffinity -1.74454796
REMARK minimizedRMSD -1
REMARK  0 active torsions:
REMARK  status: ('A' for Active; 'I' for Inactive)
ROOT
ATOM      1  C1  DEN d   1       1.901  -0.764  -0.094  0.00  0.00     0.130 A 
ATOM      2  C2  DEN d   1       0.848  -0.148  -0.897  0.00  0.00    -0.031 A 
ATOM      3  C3  DEN d   1      -0.362  -0.040  -0.057  0.00  0.00     0.027 A 
ATOM      4  C4  DEN d   1      -0.703  -0.759   2.396  0.00  0.00     0.027 A 
ATOM      5  C5  DEN d   1      -0.100  -1.340   3.490  0.00  0.00    -0.003 A 
ATOM      6  C6  DEN d   1       1.190  -1.797   3.456  0.00  0.00     0.001 A 
ATOM      7  C7  DEN d   1       1.936  -1.640   2.317  0.00  0.00     0.017 A 
ATOM      8  C8  DEN d   1       1.333  -1.062   1.208  0.00  0.00    -0.094 A 
ATOM      9  C9  DEN d   1       0.030  -0.595   1.267  0.00  0.00    -0.072 A 
ENDROOT
TORSDOF 0
ENDMDL
