MODEL 1
REMARK minimizedAffinity -4.48651028
REMARK minimizedRMSD -1
REMARK  0 active torsions:
REMARK  status: ('A' for Active; 'I' for Inactive)
ROOT
ATOM      1  C1  DEN d   1      -0.929   1.283   0.868  0.00  0.00     0.130 A 
ATOM      2  C2  DEN d   1      -1.750   0.639   1.889  0.00  0.00    -0.031 A 
ATOM      3  C3  DEN d   1      -1.168  -0.687   2.175  0.00  0.00     0.027 A 
ATOM      4  C4  DEN d   1       0.918  -1.799   1.143  0.00  0.00     0.027 A 
ATOM      5  C5  DEN d   1       1.936  -1.645   0.227  0.00  0.00    -0.003 A 
ATOM      6  C6  DEN d   1       2.049  -0.527  -0.557  0.00  0.00     0.001 A 
ATOM      7  C7  DEN d   1       1.155   0.500  -0.408  0.00  0.00     0.017 A 
ATOM      8  C8  DEN d   1       0.122   0.349   0.508  0.00  0.00    -0.094 A 
ATOM      9  C9  DEN d   1       0.032  -0.784   1.300  0.00  0.00    -0.072 A 
ENDROOT
TORSDOF 0
ENDMDL
