MODEL 1
REMARK minimizedAffinity -1.78628874
REMARK minimizedRMSD -1
REMARK  0 active torsions:
REMARK  status: ('A' for Active; 'I' for Inactive)
ROOT
ATOM      1  C1  DEN d   1      -1.012  -0.868  -0.475  0.00  0.00     0.130 A 
ATOM      2  C2  DEN d   1      -0.980   0.519  -0.930  0.00  0.00    -0.031 A 
ATOM      3  C3  DEN d   1       0.412   1.001  -0.825  0.00  0.00     0.027 A 
ATOM      4  C4  DEN d   1       2.510  -0.261  -0.013  0.00  0.00     0.027 A 
ATOM      5  C5  DEN d   1       2.978  -1.457   0.485  0.00  0.00    -0.003 A 
ATOM      6  C6  DEN d   1       2.150  -2.521   0.727  0.00  0.00     0.001 A 
ATOM      7  C7  DEN d   1       0.816  -2.424   0.430  0.00  0.00     0.017 A 
ATOM      8  C8  DEN d   1       0.336  -1.219  -0.065  0.00  0.00    -0.094 A 
ATOM      9  C9  DEN d   1       1.191  -0.159  -0.315  0.00  0.00    -0.072 A 
ENDROOT
TORSDOF 0
ENDMDL
