MODEL 1
REMARK minimizedAffinity -2.91364098
REMARK minimizedRMSD -1
REMARK  0 active torsions:
REMARK  status: ('A' for Active; 'I' for Inactive)
ROOT
ATOM      1  C1  DEN d   1       0.941  -0.426  -0.837  0.00  0.00     0.130 A 
ATOM      2  C2  DEN d   1       0.687   0.965  -1.200  0.00  0.00    -0.031 A 
ATOM      3  C3  DEN d   1      -0.434   1.455  -0.374  0.00  0.00     0.027 A 
ATOM      4  C4  DEN d   1      -1.792   0.204   1.426  0.00  0.00     0.027 A 
ATOM      5  C5  DEN d   1      -1.952  -1.000   2.077  0.00  0.00    -0.003 A 
ATOM      6  C6  DEN d   1      -1.189  -2.098   1.780  0.00  0.00     0.001 A 
ATOM      7  C7  DEN d   1      -0.198  -2.001   0.839  0.00  0.00     0.017 A 
ATOM      8  C8  DEN d   1      -0.035  -0.793   0.174  0.00  0.00    -0.094 A 
ATOM      9  C9  DEN d   1      -0.809   0.309   0.496  0.00  0.00    -0.072 A 
ENDROOT
TORSDOF 0
ENDMDL
