MODEL 1
REMARK minimizedAffinity -4.46265364
REMARK minimizedRMSD -1
REMARK  0 active torsions:
REMARK  status: ('A' for Active; 'I' for Inactive)
ROOT
ATOM      1  C1  DEN d   1      -1.671  -0.082  -0.249  0.00  0.00     0.130 A 
ATOM      2  C2  DEN d   1      -1.592   1.219  -0.907  0.00  0.00    -0.031 A 
ATOM      3  C3  DEN d   1      -0.169   1.511  -1.172  0.00  0.00     0.027 A 
ATOM      4  C4  DEN d   1       1.908   0.079  -0.635  0.00  0.00     0.027 A 
ATOM      5  C5  DEN d   1       2.344  -1.099  -0.069  0.00  0.00    -0.003 A 
ATOM      6  C6  DEN d   1       1.482  -1.998   0.501  0.00  0.00     0.001 A 
ATOM      7  C7  DEN d   1       0.134  -1.754   0.479  0.00  0.00     0.017 A 
ATOM      8  C8  DEN d   1      -0.312  -0.564  -0.082  0.00  0.00    -0.094 A 
ATOM      9  C9  DEN d   1       0.574   0.326  -0.665  0.00  0.00    -0.072 A 
ENDROOT
TORSDOF 0
ENDMDL
