MODEL 1
REMARK minimizedAffinity -1.5297786
REMARK minimizedRMSD -1
REMARK  0 active torsions:
REMARK  status: ('A' for Active; 'I' for Inactive)
ROOT
ATOM      1  C1  DEN d   1      -1.038   2.213  -2.212  0.00  0.00     0.130 A 
ATOM      2  C2  DEN d   1      -2.280   1.643  -2.727  0.00  0.00    -0.031 A 
ATOM      3  C3  DEN d   1      -2.446   0.301  -2.135  0.00  0.00     0.027 A 
ATOM      4  C4  DEN d   1      -0.912  -0.942  -0.476  0.00  0.00     0.027 A 
ATOM      5  C5  DEN d   1       0.263  -0.866   0.239  0.00  0.00    -0.003 A 
ATOM      6  C6  DEN d   1       1.096   0.218   0.162  0.00  0.00     0.001 A 
ATOM      7  C7  DEN d   1       0.744   1.290  -0.614  0.00  0.00     0.017 A 
ATOM      8  C8  DEN d   1      -0.435   1.218  -1.344  0.00  0.00    -0.094 A 
ATOM      9  C9  DEN d   1      -1.270   0.119  -1.242  0.00  0.00    -0.072 A 
ENDROOT
TORSDOF 0
ENDMDL
