MODEL 1
REMARK minimizedAffinity -2.5998354
REMARK minimizedRMSD -1
REMARK  0 active torsions:
REMARK  status: ('A' for Active; 'I' for Inactive)
ROOT
ATOM      1  C1  DEN d   1      -2.484   1.884  -1.590  0.00  0.00     0.130 A 
ATOM      2  C2  DEN d   1      -2.059   2.016  -2.981  0.00  0.00    -0.031 A 
ATOM      3  C3  DEN d   1      -0.794   1.270  -3.145  0.00  0.00     0.027 A 
ATOM      4  C4  DEN d   1       0.537  -0.072  -1.390  0.00  0.00     0.027 A 
ATOM      5  C5  DEN d   1       0.578  -0.462  -0.070  0.00  0.00    -0.003 A 
ATOM      6  C6  DEN d   1      -0.373  -0.073   0.837  0.00  0.00     0.001 A 
ATOM      7  C7  DEN d   1      -1.430   0.694   0.424  0.00  0.00     0.017 A 
ATOM      8  C8  DEN d   1      -1.474   1.098  -0.904  0.00  0.00    -0.094 A 
ATOM      9  C9  DEN d   1      -0.511   0.683  -1.807  0.00  0.00    -0.072 A 
ENDROOT
TORSDOF 0
ENDMDL
