MODEL 1
REMARK minimizedAffinity -3.11117291
REMARK minimizedRMSD -1
REMARK  0 active torsions:
REMARK  status: ('A' for Active; 'I' for Inactive)
ROOT
ATOM      1  C1  DEN d   1       1.478  -1.868   0.969  0.00  0.00     0.130 A 
ATOM      2  C2  DEN d   1       2.466  -1.517  -0.048  0.00  0.00    -0.031 A 
ATOM      3  C3  DEN d   1       2.035  -0.258  -0.687  0.00  0.00     0.027 A 
ATOM      4  C4  DEN d   1      -0.051   1.178  -0.200  0.00  0.00     0.027 A 
ATOM      5  C5  DEN d   1      -1.190   1.280   0.568  0.00  0.00    -0.003 A 
ATOM      6  C6  DEN d   1      -1.534   0.329   1.493  0.00  0.00     0.001 A 
ATOM      7  C7  DEN d   1      -0.707  -0.742   1.704  0.00  0.00     0.017 A 
ATOM      8  C8  DEN d   1       0.439  -0.855   0.928  0.00  0.00    -0.094 A 
ATOM      9  C9  DEN d   1       0.776   0.122   0.007  0.00  0.00    -0.072 A 
ENDROOT
TORSDOF 0
ENDMDL
