MODEL 1
REMARK minimizedAffinity -2.86954308
REMARK minimizedRMSD -1
REMARK  0 active torsions:
REMARK  status: ('A' for Active; 'I' for Inactive)
ROOT
ATOM      1  C1  DEN d   1      -1.963   0.726  -3.200  0.00  0.00     0.130 A 
ATOM      2  C2  DEN d   1      -2.417   2.111  -3.114  0.00  0.00    -0.031 A 
ATOM      3  C3  DEN d   1      -1.985   2.653  -1.810  0.00  0.00     0.027 A 
ATOM      4  C4  DEN d   1      -0.660   1.490   0.072  0.00  0.00     0.027 A 
ATOM      5  C5  DEN d   1      -0.063   0.311   0.462  0.00  0.00    -0.003 A 
ATOM      6  C6  DEN d   1      -0.088  -0.813  -0.320  0.00  0.00     0.001 A 
ATOM      7  C7  DEN d   1      -0.683  -0.769  -1.554  0.00  0.00     0.017 A 
ATOM      8  C8  DEN d   1      -1.292   0.414  -1.950  0.00  0.00    -0.094 A 
ATOM      9  C9  DEN d   1      -1.246   1.543  -1.151  0.00  0.00    -0.072 A 
ENDROOT
TORSDOF 0
ENDMDL
