MODEL 1
REMARK minimizedAffinity -3.5234766
REMARK minimizedRMSD -1
REMARK  0 active torsions:
REMARK  status: ('A' for Active; 'I' for Inactive)
ROOT
ATOM      1  C1  DEN d   1      -0.388  -0.919  -1.357  0.00  0.00     0.130 A 
ATOM      2  C2  DEN d   1      -1.600  -0.177  -1.020  0.00  0.00    -0.031 A 
ATOM      3  C3  DEN d   1      -1.263   0.792   0.042  0.00  0.00     0.027 A 
ATOM      4  C4  DEN d   1       1.007   1.217   1.189  0.00  0.00     0.027 A 
ATOM      5  C5  DEN d   1       2.327   0.825   1.247  0.00  0.00    -0.003 A 
ATOM      6  C6  DEN d   1       2.821  -0.190   0.472  0.00  0.00     0.001 A 
ATOM      7  C7  DEN d   1       2.002  -0.819  -0.428  0.00  0.00     0.017 A 
ATOM      8  C8  DEN d   1       0.669  -0.434  -0.487  0.00  0.00    -0.094 A 
ATOM      9  C9  DEN d   1       0.190   0.603   0.296  0.00  0.00    -0.072 A 
ENDROOT
TORSDOF 0
ENDMDL
