MODEL 1
REMARK minimizedAffinity -4.29755878
REMARK minimizedRMSD -1
REMARK  0 active torsions:
REMARK  status: ('A' for Active; 'I' for Inactive)
ROOT
ATOM      1  C1  DEN d   1       2.533  -1.182   0.638  0.00  0.00     0.130 A 
ATOM      2  C2  DEN d   1       3.320  -0.030   1.069  0.00  0.00    -0.031 A 
ATOM      3  C3  DEN d   1       2.434   1.152   1.076  0.00  0.00     0.027 A 
ATOM      4  C4  DEN d   1      -0.068   1.307   0.469  0.00  0.00     0.027 A 
ATOM      5  C5  DEN d   1      -1.164   0.596   0.034  0.00  0.00    -0.003 A 
ATOM      6  C6  DEN d   1      -1.097  -0.740  -0.260  0.00  0.00     0.001 A 
ATOM      7  C7  DEN d   1       0.081  -1.417  -0.080  0.00  0.00     0.017 A 
ATOM      8  C8  DEN d   1       1.192  -0.704   0.351  0.00  0.00    -0.094 A 
ATOM      9  C9  DEN d   1       1.101   0.643   0.655  0.00  0.00    -0.072 A 
ENDROOT
TORSDOF 0
ENDMDL
