MODEL 1
REMARK minimizedAffinity -6.79832268
REMARK minimizedRMSD -1
REMARK  0 active torsions:
REMARK  status: ('A' for Active; 'I' for Inactive)
ROOT
ATOM      1  C1  DEN d   1       0.325   0.817   0.031  0.00  0.00     0.130 A 
ATOM      2  C2  DEN d   1      -0.990   0.186  -0.039  0.00  0.00    -0.031 A 
ATOM      3  C3  DEN d   1      -0.910  -1.115   0.655  0.00  0.00     0.027 A 
ATOM      4  C4  DEN d   1       1.112  -2.206   1.829  0.00  0.00     0.027 A 
ATOM      5  C5  DEN d   1       2.445  -2.055   2.139  0.00  0.00    -0.003 A 
ATOM      6  C6  DEN d   1       3.168  -0.962   1.742  0.00  0.00     0.001 A 
ATOM      7  C7  DEN d   1       2.550   0.046   1.050  0.00  0.00     0.017 A 
ATOM      8  C8  DEN d   1       1.207  -0.102   0.728  0.00  0.00    -0.094 A 
ATOM      9  C9  DEN d   1       0.491  -1.209   1.148  0.00  0.00    -0.072 A 
ENDROOT
TORSDOF 0
ENDMDL
