MODEL 1
REMARK minimizedAffinity -4.79782152
REMARK minimizedRMSD -1
REMARK  0 active torsions:
REMARK  status: ('A' for Active; 'I' for Inactive)
ROOT
ATOM      1  C1  DEN d   1       1.184   1.640   0.161  0.00  0.00     0.130 A 
ATOM      2  C2  DEN d   1       2.541   1.356   0.620  0.00  0.00    -0.031 A 
ATOM      3  C3  DEN d   1       2.557  -0.010   1.180  0.00  0.00     0.027 A 
ATOM      4  C4  DEN d   1       0.624  -1.707   1.375  0.00  0.00     0.027 A 
ATOM      5  C5  DEN d   1      -0.716  -1.915   1.132  0.00  0.00    -0.003 A 
ATOM      6  C6  DEN d   1      -1.517  -0.948   0.584  0.00  0.00     0.001 A 
ATOM      7  C7  DEN d   1      -0.976   0.256   0.219  0.00  0.00     0.017 A 
ATOM      8  C8  DEN d   1       0.373   0.476   0.468  0.00  0.00    -0.094 A 
ATOM      9  C9  DEN d   1       1.169  -0.518   1.011  0.00  0.00    -0.072 A 
ENDROOT
TORSDOF 0
ENDMDL
