MODEL 1
REMARK minimizedAffinity -1.26403594
REMARK minimizedRMSD -1
REMARK  2 active torsions:
REMARK  status: ('A' for Active; 'I' for Inactive)
REMARK    1  A    between atoms: C2'_3  and  C1'_4 
REMARK    2  A    between atoms: C1'_4  and  C1_5 
ROOT
ATOM      1  C1  I4B d   1       0.487  -1.634   1.936  0.00  0.00    -0.075 A 
ATOM      2  C2  I4B d   1       0.653  -0.971   0.746  0.00  0.00     0.003 A 
ATOM      3  C3  I4B d   1      -0.297  -0.009   0.327  0.00  0.00     0.002 A 
ATOM      4  C4  I4B d   1      -1.417   0.222   1.099  0.00  0.00    -0.004 A 
ATOM      5  C5  I4B d   1      -1.572  -0.434   2.317  0.00  0.00     0.002 A 
ATOM      6  C6  I4B d   1      -0.608  -1.359   2.745  0.00  0.00     0.003 A 
ENDROOT
BRANCH   1   7
ATOM      7  C1' I4B d   1       1.493  -2.668   2.333  0.00  0.00     0.060 C 
BRANCH   7   8
ATOM      8  C2' I4B d   1       1.588  -3.681   1.210  0.00  0.00    -0.013 C 
ATOM      9  C4' I4B d   1       3.020  -4.055   0.934  0.00  0.00     0.013 C 
ATOM     10  C3' I4B d   1       0.780  -4.882   1.600  0.00  0.00     0.013 C 
ENDBRANCH   7   8
ENDBRANCH   1   7
TORSDOF 2
ENDMDL
