MODEL 1
REMARK minimizedAffinity -3.40831614
REMARK minimizedRMSD -1
REMARK  2 active torsions:
REMARK  status: ('A' for Active; 'I' for Inactive)
REMARK    1  A    between atoms: C2'_3  and  C1'_4 
REMARK    2  A    between atoms: C1'_4  and  C1_5 
ROOT
ATOM      1  C1  I4B d   1       0.079  -1.265   1.315  0.00  0.00    -0.075 A 
ATOM      2  C2  I4B d   1       0.832  -1.291   0.168  0.00  0.00     0.003 A 
ATOM      3  C3  I4B d   1       0.337  -0.707  -1.024  0.00  0.00     0.002 A 
ATOM      4  C4  I4B d   1      -0.928  -0.157  -1.036  0.00  0.00    -0.004 A 
ATOM      5  C5  I4B d   1      -1.681  -0.112   0.134  0.00  0.00     0.002 A 
ATOM      6  C6  I4B d   1      -1.170  -0.658   1.320  0.00  0.00     0.003 A 
ENDROOT
BRANCH   1   7
ATOM      7  C1' I4B d   1       0.619  -1.921   2.546  0.00  0.00     0.060 C 
BRANCH   7   8
ATOM      8  C2' I4B d   1       0.653  -3.416   2.303  0.00  0.00    -0.013 C 
ATOM      9  C4' I4B d   1       1.991  -3.998   2.674  0.00  0.00     0.013 C 
ATOM     10  C3' I4B d   1      -0.451  -4.041   3.103  0.00  0.00     0.013 C 
ENDBRANCH   7   8
ENDBRANCH   1   7
TORSDOF 2
ENDMDL
