MODEL 1
REMARK minimizedAffinity 2.737818
REMARK minimizedRMSD -1
REMARK  2 active torsions:
REMARK  status: ('A' for Active; 'I' for Inactive)
REMARK    1  A    between atoms: C2'_3  and  C1'_4 
REMARK    2  A    between atoms: C1'_4  and  C1_5 
ROOT
ATOM      1  C1  I4B d   1      -1.684  -0.191   1.490  0.00  0.00    -0.075 A 
ATOM      2  C2  I4B d   1      -0.546  -0.172   2.256  0.00  0.00     0.003 A 
ATOM      3  C3  I4B d   1      -0.139  -1.332   2.958  0.00  0.00     0.002 A 
ATOM      4  C4  I4B d   1      -0.923  -2.467   2.907  0.00  0.00    -0.004 A 
ATOM      5  C5  I4B d   1      -2.065  -2.492   2.111  0.00  0.00     0.002 A 
ATOM      6  C6  I4B d   1      -2.442  -1.351   1.388  0.00  0.00     0.003 A 
ENDROOT
BRANCH   1   7
ATOM      7  C1' I4B d   1      -2.102   1.062   0.788  0.00  0.00     0.060 C 
BRANCH   7   8
ATOM      8  C2' I4B d   1      -1.410   1.095  -0.560  0.00  0.00    -0.013 C 
ATOM      9  C4' I4B d   1      -1.538  -0.226  -1.270  0.00  0.00     0.013 C 
ATOM     10  C3' I4B d   1      -2.019   2.204  -1.365  0.00  0.00     0.013 C 
ENDBRANCH   7   8
ENDBRANCH   1   7
TORSDOF 2
ENDMDL
