MODEL 1
REMARK minimizedAffinity 4.85877466
REMARK minimizedRMSD -1
REMARK  2 active torsions:
REMARK  status: ('A' for Active; 'I' for Inactive)
REMARK    1  A    between atoms: C2'_3  and  C1'_4 
REMARK    2  A    between atoms: C1'_4  and  C1_5 
ROOT
ATOM      1  C1  I4B d   1       0.841  -1.548   0.792  0.00  0.00    -0.075 A 
ATOM      2  C2  I4B d   1      -0.071  -0.678   0.249  0.00  0.00     0.003 A 
ATOM      3  C3  I4B d   1      -1.080  -0.105   1.059  0.00  0.00     0.002 A 
ATOM      4  C4  I4B d   1      -1.171  -0.465   2.388  0.00  0.00    -0.004 A 
ATOM      5  C5  I4B d   1      -0.232  -1.330   2.943  0.00  0.00     0.002 A 
ATOM      6  C6  I4B d   1       0.788  -1.866   2.143  0.00  0.00     0.003 A 
ENDROOT
BRANCH   1   7
ATOM      7  C1' I4B d   1       1.873  -2.161  -0.100  0.00  0.00     0.060 C 
BRANCH   7   8
ATOM      8  C2' I4B d   1       2.625  -3.203   0.703  0.00  0.00    -0.013 C 
ATOM      9  C4' I4B d   1       1.950  -4.547   0.620  0.00  0.00     0.013 C 
ATOM     10  C3' I4B d   1       4.028  -3.268   0.178  0.00  0.00     0.013 C 
ENDBRANCH   7   8
ENDBRANCH   1   7
TORSDOF 2
ENDMDL
