MODEL 1
REMARK minimizedAffinity 2.97318316
REMARK minimizedRMSD -1
REMARK  2 active torsions:
REMARK  status: ('A' for Active; 'I' for Inactive)
REMARK    1  A    between atoms: C2'_3  and  C1'_4 
REMARK    2  A    between atoms: C1'_4  and  C1_5 
ROOT
ATOM      1  C1  I4B d   1       1.572  -4.139   2.381  0.00  0.00    -0.075 A 
ATOM      2  C2  I4B d   1       0.661  -5.100   2.742  0.00  0.00     0.003 A 
ATOM      3  C3  I4B d   1      -0.613  -4.726   3.234  0.00  0.00     0.002 A 
ATOM      4  C4  I4B d   1      -0.913  -3.388   3.395  0.00  0.00    -0.004 A 
ATOM      5  C5  I4B d   1       0.004  -2.415   3.007  0.00  0.00     0.002 A 
ATOM      6  C6  I4B d   1       1.249  -2.792   2.485  0.00  0.00     0.003 A 
ENDROOT
BRANCH   1   7
ATOM      7  C1' I4B d   1       2.920  -4.569   1.896  0.00  0.00     0.060 C 
BRANCH   7   8
ATOM      8  C2' I4B d   1       3.569  -5.391   2.991  0.00  0.00    -0.013 C 
ATOM      9  C4' I4B d   1       4.865  -5.999   2.521  0.00  0.00     0.013 C 
ATOM     10  C3' I4B d   1       3.788  -4.497   4.174  0.00  0.00     0.013 C 
ENDBRANCH   7   8
ENDBRANCH   1   7
TORSDOF 2
ENDMDL
