MODEL 1
REMARK minimizedAffinity 5.45088339
REMARK minimizedRMSD -1
REMARK  2 active torsions:
REMARK  status: ('A' for Active; 'I' for Inactive)
REMARK    1  A    between atoms: C2'_3  and  C1'_4 
REMARK    2  A    between atoms: C1'_4  and  C1_5 
ROOT
ATOM      1  C1  I4B d   1       1.394  -0.113  -0.053  0.00  0.00    -0.075 A 
ATOM      2  C2  I4B d   1       2.463   0.746  -0.104  0.00  0.00     0.003 A 
ATOM      3  C3  I4B d   1       3.764   0.252  -0.360  0.00  0.00     0.002 A 
ATOM      4  C4  I4B d   1       3.958  -1.107  -0.509  0.00  0.00    -0.004 A 
ATOM      5  C5  I4B d   1       2.870  -1.974  -0.481  0.00  0.00     0.002 A 
ATOM      6  C6  I4B d   1       1.578  -1.474  -0.264  0.00  0.00     0.003 A 
ENDROOT
BRANCH   1   7
ATOM      7  C1' I4B d   1       0.038   0.439   0.252  0.00  0.00     0.060 C 
BRANCH   7   8
ATOM      8  C2' I4B d   1      -0.778  -0.659   0.904  0.00  0.00    -0.013 C 
ATOM      9  C4' I4B d   1      -0.977  -0.392   2.373  0.00  0.00     0.013 C 
ATOM     10  C3' I4B d   1      -2.091  -0.748   0.186  0.00  0.00     0.013 C 
ENDBRANCH   7   8
ENDBRANCH   1   7
TORSDOF 2
ENDMDL
