MODEL 1
REMARK minimizedAffinity 0.775009692
REMARK minimizedRMSD -1
REMARK  2 active torsions:
REMARK  status: ('A' for Active; 'I' for Inactive)
REMARK    1  A    between atoms: C2'_3  and  C1'_4 
REMARK    2  A    between atoms: C1'_4  and  C1_5 
ROOT
ATOM      1  C1  I4B d   1       0.373  -1.189   0.558  0.00  0.00    -0.075 A 
ATOM      2  C2  I4B d   1       0.733  -2.162   1.457  0.00  0.00     0.003 A 
ATOM      3  C3  I4B d   1      -0.047  -2.384   2.618  0.00  0.00     0.002 A 
ATOM      4  C4  I4B d   1      -1.143  -1.583   2.864  0.00  0.00    -0.004 A 
ATOM      5  C5  I4B d   1      -1.520  -0.612   1.940  0.00  0.00     0.002 A 
ATOM      6  C6  I4B d   1      -0.765  -0.422   0.774  0.00  0.00     0.003 A 
ENDROOT
BRANCH   1   7
ATOM      7  C1' I4B d   1       1.238  -0.959  -0.640  0.00  0.00     0.060 C 
BRANCH   7   8
ATOM      8  C2' I4B d   1       1.763   0.461  -0.571  0.00  0.00    -0.013 C 
ATOM      9  C4' I4B d   1       3.269   0.485  -0.554  0.00  0.00     0.013 C 
ATOM     10  C3' I4B d   1       1.223   1.212  -1.752  0.00  0.00     0.013 C 
ENDBRANCH   7   8
ENDBRANCH   1   7
TORSDOF 2
ENDMDL
