MODEL 1
REMARK minimizedAffinity -3.42999482
REMARK minimizedRMSD -1
REMARK  1 active torsions:
REMARK  status: ('A' for Active; 'I' for Inactive)
REMARK    1  A    between atoms: N_2  and  C1_3 
ROOT
ATOM      1  C1  UNL d   1      -0.106  -2.451   0.492  0.00  0.00     0.143 A 
ATOM      2  C2  UNL d   1      -0.477  -1.649   1.577  0.00  0.00    -0.057 A 
ATOM      3  C3  UNL d   1      -0.461  -0.252   1.486  0.00  0.00     0.033 A 
ATOM      4  C4  UNL d   1      -0.044   0.370   0.313  0.00  0.00    -0.042 A 
ATOM      5  C5  UNL d   1       0.353  -0.407  -0.769  0.00  0.00     0.033 A 
ATOM      6  C6  UNL d   1       0.329  -1.802  -0.674  0.00  0.00    -0.057 A 
ENDROOT
BRANCH   1   7
ATOM      7  N   UNL d   1      -0.006  -3.843   0.552  0.00  0.00    -0.732 N 
ATOM      8  C   UNL d   1       0.049  -4.631  -0.661  0.00  0.00     0.284 C 
ATOM      9  H3  UNL d   1       0.631  -4.156   1.281  0.00  0.00     0.395 HD
ENDBRANCH   1   7
TORSDOF 1
ENDMDL
