MODEL 1
REMARK minimizedAffinity -3.9753933
REMARK minimizedRMSD -1
REMARK  1 active torsions:
REMARK  status: ('A' for Active; 'I' for Inactive)
REMARK    1  A    between atoms: N_2  and  C1_3 
ROOT
ATOM      1  C1  UNL d   1       0.074   0.552  -0.142  0.00  0.00     0.143 A 
ATOM      2  C2  UNL d   1       0.924  -0.319  -0.832  0.00  0.00    -0.057 A 
ATOM      3  C3  UNL d   1       0.912  -1.696  -0.581  0.00  0.00     0.033 A 
ATOM      4  C4  UNL d   1       0.066  -2.225   0.389  0.00  0.00    -0.042 A 
ATOM      5  C5  UNL d   1      -0.770  -1.375   1.104  0.00  0.00     0.033 A 
ATOM      6  C6  UNL d   1      -0.757  -0.001   0.844  0.00  0.00    -0.057 A 
ENDROOT
BRANCH   1   7
ATOM      7  N   UNL d   1       0.109   1.942  -0.277  0.00  0.00    -0.732 N 
ATOM      8  C   UNL d   1       1.162   2.717   0.344  0.00  0.00     0.284 C 
ATOM      9  H3  UNL d   1      -0.133   2.248  -1.216  0.00  0.00     0.395 HD
ENDBRANCH   1   7
TORSDOF 1
ENDMDL
