MODEL 1
REMARK minimizedAffinity -4.31265163
REMARK minimizedRMSD -1
REMARK  1 active torsions:
REMARK  status: ('A' for Active; 'I' for Inactive)
REMARK    1  A    between atoms: N_2  and  C1_3 
ROOT
ATOM      1  C1  UNL d   1      -0.078  -0.022   0.158  0.00  0.00     0.143 A 
ATOM      2  C2  UNL d   1       0.637  -0.972  -0.580  0.00  0.00    -0.057 A 
ATOM      3  C3  UNL d   1       0.575  -2.335  -0.263  0.00  0.00     0.033 A 
ATOM      4  C4  UNL d   1      -0.183  -2.769   0.820  0.00  0.00    -0.042 A 
ATOM      5  C5  UNL d   1      -0.882  -1.840   1.582  0.00  0.00     0.033 A 
ATOM      6  C6  UNL d   1      -0.821  -0.482   1.256  0.00  0.00    -0.057 A 
ENDROOT
BRANCH   1   7
ATOM      7  N   UNL d   1       0.021   1.356  -0.047  0.00  0.00    -0.732 N 
ATOM      8  C   UNL d   1       1.257   2.056   0.228  0.00  0.00     0.284 C 
ATOM      9  H3  UNL d   1      -0.446   1.657  -0.899  0.00  0.00     0.395 HD
ENDBRANCH   1   7
TORSDOF 1
ENDMDL
