MODEL 1
REMARK minimizedAffinity -2.45998645
REMARK minimizedRMSD -1
REMARK  1 active torsions:
REMARK  status: ('A' for Active; 'I' for Inactive)
REMARK    1  A    between atoms: N_2  and  C1_3 
ROOT
ATOM      1  C1  UNL d   1       0.258  -0.401  -0.086  0.00  0.00     0.143 A 
ATOM      2  C2  UNL d   1       1.217  -1.314  -0.538  0.00  0.00    -0.057 A 
ATOM      3  C3  UNL d   1       1.068  -2.689  -0.323  0.00  0.00     0.033 A 
ATOM      4  C4  UNL d   1      -0.032  -3.175   0.377  0.00  0.00    -0.042 A 
ATOM      5  C5  UNL d   1      -0.984  -2.283   0.858  0.00  0.00     0.033 A 
ATOM      6  C6  UNL d   1      -0.833  -0.911   0.634  0.00  0.00    -0.057 A 
ENDROOT
BRANCH   1   7
ATOM      7  N   UNL d   1       0.399   0.986  -0.183  0.00  0.00    -0.732 N 
ATOM      8  C   UNL d   1       1.679   1.616   0.057  0.00  0.00     0.284 C 
ATOM      9  H3  UNL d   1      -0.115   1.374  -0.971  0.00  0.00     0.395 HD
ENDBRANCH   1   7
TORSDOF 1
ENDMDL
