MODEL 1
REMARK minimizedAffinity -2.21685338
REMARK minimizedRMSD -1
REMARK  1 active torsions:
REMARK  status: ('A' for Active; 'I' for Inactive)
REMARK    1  A    between atoms: N_2  and  C1_3 
ROOT
ATOM      1  C1  UNL d   1      -0.448  -0.946  -0.725  0.00  0.00     0.143 A 
ATOM      2  C2  UNL d   1      -1.076  -0.196   0.275  0.00  0.00    -0.057 A 
ATOM      3  C3  UNL d   1      -1.407  -0.766   1.511  0.00  0.00     0.033 A 
ATOM      4  C4  UNL d   1      -1.141  -2.109   1.758  0.00  0.00    -0.042 A 
ATOM      5  C5  UNL d   1      -0.540  -2.880   0.769  0.00  0.00     0.033 A 
ATOM      6  C6  UNL d   1      -0.206  -2.303  -0.460  0.00  0.00    -0.057 A 
ENDROOT
BRANCH   1   7
ATOM      7  N   UNL d   1      -0.183  -0.463  -2.009  0.00  0.00    -0.732 N 
ATOM      8  C   UNL d   1       0.937  -0.972  -2.771  0.00  0.00     0.284 C 
ATOM      9  H3  UNL d   1      -1.031  -0.328  -2.555  0.00  0.00     0.395 HD
ENDBRANCH   1   7
TORSDOF 1
ENDMDL
