MODEL 1
REMARK minimizedAffinity -3.75824428
REMARK minimizedRMSD -1
REMARK  1 active torsions:
REMARK  status: ('A' for Active; 'I' for Inactive)
REMARK    1  A    between atoms: N_2  and  C1_3 
ROOT
ATOM      1  C1  UNL d   1       0.002   0.134   0.190  0.00  0.00     0.143 A 
ATOM      2  C2  UNL d   1      -0.817  -0.403   1.188  0.00  0.00    -0.057 A 
ATOM      3  C3  UNL d   1      -0.923  -1.786   1.375  0.00  0.00     0.033 A 
ATOM      4  C4  UNL d   1      -0.232  -2.661   0.543  0.00  0.00    -0.042 A 
ATOM      5  C5  UNL d   1       0.568  -2.150  -0.473  0.00  0.00     0.033 A 
ATOM      6  C6  UNL d   1       0.676  -0.768  -0.649  0.00  0.00    -0.057 A 
ENDROOT
BRANCH   1   7
ATOM      7  N   UNL d   1       0.074   1.497  -0.109  0.00  0.00    -0.732 N 
ATOM      8  C   UNL d   1       1.243   2.270   0.250  0.00  0.00     0.284 C 
ATOM      9  H3  UNL d   1      -0.301   1.713  -1.030  0.00  0.00     0.395 HD
ENDBRANCH   1   7
TORSDOF 1
ENDMDL
