MODEL 1
REMARK minimizedAffinity -4.45943785
REMARK minimizedRMSD -1
REMARK  1 active torsions:
REMARK  status: ('A' for Active; 'I' for Inactive)
REMARK    1  A    between atoms: N_2  and  C1_3 
ROOT
ATOM      1  C1  UNL d   1      -0.089  -0.759   0.059  0.00  0.00     0.143 A 
ATOM      2  C2  UNL d   1       0.118  -1.570   1.180  0.00  0.00    -0.057 A 
ATOM      3  C3  UNL d   1       0.390  -2.937   1.046  0.00  0.00     0.033 A 
ATOM      4  C4  UNL d   1       0.430  -3.524  -0.214  0.00  0.00    -0.042 A 
ATOM      5  C5  UNL d   1       0.203  -2.742  -1.341  0.00  0.00     0.033 A 
ATOM      6  C6  UNL d   1      -0.061  -1.376  -1.201  0.00  0.00    -0.057 A 
ENDROOT
BRANCH   1   7
ATOM      7  N   UNL d   1      -0.460   0.586   0.131  0.00  0.00    -0.732 N 
ATOM      8  C   UNL d   1       0.527   1.610   0.397  0.00  0.00     0.284 C 
ATOM      9  H3  UNL d   1      -1.140   0.840  -0.583  0.00  0.00     0.395 HD
ENDBRANCH   1   7
TORSDOF 1
ENDMDL
