MODEL 1
REMARK minimizedAffinity -5.18961096
REMARK minimizedRMSD -1
REMARK  1 active torsions:
REMARK  status: ('A' for Active; 'I' for Inactive)
REMARK    1  A    between atoms: N_2  and  C1_3 
ROOT
ATOM      1  C1  UNL d   1       0.022  -0.459  -0.478  0.00  0.00     0.143 A 
ATOM      2  C2  UNL d   1      -0.407  -1.052   0.714  0.00  0.00    -0.057 A 
ATOM      3  C3  UNL d   1      -0.443  -2.444   0.862  0.00  0.00     0.033 A 
ATOM      4  C4  UNL d   1      -0.076  -3.271  -0.194  0.00  0.00    -0.042 A 
ATOM      5  C5  UNL d   1       0.330  -2.704  -1.397  0.00  0.00     0.033 A 
ATOM      6  C6  UNL d   1       0.370  -1.313  -1.536  0.00  0.00    -0.057 A 
ENDROOT
BRANCH   1   7
ATOM      7  N   UNL d   1      -0.014   0.916  -0.720  0.00  0.00    -0.732 N 
ATOM      8  C   UNL d   1       0.382   1.856   0.307  0.00  0.00     0.284 C 
ATOM      9  H3  UNL d   1       0.317   1.155  -1.652  0.00  0.00     0.395 HD
ENDBRANCH   1   7
TORSDOF 1
ENDMDL
