MODEL 1
REMARK minimizedAffinity -0.411815196
REMARK minimizedRMSD -1
REMARK  1 active torsions:
REMARK  status: ('A' for Active; 'I' for Inactive)
REMARK    1  A    between atoms: N_2  and  C1_3 
ROOT
ATOM      1  C1  UNL d   1       0.427   1.290   0.133  0.00  0.00     0.143 A 
ATOM      2  C2  UNL d   1       0.566   0.472   1.259  0.00  0.00    -0.057 A 
ATOM      3  C3  UNL d   1       0.013  -0.814   1.295  0.00  0.00     0.033 A 
ATOM      4  C4  UNL d   1      -0.716  -1.295   0.213  0.00  0.00    -0.042 A 
ATOM      5  C5  UNL d   1      -0.889  -0.489  -0.907  0.00  0.00     0.033 A 
ATOM      6  C6  UNL d   1      -0.329   0.791  -0.940  0.00  0.00    -0.057 A 
ENDROOT
BRANCH   1   7
ATOM      7  N   UNL d   1       0.869   2.614   0.074  0.00  0.00    -0.732 N 
ATOM      8  C   UNL d   1       2.142   2.992   0.649  0.00  0.00     0.284 C 
ATOM      9  H3  UNL d   1       0.673   3.049  -0.825  0.00  0.00     0.395 HD
ENDBRANCH   1   7
TORSDOF 1
ENDMDL
