MODEL 1
REMARK minimizedAffinity -4.4292717
REMARK minimizedRMSD -1
REMARK  1 active torsions:
REMARK  status: ('A' for Active; 'I' for Inactive)
REMARK    1  A    between atoms: N_2  and  C1_3 
ROOT
ATOM      1  C1  UNL d   1      -0.004  -0.159  -0.060  0.00  0.00     0.143 A 
ATOM      2  C2  UNL d   1      -0.447  -0.999   0.967  0.00  0.00    -0.057 A 
ATOM      3  C3  UNL d   1      -0.422  -2.392   0.829  0.00  0.00     0.033 A 
ATOM      4  C4  UNL d   1       0.023  -2.971  -0.355  0.00  0.00    -0.042 A 
ATOM      5  C5  UNL d   1       0.445  -2.156  -1.399  0.00  0.00     0.033 A 
ATOM      6  C6  UNL d   1       0.423  -0.765  -1.252  0.00  0.00    -0.057 A 
ENDROOT
BRANCH   1   7
ATOM      7  N   UNL d   1      -0.097   1.234  -0.020  0.00  0.00    -0.732 N 
ATOM      8  C   UNL d   1       1.030   2.036   0.405  0.00  0.00     0.284 C 
ATOM      9  H3  UNL d   1      -0.598   1.613  -0.821  0.00  0.00     0.395 HD
ENDBRANCH   1   7
TORSDOF 1
ENDMDL
