MODEL 1
REMARK minimizedAffinity -3.82075953
REMARK minimizedRMSD -1
REMARK  1 active torsions:
REMARK  status: ('A' for Active; 'I' for Inactive)
REMARK    1  A    between atoms: N_2  and  C1_3 
ROOT
ATOM      1  C1  UNL d   1      -0.226  -0.826  -0.143  0.00  0.00     0.143 A 
ATOM      2  C2  UNL d   1      -1.270  -1.500   0.499  0.00  0.00    -0.057 A 
ATOM      3  C3  UNL d   1      -1.349  -2.898   0.487  0.00  0.00     0.033 A 
ATOM      4  C4  UNL d   1      -0.396  -3.648  -0.195  0.00  0.00    -0.042 A 
ATOM      5  C5  UNL d   1       0.637  -2.999  -0.862  0.00  0.00     0.033 A 
ATOM      6  C6  UNL d   1       0.713  -1.603  -0.840  0.00  0.00    -0.057 A 
ENDROOT
BRANCH   1   7
ATOM      7  N   UNL d   1      -0.147   0.564  -0.251  0.00  0.00    -0.732 N 
ATOM      8  C   UNL d   1      -0.420   1.223  -1.510  0.00  0.00     0.284 C 
ATOM      9  H3  UNL d   1      -0.537   1.039   0.560  0.00  0.00     0.395 HD
ENDBRANCH   1   7
TORSDOF 1
ENDMDL
