MODEL 1
REMARK minimizedAffinity -5.75331497
REMARK minimizedRMSD -1
REMARK  1 active torsions:
REMARK  status: ('A' for Active; 'I' for Inactive)
REMARK    1  A    between atoms: N_2  and  C1_3 
ROOT
ATOM      1  C1  UNL d   1       0.541  -0.911  -0.842  0.00  0.00     0.143 A 
ATOM      2  C2  UNL d   1       0.220  -1.852   0.142  0.00  0.00    -0.057 A 
ATOM      3  C3  UNL d   1      -0.029  -3.190  -0.187  0.00  0.00     0.033 A 
ATOM      4  C4  UNL d   1       0.010  -3.605  -1.514  0.00  0.00    -0.042 A 
ATOM      5  C5  UNL d   1       0.302  -2.682  -2.511  0.00  0.00     0.033 A 
ATOM      6  C6  UNL d   1       0.557  -1.349  -2.176  0.00  0.00    -0.057 A 
ENDROOT
BRANCH   1   7
ATOM      7  N   UNL d   1       0.703   0.453  -0.590  0.00  0.00    -0.732 N 
ATOM      8  C   UNL d   1      -0.290   1.186   0.167  0.00  0.00     0.284 C 
ATOM      9  H3  UNL d   1       1.664   0.694  -0.357  0.00  0.00     0.395 HD
ENDBRANCH   1   7
TORSDOF 1
ENDMDL
