MODEL 1
REMARK minimizedAffinity -4.93298149
REMARK minimizedRMSD -1
REMARK  1 active torsions:
REMARK  status: ('A' for Active; 'I' for Inactive)
REMARK    1  A    between atoms: N_2  and  C1_3 
ROOT
ATOM      1  C1  UNL d   1       0.004  -1.859  -0.791  0.00  0.00     0.143 A 
ATOM      2  C2  UNL d   1      -0.308  -2.760   0.232  0.00  0.00    -0.057 A 
ATOM      3  C3  UNL d   1      -0.855  -2.322   1.444  0.00  0.00     0.033 A 
ATOM      4  C4  UNL d   1      -1.074  -0.966   1.665  0.00  0.00    -0.042 A 
ATOM      5  C5  UNL d   1      -0.748  -0.050   0.671  0.00  0.00     0.033 A 
ATOM      6  C6  UNL d   1      -0.208  -0.494  -0.539  0.00  0.00    -0.057 A 
ENDROOT
BRANCH   1   7
ATOM      7  N   UNL d   1       0.641  -2.222  -1.980  0.00  0.00    -0.732 N 
ATOM      8  C   UNL d   1      -0.080  -2.217  -3.235  0.00  0.00     0.284 C 
ATOM      9  H3  UNL d   1       1.587  -1.851  -2.043  0.00  0.00     0.395 HD
ENDBRANCH   1   7
TORSDOF 1
ENDMDL
