MODEL 1
REMARK minimizedAffinity 5.17211628
REMARK minimizedRMSD -1
REMARK  1 active torsions:
REMARK  status: ('A' for Active; 'I' for Inactive)
REMARK    1  A    between atoms: C1_2  and  C2_3 
ROOT
ATOM      1  C2  UNL d   1      -3.522   0.202  -5.260  0.00  0.00    -0.081 A 
ATOM      2  C3  UNL d   1      -4.856   0.108  -5.674  0.00  0.00     0.006 A 
ATOM      3  C4  UNL d   1      -5.665   1.247  -5.719  0.00  0.00     0.002 A 
ATOM      4  C5  UNL d   1      -5.151   2.497  -5.360  0.00  0.00    -0.080 A 
ATOM      5  C6  UNL d   1      -6.000   3.732  -5.433  0.00  0.00     0.076 C 
ATOM      6  C7  UNL d   1      -3.823   2.588  -4.930  0.00  0.00     0.002 A 
ATOM      7  C8  UNL d   1      -3.014   1.450  -4.884  0.00  0.00     0.006 A 
ENDROOT
BRANCH   1   8
ATOM      8  C1  UNL d   1      -2.629  -1.013  -5.272  0.00  0.00     0.054 C 
ATOM      9  C   UNL d   1      -2.280  -1.456  -3.859  0.00  0.00     0.018 C 
ENDBRANCH   1   8
TORSDOF 1
ENDMDL
