MODEL 1
REMARK minimizedAffinity 6.79978895
REMARK minimizedRMSD -1
REMARK  1 active torsions:
REMARK  status: ('A' for Active; 'I' for Inactive)
REMARK    1  A    between atoms: C1_2  and  C2_3 
ROOT
ATOM      1  C2  UNL d   1      -3.700  -0.961  -4.674  0.00  0.00    -0.081 A 
ATOM      2  C3  UNL d   1      -3.711   0.437  -4.752  0.00  0.00     0.006 A 
ATOM      3  C4  UNL d   1      -3.760   1.211  -3.590  0.00  0.00     0.002 A 
ATOM      4  C5  UNL d   1      -3.791   0.600  -2.332  0.00  0.00    -0.080 A 
ATOM      5  C6  UNL d   1      -3.813   1.419  -1.075  0.00  0.00     0.076 C 
ATOM      6  C7  UNL d   1      -3.797  -0.797  -2.254  0.00  0.00     0.002 A 
ATOM      7  C8  UNL d   1      -3.748  -1.571  -3.416  0.00  0.00     0.006 A 
ENDROOT
BRANCH   1   8
ATOM      8  C1  UNL d   1      -3.581  -1.797  -5.923  0.00  0.00     0.054 C 
ATOM      9  C   UNL d   1      -2.229  -2.491  -5.998  0.00  0.00     0.018 C 
ENDBRANCH   1   8
TORSDOF 1
ENDMDL
