MODEL 1
REMARK minimizedAffinity 15.8705664
REMARK minimizedRMSD -1
REMARK  1 active torsions:
REMARK  status: ('A' for Active; 'I' for Inactive)
REMARK    1  A    between atoms: C1_2  and  C2_3 
ROOT
ATOM      1  C2  UNL d   1       4.710  -4.153   2.619  0.00  0.00    -0.081 A 
ATOM      2  C3  UNL d   1       5.463  -3.769   1.502  0.00  0.00     0.006 A 
ATOM      3  C4  UNL d   1       4.855  -3.110   0.431  0.00  0.00     0.002 A 
ATOM      4  C5  UNL d   1       3.487  -2.817   0.462  0.00  0.00    -0.080 A 
ATOM      5  C6  UNL d   1       2.829  -2.082  -0.668  0.00  0.00     0.076 C 
ATOM      6  C7  UNL d   1       2.732  -3.216   1.570  0.00  0.00     0.002 A 
ATOM      7  C8  UNL d   1       3.339  -3.876   2.640  0.00  0.00     0.006 A 
ENDROOT
BRANCH   1   8
ATOM      8  C1  UNL d   1       5.375  -4.807   3.803  0.00  0.00     0.054 C 
ATOM      9  C   UNL d   1       5.336  -3.903   5.028  0.00  0.00     0.018 C 
ENDBRANCH   1   8
TORSDOF 1
ENDMDL
