MODEL 1
REMARK minimizedAffinity 4.22672272
REMARK minimizedRMSD -1
REMARK  1 active torsions:
REMARK  status: ('A' for Active; 'I' for Inactive)
REMARK    1  A    between atoms: C1_2  and  C2_3 
ROOT
ATOM      1  C2  UNL d   1      -3.852   0.364  -4.062  0.00  0.00    -0.081 A 
ATOM      2  C3  UNL d   1      -3.569  -0.978  -3.776  0.00  0.00     0.006 A 
ATOM      3  C4  UNL d   1      -3.041  -1.341  -2.535  0.00  0.00     0.002 A 
ATOM      4  C5  UNL d   1      -2.795  -0.372  -1.557  0.00  0.00    -0.080 A 
ATOM      5  C6  UNL d   1      -2.258  -0.752  -0.209  0.00  0.00     0.076 C 
ATOM      6  C7  UNL d   1      -3.061   0.970  -1.848  0.00  0.00     0.002 A 
ATOM      7  C8  UNL d   1      -3.588   1.335  -3.090  0.00  0.00     0.006 A 
ENDROOT
BRANCH   1   8
ATOM      8  C1  UNL d   1      -4.481   0.751  -5.376  0.00  0.00     0.054 C 
ATOM      9  C   UNL d   1      -6.000   0.759  -5.281  0.00  0.00     0.018 C 
ENDBRANCH   1   8
TORSDOF 1
ENDMDL
