MODEL 1
REMARK minimizedAffinity -2.79796267
REMARK minimizedRMSD -1
REMARK  0 active torsions:
REMARK  status: ('A' for Active; 'I' for Inactive)
ROOT
ATOM      1  C   UNL d   1       1.591  -2.443   1.539  0.00  0.00     0.124 A 
ATOM      2  C1  UNL d   1       0.244  -2.273   1.827  0.00  0.00     0.062 A 
ATOM      3  C2  UNL d   1      -0.503  -1.317   1.145  0.00  0.00     0.162 A 
ATOM      4  C3  UNL d   1       0.096  -0.522   0.168  0.00  0.00    -0.034 A 
ATOM      5  C4  UNL d   1       1.451  -0.697  -0.116  0.00  0.00     0.162 A 
ATOM      6  C5  UNL d   1       2.193  -1.655   0.568  0.00  0.00     0.062 A 
ATOM      7  F   UNL d   1       3.495  -1.817   0.288  0.00  0.00    -0.097 F 
ATOM      8  F1  UNL d   1       2.059   0.050  -1.050  0.00  0.00    -0.096 F 
ATOM      9  I   UNL d   1      -1.017   0.910  -0.854  0.00  0.00    -0.060 I 
ATOM     10  F2  UNL d   1      -1.803  -1.175   1.444  0.00  0.00    -0.096 F 
ATOM     11  F3  UNL d   1      -0.340  -3.033   2.765  0.00  0.00    -0.097 F 
ATOM     12  F4  UNL d   1       2.307  -3.363   2.197  0.00  0.00    -0.092 F 
ENDROOT
TORSDOF 0
ENDMDL
