MODEL 1
REMARK minimizedAffinity -2.52474546
REMARK minimizedRMSD -1
REMARK  0 active torsions:
REMARK  status: ('A' for Active; 'I' for Inactive)
ROOT
ATOM      1  C   UNL d   1       1.787  -0.796   0.449  0.00  0.00     0.124 A 
ATOM      2  C1  UNL d   1       1.609   0.535   0.101  0.00  0.00     0.062 A 
ATOM      3  C2  UNL d   1       0.374   0.979  -0.362  0.00  0.00     0.162 A 
ATOM      4  C3  UNL d   1      -0.694   0.089  -0.479  0.00  0.00    -0.034 A 
ATOM      5  C4  UNL d   1      -0.507  -1.249  -0.128  0.00  0.00     0.162 A 
ATOM      6  C5  UNL d   1       0.729  -1.687   0.334  0.00  0.00     0.062 A 
ATOM      7  F   UNL d   1       0.900  -2.974   0.670  0.00  0.00    -0.097 F 
ATOM      8  F1  UNL d   1      -1.513  -2.131  -0.229  0.00  0.00    -0.096 F 
ATOM      9  I   UNL d   1      -2.543   0.748  -1.172  0.00  0.00    -0.060 I 
ATOM     10  F2  UNL d   1       0.230   2.271  -0.691  0.00  0.00    -0.096 F 
ATOM     11  F3  UNL d   1       2.630   1.398   0.210  0.00  0.00    -0.097 F 
ATOM     12  F4  UNL d   1       2.977  -1.220   0.894  0.00  0.00    -0.092 F 
ENDROOT
TORSDOF 0
ENDMDL
