MODEL 1
REMARK minimizedAffinity -1.69077873
REMARK minimizedRMSD -1
REMARK  0 active torsions:
REMARK  status: ('A' for Active; 'I' for Inactive)
ROOT
ATOM      1  C   UNL d   1      -0.147  -1.671   1.143  0.00  0.00     0.124 A 
ATOM      2  C1  UNL d   1      -0.416  -0.468   0.504  0.00  0.00     0.062 A 
ATOM      3  C2  UNL d   1       0.613   0.254  -0.092  0.00  0.00     0.162 A 
ATOM      4  C3  UNL d   1       1.923  -0.225  -0.054  0.00  0.00    -0.034 A 
ATOM      5  C4  UNL d   1       2.186  -1.435   0.591  0.00  0.00     0.162 A 
ATOM      6  C5  UNL d   1       1.154  -2.153   1.186  0.00  0.00     0.062 A 
ATOM      7  F   UNL d   1       1.416  -3.314   1.802  0.00  0.00    -0.097 F 
ATOM      8  F1  UNL d   1       3.434  -1.924   0.647  0.00  0.00    -0.096 F 
ATOM      9  I   UNL d   1       3.465   0.852  -0.944  0.00  0.00    -0.060 I 
ATOM     10  F2  UNL d   1       0.324   1.413  -0.702  0.00  0.00    -0.096 F 
ATOM     11  F3  UNL d   1      -1.672   0.000   0.462  0.00  0.00    -0.097 F 
ATOM     12  F4  UNL d   1      -1.139  -2.363   1.717  0.00  0.00    -0.092 F 
ENDROOT
TORSDOF 0
ENDMDL
