MODEL 1
REMARK minimizedAffinity -0.549038708
REMARK minimizedRMSD -1
REMARK  0 active torsions:
REMARK  status: ('A' for Active; 'I' for Inactive)
ROOT
ATOM      1  C   UNL d   1       1.726  -2.180   0.950  0.00  0.00     0.124 A 
ATOM      2  C1  UNL d   1       0.338  -2.157   0.946  0.00  0.00     0.062 A 
ATOM      3  C2  UNL d   1      -0.342  -1.091   0.364  0.00  0.00     0.162 A 
ATOM      4  C3  UNL d   1       0.364  -0.039  -0.219  0.00  0.00    -0.034 A 
ATOM      5  C4  UNL d   1       1.760  -0.069  -0.210  0.00  0.00     0.162 A 
ATOM      6  C5  UNL d   1       2.435  -1.136   0.373  0.00  0.00     0.062 A 
ATOM      7  F   UNL d   1       3.776  -1.157   0.376  0.00  0.00    -0.097 F 
ATOM      8  F1  UNL d   1       2.471   0.926  -0.762  0.00  0.00    -0.096 F 
ATOM      9  I   UNL d   1      -0.649   1.557  -1.089  0.00  0.00    -0.060 I 
ATOM     10  F2  UNL d   1      -1.683  -1.094   0.375  0.00  0.00    -0.096 F 
ATOM     11  F3  UNL d   1      -0.349  -3.163   1.504  0.00  0.00    -0.097 F 
ATOM     12  F4  UNL d   1       2.378  -3.206   1.511  0.00  0.00    -0.092 F 
ENDROOT
TORSDOF 0
ENDMDL
