MODEL 1
REMARK minimizedAffinity -2.38113689
REMARK minimizedRMSD -1
REMARK  0 active torsions:
REMARK  status: ('A' for Active; 'I' for Inactive)
ROOT
ATOM      1  C   UNL d   1      -1.577   1.256  -1.312  0.00  0.00     0.124 A 
ATOM      2  C1  UNL d   1      -1.585   1.032   0.058  0.00  0.00     0.062 A 
ATOM      3  C2  UNL d   1      -0.685   0.135   0.626  0.00  0.00     0.162 A 
ATOM      4  C3  UNL d   1       0.232  -0.545  -0.176  0.00  0.00    -0.034 A 
ATOM      5  C4  UNL d   1       0.233  -0.315  -1.553  0.00  0.00     0.162 A 
ATOM      6  C5  UNL d   1      -0.668   0.582  -2.116  0.00  0.00     0.062 A 
ATOM      7  F   UNL d   1      -0.659   0.798  -3.440  0.00  0.00    -0.097 F 
ATOM      8  F1  UNL d   1       1.101  -0.952  -2.354  0.00  0.00    -0.096 F 
ATOM      9  I   UNL d   1       1.580  -1.887   0.668  0.00  0.00    -0.060 I 
ATOM     10  F2  UNL d   1      -0.715  -0.062   1.952  0.00  0.00    -0.096 F 
ATOM     11  F3  UNL d   1      -2.462   1.680   0.837  0.00  0.00    -0.097 F 
ATOM     12  F4  UNL d   1      -2.445   2.119  -1.855  0.00  0.00    -0.092 F 
ENDROOT
TORSDOF 0
ENDMDL
