MODEL 1
REMARK minimizedAffinity 4.86242914
REMARK minimizedRMSD -1
REMARK  0 active torsions:
REMARK  status: ('A' for Active; 'I' for Inactive)
ROOT
ATOM      1  C   UNL d   1       2.899  -0.655   1.285  0.00  0.00     0.124 A 
ATOM      2  C1  UNL d   1       1.947  -1.600   0.930  0.00  0.00     0.062 A 
ATOM      3  C2  UNL d   1       0.853  -1.234   0.150  0.00  0.00     0.162 A 
ATOM      4  C3  UNL d   1       0.707   0.085  -0.280  0.00  0.00    -0.034 A 
ATOM      5  C4  UNL d   1       1.668   1.030   0.082  0.00  0.00     0.162 A 
ATOM      6  C5  UNL d   1       2.759   0.659   0.861  0.00  0.00     0.062 A 
ATOM      7  F   UNL d   1       3.677   1.574   1.204  0.00  0.00    -0.097 F 
ATOM      8  F1  UNL d   1       1.557   2.307  -0.315  0.00  0.00    -0.096 F 
ATOM      9  I   UNL d   1      -0.927   0.637  -1.446  0.00  0.00    -0.060 I 
ATOM     10  F2  UNL d   1      -0.051  -2.168  -0.178  0.00  0.00    -0.096 F 
ATOM     11  F3  UNL d   1       2.079  -2.870   1.339  0.00  0.00    -0.097 F 
ATOM     12  F4  UNL d   1       3.949  -1.010   2.036  0.00  0.00    -0.092 F 
ENDROOT
TORSDOF 0
ENDMDL
