MODEL 1
REMARK minimizedAffinity -0.745768607
REMARK minimizedRMSD -1
REMARK  0 active torsions:
REMARK  status: ('A' for Active; 'I' for Inactive)
ROOT
ATOM      1  C   UNL d   1       1.707  -2.187   1.380  0.00  0.00     0.124 A 
ATOM      2  C1  UNL d   1       0.358  -2.369   1.110  0.00  0.00     0.062 A 
ATOM      3  C2  UNL d   1      -0.359  -1.387   0.431  0.00  0.00     0.162 A 
ATOM      4  C3  UNL d   1       0.273  -0.215   0.015  0.00  0.00    -0.034 A 
ATOM      5  C4  UNL d   1       1.631  -0.040   0.291  0.00  0.00     0.162 A 
ATOM      6  C5  UNL d   1       2.342  -1.023   0.970  0.00  0.00     0.062 A 
ATOM      7  F   UNL d   1       3.646  -0.846   1.229  0.00  0.00    -0.097 F 
ATOM      8  F1  UNL d   1       2.270   1.075  -0.095  0.00  0.00    -0.096 F 
ATOM      9  I   UNL d   1      -0.794   1.254  -1.000  0.00  0.00    -0.060 I 
ATOM     10  F2  UNL d   1      -1.662  -1.589   0.184  0.00  0.00    -0.096 F 
ATOM     11  F3  UNL d   1      -0.258  -3.492   1.506  0.00  0.00    -0.097 F 
ATOM     12  F4  UNL d   1       2.394  -3.132   2.034  0.00  0.00    -0.092 F 
ENDROOT
TORSDOF 0
ENDMDL
