MODEL 1
REMARK minimizedAffinity -0.538448632
REMARK minimizedRMSD -1
REMARK  0 active torsions:
REMARK  status: ('A' for Active; 'I' for Inactive)
ROOT
ATOM      1  C   UNL d   1       2.439  -0.991   0.445  0.00  0.00     0.124 A 
ATOM      2  C1  UNL d   1       1.459  -1.966   0.568  0.00  0.00     0.062 A 
ATOM      3  C2  UNL d   1       0.141  -1.681   0.225  0.00  0.00     0.162 A 
ATOM      4  C3  UNL d   1      -0.206  -0.414  -0.244  0.00  0.00    -0.034 A 
ATOM      5  C4  UNL d   1       0.785   0.562  -0.364  0.00  0.00     0.162 A 
ATOM      6  C5  UNL d   1       2.101   0.272  -0.020  0.00  0.00     0.062 A 
ATOM      7  F   UNL d   1       3.047   1.215  -0.139  0.00  0.00    -0.097 F 
ATOM      8  F1  UNL d   1       0.487   1.791  -0.812  0.00  0.00    -0.096 F 
ATOM      9  I   UNL d   1      -2.176   0.017  -0.757  0.00  0.00    -0.060 I 
ATOM     10  F2  UNL d   1      -0.785  -2.643   0.353  0.00  0.00    -0.096 F 
ATOM     11  F3  UNL d   1       1.783  -3.187   1.018  0.00  0.00    -0.097 F 
ATOM     12  F4  UNL d   1       3.707  -1.268   0.776  0.00  0.00    -0.092 F 
ENDROOT
TORSDOF 0
ENDMDL
