MODEL 1
REMARK minimizedAffinity -1.89141834
REMARK minimizedRMSD -1
REMARK  0 active torsions:
REMARK  status: ('A' for Active; 'I' for Inactive)
ROOT
ATOM      1  C   UNL d   1       1.661  -1.777   0.908  0.00  0.00     0.124 A 
ATOM      2  C1  UNL d   1       2.350  -0.662   0.452  0.00  0.00     0.062 A 
ATOM      3  C2  UNL d   1       1.671   0.361  -0.204  0.00  0.00     0.162 A 
ATOM      4  C3  UNL d   1       0.294   0.275  -0.406  0.00  0.00    -0.034 A 
ATOM      5  C4  UNL d   1      -0.393  -0.850   0.054  0.00  0.00     0.162 A 
ATOM      6  C5  UNL d   1       0.290  -1.870   0.709  0.00  0.00     0.062 A 
ATOM      7  F   UNL d   1      -0.377  -2.947   1.149  0.00  0.00    -0.097 F 
ATOM      8  F1  UNL d   1      -1.717  -0.966  -0.124  0.00  0.00    -0.096 F 
ATOM      9  I   UNL d   1      -0.725   1.802  -1.386  0.00  0.00    -0.060 I 
ATOM     10  F2  UNL d   1       2.363   1.427  -0.634  0.00  0.00    -0.096 F 
ATOM     11  F3  UNL d   1       3.674  -0.570   0.642  0.00  0.00    -0.097 F 
ATOM     12  F4  UNL d   1       2.317  -2.760   1.538  0.00  0.00    -0.092 F 
ENDROOT
TORSDOF 0
ENDMDL
