MODEL 1
REMARK minimizedAffinity -1.20978248
REMARK minimizedRMSD -1
REMARK  0 active torsions:
REMARK  status: ('A' for Active; 'I' for Inactive)
ROOT
ATOM      1  C   UNL d   1       1.161  -2.234   1.322  0.00  0.00     0.124 A 
ATOM      2  C1  UNL d   1      -0.205  -2.078   1.510  0.00  0.00     0.062 A 
ATOM      3  C2  UNL d   1      -0.894  -1.075   0.834  0.00  0.00     0.162 A 
ATOM      4  C3  UNL d   1      -0.218  -0.221  -0.037  0.00  0.00    -0.034 A 
ATOM      5  C4  UNL d   1       1.156  -0.383  -0.219  0.00  0.00     0.162 A 
ATOM      6  C5  UNL d   1       1.841  -1.387   0.458  0.00  0.00     0.062 A 
ATOM      7  F   UNL d   1       3.161  -1.536   0.276  0.00  0.00    -0.097 F 
ATOM      8  F1  UNL d   1       1.837   0.421  -1.049  0.00  0.00    -0.096 F 
ATOM      9  I   UNL d   1      -1.245   1.280  -1.049  0.00  0.00    -0.060 I 
ATOM     10  F2  UNL d   1      -2.214  -0.948   1.034  0.00  0.00    -0.096 F 
ATOM     11  F3  UNL d   1      -0.863  -2.895   2.345  0.00  0.00    -0.097 F 
ATOM     12  F4  UNL d   1       1.822  -3.199   1.975  0.00  0.00    -0.092 F 
ENDROOT
TORSDOF 0
ENDMDL
