MODEL 1
REMARK minimizedAffinity -0.380525351
REMARK minimizedRMSD -1
REMARK  0 active torsions:
REMARK  status: ('A' for Active; 'I' for Inactive)
ROOT
ATOM      1  C   UNL d   1       1.803  -2.033   0.821  0.00  0.00     0.124 A 
ATOM      2  C1  UNL d   1       0.425  -2.184   0.887  0.00  0.00     0.062 A 
ATOM      3  C2  UNL d   1      -0.412  -1.191   0.386  0.00  0.00     0.162 A 
ATOM      4  C3  UNL d   1       0.127  -0.039  -0.186  0.00  0.00    -0.034 A 
ATOM      5  C4  UNL d   1       1.514   0.106  -0.248  0.00  0.00     0.162 A 
ATOM      6  C5  UNL d   1       2.346  -0.889   0.254  0.00  0.00     0.062 A 
ATOM      7  F   UNL d   1       3.678  -0.742   0.189  0.00  0.00    -0.097 F 
ATOM      8  F1  UNL d   1       2.065   1.201  -0.792  0.00  0.00    -0.096 F 
ATOM      9  I   UNL d   1      -1.121   1.448  -0.936  0.00  0.00    -0.060 I 
ATOM     10  F2  UNL d   1      -1.740  -1.363   0.463  0.00  0.00    -0.096 F 
ATOM     11  F3  UNL d   1      -0.102  -3.288   1.435  0.00  0.00    -0.097 F 
ATOM     12  F4  UNL d   1       2.606  -2.990   1.305  0.00  0.00    -0.092 F 
ENDROOT
TORSDOF 0
ENDMDL
