MODEL 1
REMARK minimizedAffinity -1.64771557
REMARK minimizedRMSD -1
REMARK  0 active torsions:
REMARK  status: ('A' for Active; 'I' for Inactive)
ROOT
ATOM      1  C   UNL d   1       1.934  -1.404   0.433  0.00  0.00     0.124 A 
ATOM      2  C1  UNL d   1       0.930  -2.048   1.144  0.00  0.00     0.062 A 
ATOM      3  C2  UNL d   1      -0.351  -1.506   1.193  0.00  0.00     0.162 A 
ATOM      4  C3  UNL d   1      -0.637  -0.313   0.530  0.00  0.00    -0.034 A 
ATOM      5  C4  UNL d   1       0.378   0.330  -0.182  0.00  0.00     0.162 A 
ATOM      6  C5  UNL d   1       1.657  -0.216  -0.229  0.00  0.00     0.062 A 
ATOM      7  F   UNL d   1       2.625   0.408  -0.915  0.00  0.00    -0.097 F 
ATOM      8  F1  UNL d   1       0.138   1.478  -0.832  0.00  0.00    -0.096 F 
ATOM      9  I   UNL d   1      -2.551   0.501   0.601  0.00  0.00    -0.060 I 
ATOM     10  F2  UNL d   1      -1.301  -2.150   1.887  0.00  0.00    -0.096 F 
ATOM     11  F3  UNL d   1       1.195  -3.195   1.785  0.00  0.00    -0.097 F 
ATOM     12  F4  UNL d   1       3.166  -1.927   0.388  0.00  0.00    -0.092 F 
ENDROOT
TORSDOF 0
ENDMDL
