MODEL 1
REMARK minimizedAffinity -1.72307217
REMARK minimizedRMSD -1
REMARK  0 active torsions:
REMARK  status: ('A' for Active; 'I' for Inactive)
ROOT
ATOM      1  C   UNL d   1      -1.463   2.675  -3.943  0.00  0.00     0.124 A 
ATOM      2  C1  UNL d   1      -0.541   3.005  -2.960  0.00  0.00     0.062 A 
ATOM      3  C2  UNL d   1      -0.566   2.354  -1.730  0.00  0.00     0.162 A 
ATOM      4  C3  UNL d   1      -1.516   1.365  -1.476  0.00  0.00    -0.034 A 
ATOM      5  C4  UNL d   1      -2.441   1.039  -2.469  0.00  0.00     0.162 A 
ATOM      6  C5  UNL d   1      -2.412   1.692  -3.697  0.00  0.00     0.062 A 
ATOM      7  F   UNL d   1      -3.304   1.372  -4.646  0.00  0.00    -0.097 F 
ATOM      8  F1  UNL d   1      -3.368   0.093  -2.259  0.00  0.00    -0.096 F 
ATOM      9  I   UNL d   1      -1.556   0.389   0.362  0.00  0.00    -0.060 I 
ATOM     10  F2  UNL d   1       0.338   2.694  -0.798  0.00  0.00    -0.096 F 
ATOM     11  F3  UNL d   1       0.376   3.955  -3.195  0.00  0.00    -0.097 F 
ATOM     12  F4  UNL d   1      -1.438   3.303  -5.125  0.00  0.00    -0.092 F 
ENDROOT
TORSDOF 0
ENDMDL
