MODEL 1
REMARK minimizedAffinity 3.85629392
REMARK minimizedRMSD -1
REMARK  0 active torsions:
REMARK  status: ('A' for Active; 'I' for Inactive)
ROOT
ATOM      1  C   UNL d   1       1.675  -2.148   2.530  0.00  0.00     0.124 A 
ATOM      2  C1  UNL d   1       2.268  -1.172   1.740  0.00  0.00     0.062 A 
ATOM      3  C2  UNL d   1       1.494  -0.408   0.872  0.00  0.00     0.162 A 
ATOM      4  C3  UNL d   1       0.117  -0.615   0.789  0.00  0.00    -0.034 A 
ATOM      5  C4  UNL d   1      -0.472  -1.599   1.586  0.00  0.00     0.162 A 
ATOM      6  C5  UNL d   1       0.306  -2.360   2.452  0.00  0.00     0.062 A 
ATOM      7  F   UNL d   1      -0.269  -3.302   3.213  0.00  0.00    -0.097 F 
ATOM      8  F1  UNL d   1      -1.793  -1.825   1.531  0.00  0.00    -0.096 F 
ATOM      9  I   UNL d   1      -1.044   0.526  -0.507  0.00  0.00    -0.060 I 
ATOM     10  F2  UNL d   1       2.094   0.528   0.121  0.00  0.00    -0.096 F 
ATOM     11  F3  UNL d   1       3.591  -0.966   1.813  0.00  0.00    -0.097 F 
ATOM     12  F4  UNL d   1       2.423  -2.883   3.363  0.00  0.00    -0.092 F 
ENDROOT
TORSDOF 0
ENDMDL
