MODEL 1
REMARK minimizedAffinity -4.70943642
REMARK minimizedRMSD -1
REMARK  3 active torsions:
REMARK  status: ('A' for Active; 'I' for Inactive)
REMARK    1  A    between atoms: C3'_2  and  C2'_3 
REMARK    2  A    between atoms: C2'_3  and  C1'_4 
REMARK    3  A    between atoms: C1'_4  and  C1_5 
ROOT
ATOM      1  C1  N4B d   1      -1.377  -0.462   0.401  0.00  0.00    -0.075 A 
ATOM      2  C2  N4B d   1      -0.418   0.258  -0.345  0.00  0.00     0.002 A 
ATOM      3  C3  N4B d   1       0.918   0.131  -0.049  0.00  0.00     0.002 A 
ATOM      4  C4  N4B d   1       1.314  -0.691   0.995  0.00  0.00    -0.004 A 
ATOM      5  C5  N4B d   1       0.383  -1.402   1.694  0.00  0.00     0.002 A 
ATOM      6  C6  N4B d   1      -0.962  -1.288   1.405  0.00  0.00     0.002 A 
ENDROOT
BRANCH   1   7
ATOM      7  C1' N4B d   1      -2.854  -0.290   0.170  0.00  0.00     0.057 C 
BRANCH   7   8
ATOM      8  C2' N4B d   1      -3.338  -1.365  -0.798  0.00  0.00     0.009 C 
BRANCH   8   9
ATOM      9  C3' N4B d   1      -2.561  -1.346  -2.103  0.00  0.00     0.004 C 
ATOM     10  C4' N4B d   1      -2.651  -2.643  -2.852  0.00  0.00     0.003 C 
ENDBRANCH   8   9
ENDBRANCH   7   8
ENDBRANCH   1   7
TORSDOF 3
ENDMDL
