MODEL 1
REMARK minimizedAffinity -4.13148308
REMARK minimizedRMSD -1
REMARK  3 active torsions:
REMARK  status: ('A' for Active; 'I' for Inactive)
REMARK    1  A    between atoms: C3'_2  and  C2'_3 
REMARK    2  A    between atoms: C2'_3  and  C1'_4 
REMARK    3  A    between atoms: C1'_4  and  C1_5 
ROOT
ATOM      1  C1  N4B d   1       0.590   0.640   0.369  0.00  0.00    -0.075 A 
ATOM      2  C2  N4B d   1       0.657   1.913   0.978  0.00  0.00     0.002 A 
ATOM      3  C3  N4B d   1       1.874   2.522   1.162  0.00  0.00     0.002 A 
ATOM      4  C4  N4B d   1       3.033   1.873   0.765  0.00  0.00    -0.004 A 
ATOM      5  C5  N4B d   1       2.958   0.655   0.154  0.00  0.00     0.002 A 
ATOM      6  C6  N4B d   1       1.741   0.033  -0.041  0.00  0.00     0.002 A 
ENDROOT
BRANCH   1   7
ATOM      7  C1' N4B d   1      -0.710  -0.103   0.224  0.00  0.00     0.057 C 
BRANCH   7   8
ATOM      8  C2' N4B d   1      -1.128  -0.099  -1.244  0.00  0.00     0.009 C 
BRANCH   8   9
ATOM      9  C3' N4B d   1      -2.356  -0.960  -1.487  0.00  0.00     0.004 C 
ATOM     10  C4' N4B d   1      -3.243  -1.061  -0.282  0.00  0.00     0.003 C 
ENDBRANCH   8   9
ENDBRANCH   7   8
ENDBRANCH   1   7
TORSDOF 3
ENDMDL
