MODEL 1
REMARK minimizedAffinity -5.31254721
REMARK minimizedRMSD -1
REMARK  3 active torsions:
REMARK  status: ('A' for Active; 'I' for Inactive)
REMARK    1  A    between atoms: C3'_2  and  C2'_3 
REMARK    2  A    between atoms: C2'_3  and  C1'_4 
REMARK    3  A    between atoms: C1'_4  and  C1_5 
ROOT
ATOM      1  C1  N4B d   1       0.124  -0.215  -0.076  0.00  0.00    -0.075 A 
ATOM      2  C2  N4B d   1      -0.629  -0.543   1.072  0.00  0.00     0.002 A 
ATOM      3  C3  N4B d   1      -1.986  -0.733   0.973  0.00  0.00     0.002 A 
ATOM      4  C4  N4B d   1      -2.611  -0.582  -0.256  0.00  0.00    -0.004 A 
ATOM      5  C5  N4B d   1      -1.873  -0.290  -1.365  0.00  0.00     0.002 A 
ATOM      6  C6  N4B d   1      -0.508  -0.101  -1.281  0.00  0.00     0.002 A 
ENDROOT
BRANCH   1   7
ATOM      7  C1' N4B d   1       1.596   0.086  -0.002  0.00  0.00     0.057 C 
BRANCH   7   8
ATOM      8  C2' N4B d   1       1.851   1.055   1.149  0.00  0.00     0.009 C 
BRANCH   8   9
ATOM      9  C3' N4B d   1       2.683   2.249   0.712  0.00  0.00     0.004 C 
ATOM     10  C4' N4B d   1       2.575   3.408   1.657  0.00  0.00     0.003 C 
ENDBRANCH   8   9
ENDBRANCH   7   8
ENDBRANCH   1   7
TORSDOF 3
ENDMDL
