MODEL 1
REMARK minimizedAffinity 0.00182487816
REMARK minimizedRMSD -1
REMARK  3 active torsions:
REMARK  status: ('A' for Active; 'I' for Inactive)
REMARK    1  A    between atoms: C3'_2  and  C2'_3 
REMARK    2  A    between atoms: C2'_3  and  C1'_4 
REMARK    3  A    between atoms: C1'_4  and  C1_5 
ROOT
ATOM      1  C1  N4B d   1      -5.147   5.899   3.093  0.00  0.00    -0.075 A 
ATOM      2  C2  N4B d   1      -5.999   6.000   4.215  0.00  0.00     0.002 A 
ATOM      3  C3  N4B d   1      -5.480   5.902   5.482  0.00  0.00     0.002 A 
ATOM      4  C4  N4B d   1      -4.121   5.686   5.652  0.00  0.00    -0.004 A 
ATOM      5  C5  N4B d   1      -3.301   5.615   4.563  0.00  0.00     0.002 A 
ATOM      6  C6  N4B d   1      -3.809   5.715   3.284  0.00  0.00     0.002 A 
ENDROOT
BRANCH   1   7
ATOM      7  C1' N4B d   1      -5.681   5.913   1.686  0.00  0.00     0.057 C 
BRANCH   7   8
ATOM      8  C2' N4B d   1      -4.512   5.876   0.707  0.00  0.00     0.009 C 
BRANCH   8   9
ATOM      9  C3' N4B d   1      -4.409   4.539  -0.006  0.00  0.00     0.004 C 
ATOM     10  C4' N4B d   1      -4.940   3.401   0.815  0.00  0.00     0.003 C 
ENDBRANCH   8   9
ENDBRANCH   7   8
ENDBRANCH   1   7
TORSDOF 3
ENDMDL
