MODEL 1
REMARK minimizedAffinity -4.20148182
REMARK minimizedRMSD -1
REMARK  3 active torsions:
REMARK  status: ('A' for Active; 'I' for Inactive)
REMARK    1  A    between atoms: C3'_2  and  C2'_3 
REMARK    2  A    between atoms: C2'_3  and  C1'_4 
REMARK    3  A    between atoms: C1'_4  and  C1_5 
ROOT
ATOM      1  C1  N4B d   1       0.488  -0.239   0.089  0.00  0.00    -0.075 A 
ATOM      2  C2  N4B d   1      -0.402  -0.669   1.097  0.00  0.00     0.002 A 
ATOM      3  C3  N4B d   1      -1.753  -0.700   0.852  0.00  0.00     0.002 A 
ATOM      4  C4  N4B d   1      -2.236  -0.289  -0.382  0.00  0.00    -0.004 A 
ATOM      5  C5  N4B d   1      -1.367   0.101  -1.358  0.00  0.00     0.002 A 
ATOM      6  C6  N4B d   1      -0.006   0.133  -1.127  0.00  0.00     0.002 A 
ENDROOT
BRANCH   1   7
ATOM      7  C1' N4B d   1       1.966  -0.107   0.339  0.00  0.00     0.057 C 
BRANCH   7   8
ATOM      8  C2' N4B d   1       2.354   1.368   0.280  0.00  0.00     0.009 C 
BRANCH   8   9
ATOM      9  C3' N4B d   1       2.709   1.917   1.651  0.00  0.00     0.004 C 
ATOM     10  C4' N4B d   1       2.313   3.353   1.823  0.00  0.00     0.003 C 
ENDBRANCH   8   9
ENDBRANCH   7   8
ENDBRANCH   1   7
TORSDOF 3
ENDMDL
