MODEL 1
REMARK minimizedAffinity -5.89864969
REMARK minimizedRMSD -1
REMARK  3 active torsions:
REMARK  status: ('A' for Active; 'I' for Inactive)
REMARK    1  A    between atoms: C3'_2  and  C2'_3 
REMARK    2  A    between atoms: C2'_3  and  C1'_4 
REMARK    3  A    between atoms: C1'_4  and  C1_5 
ROOT
ATOM      1  C1  N4B d   1       3.354   3.002  -1.300  0.00  0.00    -0.075 A 
ATOM      2  C2  N4B d   1       2.723   1.858  -0.764  0.00  0.00     0.002 A 
ATOM      3  C3  N4B d   1       2.280   1.864   0.536  0.00  0.00     0.002 A 
ATOM      4  C4  N4B d   1       2.473   2.990   1.321  0.00  0.00    -0.004 A 
ATOM      5  C5  N4B d   1       3.061   4.100   0.789  0.00  0.00     0.002 A 
ATOM      6  C6  N4B d   1       3.508   4.110  -0.517  0.00  0.00     0.002 A 
ENDROOT
BRANCH   1   7
ATOM      7  C1' N4B d   1       3.932   3.014  -2.689  0.00  0.00     0.057 C 
BRANCH   7   8
ATOM      8  C2' N4B d   1       5.392   3.452  -2.620  0.00  0.00     0.009 C 
BRANCH   8   9
ATOM      9  C3' N4B d   1       5.969   3.722  -3.999  0.00  0.00     0.004 C 
ATOM     10  C4' N4B d   1       4.920   3.767  -5.070  0.00  0.00     0.003 C 
ENDBRANCH   8   9
ENDBRANCH   7   8
ENDBRANCH   1   7
TORSDOF 3
ENDMDL
