MODEL 1
REMARK minimizedAffinity -6.39319277
REMARK minimizedRMSD -1
REMARK  3 active torsions:
REMARK  status: ('A' for Active; 'I' for Inactive)
REMARK    1  A    between atoms: C3'_2  and  C2'_3 
REMARK    2  A    between atoms: C2'_3  and  C1'_4 
REMARK    3  A    between atoms: C1'_4  and  C1_5 
ROOT
ATOM      1  C1  N4B d   1      -0.166   0.343  -0.221  0.00  0.00    -0.075 A 
ATOM      2  C2  N4B d   1      -0.891  -0.307   0.801  0.00  0.00     0.002 A 
ATOM      3  C3  N4B d   1      -2.147  -0.801   0.545  0.00  0.00     0.002 A 
ATOM      4  C4  N4B d   1      -2.703  -0.640  -0.715  0.00  0.00    -0.004 A 
ATOM      5  C5  N4B d   1      -1.986  -0.033  -1.704  0.00  0.00     0.002 A 
ATOM      6  C6  N4B d   1      -0.721   0.464  -1.462  0.00  0.00     0.002 A 
ENDROOT
BRANCH   1   7
ATOM      7  C1' N4B d   1       1.175   0.975   0.035  0.00  0.00     0.057 C 
BRANCH   7   8
ATOM      8  C2' N4B d   1       1.406   1.068   1.540  0.00  0.00     0.009 C 
BRANCH   8   9
ATOM      9  C3' N4B d   1       2.012   2.401   1.941  0.00  0.00     0.004 C 
ATOM     10  C4' N4B d   1       2.868   2.998   0.863  0.00  0.00     0.003 C 
ENDBRANCH   8   9
ENDBRANCH   7   8
ENDBRANCH   1   7
TORSDOF 3
ENDMDL
