MODEL 1
REMARK minimizedAffinity -5.53371668
REMARK minimizedRMSD -1
REMARK  3 active torsions:
REMARK  status: ('A' for Active; 'I' for Inactive)
REMARK    1  A    between atoms: C3'_2  and  C2'_3 
REMARK    2  A    between atoms: C2'_3  and  C1'_4 
REMARK    3  A    between atoms: C1'_4  and  C1_5 
ROOT
ATOM      1  C1  N4B d   1      -2.397  -1.504   0.094  0.00  0.00    -0.075 A 
ATOM      2  C2  N4B d   1      -1.408  -0.784   0.798  0.00  0.00     0.002 A 
ATOM      3  C3  N4B d   1      -0.637   0.145   0.142  0.00  0.00     0.002 A 
ATOM      4  C4  N4B d   1      -0.824   0.356  -1.215  0.00  0.00    -0.004 A 
ATOM      5  C5  N4B d   1      -1.799  -0.326  -1.883  0.00  0.00     0.002 A 
ATOM      6  C6  N4B d   1      -2.584  -1.259  -1.236  0.00  0.00     0.002 A 
ENDROOT
BRANCH   1   7
ATOM      7  C1' N4B d   1      -3.206  -2.590   0.748  0.00  0.00     0.057 C 
BRANCH   7   8
ATOM      8  C2' N4B d   1      -2.423  -3.154   1.930  0.00  0.00     0.009 C 
BRANCH   8   9
ATOM      9  C3' N4B d   1      -1.557  -4.335   1.526  0.00  0.00     0.004 C 
ATOM     10  C4' N4B d   1      -2.083  -5.055   0.321  0.00  0.00     0.003 C 
ENDBRANCH   8   9
ENDBRANCH   7   8
ENDBRANCH   1   7
TORSDOF 3
ENDMDL
