MODEL 1
REMARK minimizedAffinity -4.93036652
REMARK minimizedRMSD -1
REMARK  3 active torsions:
REMARK  status: ('A' for Active; 'I' for Inactive)
REMARK    1  A    between atoms: C3'_2  and  C2'_3 
REMARK    2  A    between atoms: C2'_3  and  C1'_4 
REMARK    3  A    between atoms: C1'_4  and  C1_5 
ROOT
ATOM      1  C1  N4B d   1       0.494  -0.172   0.005  0.00  0.00    -0.075 A 
ATOM      2  C2  N4B d   1       0.121  -0.908   1.151  0.00  0.00     0.002 A 
ATOM      3  C3  N4B d   1      -1.172  -1.348   1.293  0.00  0.00     0.002 A 
ATOM      4  C4  N4B d   1      -2.110  -1.049   0.315  0.00  0.00    -0.004 A 
ATOM      5  C5  N4B d   1      -1.735  -0.359  -0.801  0.00  0.00     0.002 A 
ATOM      6  C6  N4B d   1      -0.438   0.086  -0.958  0.00  0.00     0.002 A 
ENDROOT
BRANCH   1   7
ATOM      7  C1' N4B d   1       1.875   0.404  -0.154  0.00  0.00     0.057 C 
BRANCH   7   8
ATOM      8  C2' N4B d   1       2.296   1.063   1.156  0.00  0.00     0.009 C 
BRANCH   8   9
ATOM      9  C3' N4B d   1       2.991   2.395   0.925  0.00  0.00     0.004 C 
ATOM     10  C4' N4B d   1       2.988   3.270   2.142  0.00  0.00     0.003 C 
ENDBRANCH   8   9
ENDBRANCH   7   8
ENDBRANCH   1   7
TORSDOF 3
ENDMDL
