MODEL 1
REMARK minimizedAffinity 6.53460217
REMARK minimizedRMSD -1
REMARK  1 active torsions:
REMARK  status: ('A' for Active; 'I' for Inactive)
REMARK    1  A    between atoms: C1_2  and  C2_3 
ROOT
ATOM      1  C2  UNL d   1       4.726   2.148   3.290  0.00  0.00    -0.077 A 
ATOM      2  C3  UNL d   1       5.368   2.326   4.523  0.00  0.00     0.002 A 
ATOM      3  C4  UNL d   1       6.000   1.251   5.152  0.00  0.00     0.002 A 
ATOM      4  C5  UNL d   1       5.999  -0.007   4.553  0.00  0.00    -0.004 A 
ATOM      5  C6  UNL d   1       5.362  -0.194   3.327  0.00  0.00     0.002 A 
ATOM      6  C7  UNL d   1       4.729   0.879   2.698  0.00  0.00     0.002 A 
ENDROOT
BRANCH   1   7
ATOM      7  C1  UNL d   1       4.086   3.317   2.587  0.00  0.00     0.055 C 
ATOM      8  C   UNL d   1       3.167   2.853   1.466  0.00  0.00     0.019 C 
ENDBRANCH   1   7
TORSDOF 1
ENDMDL
