MODEL 1
REMARK minimizedAffinity 0.246680126
REMARK minimizedRMSD -1
REMARK  1 active torsions:
REMARK  status: ('A' for Active; 'I' for Inactive)
REMARK    1  A    between atoms: C1_2  and  C2_3 
ROOT
ATOM      1  C2  UNL d   1      -3.565  -1.087   2.403  0.00  0.00    -0.077 A 
ATOM      2  C3  UNL d   1      -2.620  -1.316   1.394  0.00  0.00     0.002 A 
ATOM      3  C4  UNL d   1      -3.015  -1.374   0.056  0.00  0.00     0.002 A 
ATOM      4  C5  UNL d   1      -4.355  -1.198  -0.285  0.00  0.00    -0.004 A 
ATOM      5  C6  UNL d   1      -5.303  -0.972   0.713  0.00  0.00     0.002 A 
ATOM      6  C7  UNL d   1      -4.909  -0.915   2.050  0.00  0.00     0.002 A 
ENDROOT
BRANCH   1   7
ATOM      7  C1  UNL d   1      -3.133  -0.976   3.842  0.00  0.00     0.055 C 
ATOM      8  C   UNL d   1      -1.940  -0.043   3.992  0.00  0.00     0.019 C 
ENDBRANCH   1   7
TORSDOF 1
ENDMDL
