MODEL 1
REMARK minimizedAffinity -5.60973358
REMARK minimizedRMSD -1
REMARK  1 active torsions:
REMARK  status: ('A' for Active; 'I' for Inactive)
REMARK    1  A    between atoms: C1_2  and  C2_3 
ROOT
ATOM      1  C2  UNL d   1      -3.457   1.551   2.846  0.00  0.00    -0.077 A 
ATOM      2  C3  UNL d   1      -2.920   1.398   1.560  0.00  0.00     0.002 A 
ATOM      3  C4  UNL d   1      -2.995   0.167   0.906  0.00  0.00     0.002 A 
ATOM      4  C5  UNL d   1      -3.610  -0.918   1.527  0.00  0.00    -0.004 A 
ATOM      5  C6  UNL d   1      -4.145  -0.776   2.806  0.00  0.00     0.002 A 
ATOM      6  C7  UNL d   1      -4.070   0.453   3.463  0.00  0.00     0.002 A 
ENDROOT
BRANCH   1   7
ATOM      7  C1  UNL d   1      -3.420   2.891   3.534  0.00  0.00     0.055 C 
ATOM      8  C   UNL d   1      -4.324   2.909   4.758  0.00  0.00     0.019 C 
ENDBRANCH   1   7
TORSDOF 1
ENDMDL
