MODEL 1
REMARK minimizedAffinity 3.38290215
REMARK minimizedRMSD -1
REMARK  1 active torsions:
REMARK  status: ('A' for Active; 'I' for Inactive)
REMARK    1  A    between atoms: C1_2  and  C2_3 
ROOT
ATOM      1  C2  UNL d   1      -0.185   0.069  -1.600  0.00  0.00    -0.077 A 
ATOM      2  C3  UNL d   1      -1.058   1.004  -1.026  0.00  0.00     0.002 A 
ATOM      3  C4  UNL d   1      -2.093   0.583  -0.189  0.00  0.00     0.002 A 
ATOM      4  C5  UNL d   1      -2.262  -0.773   0.085  0.00  0.00    -0.004 A 
ATOM      5  C6  UNL d   1      -1.401  -1.711  -0.483  0.00  0.00     0.002 A 
ATOM      6  C7  UNL d   1      -0.366  -1.292  -1.321  0.00  0.00     0.002 A 
ENDROOT
BRANCH   1   7
ATOM      7  C1  UNL d   1       0.962   0.525  -2.464  0.00  0.00     0.055 C 
ATOM      8  C   UNL d   1       0.675   1.879  -3.095  0.00  0.00     0.019 C 
ENDBRANCH   1   7
TORSDOF 1
ENDMDL
