MODEL 1
REMARK minimizedAffinity 2.03611827
REMARK minimizedRMSD -1
REMARK  1 active torsions:
REMARK  status: ('A' for Active; 'I' for Inactive)
REMARK    1  A    between atoms: C1_2  and  C2_3 
ROOT
ATOM      1  C2  UNL d   1      -3.322  -0.435   1.360  0.00  0.00    -0.077 A 
ATOM      2  C3  UNL d   1      -4.281  -1.389   1.725  0.00  0.00     0.002 A 
ATOM      3  C4  UNL d   1      -4.440  -1.754   3.063  0.00  0.00     0.002 A 
ATOM      4  C5  UNL d   1      -3.645  -1.168   4.046  0.00  0.00    -0.004 A 
ATOM      5  C6  UNL d   1      -2.687  -0.219   3.693  0.00  0.00     0.002 A 
ATOM      6  C7  UNL d   1      -2.526   0.146   2.355  0.00  0.00     0.002 A 
ENDROOT
BRANCH   1   7
ATOM      7  C1  UNL d   1      -3.183  -0.003  -0.077  0.00  0.00     0.055 C 
ATOM      8  C   UNL d   1      -2.485   1.345  -0.185  0.00  0.00     0.019 C 
ENDBRANCH   1   7
TORSDOF 1
ENDMDL
