MODEL 1
REMARK minimizedAffinity 0.339442074
REMARK minimizedRMSD -1
REMARK  1 active torsions:
REMARK  status: ('A' for Active; 'I' for Inactive)
REMARK    1  A    between atoms: C1_2  and  C2_3 
ROOT
ATOM      1  C2  UNL d   1       5.732   3.479   3.682  0.00  0.00    -0.077 A 
ATOM      2  C3  UNL d   1       6.000   3.027   4.982  0.00  0.00     0.002 A 
ATOM      3  C4  UNL d   1       5.795   1.688   5.320  0.00  0.00     0.002 A 
ATOM      4  C5  UNL d   1       5.325   0.790   4.364  0.00  0.00    -0.004 A 
ATOM      5  C6  UNL d   1       5.055   1.230   3.069  0.00  0.00     0.002 A 
ATOM      6  C7  UNL d   1       5.258   2.568   2.729  0.00  0.00     0.002 A 
ENDROOT
BRANCH   1   7
ATOM      7  C1  UNL d   1       6.000   4.912   3.301  0.00  0.00     0.055 C 
ATOM      8  C   UNL d   1       5.997   5.819   4.523  0.00  0.00     0.019 C 
ENDBRANCH   1   7
TORSDOF 1
ENDMDL
