MODEL 1
REMARK minimizedAffinity 7.75850248
REMARK minimizedRMSD -1
REMARK  1 active torsions:
REMARK  status: ('A' for Active; 'I' for Inactive)
REMARK    1  A    between atoms: C1_2  and  C2_3 
ROOT
ATOM      1  C2  UNL d   1       4.712   2.273   2.957  0.00  0.00    -0.077 A 
ATOM      2  C3  UNL d   1       5.454   2.407   4.139  0.00  0.00     0.002 A 
ATOM      3  C4  UNL d   1       5.999   1.283   4.763  0.00  0.00     0.002 A 
ATOM      4  C5  UNL d   1       5.812   0.018   4.209  0.00  0.00    -0.004 A 
ATOM      5  C6  UNL d   1       5.075  -0.126   3.035  0.00  0.00     0.002 A 
ATOM      6  C7  UNL d   1       4.528   0.996   2.411  0.00  0.00     0.002 A 
ENDROOT
BRANCH   1   7
ATOM      7  C1  UNL d   1       4.165   3.489   2.257  0.00  0.00     0.055 C 
ATOM      8  C   UNL d   1       3.046   3.117   1.295  0.00  0.00     0.019 C 
ENDBRANCH   1   7
TORSDOF 1
ENDMDL
