MODEL 1
REMARK minimizedAffinity 4.51869011
REMARK minimizedRMSD -1
REMARK  1 active torsions:
REMARK  status: ('A' for Active; 'I' for Inactive)
REMARK    1  A    between atoms: C1_2  and  C2_3 
ROOT
ATOM      1  C2  UNL d   1       5.542   3.476   4.368  0.00  0.00    -0.077 A 
ATOM      2  C3  UNL d   1       4.621   3.425   3.311  0.00  0.00     0.002 A 
ATOM      3  C4  UNL d   1       4.167   2.196   2.830  0.00  0.00     0.002 A 
ATOM      4  C5  UNL d   1       4.624   1.010   3.401  0.00  0.00    -0.004 A 
ATOM      5  C6  UNL d   1       5.541   1.051   4.450  0.00  0.00     0.002 A 
ATOM      6  C7  UNL d   1       5.997   2.278   4.932  0.00  0.00     0.002 A 
ENDROOT
BRANCH   1   7
ATOM      7  C1  UNL d   1       5.995   4.802   4.921  0.00  0.00     0.055 C 
ATOM      8  C   UNL d   1       5.732   5.932   3.936  0.00  0.00     0.019 C 
ENDBRANCH   1   7
TORSDOF 1
ENDMDL
