MODEL 1
REMARK minimizedAffinity -5.71760035
REMARK minimizedRMSD -1
REMARK  1 active torsions:
REMARK  status: ('A' for Active; 'I' for Inactive)
REMARK    1  A    between atoms: C1_2  and  C2_3 
ROOT
ATOM      1  C2  UNL d   1      -3.962   4.017   3.545  0.00  0.00    -0.077 A 
ATOM      2  C3  UNL d   1      -3.420   4.035   2.252  0.00  0.00     0.002 A 
ATOM      3  C4  UNL d   1      -2.995   2.850   1.648  0.00  0.00     0.002 A 
ATOM      4  C5  UNL d   1      -3.112   1.640   2.327  0.00  0.00    -0.004 A 
ATOM      5  C6  UNL d   1      -3.647   1.612   3.614  0.00  0.00     0.002 A 
ATOM      6  C7  UNL d   1      -4.071   2.795   4.220  0.00  0.00     0.002 A 
ENDROOT
BRANCH   1   7
ATOM      7  C1  UNL d   1      -4.466   5.287   4.180  0.00  0.00     0.055 C 
ATOM      8  C   UNL d   1      -4.683   5.111   5.676  0.00  0.00     0.019 C 
ENDBRANCH   1   7
TORSDOF 1
ENDMDL
