MODEL 1
REMARK minimizedAffinity 1.45844901
REMARK minimizedRMSD -1
REMARK  1 active torsions:
REMARK  status: ('A' for Active; 'I' for Inactive)
REMARK    1  A    between atoms: C1_2  and  C2_3 
ROOT
ATOM      1  C2  UNL d   1      -2.865   1.188   1.868  0.00  0.00    -0.077 A 
ATOM      2  C3  UNL d   1      -3.203   0.517   0.684  0.00  0.00     0.002 A 
ATOM      3  C4  UNL d   1      -3.265   1.210  -0.526  0.00  0.00     0.002 A 
ATOM      4  C5  UNL d   1      -2.986   2.574  -0.565  0.00  0.00    -0.004 A 
ATOM      5  C6  UNL d   1      -2.651   3.250   0.607  0.00  0.00     0.002 A 
ATOM      6  C7  UNL d   1      -2.590   2.560   1.818  0.00  0.00     0.002 A 
ENDROOT
BRANCH   1   7
ATOM      7  C1  UNL d   1      -2.750   0.433   3.167  0.00  0.00     0.055 C 
ATOM      8  C   UNL d   1      -4.059  -0.255   3.525  0.00  0.00     0.019 C 
ENDBRANCH   1   7
TORSDOF 1
ENDMDL
