MODEL 1
REMARK minimizedAffinity 2.86411929
REMARK minimizedRMSD -1
REMARK  1 active torsions:
REMARK  status: ('A' for Active; 'I' for Inactive)
REMARK    1  A    between atoms: C1_2  and  C2_3 
ROOT
ATOM      1  C2  UNL d   1       3.859   3.347  -5.396  0.00  0.00    -0.077 A 
ATOM      2  C3  UNL d   1       3.500   2.134  -5.999  0.00  0.00     0.002 A 
ATOM      3  C4  UNL d   1       4.386   1.055  -5.996  0.00  0.00     0.002 A 
ATOM      4  C5  UNL d   1       5.634   1.177  -5.387  0.00  0.00    -0.004 A 
ATOM      5  C6  UNL d   1       6.000   2.381  -4.786  0.00  0.00     0.002 A 
ATOM      6  C7  UNL d   1       5.116   3.461  -4.790  0.00  0.00     0.002 A 
ENDROOT
BRANCH   1   7
ATOM      7  C1  UNL d   1       2.885   4.496  -5.356  0.00  0.00     0.055 C 
ATOM      8  C   UNL d   1       1.517   4.046  -4.866  0.00  0.00     0.019 C 
ENDBRANCH   1   7
TORSDOF 1
ENDMDL
