MODEL 1
REMARK minimizedAffinity 12.7688761
REMARK minimizedRMSD -1
REMARK  1 active torsions:
REMARK  status: ('A' for Active; 'I' for Inactive)
REMARK    1  A    between atoms: C3_4  and  O_7 
ROOT
ATOM      1  C   UNL d   1       2.521  -1.886   0.740  0.00  0.00    -0.033 A 
ATOM      2  C1  UNL d   1       2.625  -3.010   1.561  0.00  0.00     0.039 A 
ATOM      3  C2  UNL d   1       3.790  -3.780   1.549  0.00  0.00    -0.080 A 
ATOM      4  C3  UNL d   1       4.842  -3.414   0.713  0.00  0.00     0.150 A 
ATOM      5  C4  UNL d   1       4.746  -2.293  -0.105  0.00  0.00    -0.007 A 
ATOM      6  C5  UNL d   1       3.581  -1.526  -0.092  0.00  0.00     0.039 A 
ENDROOT
BRANCH   4   7
ATOM      7  O   UNL d   1       5.997  -4.136   0.663  0.00  0.00    -0.526 OA
ATOM      8  H5  UNL d   1       5.909  -4.899   1.259  0.00  0.00     0.418 HD
ENDBRANCH   4   7
TORSDOF 1
ENDMDL
