MODEL 1
REMARK minimizedAffinity 6.43967247
REMARK minimizedRMSD -1
REMARK  1 active torsions:
REMARK  status: ('A' for Active; 'I' for Inactive)
REMARK    1  A    between atoms: C3_4  and  O_7 
ROOT
ATOM      1  C   UNL d   1      -1.787  -4.752   0.405  0.00  0.00    -0.033 A 
ATOM      2  C1  UNL d   1      -0.835  -3.730   0.402  0.00  0.00     0.039 A 
ATOM      3  C2  UNL d   1       0.240  -3.779  -0.487  0.00  0.00    -0.080 A 
ATOM      4  C3  UNL d   1       0.352  -4.852  -1.366  0.00  0.00     0.150 A 
ATOM      5  C4  UNL d   1      -0.594  -5.871  -1.371  0.00  0.00    -0.007 A 
ATOM      6  C5  UNL d   1      -1.667  -5.822  -0.482  0.00  0.00     0.039 A 
ENDROOT
BRANCH   4   7
ATOM      7  O   UNL d   1       1.387  -4.945  -2.249  0.00  0.00    -0.526 OA
ATOM      8  H5  UNL d   1       1.978  -4.185  -2.112  0.00  0.00     0.418 HD
ENDBRANCH   4   7
TORSDOF 1
ENDMDL
