MODEL 1
REMARK minimizedAffinity 6.71382666
REMARK minimizedRMSD -1
REMARK  1 active torsions:
REMARK  status: ('A' for Active; 'I' for Inactive)
REMARK    1  A    between atoms: C3_4  and  O_7 
ROOT
ATOM      1  C   UNL d   1       1.869  -1.360   1.654  0.00  0.00    -0.033 A 
ATOM      2  C1  UNL d   1       2.110  -2.650   2.131  0.00  0.00     0.039 A 
ATOM      3  C2  UNL d   1       1.880  -2.954   3.475  0.00  0.00    -0.080 A 
ATOM      4  C3  UNL d   1       1.409  -1.961   4.329  0.00  0.00     0.150 A 
ATOM      5  C4  UNL d   1       1.163  -0.675   3.859  0.00  0.00    -0.007 A 
ATOM      6  C5  UNL d   1       1.394  -0.373   2.518  0.00  0.00     0.039 A 
ENDROOT
BRANCH   4   7
ATOM      7  O   UNL d   1       1.174  -2.208   5.649  0.00  0.00    -0.526 OA
ATOM      8  H5  UNL d   1       1.416  -3.130   5.837  0.00  0.00     0.418 HD
ENDBRANCH   4   7
TORSDOF 1
ENDMDL
