MODEL 1
REMARK minimizedAffinity 3.45020008
REMARK minimizedRMSD -1
REMARK  1 active torsions:
REMARK  status: ('A' for Active; 'I' for Inactive)
REMARK    1  A    between atoms: C3_4  and  O_7 
ROOT
ATOM      1  C   UNL d   1      -4.438   4.574  -4.093  0.00  0.00    -0.033 A 
ATOM      2  C1  UNL d   1      -4.705   4.218  -2.769  0.00  0.00     0.039 A 
ATOM      3  C2  UNL d   1      -4.350   2.952  -2.300  0.00  0.00    -0.080 A 
ATOM      4  C3  UNL d   1      -3.727   2.053  -3.162  0.00  0.00     0.150 A 
ATOM      5  C4  UNL d   1      -3.455   2.403  -4.480  0.00  0.00    -0.007 A 
ATOM      6  C5  UNL d   1      -3.811   3.667  -4.948  0.00  0.00     0.039 A 
ENDROOT
BRANCH   4   7
ATOM      7  O   UNL d   1      -3.366   0.805  -2.751  0.00  0.00    -0.526 OA
ATOM      8  H5  UNL d   1      -3.643   0.694  -1.826  0.00  0.00     0.418 HD
ENDBRANCH   4   7
TORSDOF 1
ENDMDL
