MODEL 1
REMARK minimizedAffinity 11.3065948
REMARK minimizedRMSD -1
REMARK  1 active torsions:
REMARK  status: ('A' for Active; 'I' for Inactive)
REMARK    1  A    between atoms: C3_4  and  O_7 
ROOT
ATOM      1  C   UNL d   1       1.876  -1.877   1.988  0.00  0.00    -0.033 A 
ATOM      2  C1  UNL d   1       1.246  -0.970   2.843  0.00  0.00     0.039 A 
ATOM      3  C2  UNL d   1       1.100  -1.272   4.198  0.00  0.00    -0.080 A 
ATOM      4  C3  UNL d   1       1.587  -2.482   4.685  0.00  0.00     0.150 A 
ATOM      5  C4  UNL d   1       2.219  -3.388   3.840  0.00  0.00    -0.007 A 
ATOM      6  C5  UNL d   1       2.364  -3.085   2.487  0.00  0.00     0.039 A 
ENDROOT
BRANCH   4   7
ATOM      7  O   UNL d   1       1.463  -2.822   6.000  0.00  0.00    -0.526 OA
ATOM      8  H5  UNL d   1       0.981  -2.113   6.457  0.00  0.00     0.418 HD
ENDBRANCH   4   7
TORSDOF 1
ENDMDL
