MODEL 1
REMARK minimizedAffinity 7.01747465
REMARK minimizedRMSD -1
REMARK  1 active torsions:
REMARK  status: ('A' for Active; 'I' for Inactive)
REMARK    1  A    between atoms: C3_4  and  O_7 
ROOT
ATOM      1  C   UNL d   1       2.145  -1.466   1.904  0.00  0.00    -0.033 A 
ATOM      2  C1  UNL d   1       1.535  -0.577   2.791  0.00  0.00     0.039 A 
ATOM      3  C2  UNL d   1       1.380  -0.925   4.134  0.00  0.00    -0.080 A 
ATOM      4  C3  UNL d   1       1.839  -2.162   4.577  0.00  0.00     0.150 A 
ATOM      5  C4  UNL d   1       2.452  -3.051   3.700  0.00  0.00    -0.007 A 
ATOM      6  C5  UNL d   1       2.605  -2.702   2.358  0.00  0.00     0.039 A 
ENDROOT
BRANCH   4   7
ATOM      7  O   UNL d   1       1.706  -2.548   5.878  0.00  0.00    -0.526 OA
ATOM      8  H5  UNL d   1       1.239  -1.846   6.361  0.00  0.00     0.418 HD
ENDBRANCH   4   7
TORSDOF 1
ENDMDL
