MODEL 1
REMARK minimizedAffinity 13.4029837
REMARK minimizedRMSD -1
REMARK  1 active torsions:
REMARK  status: ('A' for Active; 'I' for Inactive)
REMARK    1  A    between atoms: C3_4  and  O_7 
ROOT
ATOM      1  C   UNL d   1       1.866  -4.875  -1.039  0.00  0.00    -0.033 A 
ATOM      2  C1  UNL d   1       0.892  -4.875  -2.039  0.00  0.00     0.039 A 
ATOM      3  C2  UNL d   1      -0.452  -4.687  -1.707  0.00  0.00    -0.080 A 
ATOM      4  C3  UNL d   1      -0.806  -4.500  -0.373  0.00  0.00     0.150 A 
ATOM      5  C4  UNL d   1       0.161  -4.495   0.627  0.00  0.00    -0.007 A 
ATOM      6  C5  UNL d   1       1.501  -4.684   0.293  0.00  0.00     0.039 A 
ENDROOT
BRANCH   4   7
ATOM      7  O   UNL d   1      -2.104  -4.318  -0.000  0.00  0.00    -0.526 OA
ATOM      8  H5  UNL d   1      -2.663  -4.374  -0.793  0.00  0.00     0.418 HD
ENDBRANCH   4   7
TORSDOF 1
ENDMDL
