MODEL 1
REMARK minimizedAffinity 7.18036747
REMARK minimizedRMSD -1
REMARK  1 active torsions:
REMARK  status: ('A' for Active; 'I' for Inactive)
REMARK    1  A    between atoms: C3_4  and  O_7 
ROOT
ATOM      1  C   UNL d   1       1.273  -4.887  -0.938  0.00  0.00    -0.033 A 
ATOM      2  C1  UNL d   1       0.931  -4.671   0.399  0.00  0.00     0.039 A 
ATOM      3  C2  UNL d   1      -0.412  -4.570   0.770  0.00  0.00    -0.080 A 
ATOM      4  C3  UNL d   1      -1.400  -4.688  -0.203  0.00  0.00     0.150 A 
ATOM      5  C4  UNL d   1      -1.067  -4.908  -1.535  0.00  0.00    -0.007 A 
ATOM      6  C5  UNL d   1       0.274  -5.007  -1.904  0.00  0.00     0.039 A 
ENDROOT
BRANCH   4   7
ATOM      7  O   UNL d   1      -2.724  -4.592   0.111  0.00  0.00    -0.526 OA
ATOM      8  H5  UNL d   1      -2.802  -4.411   1.063  0.00  0.00     0.418 HD
ENDBRANCH   4   7
TORSDOF 1
ENDMDL
