MODEL 1
REMARK minimizedAffinity 1.0067184
REMARK minimizedRMSD -1
REMARK  1 active torsions:
REMARK  status: ('A' for Active; 'I' for Inactive)
REMARK    1  A    between atoms: C3_4  and  O_7 
ROOT
ATOM      1  C   UNL d   1      -4.466   5.538  -3.748  0.00  0.00    -0.033 A 
ATOM      2  C1  UNL d   1      -3.695   4.936  -4.744  0.00  0.00     0.039 A 
ATOM      3  C2  UNL d   1      -3.376   3.579  -4.658  0.00  0.00    -0.080 A 
ATOM      4  C3  UNL d   1      -3.835   2.837  -3.573  0.00  0.00     0.150 A 
ATOM      5  C4  UNL d   1      -4.607   3.429  -2.580  0.00  0.00    -0.007 A 
ATOM      6  C5  UNL d   1      -4.924   4.784  -2.666  0.00  0.00     0.039 A 
ENDROOT
BRANCH   4   7
ATOM      7  O   UNL d   1      -3.545   1.511  -3.444  0.00  0.00    -0.526 OA
ATOM      8  H5  UNL d   1      -2.980   1.245  -4.189  0.00  0.00     0.418 HD
ENDBRANCH   4   7
TORSDOF 1
ENDMDL
