MODEL 1
REMARK minimizedAffinity 10.945426
REMARK minimizedRMSD -1
REMARK  1 active torsions:
REMARK  status: ('A' for Active; 'I' for Inactive)
REMARK    1  A    between atoms: C3_4  and  O_7 
ROOT
ATOM      1  C   UNL d   1       2.403  -1.959   0.746  0.00  0.00    -0.033 A 
ATOM      2  C1  UNL d   1       2.410  -2.950   1.730  0.00  0.00     0.039 A 
ATOM      3  C2  UNL d   1       1.880  -2.684   2.994  0.00  0.00    -0.080 A 
ATOM      4  C3  UNL d   1       1.345  -1.427   3.260  0.00  0.00     0.150 A 
ATOM      5  C4  UNL d   1       1.331  -0.437   2.283  0.00  0.00    -0.007 A 
ATOM      6  C5  UNL d   1       1.862  -0.704   1.022  0.00  0.00     0.039 A 
ENDROOT
BRANCH   4   7
ATOM      7  O   UNL d   1       0.820  -1.120   4.480  0.00  0.00    -0.526 OA
ATOM      8  H5  UNL d   1       0.924  -1.890   5.063  0.00  0.00     0.418 HD
ENDBRANCH   4   7
TORSDOF 1
ENDMDL
