MODEL 1
REMARK minimizedAffinity 13.4445591
REMARK minimizedRMSD -1
REMARK  1 active torsions:
REMARK  status: ('A' for Active; 'I' for Inactive)
REMARK    1  A    between atoms: C3_4  and  O_7 
ROOT
ATOM      1  C   UNL d   1       2.019  -3.315   5.999  0.00  0.00    -0.033 A 
ATOM      2  C1  UNL d   1       2.588  -3.752   4.801  0.00  0.00     0.039 A 
ATOM      3  C2  UNL d   1       2.270  -3.113   3.601  0.00  0.00    -0.080 A 
ATOM      4  C3  UNL d   1       1.384  -2.039   3.613  0.00  0.00     0.150 A 
ATOM      5  C4  UNL d   1       0.817  -1.596   4.803  0.00  0.00    -0.007 A 
ATOM      6  C5  UNL d   1       1.135  -2.236   6.000  0.00  0.00     0.039 A 
ENDROOT
BRANCH   4   7
ATOM      7  O   UNL d   1       1.040  -1.387   2.466  0.00  0.00    -0.526 OA
ATOM      8  H5  UNL d   1       1.486  -1.821   1.719  0.00  0.00     0.418 HD
ENDBRANCH   4   7
TORSDOF 1
ENDMDL
