MODEL 1
REMARK minimizedAffinity 2.22239852
REMARK minimizedRMSD -1
REMARK  0 active torsions:
REMARK  status: ('A' for Active; 'I' for Inactive)
ROOT
ATOM      1  C   UNL d   1      -1.315   4.154   1.418  0.00  0.00     0.023 A 
ATOM      2  C1  UNL d   1      -2.434   3.373   1.127  0.00  0.00     0.003 A 
ATOM      3  C2  UNL d   1      -3.639   3.601   1.795  0.00  0.00     0.048 A 
ATOM      4  C3  UNL d   1      -3.719   4.613   2.751  0.00  0.00     0.023 A 
ATOM      5  C4  UNL d   1      -2.603   5.397   3.045  0.00  0.00     0.048 A 
ATOM      6  C5  UNL d   1      -1.400   5.165   2.376  0.00  0.00     0.003 A 
ATOM      7  I   UNL d   1      -5.512   4.955   3.745  0.00  0.00    -0.146 I 
ENDROOT
TORSDOF 0
ENDMDL
