MODEL 1
REMARK minimizedAffinity 9.3782444
REMARK minimizedRMSD -1
REMARK  0 active torsions:
REMARK  status: ('A' for Active; 'I' for Inactive)
ROOT
ATOM      1  C   UNL d   1       4.517   1.595  -0.611  0.00  0.00     0.023 A 
ATOM      2  C1  UNL d   1       4.930   0.634  -1.534  0.00  0.00     0.003 A 
ATOM      3  C2  UNL d   1       4.213  -0.556  -1.674  0.00  0.00     0.048 A 
ATOM      4  C3  UNL d   1       3.083  -0.779  -0.887  0.00  0.00     0.023 A 
ATOM      5  C4  UNL d   1       2.666   0.180   0.038  0.00  0.00     0.048 A 
ATOM      6  C5  UNL d   1       3.386   1.368   0.174  0.00  0.00     0.003 A 
ATOM      7  I   UNL d   1       2.015  -2.549  -1.093  0.00  0.00    -0.146 I 
ENDROOT
TORSDOF 0
ENDMDL
