MODEL 1
REMARK minimizedAffinity 4.27727413
REMARK minimizedRMSD -1
REMARK  0 active torsions:
REMARK  status: ('A' for Active; 'I' for Inactive)
ROOT
ATOM      1  C   UNL d   1       5.374   1.630  -0.800  0.00  0.00     0.023 A 
ATOM      2  C1  UNL d   1       6.000   0.384  -0.802  0.00  0.00     0.003 A 
ATOM      3  C2  UNL d   1       5.234  -0.784  -0.791  0.00  0.00     0.048 A 
ATOM      4  C3  UNL d   1       3.842  -0.697  -0.779  0.00  0.00     0.023 A 
ATOM      5  C4  UNL d   1       3.211   0.548  -0.777  0.00  0.00     0.048 A 
ATOM      6  C5  UNL d   1       3.982   1.713  -0.787  0.00  0.00     0.003 A 
ATOM      7  I   UNL d   1       2.699  -2.433  -0.763  0.00  0.00    -0.146 I 
ENDROOT
TORSDOF 0
ENDMDL
