MODEL 1
REMARK minimizedAffinity 7.23194456
REMARK minimizedRMSD -1
REMARK  0 active torsions:
REMARK  status: ('A' for Active; 'I' for Inactive)
ROOT
ATOM      1  C   UNL d   1      -1.535   2.165   0.814  0.00  0.00     0.023 A 
ATOM      2  C1  UNL d   1      -1.189   3.449   1.237  0.00  0.00     0.003 A 
ATOM      3  C2  UNL d   1       0.012   3.662   1.915  0.00  0.00     0.048 A 
ATOM      4  C3  UNL d   1       0.865   2.588   2.166  0.00  0.00     0.023 A 
ATOM      5  C4  UNL d   1       0.524   1.302   1.744  0.00  0.00     0.048 A 
ATOM      6  C5  UNL d   1      -0.679   1.093   1.068  0.00  0.00     0.003 A 
ATOM      7  I   UNL d   1       2.654   2.903   3.175  0.00  0.00    -0.146 I 
ENDROOT
TORSDOF 0
ENDMDL
