MODEL 1
REMARK minimizedAffinity 2.37869525
REMARK minimizedRMSD -1
REMARK  0 active torsions:
REMARK  status: ('A' for Active; 'I' for Inactive)
ROOT
ATOM      1  C   UNL d   1       4.359  -0.017  -0.366  0.00  0.00     0.023 A 
ATOM      2  C1  UNL d   1       4.786   0.752   0.716  0.00  0.00     0.003 A 
ATOM      3  C2  UNL d   1       5.257   2.050   0.510  0.00  0.00     0.048 A 
ATOM      4  C3  UNL d   1       5.295   2.574  -0.782  0.00  0.00     0.023 A 
ATOM      5  C4  UNL d   1       4.868   1.809  -1.868  0.00  0.00     0.048 A 
ATOM      6  C5  UNL d   1       4.399   0.510  -1.657  0.00  0.00     0.003 A 
ATOM      7  I   UNL d   1       5.995   4.506  -1.092  0.00  0.00    -0.146 I 
ENDROOT
TORSDOF 0
ENDMDL
