MODEL 1
REMARK minimizedAffinity 7.37042809
REMARK minimizedRMSD -1
REMARK  0 active torsions:
REMARK  status: ('A' for Active; 'I' for Inactive)
ROOT
ATOM      1  C   UNL d   1       5.883   5.705  -0.202  0.00  0.00     0.023 A 
ATOM      2  C1  UNL d   1       5.621   5.217  -1.482  0.00  0.00     0.003 A 
ATOM      3  C2  UNL d   1       5.195   3.899  -1.654  0.00  0.00     0.048 A 
ATOM      4  C3  UNL d   1       5.031   3.074  -0.542  0.00  0.00     0.023 A 
ATOM      5  C4  UNL d   1       5.292   3.558   0.741  0.00  0.00     0.048 A 
ATOM      6  C5  UNL d   1       5.719   4.877   0.908  0.00  0.00     0.003 A 
ATOM      7  I   UNL d   1       4.396   1.111  -0.795  0.00  0.00    -0.146 I 
ENDROOT
TORSDOF 0
ENDMDL
