MODEL 1
REMARK minimizedAffinity 3.30209279
REMARK minimizedRMSD -1
REMARK  0 active torsions:
REMARK  status: ('A' for Active; 'I' for Inactive)
ROOT
ATOM      1  C   UNL d   1       0.747  -1.451   3.606  0.00  0.00     0.023 A 
ATOM      2  C1  UNL d   1      -0.013  -2.479   3.048  0.00  0.00     0.003 A 
ATOM      3  C2  UNL d   1      -0.165  -3.687   3.731  0.00  0.00     0.048 A 
ATOM      4  C3  UNL d   1       0.445  -3.861   4.973  0.00  0.00     0.023 A 
ATOM      5  C4  UNL d   1       1.206  -2.835   5.536  0.00  0.00     0.048 A 
ATOM      6  C5  UNL d   1       1.356  -1.629   4.849  0.00  0.00     0.003 A 
ATOM      7  I   UNL d   1       0.221  -5.658   5.992  0.00  0.00    -0.146 I 
ENDROOT
TORSDOF 0
ENDMDL
