MODEL 1
REMARK minimizedAffinity -2.01077938
REMARK minimizedRMSD -1
REMARK  3 active torsions:
REMARK  status: ('A' for Active; 'I' for Inactive)
REMARK    1  A    between atoms: C3'_2  and  C2'_3 
REMARK    2  A    between atoms: C2'_3  and  C1'_4 
REMARK    3  A    between atoms: C1'_4  and  C1_5 
ROOT
ATOM      1  C1  N4B d   1       0.371   2.194   0.262  0.00  0.00    -0.075 A 
ATOM      2  C2  N4B d   1       0.214   3.313   1.109  0.00  0.00     0.002 A 
ATOM      3  C3  N4B d   1       1.286   4.128   1.376  0.00  0.00     0.002 A 
ATOM      4  C4  N4B d   1       2.525   3.834   0.826  0.00  0.00    -0.004 A 
ATOM      5  C5  N4B d   1       2.663   2.766  -0.012  0.00  0.00     0.002 A 
ATOM      6  C6  N4B d   1       1.592   1.941  -0.293  0.00  0.00     0.002 A 
ENDROOT
BRANCH   1   7
ATOM      7  C1' N4B d   1      -0.752   1.225   0.009  0.00  0.00     0.057 C 
BRANCH   7   8
ATOM      8  C2' N4B d   1      -0.192  -0.194  -0.020  0.00  0.00     0.009 C 
BRANCH   8   9
ATOM      9  C3' N4B d   1      -0.774  -1.057   1.086  0.00  0.00     0.004 C 
ATOM     10  C4' N4B d   1      -0.860  -2.506   0.708  0.00  0.00     0.003 C 
ENDBRANCH   8   9
ENDBRANCH   7   8
ENDBRANCH   1   7
TORSDOF 3
ENDMDL
