MODEL 1
REMARK minimizedAffinity -2.97905064
REMARK minimizedRMSD -1
REMARK  3 active torsions:
REMARK  status: ('A' for Active; 'I' for Inactive)
REMARK    1  A    between atoms: C3'_2  and  C2'_3 
REMARK    2  A    between atoms: C2'_3  and  C1'_4 
REMARK    3  A    between atoms: C1'_4  and  C1_5 
ROOT
ATOM      1  C1  N4B d   1      -0.037   0.475   0.034  0.00  0.00    -0.075 A 
ATOM      2  C2  N4B d   1       0.435  -0.290  -1.055  0.00  0.00     0.002 A 
ATOM      3  C3  N4B d   1       0.232  -1.648  -1.080  0.00  0.00     0.002 A 
ATOM      4  C4  N4B d   1      -0.420  -2.263  -0.022  0.00  0.00    -0.004 A 
ATOM      5  C5  N4B d   1      -0.895  -1.514   1.014  0.00  0.00     0.002 A 
ATOM      6  C6  N4B d   1      -0.703  -0.148   1.050  0.00  0.00     0.002 A 
ENDROOT
BRANCH   1   7
ATOM      7  C1' N4B d   1       0.235   1.950   0.147  0.00  0.00     0.057 C 
BRANCH   7   8
ATOM      8  C2' N4B d   1       1.728   2.199  -0.049  0.00  0.00     0.009 C 
BRANCH   8   9
ATOM      9  C3' N4B d   1       2.227   3.354   0.802  0.00  0.00     0.004 C 
ATOM     10  C4' N4B d   1       1.317   3.664   1.952  0.00  0.00     0.003 C 
ENDBRANCH   8   9
ENDBRANCH   7   8
ENDBRANCH   1   7
TORSDOF 3
ENDMDL
