MODEL 1
REMARK minimizedAffinity -2.27515793
REMARK minimizedRMSD -1
REMARK  3 active torsions:
REMARK  status: ('A' for Active; 'I' for Inactive)
REMARK    1  A    between atoms: C3'_2  and  C2'_3 
REMARK    2  A    between atoms: C2'_3  and  C1'_4 
REMARK    3  A    between atoms: C1'_4  and  C1_5 
ROOT
ATOM      1  C1  N4B d   1      -0.145   0.012  -0.341  0.00  0.00    -0.075 A 
ATOM      2  C2  N4B d   1       0.030  -1.382  -0.480  0.00  0.00     0.002 A 
ATOM      3  C3  N4B d   1      -0.747  -2.248   0.250  0.00  0.00     0.002 A 
ATOM      4  C4  N4B d   1      -1.688  -1.745   1.135  0.00  0.00    -0.004 A 
ATOM      5  C5  N4B d   1      -1.869  -0.397   1.245  0.00  0.00     0.002 A 
ATOM      6  C6  N4B d   1      -1.098   0.485   0.515  0.00  0.00     0.002 A 
ENDROOT
BRANCH   1   7
ATOM      7  C1' N4B d   1       0.739   0.999  -1.054  0.00  0.00     0.057 C 
BRANCH   7   8
ATOM      8  C2' N4B d   1       1.829   1.476  -0.098  0.00  0.00     0.009 C 
BRANCH   8   9
ATOM      9  C3' N4B d   1       1.581   2.896   0.382  0.00  0.00     0.004 C 
ATOM     10  C4' N4B d   1       2.397   3.252   1.589  0.00  0.00     0.003 C 
ENDBRANCH   8   9
ENDBRANCH   7   8
ENDBRANCH   1   7
TORSDOF 3
ENDMDL
