MODEL 1
REMARK minimizedAffinity -3.86712384
REMARK minimizedRMSD -1
REMARK  3 active torsions:
REMARK  status: ('A' for Active; 'I' for Inactive)
REMARK    1  A    between atoms: C3'_2  and  C2'_3 
REMARK    2  A    between atoms: C2'_3  and  C1'_4 
REMARK    3  A    between atoms: C1'_4  and  C1_5 
ROOT
ATOM      1  C1  N4B d   1      -0.323   0.168  -0.088  0.00  0.00    -0.075 A 
ATOM      2  C2  N4B d   1      -0.785  -0.622   0.987  0.00  0.00     0.002 A 
ATOM      3  C3  N4B d   1      -0.777  -1.992   0.885  0.00  0.00     0.002 A 
ATOM      4  C4  N4B d   1      -0.332  -2.590  -0.285  0.00  0.00    -0.004 A 
ATOM      5  C5  N4B d   1       0.137  -1.820  -1.309  0.00  0.00     0.002 A 
ATOM      6  C6  N4B d   1       0.139  -0.442  -1.218  0.00  0.00     0.002 A 
ENDROOT
BRANCH   1   7
ATOM      7  C1' N4B d   1      -0.392   1.671  -0.056  0.00  0.00     0.057 C 
BRANCH   7   8
ATOM      8  C2' N4B d   1       1.011   2.232   0.156  0.00  0.00     0.009 C 
BRANCH   8   9
ATOM      9  C3' N4B d   1       0.980   3.627   0.756  0.00  0.00     0.004 C 
ATOM     10  C4' N4B d   1       1.817   3.745   1.995  0.00  0.00     0.003 C 
ENDBRANCH   8   9
ENDBRANCH   7   8
ENDBRANCH   1   7
TORSDOF 3
ENDMDL
