MODEL 1
REMARK minimizedAffinity -3.71721029
REMARK minimizedRMSD -1
REMARK  3 active torsions:
REMARK  status: ('A' for Active; 'I' for Inactive)
REMARK    1  A    between atoms: C3'_2  and  C2'_3 
REMARK    2  A    between atoms: C2'_3  and  C1'_4 
REMARK    3  A    between atoms: C1'_4  and  C1_5 
ROOT
ATOM      1  C1  N4B d   1       0.792   1.678   0.427  0.00  0.00    -0.075 A 
ATOM      2  C2  N4B d   1       0.002   2.757   0.881  0.00  0.00     0.002 A 
ATOM      3  C3  N4B d   1       0.595   3.950   1.214  0.00  0.00     0.002 A 
ATOM      4  C4  N4B d   1       1.972   4.081   1.120  0.00  0.00    -0.004 A 
ATOM      5  C5  N4B d   1       2.726   3.042   0.656  0.00  0.00     0.002 A 
ATOM      6  C6  N4B d   1       2.142   1.839   0.313  0.00  0.00     0.002 A 
ENDROOT
BRANCH   1   7
ATOM      7  C1' N4B d   1       0.198   0.328   0.133  0.00  0.00     0.057 C 
BRANCH   7   8
ATOM      8  C2' N4B d   1      -0.783  -0.041   1.242  0.00  0.00     0.009 C 
BRANCH   8   9
ATOM      9  C3' N4B d   1      -0.774  -1.531   1.536  0.00  0.00     0.004 C 
ATOM     10  C4' N4B d   1      -0.558  -2.364   0.308  0.00  0.00     0.003 C 
ENDBRANCH   8   9
ENDBRANCH   7   8
ENDBRANCH   1   7
TORSDOF 3
ENDMDL
