MODEL 1
REMARK minimizedAffinity 0.267422467
REMARK minimizedRMSD -1
REMARK  3 active torsions:
REMARK  status: ('A' for Active; 'I' for Inactive)
REMARK    1  A    between atoms: C3'_2  and  C2'_3 
REMARK    2  A    between atoms: C2'_3  and  C1'_4 
REMARK    3  A    between atoms: C1'_4  and  C1_5 
ROOT
ATOM      1  C1  N4B d   1      -0.075   0.817   0.018  0.00  0.00    -0.075 A 
ATOM      2  C2  N4B d   1      -0.743   0.480   1.217  0.00  0.00     0.002 A 
ATOM      3  C3  N4B d   1      -1.006  -0.835   1.510  0.00  0.00     0.002 A 
ATOM      4  C4  N4B d   1      -0.630  -1.826   0.615  0.00  0.00    -0.004 A 
ATOM      5  C5  N4B d   1       0.037  -1.494  -0.528  0.00  0.00     0.002 A 
ATOM      6  C6  N4B d   1       0.311  -0.177  -0.834  0.00  0.00     0.002 A 
ENDROOT
BRANCH   1   7
ATOM      7  C1' N4B d   1       0.158   2.247  -0.386  0.00  0.00     0.057 C 
BRANCH   7   8
ATOM      8  C2' N4B d   1       0.857   2.982   0.754  0.00  0.00     0.009 C 
BRANCH   8   9
ATOM      9  C3' N4B d   1      -0.030   4.049   1.371  0.00  0.00     0.004 C 
ATOM     10  C4' N4B d   1       0.536   4.612   2.640  0.00  0.00     0.003 C 
ENDBRANCH   8   9
ENDBRANCH   7   8
ENDBRANCH   1   7
TORSDOF 3
ENDMDL
