MODEL 1
REMARK minimizedAffinity -2.89211297
REMARK minimizedRMSD -1
REMARK  3 active torsions:
REMARK  status: ('A' for Active; 'I' for Inactive)
REMARK    1  A    between atoms: C3'_2  and  C2'_3 
REMARK    2  A    between atoms: C2'_3  and  C1'_4 
REMARK    3  A    between atoms: C1'_4  and  C1_5 
ROOT
ATOM      1  C1  N4B d   1      -0.464  -0.164   0.650  0.00  0.00    -0.075 A 
ATOM      2  C2  N4B d   1      -1.742   0.180   1.141  0.00  0.00     0.002 A 
ATOM      3  C3  N4B d   1      -2.682  -0.799   1.353  0.00  0.00     0.002 A 
ATOM      4  C4  N4B d   1      -2.374  -2.120   1.064  0.00  0.00    -0.004 A 
ATOM      5  C5  N4B d   1      -1.129  -2.447   0.614  0.00  0.00     0.002 A 
ATOM      6  C6  N4B d   1      -0.173  -1.474   0.400  0.00  0.00     0.002 A 
ENDROOT
BRANCH   1   7
ATOM      7  C1' N4B d   1       0.568   0.880   0.321  0.00  0.00     0.057 C 
BRANCH   7   8
ATOM      8  C2' N4B d   1      -0.137   2.155  -0.132  0.00  0.00     0.009 C 
BRANCH   8   9
ATOM      9  C3' N4B d   1       0.643   3.402   0.248  0.00  0.00     0.004 C 
ATOM     10  C4' N4B d   1       1.873   3.095   1.050  0.00  0.00     0.003 C 
ENDBRANCH   8   9
ENDBRANCH   7   8
ENDBRANCH   1   7
TORSDOF 3
ENDMDL
