MODEL 1
REMARK minimizedAffinity -4.97333813
REMARK minimizedRMSD -1
REMARK  3 active torsions:
REMARK  status: ('A' for Active; 'I' for Inactive)
REMARK    1  A    between atoms: C3'_2  and  C2'_3 
REMARK    2  A    between atoms: C2'_3  and  C1'_4 
REMARK    3  A    between atoms: C1'_4  and  C1_5 
ROOT
ATOM      1  C1  N4B d   1      -0.056   0.292  -0.419  0.00  0.00    -0.075 A 
ATOM      2  C2  N4B d   1       0.335  -0.539  -1.492  0.00  0.00     0.002 A 
ATOM      3  C3  N4B d   1       0.148  -1.897  -1.412  0.00  0.00     0.002 A 
ATOM      4  C4  N4B d   1      -0.407  -2.447  -0.267  0.00  0.00    -0.004 A 
ATOM      5  C5  N4B d   1      -0.805  -1.635   0.755  0.00  0.00     0.002 A 
ATOM      6  C6  N4B d   1      -0.627  -0.268   0.687  0.00  0.00     0.002 A 
ENDROOT
BRANCH   1   7
ATOM      7  C1' N4B d   1       0.207   1.773  -0.425  0.00  0.00     0.057 C 
BRANCH   7   8
ATOM      8  C2' N4B d   1       1.709   2.015  -0.544  0.00  0.00     0.009 C 
BRANCH   8   9
ATOM      9  C3' N4B d   1       2.149   3.248   0.226  0.00  0.00     0.004 C 
ATOM     10  C4' N4B d   1       0.995   4.021   0.794  0.00  0.00     0.003 C 
ENDBRANCH   8   9
ENDBRANCH   7   8
ENDBRANCH   1   7
TORSDOF 3
ENDMDL
