MODEL 1
REMARK minimizedAffinity -5.11128092
REMARK minimizedRMSD -1
REMARK  3 active torsions:
REMARK  status: ('A' for Active; 'I' for Inactive)
REMARK    1  A    between atoms: C3'_2  and  C2'_3 
REMARK    2  A    between atoms: C2'_3  and  C1'_4 
REMARK    3  A    between atoms: C1'_4  and  C1_5 
ROOT
ATOM      1  C1  N4B d   1       0.544  -1.322  -2.292  0.00  0.00    -0.075 A 
ATOM      2  C2  N4B d   1       0.024  -2.002  -1.169  0.00  0.00     0.002 A 
ATOM      3  C3  N4B d   1      -0.417  -1.291  -0.080  0.00  0.00     0.002 A 
ATOM      4  C4  N4B d   1      -0.332   0.093  -0.083  0.00  0.00    -0.004 A 
ATOM      5  C5  N4B d   1       0.148   0.743  -1.182  0.00  0.00     0.002 A 
ATOM      6  C6  N4B d   1       0.592   0.042  -2.285  0.00  0.00     0.002 A 
ENDROOT
BRANCH   1   7
ATOM      7  C1' N4B d   1       1.119  -2.059  -3.471  0.00  0.00     0.057 C 
BRANCH   7   8
ATOM      8  C2' N4B d   1       2.408  -2.756  -3.046  0.00  0.00     0.009 C 
BRANCH   8   9
ATOM      9  C3' N4B d   1       3.117  -3.405  -4.222  0.00  0.00     0.004 C 
ATOM     10  C4' N4B d   1       2.390  -4.606  -4.749  0.00  0.00     0.003 C 
ENDBRANCH   8   9
ENDBRANCH   7   8
ENDBRANCH   1   7
TORSDOF 3
ENDMDL
