MODEL 1
REMARK minimizedAffinity 8.27075386
REMARK minimizedRMSD -1
REMARK  2 active torsions:
REMARK  status: ('A' for Active; 'I' for Inactive)
REMARK    1  A    between atoms: C2'_3  and  C1'_4 
REMARK    2  A    between atoms: C1'_4  and  C1_5 
ROOT
ATOM      1  C1  I4B d   1       3.469   2.627   1.882  0.00  0.00    -0.075 A 
ATOM      2  C2  I4B d   1       2.998   1.975   0.770  0.00  0.00     0.003 A 
ATOM      3  C3  I4B d   1       1.605   1.812   0.575  0.00  0.00     0.002 A 
ATOM      4  C4  I4B d   1       0.726   2.270   1.535  0.00  0.00    -0.004 A 
ATOM      5  C5  I4B d   1       1.205   2.952   2.651  0.00  0.00     0.002 A 
ATOM      6  C6  I4B d   1       2.584   3.142   2.820  0.00  0.00     0.003 A 
ENDROOT
BRANCH   1   7
ATOM      7  C1' I4B d   1       4.947   2.752   2.072  0.00  0.00     0.060 C 
BRANCH   7   8
ATOM      8  C2' I4B d   1       5.232   4.136   2.618  0.00  0.00    -0.013 C 
ATOM      9  C4' I4B d   1       5.998   4.064   3.913  0.00  0.00     0.013 C 
ATOM     10  C3' I4B d   1       5.999   4.896   1.577  0.00  0.00     0.013 C 
ENDBRANCH   7   8
ENDBRANCH   1   7
TORSDOF 2
ENDMDL
