MODEL 1
REMARK minimizedAffinity 5.72018528
REMARK minimizedRMSD -1
REMARK  2 active torsions:
REMARK  status: ('A' for Active; 'I' for Inactive)
REMARK    1  A    between atoms: C2'_3  and  C1'_4 
REMARK    2  A    between atoms: C1'_4  and  C1_5 
ROOT
ATOM      1  C1  I4B d   1       0.862   0.427   0.277  0.00  0.00    -0.075 A 
ATOM      2  C2  I4B d   1      -0.081  -0.261  -0.445  0.00  0.00     0.003 A 
ATOM      3  C3  I4B d   1       0.314  -1.106  -1.511  0.00  0.00     0.002 A 
ATOM      4  C4  I4B d   1       1.649  -1.193  -1.850  0.00  0.00    -0.004 A 
ATOM      5  C5  I4B d   1       2.605  -0.513  -1.102  0.00  0.00     0.002 A 
ATOM      6  C6  I4B d   1       2.211   0.292  -0.024  0.00  0.00     0.003 A 
ENDROOT
BRANCH   1   7
ATOM      7  C1' I4B d   1       0.407   1.335   1.375  0.00  0.00     0.060 C 
BRANCH   7   8
ATOM      8  C2' I4B d   1       1.351   2.520   1.421  0.00  0.00    -0.013 C 
ATOM      9  C4' I4B d   1       1.454   3.188   0.075  0.00  0.00     0.013 C 
ATOM     10  C3' I4B d   1       0.845   3.474   2.462  0.00  0.00     0.013 C 
ENDBRANCH   7   8
ENDBRANCH   1   7
TORSDOF 2
ENDMDL
