MODEL 1
REMARK minimizedAffinity 7.33727121
REMARK minimizedRMSD -1
REMARK  2 active torsions:
REMARK  status: ('A' for Active; 'I' for Inactive)
REMARK    1  A    between atoms: C2'_3  and  C1'_4 
REMARK    2  A    between atoms: C1'_4  and  C1_5 
ROOT
ATOM      1  C1  I4B d   1       0.647  -0.742  -1.813  0.00  0.00    -0.075 A 
ATOM      2  C2  I4B d   1       0.314   0.269  -0.947  0.00  0.00     0.003 A 
ATOM      3  C3  I4B d   1      -0.339  -0.025   0.274  0.00  0.00     0.002 A 
ATOM      4  C4  I4B d   1      -0.682  -1.330   0.565  0.00  0.00    -0.004 A 
ATOM      5  C5  I4B d   1      -0.323  -2.356  -0.304  0.00  0.00     0.002 A 
ATOM      6  C6  I4B d   1       0.357  -2.063  -1.495  0.00  0.00     0.003 A 
ENDROOT
BRANCH   1   7
ATOM      7  C1' I4B d   1       1.306  -0.393  -3.110  0.00  0.00     0.060 C 
BRANCH   7   8
ATOM      8  C2' I4B d   1       2.178   0.825  -2.877  0.00  0.00    -0.013 C 
ATOM      9  C4' I4B d   1       3.374   0.484  -2.028  0.00  0.00     0.013 C 
ATOM     10  C3' I4B d   1       2.597   1.356  -4.215  0.00  0.00     0.013 C 
ENDBRANCH   7   8
ENDBRANCH   1   7
TORSDOF 2
ENDMDL
