MODEL 1
REMARK minimizedAffinity 10.143714
REMARK minimizedRMSD -1
REMARK  2 active torsions:
REMARK  status: ('A' for Active; 'I' for Inactive)
REMARK    1  A    between atoms: C2'_3  and  C1'_4 
REMARK    2  A    between atoms: C1'_4  and  C1_5 
ROOT
ATOM      1  C1  I4B d   1       3.583   3.375   3.820  0.00  0.00    -0.075 A 
ATOM      2  C2  I4B d   1       4.769   2.735   4.082  0.00  0.00     0.003 A 
ATOM      3  C3  I4B d   1       6.000   3.406   3.882  0.00  0.00     0.002 A 
ATOM      4  C4  I4B d   1       6.000   4.689   3.373  0.00  0.00    -0.004 A 
ATOM      5  C5  I4B d   1       4.796   5.343   3.130  0.00  0.00     0.002 A 
ATOM      6  C6  I4B d   1       3.579   4.687   3.366  0.00  0.00     0.003 A 
ENDROOT
BRANCH   1   7
ATOM      7  C1' I4B d   1       2.303   2.625   4.012  0.00  0.00     0.060 C 
BRANCH   7   8
ATOM      8  C2' I4B d   1       2.192   1.598   2.904  0.00  0.00    -0.013 C 
ATOM      9  C4' I4B d   1       1.495   0.352   3.383  0.00  0.00     0.013 C 
ATOM     10  C3' I4B d   1       1.453   2.228   1.761  0.00  0.00     0.013 C 
ENDBRANCH   7   8
ENDBRANCH   1   7
TORSDOF 2
ENDMDL
