MODEL 1
REMARK minimizedAffinity 11.5497274
REMARK minimizedRMSD -1
REMARK  2 active torsions:
REMARK  status: ('A' for Active; 'I' for Inactive)
REMARK    1  A    between atoms: C2'_3  and  C1'_4 
REMARK    2  A    between atoms: C1'_4  and  C1_5 
ROOT
ATOM      1  C1  I4B d   1       5.897   4.952   3.504  0.00  0.00    -0.075 A 
ATOM      2  C2  I4B d   1       5.904   3.642   3.094  0.00  0.00     0.003 A 
ATOM      3  C3  I4B d   1       5.972   3.326   1.715  0.00  0.00     0.002 A 
ATOM      4  C4  I4B d   1       5.981   4.345   0.785  0.00  0.00    -0.004 A 
ATOM      5  C5  I4B d   1       5.998   5.672   1.202  0.00  0.00     0.002 A 
ATOM      6  C6  I4B d   1       5.968   5.978   2.571  0.00  0.00     0.003 A 
ENDROOT
BRANCH   1   7
ATOM      7  C1' I4B d   1       5.791   5.250   4.966  0.00  0.00     0.060 C 
BRANCH   7   8
ATOM      8  C2' I4B d   1       5.063   4.096   5.625  0.00  0.00    -0.013 C 
ATOM      9  C4' I4B d   1       3.765   3.797   4.922  0.00  0.00     0.013 C 
ATOM     10  C3' I4B d   1       5.974   2.905   5.611  0.00  0.00     0.013 C 
ENDBRANCH   7   8
ENDBRANCH   1   7
TORSDOF 2
ENDMDL
