MODEL 1
REMARK minimizedAffinity 14.5153389
REMARK minimizedRMSD -1
REMARK  2 active torsions:
REMARK  status: ('A' for Active; 'I' for Inactive)
REMARK    1  A    between atoms: C2'_3  and  C1'_4 
REMARK    2  A    between atoms: C1'_4  and  C1_5 
ROOT
ATOM      1  C1  I4B d   1       3.421   2.099  -4.497  0.00  0.00    -0.075 A 
ATOM      2  C2  I4B d   1       2.171   1.624  -4.808  0.00  0.00     0.003 A 
ATOM      3  C3  I4B d   1       1.507   0.733  -3.930  0.00  0.00     0.002 A 
ATOM      4  C4  I4B d   1       2.147   0.306  -2.784  0.00  0.00    -0.004 A 
ATOM      5  C5  I4B d   1       3.405   0.806  -2.459  0.00  0.00     0.002 A 
ATOM      6  C6  I4B d   1       4.041   1.717  -3.314  0.00  0.00     0.003 A 
ENDROOT
BRANCH   1   7
ATOM      7  C1' I4B d   1       4.106   3.012  -5.463  0.00  0.00     0.060 C 
BRANCH   7   8
ATOM      8  C2' I4B d   1       5.601   2.841  -5.287  0.00  0.00    -0.013 C 
ATOM      9  C4' I4B d   1       5.998   2.969  -3.840  0.00  0.00     0.013 C 
ATOM     10  C3' I4B d   1       5.980   1.498  -5.836  0.00  0.00     0.013 C 
ENDBRANCH   7   8
ENDBRANCH   1   7
TORSDOF 2
ENDMDL
