MODEL 1
REMARK minimizedAffinity -2.39323401
REMARK minimizedRMSD -1
REMARK  2 active torsions:
REMARK  status: ('A' for Active; 'I' for Inactive)
REMARK    1  A    between atoms: C2'_3  and  C1'_4 
REMARK    2  A    between atoms: C1'_4  and  C1_5 
ROOT
ATOM      1  C1  I4B d   1      -0.810  -1.902  -0.690  0.00  0.00    -0.075 A 
ATOM      2  C2  I4B d   1      -2.170  -1.767  -0.564  0.00  0.00     0.003 A 
ATOM      3  C3  I4B d   1      -2.965  -2.877  -0.189  0.00  0.00     0.002 A 
ATOM      4  C4  I4B d   1      -2.368  -4.107  -0.000  0.00  0.00    -0.004 A 
ATOM      5  C5  I4B d   1      -0.987  -4.237  -0.107  0.00  0.00     0.002 A 
ATOM      6  C6  I4B d   1      -0.201  -3.125  -0.441  0.00  0.00     0.003 A 
ENDROOT
BRANCH   1   7
ATOM      7  C1' I4B d   1      -0.005  -0.716  -1.120  0.00  0.00     0.060 C 
BRANCH   7   8
ATOM      8  C2' I4B d   1       1.017  -0.430  -0.039  0.00  0.00    -0.013 C 
ATOM      9  C4' I4B d   1       2.335  -0.006  -0.633  0.00  0.00     0.013 C 
ATOM     10  C3' I4B d   1       0.459   0.636   0.855  0.00  0.00     0.013 C 
ENDBRANCH   7   8
ENDBRANCH   1   7
TORSDOF 2
ENDMDL
