MODEL 1
REMARK minimizedAffinity 12.3455772
REMARK minimizedRMSD -1
REMARK  2 active torsions:
REMARK  status: ('A' for Active; 'I' for Inactive)
REMARK    1  A    between atoms: C2'_3  and  C1'_4 
REMARK    2  A    between atoms: C1'_4  and  C1_5 
ROOT
ATOM      1  C1  I4B d   1       3.305   4.048   3.281  0.00  0.00    -0.075 A 
ATOM      2  C2  I4B d   1       4.169   3.843   2.234  0.00  0.00     0.003 A 
ATOM      3  C3  I4B d   1       5.544   4.154   2.373  0.00  0.00     0.002 A 
ATOM      4  C4  I4B d   1       5.999   4.712   3.550  0.00  0.00    -0.004 A 
ATOM      5  C5  I4B d   1       5.126   4.898   4.618  0.00  0.00     0.002 A 
ATOM      6  C6  I4B d   1       3.773   4.552   4.487  0.00  0.00     0.003 A 
ENDROOT
BRANCH   1   7
ATOM      7  C1' I4B d   1       1.854   3.739   3.089  0.00  0.00     0.060 C 
BRANCH   7   8
ATOM      8  C2' I4B d   1       1.647   3.356   1.638  0.00  0.00    -0.013 C 
ATOM      9  C4' I4B d   1       1.501   1.865   1.483  0.00  0.00     0.013 C 
ATOM     10  C3' I4B d   1       0.428   4.074   1.139  0.00  0.00     0.013 C 
ENDBRANCH   7   8
ENDBRANCH   1   7
TORSDOF 2
ENDMDL
