MODEL 1
REMARK minimizedAffinity 3.83614254
REMARK minimizedRMSD -1
REMARK  2 active torsions:
REMARK  status: ('A' for Active; 'I' for Inactive)
REMARK    1  A    between atoms: C2'_3  and  C1'_4 
REMARK    2  A    between atoms: C1'_4  and  C1_5 
ROOT
ATOM      1  C1  I4B d   1      -2.025  -3.021   0.152  0.00  0.00    -0.075 A 
ATOM      2  C2  I4B d   1      -0.855  -3.628   0.535  0.00  0.00     0.003 A 
ATOM      3  C3  I4B d   1      -0.856  -4.985   0.939  0.00  0.00     0.002 A 
ATOM      4  C4  I4B d   1      -2.048  -5.678   0.993  0.00  0.00    -0.004 A 
ATOM      5  C5  I4B d   1      -3.229  -5.068   0.582  0.00  0.00     0.002 A 
ATOM      6  C6  I4B d   1      -3.217  -3.734   0.147  0.00  0.00     0.003 A 
ENDROOT
BRANCH   1   7
ATOM      7  C1' I4B d   1      -1.994  -1.577  -0.237  0.00  0.00     0.060 C 
BRANCH   7   8
ATOM      8  C2' I4B d   1      -0.567  -1.087  -0.098  0.00  0.00    -0.013 C 
ATOM      9  C4' I4B d   1       0.022  -0.738  -1.440  0.00  0.00     0.013 C 
ATOM     10  C3' I4B d   1      -0.573   0.102   0.816  0.00  0.00     0.013 C 
ENDBRANCH   7   8
ENDBRANCH   1   7
TORSDOF 2
ENDMDL
