MODEL 1
REMARK minimizedAffinity 6.86996412
REMARK minimizedRMSD -1
REMARK  2 active torsions:
REMARK  status: ('A' for Active; 'I' for Inactive)
REMARK    1  A    between atoms: C2'_3  and  C1'_4 
REMARK    2  A    between atoms: C1'_4  and  C1_5 
ROOT
ATOM      1  C1  I4B d   1       2.074  -3.566   1.931  0.00  0.00    -0.075 A 
ATOM      2  C2  I4B d   1       2.575  -3.585   3.209  0.00  0.00     0.003 A 
ATOM      3  C3  I4B d   1       2.848  -4.817   3.850  0.00  0.00     0.002 A 
ATOM      4  C4  I4B d   1       2.559  -6.000   3.200  0.00  0.00    -0.004 A 
ATOM      5  C5  I4B d   1       2.073  -5.979   1.896  0.00  0.00     0.002 A 
ATOM      6  C6  I4B d   1       1.840  -4.755   1.253  0.00  0.00     0.003 A 
ENDROOT
BRANCH   1   7
ATOM      7  C1' I4B d   1       1.767  -2.247   1.297  0.00  0.00     0.060 C 
BRANCH   7   8
ATOM      8  C2' I4B d   1       2.714  -1.217   1.878  0.00  0.00    -0.013 C 
ATOM      9  C4' I4B d   1       4.148  -1.657   1.740  0.00  0.00     0.013 C 
ATOM     10  C3' I4B d   1       2.476   0.083   1.170  0.00  0.00     0.013 C 
ENDBRANCH   7   8
ENDBRANCH   1   7
TORSDOF 2
ENDMDL
