MODEL 1
REMARK minimizedAffinity 11.2504959
REMARK minimizedRMSD -1
REMARK  2 active torsions:
REMARK  status: ('A' for Active; 'I' for Inactive)
REMARK    1  A    between atoms: C2'_3  and  C1'_4 
REMARK    2  A    between atoms: C1'_4  and  C1_5 
ROOT
ATOM      1  C1  I4B d   1      -0.190  -5.209   1.886  0.00  0.00    -0.075 A 
ATOM      2  C2  I4B d   1      -1.494  -5.631   1.967  0.00  0.00     0.003 A 
ATOM      3  C3  I4B d   1      -2.522  -4.894   1.331  0.00  0.00     0.002 A 
ATOM      4  C4  I4B d   1      -2.211  -3.722   0.672  0.00  0.00    -0.004 A 
ATOM      5  C5  I4B d   1      -0.885  -3.309   0.571  0.00  0.00     0.002 A 
ATOM      6  C6  I4B d   1       0.133  -4.063   1.172  0.00  0.00     0.003 A 
ENDROOT
BRANCH   1   7
ATOM      7  C1' I4B d   1       0.866  -5.993   2.598  0.00  0.00     0.060 C 
BRANCH   7   8
ATOM      8  C2' I4B d   1       2.216  -5.498   2.121  0.00  0.00    -0.013 C 
ATOM      9  C4' I4B d   1       3.325  -5.995   3.011  0.00  0.00     0.013 C 
ATOM     10  C3' I4B d   1       2.407  -5.962   0.708  0.00  0.00     0.013 C 
ENDBRANCH   7   8
ENDBRANCH   1   7
TORSDOF 2
ENDMDL
