MODEL 1
REMARK minimizedAffinity 17.6007042
REMARK minimizedRMSD -1
REMARK  2 active torsions:
REMARK  status: ('A' for Active; 'I' for Inactive)
REMARK    1  A    between atoms: C2'_3  and  C1'_4 
REMARK    2  A    between atoms: C1'_4  and  C1_5 
ROOT
ATOM      1  C1  I4B d   1      -3.986   3.596   5.267  0.00  0.00    -0.075 A 
ATOM      2  C2  I4B d   1      -3.960   4.760   5.994  0.00  0.00     0.003 A 
ATOM      3  C3  I4B d   1      -3.596   5.980   5.374  0.00  0.00     0.002 A 
ATOM      4  C4  I4B d   1      -3.218   5.981   4.047  0.00  0.00    -0.004 A 
ATOM      5  C5  I4B d   1      -3.267   4.804   3.306  0.00  0.00     0.002 A 
ATOM      6  C6  I4B d   1      -3.665   3.606   3.916  0.00  0.00     0.003 A 
ENDROOT
BRANCH   1   7
ATOM      7  C1' I4B d   1      -4.343   2.320   5.961  0.00  0.00     0.060 C 
BRANCH   7   8
ATOM      8  C2' I4B d   1      -3.930   1.170   5.065  0.00  0.00    -0.013 C 
ATOM      9  C4' I4B d   1      -3.055   0.192   5.803  0.00  0.00     0.013 C 
ATOM     10  C3' I4B d   1      -5.176   0.506   4.560  0.00  0.00     0.013 C 
ENDBRANCH   7   8
ENDBRANCH   1   7
TORSDOF 2
ENDMDL
