MODEL 1
REMARK minimizedAffinity 11.9469042
REMARK minimizedRMSD -1
REMARK  0 active torsions:
REMARK  status: ('A' for Active; 'I' for Inactive)
ROOT
ATOM      1  C1  DEN d   1      -0.709   3.336  -0.647  0.00  0.00     0.130 A 
ATOM      2  C2  DEN d   1       0.443   2.671  -0.045  0.00  0.00    -0.031 A 
ATOM      3  C3  DEN d   1      -0.037   1.449   0.631  0.00  0.00     0.027 A 
ATOM      4  C4  DEN d   1      -2.439   0.524   0.799  0.00  0.00     0.027 A 
ATOM      5  C5  DEN d   1      -3.754   0.747   0.456  0.00  0.00    -0.003 A 
ATOM      6  C6  DEN d   1      -4.148   1.857  -0.244  0.00  0.00     0.001 A 
ATOM      7  C7  DEN d   1      -3.210   2.764  -0.663  0.00  0.00     0.017 A 
ATOM      8  C8  DEN d   1      -1.883   2.549  -0.314  0.00  0.00    -0.094 A 
ATOM      9  C9  DEN d   1      -1.504   1.415   0.383  0.00  0.00    -0.072 A 
ENDROOT
TORSDOF 0
ENDMDL
