MODEL 1
REMARK minimizedAffinity 1.1553551
REMARK minimizedRMSD -1
REMARK  0 active torsions:
REMARK  status: ('A' for Active; 'I' for Inactive)
ROOT
ATOM      1  C1  DEN d   1      -2.629   2.807  -1.029  0.00  0.00     0.130 A 
ATOM      2  C2  DEN d   1      -3.985   2.308  -0.816  0.00  0.00    -0.031 A 
ATOM      3  C3  DEN d   1      -3.906   1.151   0.099  0.00  0.00     0.027 A 
ATOM      4  C4  DEN d   1      -1.829   0.094   1.204  0.00  0.00     0.027 A 
ATOM      5  C5  DEN d   1      -0.458   0.165   1.314  0.00  0.00    -0.003 A 
ATOM      6  C6  DEN d   1       0.283   1.092   0.631  0.00  0.00     0.001 A 
ATOM      7  C7  DEN d   1      -0.348   2.016  -0.160  0.00  0.00     0.017 A 
ATOM      8  C8  DEN d   1      -1.730   1.946  -0.282  0.00  0.00    -0.094 A 
ATOM      9  C9  DEN d   1      -2.462   1.009   0.427  0.00  0.00    -0.072 A 
ENDROOT
TORSDOF 0
ENDMDL
