MODEL 1
REMARK minimizedAffinity 7.71888876
REMARK minimizedRMSD -1
REMARK  0 active torsions:
REMARK  status: ('A' for Active; 'I' for Inactive)
ROOT
ATOM      1  C1  DEN d   1      -3.021  -2.262  -1.322  0.00  0.00     0.130 A 
ATOM      2  C2  DEN d   1      -2.684  -1.722  -2.636  0.00  0.00    -0.031 A 
ATOM      3  C3  DEN d   1      -1.751  -2.662  -3.290  0.00  0.00     0.027 A 
ATOM      4  C4  DEN d   1      -0.805  -4.891  -2.401  0.00  0.00     0.027 A 
ATOM      5  C5  DEN d   1      -0.794  -5.759  -1.332  0.00  0.00    -0.003 A 
ATOM      6  C6  DEN d   1      -1.492  -5.507  -0.180  0.00  0.00     0.001 A 
ATOM      7  C7  DEN d   1      -2.267  -4.381  -0.088  0.00  0.00     0.017 A 
ATOM      8  C8  DEN d   1      -2.277  -3.498  -1.159  0.00  0.00    -0.094 A 
ATOM      9  C9  DEN d   1      -1.575  -3.776  -2.320  0.00  0.00    -0.072 A 
ENDROOT
TORSDOF 0
ENDMDL
