MODEL 1
REMARK minimizedAffinity 9.83479881
REMARK minimizedRMSD -1
REMARK  0 active torsions:
REMARK  status: ('A' for Active; 'I' for Inactive)
ROOT
ATOM      1  C1  DEN d   1       0.288   2.546   0.214  0.00  0.00     0.130 A 
ATOM      2  C2  DEN d   1       1.085   1.683   1.082  0.00  0.00    -0.031 A 
ATOM      3  C3  DEN d   1       0.222   0.579   1.546  0.00  0.00     0.027 A 
ATOM      4  C4  DEN d   1      -2.258   0.121   1.005  0.00  0.00     0.027 A 
ATOM      5  C5  DEN d   1      -3.362   0.582   0.322  0.00  0.00    -0.003 A 
ATOM      6  C6  DEN d   1      -3.336   1.739  -0.411  0.00  0.00     0.001 A 
ATOM      7  C7  DEN d   1      -2.170   2.450  -0.516  0.00  0.00     0.017 A 
ATOM      8  C8  DEN d   1      -1.055   1.996   0.176  0.00  0.00    -0.094 A 
ATOM      9  C9  DEN d   1      -1.098   0.817   0.902  0.00  0.00    -0.072 A 
ENDROOT
TORSDOF 0
ENDMDL
