MODEL 1
REMARK minimizedAffinity -0.259784847
REMARK minimizedRMSD -1
REMARK  0 active torsions:
REMARK  status: ('A' for Active; 'I' for Inactive)
ROOT
ATOM      1  C1  DEN d   1      -0.323  -0.117   1.157  0.00  0.00     0.130 A 
ATOM      2  C2  DEN d   1       0.850   0.734   0.974  0.00  0.00    -0.031 A 
ATOM      3  C3  DEN d   1       0.387   2.055   0.504  0.00  0.00     0.027 A 
ATOM      4  C4  DEN d   1      -2.020   2.864   0.050  0.00  0.00     0.027 A 
ATOM      5  C5  DEN d   1      -3.347   2.495   0.052  0.00  0.00    -0.003 A 
ATOM      6  C6  DEN d   1      -3.754   1.231   0.387  0.00  0.00     0.001 A 
ATOM      7  C7  DEN d   1      -2.826   0.301   0.778  0.00  0.00     0.017 A 
ATOM      8  C8  DEN d   1      -1.486   0.663   0.771  0.00  0.00    -0.094 A 
ATOM      9  C9  DEN d   1      -1.096   1.950   0.441  0.00  0.00    -0.072 A 
ENDROOT
TORSDOF 0
ENDMDL
