MODEL 1
REMARK minimizedAffinity 2.32472038
REMARK minimizedRMSD -1
REMARK  0 active torsions:
REMARK  status: ('A' for Active; 'I' for Inactive)
ROOT
ATOM      1  C1  DEN d   1      -0.583   3.036  -0.276  0.00  0.00     0.130 A 
ATOM      2  C2  DEN d   1       0.606   2.599   0.451  0.00  0.00    -0.031 A 
ATOM      3  C3  DEN d   1       0.215   1.483   1.336  0.00  0.00     0.027 A 
ATOM      4  C4  DEN d   1      -2.101   0.392   1.645  0.00  0.00     0.027 A 
ATOM      5  C5  DEN d   1      -3.421   0.429   1.253  0.00  0.00    -0.003 A 
ATOM      6  C6  DEN d   1      -3.890   1.352   0.356  0.00  0.00     0.001 A 
ATOM      7  C7  DEN d   1      -3.024   2.248  -0.213  0.00  0.00     0.017 A 
ATOM      8  C8  DEN d   1      -1.693   2.222   0.184  0.00  0.00    -0.094 A 
ATOM      9  C9  DEN d   1      -1.235   1.273   1.082  0.00  0.00    -0.072 A 
ENDROOT
TORSDOF 0
ENDMDL
