MODEL 1
REMARK minimizedAffinity 2.79920769
REMARK minimizedRMSD -1
REMARK  0 active torsions:
REMARK  status: ('A' for Active; 'I' for Inactive)
ROOT
ATOM      1  C1  DEN d   1       3.342   1.164   0.799  0.00  0.00     0.130 A 
ATOM      2  C2  DEN d   1       3.958   2.141   1.693  0.00  0.00    -0.031 A 
ATOM      3  C3  DEN d   1       2.878   2.919   2.333  0.00  0.00     0.027 A 
ATOM      4  C4  DEN d   1       0.326   2.701   2.034  0.00  0.00     0.027 A 
ATOM      5  C5  DEN d   1      -0.673   2.021   1.373  0.00  0.00    -0.003 A 
ATOM      6  C6  DEN d   1      -0.405   1.039   0.457  0.00  0.00     0.001 A 
ATOM      7  C7  DEN d   1       0.893   0.678   0.209  0.00  0.00     0.017 A 
ATOM      8  C8  DEN d   1       1.906   1.364   0.866  0.00  0.00    -0.094 A 
ATOM      9  C9  DEN d   1       1.614   2.345   1.798  0.00  0.00    -0.072 A 
ENDROOT
TORSDOF 0
ENDMDL
