MODEL 1
REMARK minimizedAffinity 8.0587883
REMARK minimizedRMSD -1
REMARK  0 active torsions:
REMARK  status: ('A' for Active; 'I' for Inactive)
ROOT
ATOM      1  C1  DEN d   1      -1.667   0.131   2.329  0.00  0.00     0.130 A 
ATOM      2  C2  DEN d   1      -2.673  -0.681   3.009  0.00  0.00    -0.031 A 
ATOM      3  C3  DEN d   1      -3.981  -0.407   2.382  0.00  0.00     0.027 A 
ATOM      4  C4  DEN d   1      -4.544   1.183   0.430  0.00  0.00     0.027 A 
ATOM      5  C5  DEN d   1      -4.022   2.093  -0.463  0.00  0.00    -0.003 A 
ATOM      6  C6  DEN d   1      -2.696   2.435  -0.465  0.00  0.00     0.001 A 
ATOM      7  C7  DEN d   1      -1.837   1.830   0.413  0.00  0.00     0.017 A 
ATOM      8  C8  DEN d   1      -2.357   0.917   1.322  0.00  0.00    -0.094 A 
ATOM      9  C9  DEN d   1      -3.698   0.575   1.300  0.00  0.00    -0.072 A 
ENDROOT
TORSDOF 0
ENDMDL
