MODEL 1
REMARK minimizedAffinity -0.753554165
REMARK minimizedRMSD -1
REMARK  0 active torsions:
REMARK  status: ('A' for Active; 'I' for Inactive)
ROOT
ATOM      1  C1  DEN d   1       2.015   1.272   0.786  0.00  0.00     0.130 A 
ATOM      2  C2  DEN d   1       1.304   0.502  -0.231  0.00  0.00    -0.031 A 
ATOM      3  C3  DEN d   1      -0.143   0.741  -0.056  0.00  0.00     0.027 A 
ATOM      4  C4  DEN d   1      -1.344   2.226   1.678  0.00  0.00     0.027 A 
ATOM      5  C5  DEN d   1      -1.162   3.066   2.754  0.00  0.00    -0.003 A 
ATOM      6  C6  DEN d   1       0.078   3.339   3.266  0.00  0.00     0.001 A 
ATOM      7  C7  DEN d   1       1.190   2.801   2.675  0.00  0.00     0.017 A 
ATOM      8  C8  DEN d   1       1.015   1.946   1.594  0.00  0.00    -0.094 A 
ATOM      9  C9  DEN d   1      -0.247   1.693   1.083  0.00  0.00    -0.072 A 
ENDROOT
TORSDOF 0
ENDMDL
