MODEL 1
REMARK minimizedAffinity 11.4182863
REMARK minimizedRMSD -1
REMARK  0 active torsions:
REMARK  status: ('A' for Active; 'I' for Inactive)
ROOT
ATOM      1  C1  DEN d   1       0.049   1.202  -0.774  0.00  0.00     0.130 A 
ATOM      2  C2  DEN d   1       1.441   1.412  -0.386  0.00  0.00    -0.031 A 
ATOM      3  C3  DEN d   1       1.821   0.334   0.550  0.00  0.00     0.027 A 
ATOM      4  C4  DEN d   1       0.399  -1.631   1.427  0.00  0.00     0.027 A 
ATOM      5  C5  DEN d   1      -0.845  -2.221   1.389  0.00  0.00    -0.003 A 
ATOM      6  C6  DEN d   1      -1.880  -1.697   0.660  0.00  0.00     0.001 A 
ATOM      7  C7  DEN d   1      -1.676  -0.573  -0.097  0.00  0.00     0.017 A 
ATOM      8  C8  DEN d   1      -0.427   0.032  -0.058  0.00  0.00    -0.094 A 
ATOM      9  C9  DEN d   1       0.610  -0.520   0.676  0.00  0.00    -0.072 A 
ENDROOT
TORSDOF 0
ENDMDL
