MODEL 1
REMARK minimizedAffinity 0.869257212
REMARK minimizedRMSD -1
REMARK  0 active torsions:
REMARK  status: ('A' for Active; 'I' for Inactive)
ROOT
ATOM      1  C1  DEN d   1       1.481  -1.355   0.699  0.00  0.00     0.130 A 
ATOM      2  C2  DEN d   1       2.576  -1.019  -0.207  0.00  0.00    -0.031 A 
ATOM      3  C3  DEN d   1       2.278   0.292  -0.818  0.00  0.00     0.027 A 
ATOM      4  C4  DEN d   1       0.241   1.829  -0.447  0.00  0.00     0.027 A 
ATOM      5  C5  DEN d   1      -0.956   1.965   0.221  0.00  0.00    -0.003 A 
ATOM      6  C6  DEN d   1      -1.437   0.997   1.062  0.00  0.00     0.001 A 
ATOM      7  C7  DEN d   1      -0.695  -0.132   1.293  0.00  0.00     0.017 A 
ATOM      8  C8  DEN d   1       0.509  -0.279   0.617  0.00  0.00    -0.094 A 
ATOM      9  C9  DEN d   1       0.984   0.716  -0.220  0.00  0.00    -0.072 A 
ENDROOT
TORSDOF 0
ENDMDL
