MODEL 1
REMARK minimizedAffinity -1.10757089
REMARK minimizedRMSD -1
REMARK  1 active torsions:
REMARK  status: ('A' for Active; 'I' for Inactive)
REMARK    1  A    between atoms: C1_2  and  C2_3 
ROOT
ATOM      1  C2  UNL d   1      -0.750   4.873  -5.958  0.00  0.00    -0.073 A 
ATOM      2  C3  UNL d   1      -1.173   3.539  -5.959  0.00  0.00    -0.002 A 
ATOM      3  C4  UNL d   1      -0.238   2.503  -5.980  0.00  0.00     0.004 A 
ATOM      4  C5  UNL d   1       1.127   2.789  -5.994  0.00  0.00    -0.004 A 
ATOM      5  C6  UNL d   1       1.569   4.115  -5.982  0.00  0.00    -0.075 A 
ATOM      6  C7  UNL d   1       3.034   4.440  -5.999  0.00  0.00     0.076 C 
ATOM      7  C8  UNL d   1       0.624   5.150  -5.963  0.00  0.00     0.001 A 
ENDROOT
BRANCH   1   8
ATOM      8  C1  UNL d   1      -1.756   5.994  -5.928  0.00  0.00     0.053 C 
ATOM      9  C   UNL d   1      -3.185   5.478  -5.886  0.00  0.00     0.018 C 
ENDBRANCH   1   8
TORSDOF 1
ENDMDL
