MODEL 1
REMARK minimizedAffinity 0.419723481
REMARK minimizedRMSD -1
REMARK  1 active torsions:
REMARK  status: ('A' for Active; 'I' for Inactive)
REMARK    1  A    between atoms: C1_2  and  C2_3 
ROOT
ATOM      1  C2  UNL d   1      -1.097   4.231  -5.952  0.00  0.00    -0.073 A 
ATOM      2  C3  UNL d   1      -0.282   5.369  -5.979  0.00  0.00    -0.002 A 
ATOM      3  C4  UNL d   1       1.107   5.240  -5.999  0.00  0.00     0.004 A 
ATOM      4  C5  UNL d   1       1.695   3.976  -5.999  0.00  0.00    -0.004 A 
ATOM      5  C6  UNL d   1       0.898   2.827  -5.985  0.00  0.00    -0.075 A 
ATOM      6  C7  UNL d   1       1.515   1.459  -5.983  0.00  0.00     0.076 C 
ATOM      7  C8  UNL d   1      -0.497   2.964  -5.962  0.00  0.00     0.001 A 
ENDROOT
BRANCH   1   8
ATOM      8  C1  UNL d   1      -2.598   4.365  -5.937  0.00  0.00     0.053 C 
ATOM      9  C   UNL d   1      -3.041   5.818  -5.985  0.00  0.00     0.018 C 
ENDBRANCH   1   8
TORSDOF 1
ENDMDL
