MODEL 1
REMARK minimizedAffinity 3.24342275
REMARK minimizedRMSD -1
REMARK  1 active torsions:
REMARK  status: ('A' for Active; 'I' for Inactive)
REMARK    1  A    between atoms: C1_2  and  C2_3 
ROOT
ATOM      1  C2  UNL d   1       0.072   3.803  -5.956  0.00  0.00    -0.073 A 
ATOM      2  C3  UNL d   1       0.007   5.201  -5.938  0.00  0.00    -0.002 A 
ATOM      3  C4  UNL d   1      -1.228   5.849  -5.895  0.00  0.00     0.004 A 
ATOM      4  C5  UNL d   1      -2.409   5.107  -5.863  0.00  0.00    -0.004 A 
ATOM      5  C6  UNL d   1      -2.365   3.709  -5.869  0.00  0.00    -0.075 A 
ATOM      6  C7  UNL d   1      -3.626   2.897  -5.837  0.00  0.00     0.076 C 
ATOM      7  C8  UNL d   1      -1.120   3.066  -5.914  0.00  0.00     0.001 A 
ENDROOT
BRANCH   1   8
ATOM      8  C1  UNL d   1       1.404   3.098  -5.995  0.00  0.00     0.053 C 
ATOM      9  C   UNL d   1       1.249   1.586  -5.998  0.00  0.00     0.018 C 
ENDBRANCH   1   8
TORSDOF 1
ENDMDL
