MODEL 1
REMARK minimizedAffinity 5.98493195
REMARK minimizedRMSD -1
REMARK  1 active torsions:
REMARK  status: ('A' for Active; 'I' for Inactive)
REMARK    1  A    between atoms: C1_2  and  C2_3 
ROOT
ATOM      1  C2  UNL d   1      -0.904  -0.453   0.128  0.00  0.00    -0.073 A 
ATOM      2  C3  UNL d   1      -1.088   0.145   1.379  0.00  0.00    -0.002 A 
ATOM      3  C4  UNL d   1      -0.564   1.412   1.639  0.00  0.00     0.004 A 
ATOM      4  C5  UNL d   1       0.143   2.096   0.649  0.00  0.00    -0.004 A 
ATOM      5  C6  UNL d   1       0.327   1.519  -0.611  0.00  0.00    -0.075 A 
ATOM      6  C7  UNL d   1       1.087   2.240  -1.686  0.00  0.00     0.076 C 
ATOM      7  C8  UNL d   1      -0.200   0.245  -0.863  0.00  0.00     0.001 A 
ENDROOT
BRANCH   1   8
ATOM      8  C1  UNL d   1      -1.473  -1.819  -0.159  0.00  0.00     0.053 C 
ATOM      9  C   UNL d   1      -2.069  -1.906  -1.555  0.00  0.00     0.018 C 
ENDBRANCH   1   8
TORSDOF 1
ENDMDL
