MODEL 1
REMARK minimizedAffinity 0.231596246
REMARK minimizedRMSD -1
REMARK  1 active torsions:
REMARK  status: ('A' for Active; 'I' for Inactive)
REMARK    1  A    between atoms: C1_2  and  C2_3 
ROOT
ATOM      1  C2  UNL d   1       1.660   4.931  -5.983  0.00  0.00    -0.073 A 
ATOM      2  C3  UNL d   1       1.744   3.534  -5.982  0.00  0.00    -0.002 A 
ATOM      3  C4  UNL d   1       2.988   2.902  -5.992  0.00  0.00     0.004 A 
ATOM      4  C5  UNL d   1       4.159   3.660  -5.997  0.00  0.00    -0.004 A 
ATOM      5  C6  UNL d   1       4.096   5.057  -5.986  0.00  0.00    -0.075 A 
ATOM      6  C7  UNL d   1       5.347   5.886  -5.994  0.00  0.00     0.076 C 
ATOM      7  C8  UNL d   1       2.843   5.683  -5.979  0.00  0.00     0.001 A 
ENDROOT
BRANCH   1   8
ATOM      8  C1  UNL d   1       0.318   5.617  -5.965  0.00  0.00     0.053 C 
ATOM      9  C   UNL d   1      -0.830   4.622  -5.885  0.00  0.00     0.018 C 
ENDBRANCH   1   8
TORSDOF 1
ENDMDL
