MODEL 1
REMARK minimizedAffinity 0.284308493
REMARK minimizedRMSD -1
REMARK  1 active torsions:
REMARK  status: ('A' for Active; 'I' for Inactive)
REMARK    1  A    between atoms: C1_2  and  C2_3 
ROOT
ATOM      1  C2  UNL d   1      -1.160   3.336  -5.990  0.00  0.00    -0.073 A 
ATOM      2  C3  UNL d   1      -1.384   4.717  -6.000  0.00  0.00    -0.002 A 
ATOM      3  C4  UNL d   1      -0.308   5.606  -6.000  0.00  0.00     0.004 A 
ATOM      4  C5  UNL d   1       1.000   5.123  -5.997  0.00  0.00    -0.004 A 
ATOM      5  C6  UNL d   1       1.245   3.746  -6.000  0.00  0.00    -0.075 A 
ATOM      6  C7  UNL d   1       2.646   3.211  -5.995  0.00  0.00     0.076 C 
ATOM      7  C8  UNL d   1       0.159   2.860  -5.997  0.00  0.00     0.001 A 
ENDROOT
BRANCH   1   8
ATOM      8  C1  UNL d   1      -2.319   2.372  -5.997  0.00  0.00     0.053 C 
ATOM      9  C   UNL d   1      -3.659   3.091  -5.968  0.00  0.00     0.018 C 
ENDBRANCH   1   8
TORSDOF 1
ENDMDL
