MODEL 1
REMARK minimizedAffinity 8.14750767
REMARK minimizedRMSD -1
REMARK  1 active torsions:
REMARK  status: ('A' for Active; 'I' for Inactive)
REMARK    1  A    between atoms: C1_2  and  C2_3 
ROOT
ATOM      1  C2  UNL d   1      -0.846  -3.773  -1.800  0.00  0.00    -0.073 A 
ATOM      2  C3  UNL d   1      -1.278  -4.076  -3.097  0.00  0.00    -0.002 A 
ATOM      3  C4  UNL d   1      -0.393  -3.992  -4.172  0.00  0.00     0.004 A 
ATOM      4  C5  UNL d   1       0.932  -3.611  -3.962  0.00  0.00    -0.004 A 
ATOM      5  C6  UNL d   1       1.386  -3.317  -2.673  0.00  0.00    -0.075 A 
ATOM      6  C7  UNL d   1       2.808  -2.904  -2.431  0.00  0.00     0.076 C 
ATOM      7  C8  UNL d   1       0.490  -3.401  -1.598  0.00  0.00     0.001 A 
ENDROOT
BRANCH   1   8
ATOM      8  C1  UNL d   1      -1.797  -3.869  -0.635  0.00  0.00     0.053 C 
ATOM      9  C   UNL d   1      -3.066  -4.624  -0.995  0.00  0.00     0.018 C 
ENDBRANCH   1   8
TORSDOF 1
ENDMDL
