MODEL 1
REMARK minimizedAffinity 0.897755027
REMARK minimizedRMSD -1
REMARK  1 active torsions:
REMARK  status: ('A' for Active; 'I' for Inactive)
REMARK    1  A    between atoms: C1_2  and  C2_3 
ROOT
ATOM      1  C2  UNL d   1      -0.954   4.598  -5.998  0.00  0.00    -0.073 A 
ATOM      2  C3  UNL d   1      -0.862   3.202  -5.990  0.00  0.00    -0.002 A 
ATOM      3  C4  UNL d   1       0.386   2.578  -5.993  0.00  0.00     0.004 A 
ATOM      4  C5  UNL d   1       1.553   3.342  -5.996  0.00  0.00    -0.004 A 
ATOM      5  C6  UNL d   1       1.482   4.738  -5.992  0.00  0.00    -0.075 A 
ATOM      6  C7  UNL d   1       2.728   5.575  -5.998  0.00  0.00     0.076 C 
ATOM      7  C8  UNL d   1       0.225   5.358  -5.992  0.00  0.00     0.001 A 
ENDROOT
BRANCH   1   8
ATOM      8  C1  UNL d   1      -2.299   5.277  -5.988  0.00  0.00     0.053 C 
ATOM      9  C   UNL d   1      -3.443   4.275  -5.947  0.00  0.00     0.018 C 
ENDBRANCH   1   8
TORSDOF 1
ENDMDL
