MODEL 1
REMARK minimizedAffinity -3.69658566
REMARK minimizedRMSD -1
REMARK  1 active torsions:
REMARK  status: ('A' for Active; 'I' for Inactive)
REMARK    1  A    between atoms: C1_2  and  C2_3 
ROOT
ATOM      1  C2  UNL d   1       0.079   4.314  -5.949  0.00  0.00    -0.073 A 
ATOM      2  C3  UNL d   1       0.445   2.964  -5.956  0.00  0.00    -0.002 A 
ATOM      3  C4  UNL d   1       1.792   2.599  -5.985  0.00  0.00     0.004 A 
ATOM      4  C5  UNL d   1       2.785   3.579  -6.000  0.00  0.00    -0.004 A 
ATOM      5  C6  UNL d   1       2.439   4.934  -5.981  0.00  0.00    -0.075 A 
ATOM      6  C7  UNL d   1       3.494   6.000  -6.000  0.00  0.00     0.076 C 
ATOM      7  C8  UNL d   1       1.084   5.292  -5.955  0.00  0.00     0.001 A 
ENDROOT
BRANCH   1   8
ATOM      8  C1  UNL d   1      -1.374   4.713  -5.912  0.00  0.00     0.053 C 
ATOM      9  C   UNL d   1      -2.296   3.505  -5.893  0.00  0.00     0.018 C 
ENDBRANCH   1   8
TORSDOF 1
ENDMDL
