MODEL 1
REMARK minimizedAffinity -3.04592133
REMARK minimizedRMSD -1
REMARK  0 active torsions:
REMARK  status: ('A' for Active; 'I' for Inactive)
ROOT
ATOM      1  C   UNL d   1      -0.845  -0.136  -0.976  0.00  0.00     0.124 A 
ATOM      2  C1  UNL d   1      -1.355  -0.164   0.314  0.00  0.00     0.062 A 
ATOM      3  C2  UNL d   1      -0.523  -0.464   1.389  0.00  0.00     0.162 A 
ATOM      4  C3  UNL d   1       0.828  -0.738   1.179  0.00  0.00    -0.034 A 
ATOM      5  C4  UNL d   1       1.334  -0.709  -0.122  0.00  0.00     0.162 A 
ATOM      6  C5  UNL d   1       0.499  -0.408  -1.193  0.00  0.00     0.062 A 
ATOM      7  F   UNL d   1       0.993  -0.382  -2.440  0.00  0.00    -0.097 F 
ATOM      8  F1  UNL d   1       2.628  -0.967  -0.361  0.00  0.00    -0.096 F 
ATOM      9  I   UNL d   1       2.075  -1.187   2.783  0.00  0.00    -0.060 I 
ATOM     10  F2  UNL d   1      -1.043  -0.484   2.626  0.00  0.00    -0.096 F 
ATOM     11  F3  UNL d   1      -2.652   0.097   0.527  0.00  0.00    -0.097 F 
ATOM     12  F4  UNL d   1      -1.647   0.152  -2.009  0.00  0.00    -0.092 F 
ENDROOT
TORSDOF 0
ENDMDL
