MODEL 1
REMARK minimizedAffinity -1.14265347
REMARK minimizedRMSD -1
REMARK  0 active torsions:
REMARK  status: ('A' for Active; 'I' for Inactive)
ROOT
ATOM      1  C   UNL d   1      -2.285   2.549  -2.691  0.00  0.00     0.124 A 
ATOM      2  C1  UNL d   1      -2.599   1.277  -2.235  0.00  0.00     0.062 A 
ATOM      3  C2  UNL d   1      -1.662   0.539  -1.518  0.00  0.00     0.162 A 
ATOM      4  C3  UNL d   1      -0.400   1.072  -1.252  0.00  0.00    -0.034 A 
ATOM      5  C4  UNL d   1      -0.092   2.352  -1.715  0.00  0.00     0.162 A 
ATOM      6  C5  UNL d   1      -1.032   3.086  -2.431  0.00  0.00     0.062 A 
ATOM      7  F   UNL d   1      -0.727   4.315  -2.871  0.00  0.00    -0.097 F 
ATOM      8  F1  UNL d   1       1.112   2.896  -1.477  0.00  0.00    -0.096 F 
ATOM      9  I   UNL d   1       1.004  -0.028  -0.181  0.00  0.00    -0.060 I 
ATOM     10  F2  UNL d   1      -1.992  -0.688  -1.089  0.00  0.00    -0.096 F 
ATOM     11  F3  UNL d   1      -3.809   0.756  -2.486  0.00  0.00    -0.097 F 
ATOM     12  F4  UNL d   1      -3.189   3.257  -3.381  0.00  0.00    -0.092 F 
ENDROOT
TORSDOF 0
ENDMDL
