MODEL 1
REMARK minimizedAffinity -4.31727123
REMARK minimizedRMSD -1
REMARK  0 active torsions:
REMARK  status: ('A' for Active; 'I' for Inactive)
ROOT
ATOM      1  C   UNL d   1       1.683  -1.282   1.804  0.00  0.00     0.124 A 
ATOM      2  C1  UNL d   1       2.014  -1.551   0.483  0.00  0.00     0.062 A 
ATOM      3  C2  UNL d   1       1.241  -1.033  -0.552  0.00  0.00     0.162 A 
ATOM      4  C3  UNL d   1       0.129  -0.240  -0.271  0.00  0.00    -0.034 A 
ATOM      5  C4  UNL d   1      -0.198   0.026   1.060  0.00  0.00     0.162 A 
ATOM      6  C5  UNL d   1       0.577  -0.494   2.091  0.00  0.00     0.062 A 
ATOM      7  F   UNL d   1       0.255  -0.233   3.367  0.00  0.00    -0.097 F 
ATOM      8  F1  UNL d   1      -1.261   0.785   1.366  0.00  0.00    -0.096 F 
ATOM      9  I   UNL d   1      -1.029   0.537  -1.816  0.00  0.00    -0.060 I 
ATOM     10  F2  UNL d   1       1.585  -1.309  -1.819  0.00  0.00    -0.096 F 
ATOM     11  F3  UNL d   1       3.081  -2.313   0.203  0.00  0.00    -0.097 F 
ATOM     12  F4  UNL d   1       2.427  -1.783   2.798  0.00  0.00    -0.092 F 
ENDROOT
TORSDOF 0
ENDMDL
