MODEL 1
REMARK minimizedAffinity -2.52156329
REMARK minimizedRMSD -1
REMARK  0 active torsions:
REMARK  status: ('A' for Active; 'I' for Inactive)
ROOT
ATOM      1  C   UNL d   1       1.581  -1.837   1.897  0.00  0.00     0.124 A 
ATOM      2  C1  UNL d   1       0.263  -1.406   1.966  0.00  0.00     0.062 A 
ATOM      3  C2  UNL d   1      -0.309  -0.730   0.892  0.00  0.00     0.162 A 
ATOM      4  C3  UNL d   1       0.436  -0.482  -0.260  0.00  0.00    -0.034 A 
ATOM      5  C4  UNL d   1       1.761  -0.917  -0.322  0.00  0.00     0.162 A 
ATOM      6  C5  UNL d   1       2.328  -1.593   0.754  0.00  0.00     0.062 A 
ATOM      7  F   UNL d   1       3.601  -2.008   0.686  0.00  0.00    -0.097 F 
ATOM      8  F1  UNL d   1       2.506  -0.695  -1.415  0.00  0.00    -0.096 F 
ATOM      9  I   UNL d   1      -0.416   0.529  -1.868  0.00  0.00    -0.060 I 
ATOM     10  F2  UNL d   1      -1.584  -0.325   0.986  0.00  0.00    -0.096 F 
ATOM     11  F3  UNL d   1      -0.461  -1.641   3.070  0.00  0.00    -0.097 F 
ATOM     12  F4  UNL d   1       2.129  -2.487   2.932  0.00  0.00    -0.092 F 
ENDROOT
TORSDOF 0
ENDMDL
