MODEL 1
REMARK minimizedAffinity -2.1735754
REMARK minimizedRMSD -1
REMARK  0 active torsions:
REMARK  status: ('A' for Active; 'I' for Inactive)
ROOT
ATOM      1  C   UNL d   1       1.896  -1.518   2.077  0.00  0.00     0.124 A 
ATOM      2  C1  UNL d   1       0.709  -0.822   2.259  0.00  0.00     0.062 A 
ATOM      3  C2  UNL d   1       0.010  -0.331   1.160  0.00  0.00     0.162 A 
ATOM      4  C3  UNL d   1       0.496  -0.535  -0.132  0.00  0.00    -0.034 A 
ATOM      5  C4  UNL d   1       1.691  -1.235  -0.307  0.00  0.00     0.162 A 
ATOM      6  C5  UNL d   1       2.386  -1.724   0.794  0.00  0.00     0.062 A 
ATOM      7  F   UNL d   1       3.532  -2.396   0.616  0.00  0.00    -0.097 F 
ATOM      8  F1  UNL d   1       2.186  -1.449  -1.535  0.00  0.00    -0.096 F 
ATOM      9  I   UNL d   1      -0.547   0.198  -1.777  0.00  0.00    -0.060 I 
ATOM     10  F2  UNL d   1      -1.134   0.338   1.366  0.00  0.00    -0.096 F 
ATOM     11  F3  UNL d   1       0.235  -0.621   3.497  0.00  0.00    -0.097 F 
ATOM     12  F4  UNL d   1       2.567  -1.989   3.136  0.00  0.00    -0.092 F 
ENDROOT
TORSDOF 0
ENDMDL
