MODEL 1
REMARK minimizedAffinity 2.08891773
REMARK minimizedRMSD -1
REMARK  0 active torsions:
REMARK  status: ('A' for Active; 'I' for Inactive)
ROOT
ATOM      1  C   UNL d   1       0.893  -0.361   2.138  0.00  0.00     0.124 A 
ATOM      2  C1  UNL d   1       1.630   0.052   1.037  0.00  0.00     0.062 A 
ATOM      3  C2  UNL d   1       0.983   0.442  -0.133  0.00  0.00     0.162 A 
ATOM      4  C3  UNL d   1      -0.409   0.421  -0.207  0.00  0.00    -0.034 A 
ATOM      5  C4  UNL d   1      -1.144   0.004   0.904  0.00  0.00     0.162 A 
ATOM      6  C5  UNL d   1      -0.493  -0.385   2.071  0.00  0.00     0.062 A 
ATOM      7  F   UNL d   1      -1.207  -0.783   3.134  0.00  0.00    -0.097 F 
ATOM      8  F1  UNL d   1      -2.485  -0.028   0.867  0.00  0.00    -0.096 F 
ATOM      9  I   UNL d   1      -1.380   1.003  -1.954  0.00  0.00    -0.060 I 
ATOM     10  F2  UNL d   1       1.721   0.836  -1.181  0.00  0.00    -0.096 F 
ATOM     11  F3  UNL d   1       2.969   0.076   1.099  0.00  0.00    -0.097 F 
ATOM     12  F4  UNL d   1       1.518  -0.736   3.261  0.00  0.00    -0.092 F 
ENDROOT
TORSDOF 0
ENDMDL
