MODEL 1
REMARK minimizedAffinity -2.51291776
REMARK minimizedRMSD -1
REMARK  0 active torsions:
REMARK  status: ('A' for Active; 'I' for Inactive)
ROOT
ATOM      1  C   UNL d   1       1.853  -1.183   1.280  0.00  0.00     0.124 A 
ATOM      2  C1  UNL d   1       1.713  -1.713   0.005  0.00  0.00     0.062 A 
ATOM      3  C2  UNL d   1       0.942  -1.054  -0.947  0.00  0.00     0.162 A 
ATOM      4  C3  UNL d   1       0.304   0.145  -0.629  0.00  0.00    -0.034 A 
ATOM      5  C4  UNL d   1       0.448   0.672   0.656  0.00  0.00     0.162 A 
ATOM      6  C5  UNL d   1       1.220   0.009   1.604  0.00  0.00     0.062 A 
ATOM      7  F   UNL d   1       1.354   0.523   2.835  0.00  0.00    -0.097 F 
ATOM      8  F1  UNL d   1      -0.152   1.823   0.996  0.00  0.00    -0.096 F 
ATOM      9  I   UNL d   1      -0.851   1.135  -2.049  0.00  0.00    -0.060 I 
ATOM     10  F2  UNL d   1       0.825  -1.589  -2.171  0.00  0.00    -0.096 F 
ATOM     11  F3  UNL d   1       2.323  -2.865  -0.311  0.00  0.00    -0.097 F 
ATOM     12  F4  UNL d   1       2.595  -1.820   2.194  0.00  0.00    -0.092 F 
ENDROOT
TORSDOF 0
ENDMDL
