MODEL 1
REMARK minimizedAffinity 0.982025862
REMARK minimizedRMSD -1
REMARK  0 active torsions:
REMARK  status: ('A' for Active; 'I' for Inactive)
ROOT
ATOM      1  C   UNL d   1       1.264  -1.789   2.054  0.00  0.00     0.124 A 
ATOM      2  C1  UNL d   1       0.070  -1.101   2.215  0.00  0.00     0.062 A 
ATOM      3  C2  UNL d   1      -0.497  -0.420   1.141  0.00  0.00     0.162 A 
ATOM      4  C3  UNL d   1       0.130  -0.426  -0.105  0.00  0.00    -0.034 A 
ATOM      5  C4  UNL d   1       1.331  -1.120  -0.260  0.00  0.00     0.162 A 
ATOM      6  C5  UNL d   1       1.893  -1.799   0.817  0.00  0.00     0.062 A 
ATOM      7  F   UNL d   1       3.047  -2.464   0.659  0.00  0.00    -0.097 F 
ATOM      8  F1  UNL d   1       1.960  -1.147  -1.444  0.00  0.00    -0.096 F 
ATOM      9  I   UNL d   1      -0.714   0.590  -1.714  0.00  0.00    -0.060 I 
ATOM     10  F2  UNL d   1      -1.651   0.237   1.326  0.00  0.00    -0.096 F 
ATOM     11  F3  UNL d   1      -0.540  -1.089   3.409  0.00  0.00    -0.097 F 
ATOM     12  F4  UNL d   1       1.807  -2.442   3.089  0.00  0.00    -0.092 F 
ENDROOT
TORSDOF 0
ENDMDL
