MODEL 1
REMARK minimizedAffinity 1.29947531
REMARK minimizedRMSD -1
REMARK  0 active torsions:
REMARK  status: ('A' for Active; 'I' for Inactive)
ROOT
ATOM      1  C   UNL d   1      -0.930  -1.211  -1.143  0.00  0.00     0.124 A 
ATOM      2  C1  UNL d   1       0.457  -1.180  -1.115  0.00  0.00     0.062 A 
ATOM      3  C2  UNL d   1       1.127  -0.857   0.062  0.00  0.00     0.162 A 
ATOM      4  C3  UNL d   1       0.409  -0.563   1.222  0.00  0.00    -0.034 A 
ATOM      5  C4  UNL d   1      -0.986  -0.595   1.185  0.00  0.00     0.162 A 
ATOM      6  C5  UNL d   1      -1.650  -0.919   0.007  0.00  0.00     0.062 A 
ATOM      7  F   UNL d   1      -2.991  -0.948  -0.019  0.00  0.00    -0.097 F 
ATOM      8  F1  UNL d   1      -1.707  -0.319   2.282  0.00  0.00    -0.096 F 
ATOM      9  I   UNL d   1       1.406  -0.080   2.984  0.00  0.00    -0.060 I 
ATOM     10  F2  UNL d   1       2.468  -0.834   0.061  0.00  0.00    -0.096 F 
ATOM     11  F3  UNL d   1       1.156  -1.460  -2.224  0.00  0.00    -0.097 F 
ATOM     12  F4  UNL d   1      -1.571  -1.521  -2.277  0.00  0.00    -0.092 F 
ENDROOT
TORSDOF 0
ENDMDL
