MODEL 1
REMARK minimizedAffinity -2.87824512
REMARK minimizedRMSD -1
REMARK  0 active torsions:
REMARK  status: ('A' for Active; 'I' for Inactive)
ROOT
ATOM      1  C1  DEN d   1       3.630  -4.124   4.143  0.00  0.00     0.130 A 
ATOM      2  C2  DEN d   1       4.853  -4.782   3.692  0.00  0.00    -0.031 A 
ATOM      3  C3  DEN d   1       6.000  -3.951   4.112  0.00  0.00     0.027 A 
ATOM      4  C4  DEN d   1       5.999  -1.724   5.412  0.00  0.00     0.027 A 
ATOM      5  C5  DEN d   1       5.201  -0.767   6.000  0.00  0.00    -0.003 A 
ATOM      6  C6  DEN d   1       3.834  -0.844   5.980  0.00  0.00     0.001 A 
ATOM      7  C7  DEN d   1       3.223  -1.924   5.399  0.00  0.00     0.017 A 
ATOM      8  C8  DEN d   1       4.021  -2.889   4.798  0.00  0.00    -0.094 A 
ATOM      9  C9  DEN d   1       5.402  -2.799   4.839  0.00  0.00    -0.072 A 
ENDROOT
TORSDOF 0
ENDMDL
