MODEL 1
REMARK minimizedAffinity -0.647926509
REMARK minimizedRMSD -1
REMARK  0 active torsions:
REMARK  status: ('A' for Active; 'I' for Inactive)
ROOT
ATOM      1  C1  DEN d   1       5.969   2.990  -4.814  0.00  0.00     0.130 A 
ATOM      2  C2  DEN d   1       5.006   2.824  -5.899  0.00  0.00    -0.031 A 
ATOM      3  C3  DEN d   1       3.902   3.780  -5.679  0.00  0.00     0.027 A 
ATOM      4  C4  DEN d   1       3.595   5.495  -3.778  0.00  0.00     0.027 A 
ATOM      5  C5  DEN d   1       4.145   5.997  -2.619  0.00  0.00    -0.003 A 
ATOM      6  C6  DEN d   1       5.315   5.512  -2.097  0.00  0.00     0.001 A 
ATOM      7  C7  DEN d   1       5.997   4.526  -2.759  0.00  0.00     0.017 A 
ATOM      8  C8  DEN d   1       5.444   4.010  -3.924  0.00  0.00    -0.094 A 
ATOM      9  C9  DEN d   1       4.267   4.521  -4.442  0.00  0.00    -0.072 A 
ENDROOT
TORSDOF 0
ENDMDL
