MODEL 1
REMARK minimizedAffinity -3.82613873
REMARK minimizedRMSD -1
REMARK  0 active torsions:
REMARK  status: ('A' for Active; 'I' for Inactive)
ROOT
ATOM      1  C1  DEN d   1       3.752  -1.831   5.962  0.00  0.00     0.130 A 
ATOM      2  C2  DEN d   1       3.010  -1.195   4.877  0.00  0.00    -0.031 A 
ATOM      3  C3  DEN d   1       3.319  -1.919   3.628  0.00  0.00     0.027 A 
ATOM      4  C4  DEN d   1       4.862  -3.955   3.271  0.00  0.00     0.027 A 
ATOM      5  C5  DEN d   1       5.716  -4.838   3.892  0.00  0.00    -0.003 A 
ATOM      6  C6  DEN d   1       6.000  -4.761   5.230  0.00  0.00     0.001 A 
ATOM      7  C7  DEN d   1       5.388  -3.807   6.000  0.00  0.00     0.017 A 
ATOM      8  C8  DEN d   1       4.532  -2.908   5.379  0.00  0.00    -0.094 A 
ATOM      9  C9  DEN d   1       4.248  -3.010   4.027  0.00  0.00    -0.072 A 
ENDROOT
TORSDOF 0
ENDMDL
