MODEL 1
REMARK minimizedAffinity 0.507934391
REMARK minimizedRMSD -1
REMARK  0 active torsions:
REMARK  status: ('A' for Active; 'I' for Inactive)
ROOT
ATOM      1  C1  DEN d   1       3.168  -2.335   3.778  0.00  0.00     0.130 A 
ATOM      2  C2  DEN d   1       3.007  -1.441   4.921  0.00  0.00    -0.031 A 
ATOM      3  C3  DEN d   1       3.905  -1.908   5.996  0.00  0.00     0.027 A 
ATOM      4  C4  DEN d   1       5.524  -3.916   6.000  0.00  0.00     0.027 A 
ATOM      5  C5  DEN d   1       6.000  -4.976   5.260  0.00  0.00    -0.003 A 
ATOM      6  C6  DEN d   1       5.544  -5.248   3.997  0.00  0.00     0.001 A 
ATOM      7  C7  DEN d   1       4.616  -4.423   3.419  0.00  0.00     0.017 A 
ATOM      8  C8  DEN d   1       4.126  -3.357   4.161  0.00  0.00    -0.094 A 
ATOM      9  C9  DEN d   1       4.609  -3.091   5.431  0.00  0.00    -0.072 A 
ENDROOT
TORSDOF 0
ENDMDL
