MODEL 1
REMARK minimizedAffinity 7.24083281
REMARK minimizedRMSD -1
REMARK  0 active torsions:
REMARK  status: ('A' for Active; 'I' for Inactive)
ROOT
ATOM      1  C1  DEN d   1       2.966   5.926  -4.718  0.00  0.00     0.130 A 
ATOM      2  C2  DEN d   1       3.442   5.323  -5.960  0.00  0.00    -0.031 A 
ATOM      3  C3  DEN d   1       4.719   4.640  -5.675  0.00  0.00     0.027 A 
ATOM      4  C4  DEN d   1       5.998   4.454  -3.442  0.00  0.00     0.027 A 
ATOM      5  C5  DEN d   1       5.993   4.814  -2.113  0.00  0.00    -0.003 A 
ATOM      6  C6  DEN d   1       5.004   5.592  -1.571  0.00  0.00     0.001 A 
ATOM      7  C7  DEN d   1       3.955   5.998  -2.352  0.00  0.00     0.017 A 
ATOM      8  C8  DEN d   1       3.956   5.646  -3.695  0.00  0.00    -0.094 A 
ATOM      9  C9  DEN d   1       4.959   4.848  -4.221  0.00  0.00    -0.072 A 
ENDROOT
TORSDOF 0
ENDMDL
