MODEL 1
REMARK minimizedAffinity 3.21398711
REMARK minimizedRMSD -1
REMARK  0 active torsions:
REMARK  status: ('A' for Active; 'I' for Inactive)
ROOT
ATOM      1  C1  DEN d   1       3.891   6.000  -2.385  0.00  0.00     0.130 A 
ATOM      2  C2  DEN d   1       4.973   5.889  -1.412  0.00  0.00    -0.031 A 
ATOM      3  C3  DEN d   1       5.991   4.972  -1.963  0.00  0.00     0.027 A 
ATOM      4  C4  DEN d   1       5.999   3.725  -4.220  0.00  0.00     0.027 A 
ATOM      5  C5  DEN d   1       5.289   3.495  -5.379  0.00  0.00    -0.003 A 
ATOM      6  C6  DEN d   1       4.059   4.053  -5.604  0.00  0.00     0.001 A 
ATOM      7  C7  DEN d   1       3.520   4.905  -4.676  0.00  0.00     0.017 A 
ATOM      8  C8  DEN d   1       4.226   5.135  -3.503  0.00  0.00    -0.094 A 
ATOM      9  C9  DEN d   1       5.474   4.571  -3.299  0.00  0.00    -0.072 A 
ENDROOT
TORSDOF 0
ENDMDL
