MODEL 1
REMARK minimizedAffinity 5.16867542
REMARK minimizedRMSD -1
REMARK  0 active torsions:
REMARK  status: ('A' for Active; 'I' for Inactive)
ROOT
ATOM      1  C1  DEN d   1       3.099  -1.508   3.624  0.00  0.00     0.130 A 
ATOM      2  C2  DEN d   1       2.559  -0.913   4.843  0.00  0.00    -0.031 A 
ATOM      3  C3  DEN d   1       3.294  -1.480   5.992  0.00  0.00     0.027 A 
ATOM      4  C4  DEN d   1       5.208  -3.209   6.000  0.00  0.00     0.027 A 
ATOM      5  C5  DEN d   1       6.000  -4.011   5.208  0.00  0.00    -0.003 A 
ATOM      6  C6  DEN d   1       5.859  -4.060   3.846  0.00  0.00     0.001 A 
ATOM      7  C7  DEN d   1       4.934  -3.258   3.231  0.00  0.00     0.017 A 
ATOM      8  C8  DEN d   1       4.127  -2.453   4.023  0.00  0.00    -0.094 A 
ATOM      9  C9  DEN d   1       4.293  -2.409   5.397  0.00  0.00    -0.072 A 
ENDROOT
TORSDOF 0
ENDMDL
