MODEL 1
REMARK minimizedAffinity 23.3586082
REMARK minimizedRMSD -1
REMARK  0 active torsions:
REMARK  status: ('A' for Active; 'I' for Inactive)
ROOT
ATOM      1  C1  DEN d   1       1.769   3.691   0.911  0.00  0.00     0.130 A 
ATOM      2  C2  DEN d   1       2.599   4.883   1.070  0.00  0.00    -0.031 A 
ATOM      3  C3  DEN d   1       1.721   6.000   1.473  0.00  0.00     0.027 A 
ATOM      4  C4  DEN d   1      -0.828   6.000   1.868  0.00  0.00     0.027 A 
ATOM      5  C5  DEN d   1      -1.967   5.226   1.845  0.00  0.00    -0.003 A 
ATOM      6  C6  DEN d   1      -1.946   3.906   1.479  0.00  0.00     0.001 A 
ATOM      7  C7  DEN d   1      -0.755   3.308   1.165  0.00  0.00     0.017 A 
ATOM      8  C8  DEN d   1       0.397   4.083   1.179  0.00  0.00    -0.094 A 
ATOM      9  C9  DEN d   1       0.357   5.413   1.563  0.00  0.00    -0.072 A 
ENDROOT
TORSDOF 0
ENDMDL
