MODEL 1
REMARK minimizedAffinity 7.55320263
REMARK minimizedRMSD -1
REMARK  0 active torsions:
REMARK  status: ('A' for Active; 'I' for Inactive)
ROOT
ATOM      1  C1  DEN d   1       5.708  -4.138   4.519  0.00  0.00     0.130 A 
ATOM      2  C2  DEN d   1       6.000  -3.569   5.832  0.00  0.00    -0.031 A 
ATOM      3  C3  DEN d   1       5.172  -2.358   6.000  0.00  0.00     0.027 A 
ATOM      4  C4  DEN d   1       3.472  -1.316   4.364  0.00  0.00     0.027 A 
ATOM      5  C5  DEN d   1       2.892  -1.436   3.121  0.00  0.00    -0.003 A 
ATOM      6  C6  DEN d   1       3.232  -2.436   2.250  0.00  0.00     0.001 A 
ATOM      7  C7  DEN d   1       4.146  -3.384   2.628  0.00  0.00     0.017 A 
ATOM      8  C8  DEN d   1       4.740  -3.266   3.878  0.00  0.00    -0.094 A 
ATOM      9  C9  DEN d   1       4.374  -2.254   4.749  0.00  0.00    -0.072 A 
ENDROOT
TORSDOF 0
ENDMDL
