MODEL 1
REMARK minimizedAffinity 2.36696076
REMARK minimizedRMSD -1
REMARK  0 active torsions:
REMARK  status: ('A' for Active; 'I' for Inactive)
ROOT
ATOM      1  C1  DEN d   1       5.549  -3.611   6.000  0.00  0.00     0.130 A 
ATOM      2  C2  DEN d   1       5.999  -4.540   4.967  0.00  0.00    -0.031 A 
ATOM      3  C3  DEN d   1       5.226  -4.268   3.739  0.00  0.00     0.027 A 
ATOM      4  C4  DEN d   1       3.388  -2.504   3.337  0.00  0.00     0.027 A 
ATOM      5  C5  DEN d   1       2.655  -1.493   3.919  0.00  0.00    -0.003 A 
ATOM      6  C6  DEN d   1       2.810  -1.143   5.234  0.00  0.00     0.001 A 
ATOM      7  C7  DEN d   1       3.752  -1.780   5.999  0.00  0.00     0.017 A 
ATOM      8  C8  DEN d   1       4.489  -2.804   5.421  0.00  0.00    -0.094 A 
ATOM      9  C9  DEN d   1       4.326  -3.135   4.087  0.00  0.00    -0.072 A 
ENDROOT
TORSDOF 0
ENDMDL
