MODEL 1
REMARK minimizedAffinity -0.439221561
REMARK minimizedRMSD -1
REMARK  0 active torsions:
REMARK  status: ('A' for Active; 'I' for Inactive)
ROOT
ATOM      1  C1  DEN d   1       2.819  -1.657   3.814  0.00  0.00     0.130 A 
ATOM      2  C2  DEN d   1       2.593  -0.751   4.937  0.00  0.00    -0.031 A 
ATOM      3  C3  DEN d   1       3.573  -1.078   5.992  0.00  0.00     0.027 A 
ATOM      4  C4  DEN d   1       5.412  -2.887   5.993  0.00  0.00     0.027 A 
ATOM      5  C5  DEN d   1       5.982  -3.909   5.267  0.00  0.00    -0.003 A 
ATOM      6  C6  DEN d   1       5.519  -4.272   4.030  0.00  0.00     0.001 A 
ATOM      7  C7  DEN d   1       4.484  -3.577   3.461  0.00  0.00     0.017 A 
ATOM      8  C8  DEN d   1       3.900  -2.550   4.191  0.00  0.00    -0.094 A 
ATOM      9  C9  DEN d   1       4.390  -2.191   5.435  0.00  0.00    -0.072 A 
ENDROOT
TORSDOF 0
ENDMDL
