MODEL 1
REMARK minimizedAffinity 5.14482403
REMARK minimizedRMSD -1
REMARK  0 active torsions:
REMARK  status: ('A' for Active; 'I' for Inactive)
ROOT
ATOM      1  C1  DEN d   1       3.686  -0.935   5.671  0.00  0.00     0.130 A 
ATOM      2  C2  DEN d   1       2.243  -1.135   5.772  0.00  0.00    -0.031 A 
ATOM      3  C3  DEN d   1       1.992  -2.583   5.917  0.00  0.00     0.027 A 
ATOM      4  C4  DEN d   1       3.689  -4.524   6.000  0.00  0.00     0.027 A 
ATOM      5  C5  DEN d   1       5.026  -4.849   5.941  0.00  0.00    -0.003 A 
ATOM      6  C6  DEN d   1       6.000  -3.905   5.756  0.00  0.00     0.001 A 
ATOM      7  C7  DEN d   1       5.654  -2.582   5.668  0.00  0.00     0.017 A 
ATOM      8  C8  DEN d   1       4.307  -2.247   5.718  0.00  0.00    -0.094 A 
ATOM      9  C9  DEN d   1       3.339  -3.215   5.919  0.00  0.00    -0.072 A 
ENDROOT
TORSDOF 0
ENDMDL
