MODEL 1
REMARK minimizedAffinity -3.86280084
REMARK minimizedRMSD -1
REMARK  0 active torsions:
REMARK  status: ('A' for Active; 'I' for Inactive)
ROOT
ATOM      1  C1  DEN d   1       5.661  -3.956   5.889  0.00  0.00     0.130 A 
ATOM      2  C2  DEN d   1       6.000  -4.888   4.817  0.00  0.00    -0.031 A 
ATOM      3  C3  DEN d   1       5.214  -4.516   3.623  0.00  0.00     0.027 A 
ATOM      4  C4  DEN d   1       3.518  -2.594   3.331  0.00  0.00     0.027 A 
ATOM      5  C5  DEN d   1       2.892  -1.544   3.965  0.00  0.00    -0.003 A 
ATOM      6  C6  DEN d   1       3.117  -1.248   5.284  0.00  0.00     0.001 A 
ATOM      7  C7  DEN d   1       4.025  -1.983   5.999  0.00  0.00     0.017 A 
ATOM      8  C8  DEN d   1       4.656  -3.048   5.369  0.00  0.00    -0.094 A 
ATOM      9  C9  DEN d   1       4.424  -3.324   4.032  0.00  0.00    -0.072 A 
ENDROOT
TORSDOF 0
ENDMDL
