MODEL 1
REMARK minimizedAffinity 7.93828058
REMARK minimizedRMSD -1
REMARK  0 active torsions:
REMARK  status: ('A' for Active; 'I' for Inactive)
ROOT
ATOM      1  C1  DEN d   1       2.635   3.629  -3.327  0.00  0.00     0.130 A 
ATOM      2  C2  DEN d   1       1.913   4.853  -2.993  0.00  0.00    -0.031 A 
ATOM      3  C3  DEN d   1       2.715   6.000  -3.465  0.00  0.00     0.027 A 
ATOM      4  C4  DEN d   1       4.990   5.998  -4.679  0.00  0.00     0.027 A 
ATOM      5  C5  DEN d   1       6.000   5.201  -5.170  0.00  0.00    -0.003 A 
ATOM      6  C6  DEN d   1       5.975   3.836  -5.053  0.00  0.00     0.001 A 
ATOM      7  C7  DEN d   1       4.897   3.225  -4.469  0.00  0.00     0.017 A 
ATOM      8  C8  DEN d   1       3.879   4.023  -3.964  0.00  0.00    -0.094 A 
ATOM      9  C9  DEN d   1       3.917   5.400  -4.104  0.00  0.00    -0.072 A 
ENDROOT
TORSDOF 0
ENDMDL
