MODEL 1
REMARK minimizedAffinity 6.28896904
REMARK minimizedRMSD -1
REMARK  0 active torsions:
REMARK  status: ('A' for Active; 'I' for Inactive)
ROOT
ATOM      1  C1  DEN d   1       5.535  -2.965   5.981  0.00  0.00     0.130 A 
ATOM      2  C2  DEN d   1       5.998  -3.947   5.004  0.00  0.00    -0.031 A 
ATOM      3  C3  DEN d   1       5.078  -3.911   3.850  0.00  0.00     0.027 A 
ATOM      4  C4  DEN d   1       2.995  -2.435   3.481  0.00  0.00     0.027 A 
ATOM      5  C5  DEN d   1       2.199  -1.458   4.036  0.00  0.00    -0.003 A 
ATOM      6  C6  DEN d   1       2.437  -0.943   5.283  0.00  0.00     0.001 A 
ATOM      7  C7  DEN d   1       3.525  -1.371   5.997  0.00  0.00     0.017 A 
ATOM      8  C8  DEN d   1       4.328  -2.362   5.447  0.00  0.00    -0.094 A 
ATOM      9  C9  DEN d   1       4.077  -2.861   4.180  0.00  0.00    -0.072 A 
ENDROOT
TORSDOF 0
ENDMDL
