MODEL 1
REMARK minimizedAffinity -4.36686802
REMARK minimizedRMSD -1
REMARK  0 active torsions:
REMARK  status: ('A' for Active; 'I' for Inactive)
ROOT
ATOM      1  C   UNL d   1       1.572  -0.611   3.068  0.00  0.00     0.078 C 
ATOM      2  C1  UNL d   1       0.468  -0.335   2.091  0.00  0.00    -0.077 A 
ATOM      3  C2  UNL d   1       0.620  -0.628   0.730  0.00  0.00    -0.001 A 
ATOM      4  C3  UNL d   1      -0.412  -0.357  -0.170  0.00  0.00     0.003 A 
ATOM      5  C4  UNL d   1      -1.603   0.209   0.281  0.00  0.00    -0.005 A 
ATOM      6  C5  UNL d   1      -1.762   0.506   1.633  0.00  0.00     0.003 A 
ATOM      7  C6  UNL d   1      -0.731   0.236   2.534  0.00  0.00    -0.001 A 
ENDROOT
TORSDOF 0
ENDMDL
