MODEL 1
REMARK minimizedAffinity -3.73471451
REMARK minimizedRMSD -1
REMARK  0 active torsions:
REMARK  status: ('A' for Active; 'I' for Inactive)
ROOT
ATOM      1  C   UNL d   1      -1.112   0.350   0.531  0.00  0.00     0.078 C 
ATOM      2  C1  UNL d   1      -0.350  -0.021  -0.706  0.00  0.00    -0.077 A 
ATOM      3  C2  UNL d   1       0.112   0.961  -1.591  0.00  0.00    -0.001 A 
ATOM      4  C3  UNL d   1       0.811   0.600  -2.744  0.00  0.00     0.003 A 
ATOM      5  C4  UNL d   1       1.054  -0.744  -3.023  0.00  0.00    -0.005 A 
ATOM      6  C5  UNL d   1       0.597  -1.728  -2.149  0.00  0.00     0.003 A 
ATOM      7  C6  UNL d   1      -0.103  -1.369  -0.996  0.00  0.00    -0.001 A 
ENDROOT
TORSDOF 0
ENDMDL
