MODEL 1
REMARK minimizedAffinity 0.720132351
REMARK minimizedRMSD -1
REMARK  0 active torsions:
REMARK  status: ('A' for Active; 'I' for Inactive)
ROOT
ATOM      1  C   UNL d   1       0.831  -0.022  -3.372  0.00  0.00     0.078 C 
ATOM      2  C1  UNL d   1       0.121   0.065  -2.054  0.00  0.00    -0.077 A 
ATOM      3  C2  UNL d   1       0.641  -0.557  -0.912  0.00  0.00    -0.001 A 
ATOM      4  C3  UNL d   1      -0.035  -0.476   0.306  0.00  0.00     0.003 A 
ATOM      5  C4  UNL d   1      -1.236   0.226   0.394  0.00  0.00    -0.005 A 
ATOM      6  C5  UNL d   1      -1.762   0.846  -0.737  0.00  0.00     0.003 A 
ATOM      7  C6  UNL d   1      -1.087   0.766  -1.956  0.00  0.00    -0.001 A 
ENDROOT
TORSDOF 0
ENDMDL
