MODEL 1
REMARK minimizedAffinity -2.16581631
REMARK minimizedRMSD -1
REMARK  0 active torsions:
REMARK  status: ('A' for Active; 'I' for Inactive)
ROOT
ATOM      1  C   UNL d   1       0.352  -0.353  -1.807  0.00  0.00     0.078 C 
ATOM      2  C1  UNL d   1      -0.415  -0.002  -0.567  0.00  0.00    -0.077 A 
ATOM      3  C2  UNL d   1      -0.003  -0.462   0.690  0.00  0.00    -0.001 A 
ATOM      4  C3  UNL d   1      -0.732  -0.135   1.835  0.00  0.00     0.003 A 
ATOM      5  C4  UNL d   1      -1.878   0.652   1.734  0.00  0.00    -0.005 A 
ATOM      6  C5  UNL d   1      -2.296   1.113   0.487  0.00  0.00     0.003 A 
ATOM      7  C6  UNL d   1      -1.568   0.787  -0.659  0.00  0.00    -0.001 A 
ENDROOT
TORSDOF 0
ENDMDL
