MODEL 1
REMARK minimizedAffinity -1.61758971
REMARK minimizedRMSD -1
REMARK  0 active torsions:
REMARK  status: ('A' for Active; 'I' for Inactive)
ROOT
ATOM      1  C   UNL d   1       1.164   0.557  -3.903  0.00  0.00     0.078 C 
ATOM      2  C1  UNL d   1       0.704   0.201  -2.521  0.00  0.00    -0.077 A 
ATOM      3  C2  UNL d   1      -0.019   1.115  -1.744  0.00  0.00    -0.001 A 
ATOM      4  C3  UNL d   1      -0.432   0.774  -0.455  0.00  0.00     0.003 A 
ATOM      5  C4  UNL d   1      -0.125  -0.480   0.069  0.00  0.00    -0.005 A 
ATOM      6  C5  UNL d   1       0.596  -1.395  -0.695  0.00  0.00     0.003 A 
ATOM      7  C6  UNL d   1       1.010  -1.056  -1.984  0.00  0.00    -0.001 A 
ENDROOT
TORSDOF 0
ENDMDL
