MODEL 1
REMARK minimizedAffinity -3.66465211
REMARK minimizedRMSD -1
REMARK  0 active torsions:
REMARK  status: ('A' for Active; 'I' for Inactive)
ROOT
ATOM      1  C   UNL d   1      -1.243   1.141  -0.013  0.00  0.00     0.078 C 
ATOM      2  C1  UNL d   1      -0.334   0.500  -1.019  0.00  0.00    -0.077 A 
ATOM      3  C2  UNL d   1      -0.157   1.059  -2.291  0.00  0.00    -0.001 A 
ATOM      4  C3  UNL d   1       0.684   0.446  -3.221  0.00  0.00     0.003 A 
ATOM      5  C4  UNL d   1       1.355  -0.730  -2.890  0.00  0.00    -0.005 A 
ATOM      6  C5  UNL d   1       1.183  -1.295  -1.627  0.00  0.00     0.003 A 
ATOM      7  C6  UNL d   1       0.342  -0.683  -0.696  0.00  0.00    -0.001 A 
ENDROOT
TORSDOF 0
ENDMDL
