MODEL 1
REMARK minimizedAffinity -4.92817259
REMARK minimizedRMSD -1
REMARK  0 active torsions:
REMARK  status: ('A' for Active; 'I' for Inactive)
ROOT
ATOM      1  C   UNL d   1       0.968  -0.747   3.372  0.00  0.00     0.078 C 
ATOM      2  C1  UNL d   1       0.193  -0.336   2.156  0.00  0.00    -0.077 A 
ATOM      3  C2  UNL d   1       0.697  -0.561   0.869  0.00  0.00    -0.001 A 
ATOM      4  C3  UNL d   1      -0.030  -0.164  -0.254  0.00  0.00     0.003 A 
ATOM      5  C4  UNL d   1      -1.266   0.461  -0.102  0.00  0.00    -0.005 A 
ATOM      6  C5  UNL d   1      -1.776   0.691   1.175  0.00  0.00     0.003 A 
ATOM      7  C6  UNL d   1      -1.049   0.295   2.299  0.00  0.00    -0.001 A 
ENDROOT
TORSDOF 0
ENDMDL
