MODEL 1
REMARK minimizedAffinity -5.32388783
REMARK minimizedRMSD -1
REMARK  1 active torsions:
REMARK  status: ('A' for Active; 'I' for Inactive)
REMARK    1  A    between atoms: C1_2  and  C2_3 
ROOT
ATOM      1  C2  UNL d   1       0.009  -2.201  -1.066  0.00  0.00    -0.077 A 
ATOM      2  C3  UNL d   1       0.083  -0.834  -0.767  0.00  0.00     0.002 A 
ATOM      3  C4  UNL d   1      -0.046  -0.391   0.551  0.00  0.00     0.002 A 
ATOM      4  C5  UNL d   1      -0.246  -1.309   1.580  0.00  0.00    -0.004 A 
ATOM      5  C6  UNL d   1      -0.324  -2.671   1.292  0.00  0.00     0.002 A 
ATOM      6  C7  UNL d   1      -0.196  -3.115  -0.024  0.00  0.00     0.002 A 
ENDROOT
BRANCH   1   7
ATOM      7  C1  UNL d   1       0.197  -2.685  -2.480  0.00  0.00     0.055 C 
ATOM      8  C   UNL d   1       0.640  -1.554  -3.397  0.00  0.00     0.019 C 
ENDBRANCH   1   7
TORSDOF 1
ENDMDL
