MODEL 1
REMARK minimizedAffinity -4.81844711
REMARK minimizedRMSD -1
REMARK  1 active torsions:
REMARK  status: ('A' for Active; 'I' for Inactive)
REMARK    1  A    between atoms: C1_2  and  C2_3 
ROOT
ATOM      1  C2  UNL d   1       0.152  -1.432   0.025  0.00  0.00    -0.077 A 
ATOM      2  C3  UNL d   1       0.198  -1.382  -1.375  0.00  0.00     0.002 A 
ATOM      3  C4  UNL d   1       0.148  -2.558  -2.126  0.00  0.00     0.002 A 
ATOM      4  C5  UNL d   1       0.048  -3.791  -1.486  0.00  0.00    -0.004 A 
ATOM      5  C6  UNL d   1       0.004  -3.851  -0.094  0.00  0.00     0.002 A 
ATOM      6  C7  UNL d   1       0.055  -2.677   0.658  0.00  0.00     0.002 A 
ENDROOT
BRANCH   1   7
ATOM      7  C1  UNL d   1       0.156  -0.161   0.835  0.00  0.00     0.055 C 
ATOM      8  C   UNL d   1       0.613   1.026  -0.000  0.00  0.00     0.019 C 
ENDBRANCH   1   7
TORSDOF 1
ENDMDL
