MODEL 1
REMARK minimizedAffinity -4.48476791
REMARK minimizedRMSD -1
REMARK  1 active torsions:
REMARK  status: ('A' for Active; 'I' for Inactive)
REMARK    1  A    between atoms: C1_2  and  C2_3 
ROOT
ATOM      1  C2  UNL d   1       0.305  -0.138  -0.309  0.00  0.00    -0.077 A 
ATOM      2  C3  UNL d   1       0.831  -1.273  -0.942  0.00  0.00     0.002 A 
ATOM      3  C4  UNL d   1       0.457  -2.551  -0.525  0.00  0.00     0.002 A 
ATOM      4  C5  UNL d   1      -0.448  -2.707   0.523  0.00  0.00    -0.004 A 
ATOM      5  C6  UNL d   1      -0.975  -1.584   1.161  0.00  0.00     0.002 A 
ATOM      6  C7  UNL d   1      -0.601  -0.305   0.746  0.00  0.00     0.002 A 
ENDROOT
BRANCH   1   7
ATOM      7  C1  UNL d   1       0.670   1.243  -0.790  0.00  0.00     0.055 C 
ATOM      8  C   UNL d   1       1.288   2.072   0.326  0.00  0.00     0.019 C 
ENDBRANCH   1   7
TORSDOF 1
ENDMDL
