MODEL 1
REMARK minimizedAffinity -4.62989998
REMARK minimizedRMSD -1
REMARK  1 active torsions:
REMARK  status: ('A' for Active; 'I' for Inactive)
REMARK    1  A    between atoms: C1_2  and  C2_3 
ROOT
ATOM      1  C2  UNL d   1      -0.656  -1.072   0.413  0.00  0.00    -0.077 A 
ATOM      2  C3  UNL d   1      -0.265  -0.718  -0.886  0.00  0.00     0.002 A 
ATOM      3  C4  UNL d   1       0.201   0.570  -1.157  0.00  0.00     0.002 A 
ATOM      4  C5  UNL d   1       0.284   1.512  -0.134  0.00  0.00    -0.004 A 
ATOM      5  C6  UNL d   1      -0.105   1.171   1.160  0.00  0.00     0.002 A 
ATOM      6  C7  UNL d   1      -0.572  -0.115   1.433  0.00  0.00     0.002 A 
ENDROOT
BRANCH   1   7
ATOM      7  C1  UNL d   1      -1.112  -2.475   0.718  0.00  0.00     0.055 C 
ATOM      8  C   UNL d   1      -0.058  -3.498   0.321  0.00  0.00     0.019 C 
ENDBRANCH   1   7
TORSDOF 1
ENDMDL
