MODEL 1
REMARK minimizedAffinity -4.64643049
REMARK minimizedRMSD -1
REMARK  1 active torsions:
REMARK  status: ('A' for Active; 'I' for Inactive)
REMARK    1  A    between atoms: C1_2  and  C2_3 
ROOT
ATOM      1  C2  UNL d   1      -0.110  -0.078  -0.045  0.00  0.00    -0.077 A 
ATOM      2  C3  UNL d   1      -0.913  -0.767   0.874  0.00  0.00     0.002 A 
ATOM      3  C4  UNL d   1      -0.869  -2.161   0.945  0.00  0.00     0.002 A 
ATOM      4  C5  UNL d   1      -0.021  -2.876   0.102  0.00  0.00    -0.004 A 
ATOM      5  C6  UNL d   1       0.781  -2.200  -0.817  0.00  0.00     0.002 A 
ATOM      6  C7  UNL d   1       0.737  -0.807  -0.890  0.00  0.00     0.002 A 
ENDROOT
BRANCH   1   7
ATOM      7  C1  UNL d   1      -0.119   1.428  -0.088  0.00  0.00     0.055 C 
ATOM      8  C   UNL d   1       1.207   2.004   0.386  0.00  0.00     0.019 C 
ENDBRANCH   1   7
TORSDOF 1
ENDMDL
