MODEL 1
REMARK minimizedAffinity -5.58554077
REMARK minimizedRMSD -1
REMARK  1 active torsions:
REMARK  status: ('A' for Active; 'I' for Inactive)
REMARK    1  A    between atoms: C1_2  and  C2_3 
ROOT
ATOM      1  C2  UNL d   1       0.139  -0.139   0.311  0.00  0.00    -0.077 A 
ATOM      2  C3  UNL d   1       0.595  -0.865  -0.799  0.00  0.00     0.002 A 
ATOM      3  C4  UNL d   1       0.530  -2.259  -0.805  0.00  0.00     0.002 A 
ATOM      4  C5  UNL d   1       0.007  -2.939   0.292  0.00  0.00    -0.004 A 
ATOM      5  C6  UNL d   1      -0.447  -2.227   1.401  0.00  0.00     0.002 A 
ATOM      6  C7  UNL d   1      -0.382  -0.833   1.410  0.00  0.00     0.002 A 
ENDROOT
BRANCH   1   7
ATOM      7  C1  UNL d   1       0.163   1.367   0.300  0.00  0.00     0.055 C 
ATOM      8  C   UNL d   1       1.512   1.903   0.757  0.00  0.00     0.019 C 
ENDBRANCH   1   7
TORSDOF 1
ENDMDL
