MODEL 1
REMARK minimizedAffinity -0.454540342
REMARK minimizedRMSD -1
REMARK  1 active torsions:
REMARK  status: ('A' for Active; 'I' for Inactive)
REMARK    1  A    between atoms: C1_2  and  C2_3 
ROOT
ATOM      1  C2  UNL d   1       0.498   1.055   0.218  0.00  0.00    -0.077 A 
ATOM      2  C3  UNL d   1       0.216   0.681   1.540  0.00  0.00     0.002 A 
ATOM      3  C4  UNL d   1      -0.596  -0.424   1.803  0.00  0.00     0.002 A 
ATOM      4  C5  UNL d   1      -1.129  -1.165   0.751  0.00  0.00    -0.004 A 
ATOM      5  C6  UNL d   1      -0.857  -0.800  -0.567  0.00  0.00     0.002 A 
ATOM      6  C7  UNL d   1      -0.046   0.304  -0.832  0.00  0.00     0.002 A 
ENDROOT
BRANCH   1   7
ATOM      7  C1  UNL d   1       1.414   2.216  -0.067  0.00  0.00     0.055 C 
ATOM      8  C   UNL d   1       0.761   3.540   0.302  0.00  0.00     0.019 C 
ENDBRANCH   1   7
TORSDOF 1
ENDMDL
