MODEL 1
REMARK minimizedAffinity -3.28824592
REMARK minimizedRMSD -1
REMARK  1 active torsions:
REMARK  status: ('A' for Active; 'I' for Inactive)
REMARK    1  A    between atoms: C1_2  and  C2_3 
ROOT
ATOM      1  C2  UNL d   1       0.205   0.259   0.258  0.00  0.00    -0.077 A 
ATOM      2  C3  UNL d   1       1.037  -0.832  -0.030  0.00  0.00     0.002 A 
ATOM      3  C4  UNL d   1       0.667  -2.122   0.356  0.00  0.00     0.002 A 
ATOM      4  C5  UNL d   1      -0.535  -2.333   1.028  0.00  0.00    -0.004 A 
ATOM      5  C6  UNL d   1      -1.368  -1.254   1.321  0.00  0.00     0.002 A 
ATOM      6  C7  UNL d   1      -1.000   0.037   0.937  0.00  0.00     0.002 A 
ENDROOT
BRANCH   1   7
ATOM      7  C1  UNL d   1       0.578   1.645  -0.200  0.00  0.00     0.055 C 
ATOM      8  C   UNL d   1       1.935   2.063   0.348  0.00  0.00     0.019 C 
ENDBRANCH   1   7
TORSDOF 1
ENDMDL
