MODEL 1
REMARK minimizedAffinity -3.08437991
REMARK minimizedRMSD -1
REMARK  1 active torsions:
REMARK  status: ('A' for Active; 'I' for Inactive)
REMARK    1  A    between atoms: C1_2  and  C2_3 
ROOT
ATOM      1  C2  UNL d   1      -0.066  -0.016   0.032  0.00  0.00    -0.077 A 
ATOM      2  C3  UNL d   1       0.854  -0.991  -0.382  0.00  0.00     0.002 A 
ATOM      3  C4  UNL d   1       0.694  -2.322   0.008  0.00  0.00     0.002 A 
ATOM      4  C5  UNL d   1      -0.385  -2.691   0.808  0.00  0.00    -0.004 A 
ATOM      5  C6  UNL d   1      -1.304  -1.729   1.225  0.00  0.00     0.002 A 
ATOM      6  C7  UNL d   1      -1.145  -0.397   0.838  0.00  0.00     0.002 A 
ENDROOT
BRANCH   1   7
ATOM      7  C1  UNL d   1       0.077   1.412  -0.428  0.00  0.00     0.055 C 
ATOM      8  C   UNL d   1       1.185   2.129   0.330  0.00  0.00     0.019 C 
ENDBRANCH   1   7
TORSDOF 1
ENDMDL
