MODEL 1
REMARK minimizedAffinity -4.62663841
REMARK minimizedRMSD -1
REMARK  1 active torsions:
REMARK  status: ('A' for Active; 'I' for Inactive)
REMARK    1  A    between atoms: C1_2  and  C2_3 
ROOT
ATOM      1  C2  UNL d   1      -0.108  -1.383   0.446  0.00  0.00    -0.077 A 
ATOM      2  C3  UNL d   1       0.360  -1.347  -0.875  0.00  0.00     0.002 A 
ATOM      3  C4  UNL d   1       0.540  -0.125  -1.526  0.00  0.00     0.002 A 
ATOM      4  C5  UNL d   1       0.260   1.068  -0.864  0.00  0.00    -0.004 A 
ATOM      5  C6  UNL d   1      -0.208   1.042   0.449  0.00  0.00     0.002 A 
ATOM      6  C7  UNL d   1      -0.390  -0.178   1.102  0.00  0.00     0.002 A 
ENDROOT
BRANCH   1   7
ATOM      7  C1  UNL d   1      -0.257  -2.697   1.168  0.00  0.00     0.055 C 
ATOM      8  C   UNL d   1      -0.261  -3.866   0.193  0.00  0.00     0.019 C 
ENDBRANCH   1   7
TORSDOF 1
ENDMDL
