MODEL 1
REMARK minimizedAffinity -5.31485796
REMARK minimizedRMSD -1
REMARK  1 active torsions:
REMARK  status: ('A' for Active; 'I' for Inactive)
REMARK    1  A    between atoms: C1_2  and  C2_3 
ROOT
ATOM      1  C2  UNL d   1       0.251  -0.264   0.341  0.00  0.00    -0.077 A 
ATOM      2  C3  UNL d   1       0.646  -1.269  -0.552  0.00  0.00     0.002 A 
ATOM      3  C4  UNL d   1       0.452  -2.614  -0.232  0.00  0.00     0.002 A 
ATOM      4  C5  UNL d   1      -0.140  -2.966   0.980  0.00  0.00    -0.004 A 
ATOM      5  C6  UNL d   1      -0.534  -1.973   1.876  0.00  0.00     0.002 A 
ATOM      6  C7  UNL d   1      -0.340  -0.628   1.558  0.00  0.00     0.002 A 
ENDROOT
BRANCH   1   7
ATOM      7  C1  UNL d   1       0.414   1.189  -0.024  0.00  0.00     0.055 C 
ATOM      8  C   UNL d   1       1.608   1.808   0.689  0.00  0.00     0.019 C 
ENDBRANCH   1   7
TORSDOF 1
ENDMDL
