MODEL 1
REMARK minimizedAffinity -5.43053484
REMARK minimizedRMSD -1
REMARK  1 active torsions:
REMARK  status: ('A' for Active; 'I' for Inactive)
REMARK    1  A    between atoms: C1_2  and  C2_3 
ROOT
ATOM      1  C2  UNL d   1       0.556   0.221   0.259  0.00  0.00    -0.077 A 
ATOM      2  C3  UNL d   1       0.860  -0.479  -0.918  0.00  0.00     0.002 A 
ATOM      3  C4  UNL d   1       0.496  -1.820  -1.055  0.00  0.00     0.002 A 
ATOM      4  C5  UNL d   1      -0.176  -2.471  -0.023  0.00  0.00    -0.004 A 
ATOM      5  C6  UNL d   1      -0.480  -1.784   1.152  0.00  0.00     0.002 A 
ATOM      6  C7  UNL d   1      -0.117  -0.444   1.292  0.00  0.00     0.002 A 
ENDROOT
BRANCH   1   7
ATOM      7  C1  UNL d   1       0.904   1.680   0.390  0.00  0.00     0.055 C 
ATOM      8  C   UNL d   1       2.408   1.884   0.497  0.00  0.00     0.019 C 
ENDBRANCH   1   7
TORSDOF 1
ENDMDL
