MODEL 1
REMARK minimizedAffinity -2.98644805
REMARK minimizedRMSD -1
REMARK  1 active torsions:
REMARK  status: ('A' for Active; 'I' for Inactive)
REMARK    1  A    between atoms: C3_4  and  O_7 
ROOT
ATOM      1  C   UNL d   1      -1.248   0.565   2.604  0.00  0.00    -0.033 A 
ATOM      2  C1  UNL d   1       0.042   0.066   2.413  0.00  0.00     0.039 A 
ATOM      3  C2  UNL d   1       0.558  -0.065   1.122  0.00  0.00    -0.080 A 
ATOM      4  C3  UNL d   1      -0.225   0.307   0.032  0.00  0.00     0.150 A 
ATOM      5  C4  UNL d   1      -1.509   0.808   0.216  0.00  0.00    -0.007 A 
ATOM      6  C5  UNL d   1      -2.023   0.938   1.505  0.00  0.00     0.039 A 
ENDROOT
BRANCH   4   7
ATOM      7  O   UNL d   1       0.234   0.192  -1.246  0.00  0.00    -0.526 OA
ATOM      8  H5  UNL d   1       1.125  -0.195  -1.220  0.00  0.00     0.418 HD
ENDBRANCH   4   7
TORSDOF 1
ENDMDL
