MODEL 1
REMARK minimizedAffinity -3.67963576
REMARK minimizedRMSD -1
REMARK  1 active torsions:
REMARK  status: ('A' for Active; 'I' for Inactive)
REMARK    1  A    between atoms: C3_4  and  O_7 
ROOT
ATOM      1  C   UNL d   1       1.128  -0.009  -3.294  0.00  0.00    -0.033 A 
ATOM      2  C1  UNL d   1       0.860  -1.132  -2.508  0.00  0.00     0.039 A 
ATOM      3  C2  UNL d   1       0.163  -0.994  -1.306  0.00  0.00    -0.080 A 
ATOM      4  C3  UNL d   1      -0.260   0.269  -0.902  0.00  0.00     0.150 A 
ATOM      5  C4  UNL d   1      -0.000   1.391  -1.682  0.00  0.00    -0.007 A 
ATOM      6  C5  UNL d   1       0.697   1.252  -2.882  0.00  0.00     0.039 A 
ENDROOT
BRANCH   4   7
ATOM      7  O   UNL d   1      -0.939   0.453   0.265  0.00  0.00    -0.526 OA
ATOM      8  H5  UNL d   1      -1.022  -0.405   0.712  0.00  0.00     0.418 HD
ENDBRANCH   4   7
TORSDOF 1
ENDMDL
