MODEL 1
REMARK minimizedAffinity -2.20109701
REMARK minimizedRMSD -1
REMARK  1 active torsions:
REMARK  status: ('A' for Active; 'I' for Inactive)
REMARK    1  A    between atoms: C3_4  and  O_7 
ROOT
ATOM      1  C   UNL d   1      -1.534   0.499   2.321  0.00  0.00    -0.033 A 
ATOM      2  C1  UNL d   1      -2.239   1.051   1.250  0.00  0.00     0.039 A 
ATOM      3  C2  UNL d   1      -1.736   0.945  -0.048  0.00  0.00    -0.080 A 
ATOM      4  C3  UNL d   1      -0.529   0.284  -0.262  0.00  0.00     0.150 A 
ATOM      5  C4  UNL d   1       0.177  -0.272   0.800  0.00  0.00    -0.007 A 
ATOM      6  C5  UNL d   1      -0.327  -0.163   2.096  0.00  0.00     0.039 A 
ENDROOT
BRANCH   4   7
ATOM      7  O   UNL d   1       0.003   0.159  -1.510  0.00  0.00    -0.526 OA
ATOM      8  H5  UNL d   1      -0.579   0.616  -2.140  0.00  0.00     0.418 HD
ENDBRANCH   4   7
TORSDOF 1
ENDMDL
