MODEL 1
REMARK minimizedAffinity -1.99639738
REMARK minimizedRMSD -1
REMARK  1 active torsions:
REMARK  status: ('A' for Active; 'I' for Inactive)
REMARK    1  A    between atoms: C3_4  and  O_7 
ROOT
ATOM      1  C   UNL d   1      -1.205  -0.119   0.556  0.00  0.00    -0.033 A 
ATOM      2  C1  UNL d   1      -0.390  -1.081  -0.046  0.00  0.00     0.039 A 
ATOM      3  C2  UNL d   1       0.432  -0.730  -1.118  0.00  0.00    -0.080 A 
ATOM      4  C3  UNL d   1       0.431   0.584  -1.578  0.00  0.00     0.150 A 
ATOM      5  C4  UNL d   1      -0.374   1.548  -0.981  0.00  0.00    -0.007 A 
ATOM      6  C5  UNL d   1      -1.196   1.196   0.089  0.00  0.00     0.039 A 
ENDROOT
BRANCH   4   7
ATOM      7  O   UNL d   1       1.213   0.973  -2.625  0.00  0.00    -0.526 OA
ATOM      8  H5  UNL d   1       1.694   0.196  -2.956  0.00  0.00     0.418 HD
ENDBRANCH   4   7
TORSDOF 1
ENDMDL
