MODEL 1
REMARK minimizedAffinity 1.42711604
REMARK minimizedRMSD -1
REMARK  1 active torsions:
REMARK  status: ('A' for Active; 'I' for Inactive)
REMARK    1  A    between atoms: C3_4  and  O_7 
ROOT
ATOM      1  C   UNL d   1      -1.254  -0.916  -1.306  0.00  0.00    -0.033 A 
ATOM      2  C1  UNL d   1      -2.619  -0.672  -1.143  0.00  0.00     0.039 A 
ATOM      3  C2  UNL d   1      -3.080  -0.003  -0.008  0.00  0.00    -0.080 A 
ATOM      4  C3  UNL d   1      -2.167   0.418   0.955  0.00  0.00     0.150 A 
ATOM      5  C4  UNL d   1      -0.805   0.183   0.797  0.00  0.00    -0.007 A 
ATOM      6  C5  UNL d   1      -0.347  -0.487  -0.336  0.00  0.00     0.039 A 
ENDROOT
BRANCH   4   7
ATOM      7  O   UNL d   1      -2.570   1.071   2.082  0.00  0.00    -0.526 OA
ATOM      8  H5  UNL d   1      -3.539   1.138   2.069  0.00  0.00     0.418 HD
ENDBRANCH   4   7
TORSDOF 1
ENDMDL
