MODEL 1
REMARK minimizedAffinity -2.4282589
REMARK minimizedRMSD -1
REMARK  1 active torsions:
REMARK  status: ('A' for Active; 'I' for Inactive)
REMARK    1  A    between atoms: C3_4  and  O_7 
ROOT
ATOM      1  C   UNL d   1       0.374  -0.582  -1.025  0.00  0.00    -0.033 A 
ATOM      2  C1  UNL d   1       1.108  -0.611   0.162  0.00  0.00     0.039 A 
ATOM      3  C2  UNL d   1       0.527  -0.175   1.355  0.00  0.00    -0.080 A 
ATOM      4  C3  UNL d   1      -0.786   0.286   1.347  0.00  0.00     0.150 A 
ATOM      5  C4  UNL d   1      -1.525   0.314   0.168  0.00  0.00    -0.007 A 
ATOM      6  C5  UNL d   1      -0.943  -0.121  -1.022  0.00  0.00     0.039 A 
ENDROOT
BRANCH   4   7
ATOM      7  O   UNL d   1      -1.394   0.727   2.485  0.00  0.00    -0.526 OA
ATOM      8  H5  UNL d   1      -0.754   0.676   3.215  0.00  0.00     0.418 HD
ENDBRANCH   4   7
TORSDOF 1
ENDMDL
