MODEL 1
REMARK minimizedAffinity -4.39112759
REMARK minimizedRMSD -1
REMARK  1 active torsions:
REMARK  status: ('A' for Active; 'I' for Inactive)
REMARK    1  A    between atoms: C3_4  and  O_7 
ROOT
ATOM      1  C   UNL d   1      -0.823   0.636   2.517  0.00  0.00    -0.033 A 
ATOM      2  C1  UNL d   1      -1.563   1.288   1.529  0.00  0.00     0.039 A 
ATOM      3  C2  UNL d   1      -1.199   1.165   0.186  0.00  0.00    -0.080 A 
ATOM      4  C3  UNL d   1      -0.096   0.387  -0.154  0.00  0.00     0.150 A 
ATOM      5  C4  UNL d   1       0.643  -0.269   0.825  0.00  0.00    -0.007 A 
ATOM      6  C5  UNL d   1       0.279  -0.144   2.165  0.00  0.00     0.039 A 
ENDROOT
BRANCH   4   7
ATOM      7  O   UNL d   1       0.301   0.241  -1.450  0.00  0.00    -0.526 OA
ATOM      8  H5  UNL d   1      -0.285   0.774  -2.013  0.00  0.00     0.418 HD
ENDBRANCH   4   7
TORSDOF 1
ENDMDL
