MODEL 1
REMARK minimizedAffinity -1.77270591
REMARK minimizedRMSD -1
REMARK  1 active torsions:
REMARK  status: ('A' for Active; 'I' for Inactive)
REMARK    1  A    between atoms: C3_4  and  O_7 
ROOT
ATOM      1  C   UNL d   1      -1.283   0.415   1.881  0.00  0.00    -0.033 A 
ATOM      2  C1  UNL d   1      -1.383  -0.675   1.016  0.00  0.00     0.039 A 
ATOM      3  C2  UNL d   1      -2.295  -0.648  -0.042  0.00  0.00    -0.080 A 
ATOM      4  C3  UNL d   1      -3.098   0.474  -0.223  0.00  0.00     0.150 A 
ATOM      5  C4  UNL d   1      -3.000   1.566   0.634  0.00  0.00    -0.007 A 
ATOM      6  C5  UNL d   1      -2.090   1.537   1.689  0.00  0.00     0.039 A 
ENDROOT
BRANCH   4   7
ATOM      7  O   UNL d   1      -4.006   0.545  -1.238  0.00  0.00    -0.526 OA
ATOM      8  H5  UNL d   1      -3.982  -0.292  -1.730  0.00  0.00     0.418 HD
ENDBRANCH   4   7
TORSDOF 1
ENDMDL
