MODEL 1
REMARK minimizedAffinity -1.72817159
REMARK minimizedRMSD -1
REMARK  0 active torsions:
REMARK  status: ('A' for Active; 'I' for Inactive)
ROOT
ATOM      1  C   UNL d   1       1.002  -0.135  -0.743  0.00  0.00     0.020 A 
ATOM      2  C1  UNL d   1       1.224   0.283  -2.055  0.00  0.00     0.020 A 
ATOM      3  C2  UNL d   1       1.625   1.595  -2.311  0.00  0.00     0.034 A 
ATOM      4  C3  UNL d   1       1.805   2.495  -1.254  0.00  0.00     0.017 A 
ATOM      5  C4  UNL d   1       1.581   2.075   0.062  0.00  0.00     0.017 A 
ATOM      6  C5  UNL d   1       1.180   0.759   0.313  0.00  0.00     0.034 A 
ATOM      7 Cl   UNL d   1       1.782   3.127   1.418  0.00  0.00    -0.070 Cl
ATOM      8 Cl1  UNL d   1       2.302   4.103  -1.643  0.00  0.00    -0.070 Cl
ENDROOT
TORSDOF 0
ENDMDL
