MODEL 1
REMARK minimizedAffinity -3.46133137
REMARK minimizedRMSD -1
REMARK  0 active torsions:
REMARK  status: ('A' for Active; 'I' for Inactive)
ROOT
ATOM      1  C   UNL d   1       0.553   1.245  -3.265  0.00  0.00     0.020 A 
ATOM      2  C1  UNL d   1       0.518  -0.006  -2.649  0.00  0.00     0.020 A 
ATOM      3  C2  UNL d   1       0.918  -0.141  -1.318  0.00  0.00     0.034 A 
ATOM      4  C3  UNL d   1       1.355   0.977  -0.598  0.00  0.00     0.017 A 
ATOM      5  C4  UNL d   1       1.389   2.232  -1.217  0.00  0.00     0.017 A 
ATOM      6  C5  UNL d   1       0.988   2.361  -2.550  0.00  0.00     0.034 A 
ATOM      7 Cl   UNL d   1       1.916   3.657  -0.393  0.00  0.00    -0.070 Cl
ATOM      8 Cl1  UNL d   1       1.834   0.738   1.045  0.00  0.00    -0.070 Cl
ENDROOT
TORSDOF 0
ENDMDL
