MODEL 1
REMARK minimizedAffinity -2.04312277
REMARK minimizedRMSD -1
REMARK  0 active torsions:
REMARK  status: ('A' for Active; 'I' for Inactive)
ROOT
ATOM      1  C   UNL d   1       0.809   0.783  -1.198  0.00  0.00     0.020 A 
ATOM      2  C1  UNL d   1       1.648   0.668  -0.090  0.00  0.00     0.020 A 
ATOM      3  C2  UNL d   1       2.033  -0.594   0.366  0.00  0.00     0.034 A 
ATOM      4  C3  UNL d   1       1.580  -1.747  -0.285  0.00  0.00     0.017 A 
ATOM      5  C4  UNL d   1       0.738  -1.631  -1.397  0.00  0.00     0.017 A 
ATOM      6  C5  UNL d   1       0.355  -0.364  -1.850  0.00  0.00     0.034 A 
ATOM      7 Cl   UNL d   1       0.138  -3.007  -2.253  0.00  0.00    -0.070 Cl
ATOM      8 Cl1  UNL d   1       2.097  -3.275   0.333  0.00  0.00    -0.070 Cl
ENDROOT
TORSDOF 0
ENDMDL
