MODEL 1
REMARK minimizedAffinity 6.7331953
REMARK minimizedRMSD -1
REMARK  0 active torsions:
REMARK  status: ('A' for Active; 'I' for Inactive)
ROOT
ATOM      1  C   UNL d   1       1.433  -0.098  -0.394  0.00  0.00     0.020 A 
ATOM      2  C1  UNL d   1       2.474   0.765  -0.732  0.00  0.00     0.020 A 
ATOM      3  C2  UNL d   1       2.225   1.880  -1.536  0.00  0.00     0.034 A 
ATOM      4  C3  UNL d   1       0.930   2.134  -2.004  0.00  0.00     0.017 A 
ATOM      5  C4  UNL d   1      -0.115   1.267  -1.664  0.00  0.00     0.017 A 
ATOM      6  C5  UNL d   1       0.141   0.153  -0.859  0.00  0.00     0.034 A 
ATOM      7 Cl   UNL d   1      -1.738   1.516  -2.204  0.00  0.00    -0.070 Cl
ATOM      8 Cl1  UNL d   1       0.694   3.531  -2.993  0.00  0.00    -0.070 Cl
ENDROOT
TORSDOF 0
ENDMDL
