MODEL 1
REMARK minimizedAffinity 3.39058161
REMARK minimizedRMSD -1
REMARK  0 active torsions:
REMARK  status: ('A' for Active; 'I' for Inactive)
ROOT
ATOM      1  C   UNL d   1       0.795  -0.874  -1.057  0.00  0.00     0.020 A 
ATOM      2  C1  UNL d   1       0.924  -0.329  -2.334  0.00  0.00     0.020 A 
ATOM      3  C2  UNL d   1       1.353   0.991  -2.490  0.00  0.00     0.034 A 
ATOM      4  C3  UNL d   1       1.653   1.770  -1.367  0.00  0.00     0.017 A 
ATOM      5  C4  UNL d   1       1.523   1.222  -0.086  0.00  0.00     0.017 A 
ATOM      6  C5  UNL d   1       1.094  -0.100   0.064  0.00  0.00     0.034 A 
ATOM      7 Cl   UNL d   1       1.876   2.122   1.347  0.00  0.00    -0.070 Cl
ATOM      8 Cl1  UNL d   1       2.178   3.395  -1.634  0.00  0.00    -0.070 Cl
ENDROOT
TORSDOF 0
ENDMDL
