MODEL 1
REMARK minimizedAffinity 6.72707653
REMARK minimizedRMSD -1
REMARK  0 active torsions:
REMARK  status: ('A' for Active; 'I' for Inactive)
ROOT
ATOM      1  C   UNL d   1      -3.052   3.145   0.645  0.00  0.00     0.020 A 
ATOM      2  C1  UNL d   1      -2.256   3.706   1.643  0.00  0.00     0.020 A 
ATOM      3  C2  UNL d   1      -2.260   3.161   2.928  0.00  0.00     0.034 A 
ATOM      4  C3  UNL d   1      -3.061   2.051   3.219  0.00  0.00     0.017 A 
ATOM      5  C4  UNL d   1      -3.859   1.488   2.217  0.00  0.00     0.017 A 
ATOM      6  C5  UNL d   1      -3.852   2.038   0.932  0.00  0.00     0.034 A 
ATOM      7 Cl   UNL d   1      -4.874   0.117   2.500  0.00  0.00    -0.070 Cl
ATOM      8 Cl1  UNL d   1      -3.017   1.428   4.831  0.00  0.00    -0.070 Cl
ENDROOT
TORSDOF 0
ENDMDL
