MODEL 1
REMARK minimizedAffinity 0.584555984
REMARK minimizedRMSD -1
REMARK  0 active torsions:
REMARK  status: ('A' for Active; 'I' for Inactive)
ROOT
ATOM      1  C   UNL d   1       0.793  -0.532  -1.234  0.00  0.00     0.020 A 
ATOM      2  C1  UNL d   1       0.936   0.126  -2.455  0.00  0.00     0.020 A 
ATOM      3  C2  UNL d   1       1.354   1.458  -2.485  0.00  0.00     0.034 A 
ATOM      4  C3  UNL d   1       1.630   2.136  -1.292  0.00  0.00     0.017 A 
ATOM      5  C4  UNL d   1       1.486   1.475  -0.067  0.00  0.00     0.017 A 
ATOM      6  C5  UNL d   1       1.068   0.141  -0.043  0.00  0.00     0.034 A 
ATOM      7 Cl   UNL d   1       1.809   2.245   1.446  0.00  0.00    -0.070 Cl
ATOM      8 Cl1  UNL d   1       2.143   3.783  -1.404  0.00  0.00    -0.070 Cl
ENDROOT
TORSDOF 0
ENDMDL
