MODEL 1
REMARK minimizedAffinity -2.78420401
REMARK minimizedRMSD -1
REMARK  0 active torsions:
REMARK  status: ('A' for Active; 'I' for Inactive)
ROOT
ATOM      1  C   UNL d   1       0.861  -0.157   0.018  0.00  0.00     0.020 A 
ATOM      2  C1  UNL d   1       1.069   0.082  -1.340  0.00  0.00     0.020 A 
ATOM      3  C2  UNL d   1       1.406   1.363  -1.780  0.00  0.00     0.034 A 
ATOM      4  C3  UNL d   1       1.537   2.411  -0.862  0.00  0.00     0.017 A 
ATOM      5  C4  UNL d   1       1.329   2.171   0.501  0.00  0.00     0.017 A 
ATOM      6  C5  UNL d   1       0.991   0.886   0.936  0.00  0.00     0.034 A 
ATOM      7 Cl   UNL d   1       1.472   3.413   1.694  0.00  0.00    -0.070 Cl
ATOM      8 Cl1  UNL d   1       1.958   3.970  -1.476  0.00  0.00    -0.070 Cl
ENDROOT
TORSDOF 0
ENDMDL
