MODEL 1
REMARK minimizedAffinity -4.36304951
REMARK minimizedRMSD -1
REMARK  0 active torsions:
REMARK  status: ('A' for Active; 'I' for Inactive)
ROOT
ATOM      1  C   UNL d   1       0.698  -0.357  -2.229  0.00  0.00     0.020 A 
ATOM      2  C1  UNL d   1       1.903   0.343  -2.180  0.00  0.00     0.020 A 
ATOM      3  C2  UNL d   1       2.232   1.088  -1.045  0.00  0.00     0.034 A 
ATOM      4  C3  UNL d   1       1.355   1.134   0.045  0.00  0.00     0.017 A 
ATOM      5  C4  UNL d   1       0.146   0.431  -0.006  0.00  0.00     0.017 A 
ATOM      6  C5  UNL d   1      -0.178  -0.313  -1.144  0.00  0.00     0.034 A 
ATOM      7 Cl   UNL d   1      -0.987   0.441   1.300  0.00  0.00    -0.070 Cl
ATOM      8 Cl1  UNL d   1       1.826   2.075   1.416  0.00  0.00    -0.070 Cl
ENDROOT
TORSDOF 0
ENDMDL
