MODEL 1
REMARK minimizedAffinity 8.12465668
REMARK minimizedRMSD -1
REMARK  0 active torsions:
REMARK  status: ('A' for Active; 'I' for Inactive)
ROOT
ATOM      1  C   UNL d   1      -3.720   2.769   1.096  0.00  0.00     0.020 A 
ATOM      2  C1  UNL d   1      -4.054   1.627   1.824  0.00  0.00     0.020 A 
ATOM      3  C2  UNL d   1      -3.459   1.391   3.065  0.00  0.00     0.034 A 
ATOM      4  C3  UNL d   1      -2.526   2.297   3.582  0.00  0.00     0.017 A 
ATOM      5  C4  UNL d   1      -2.190   3.442   2.851  0.00  0.00     0.017 A 
ATOM      6  C5  UNL d   1      -2.790   3.674   1.609  0.00  0.00     0.034 A 
ATOM      7 Cl   UNL d   1      -1.048   4.606   3.423  0.00  0.00    -0.070 Cl
ATOM      8 Cl1  UNL d   1      -1.829   1.942   5.123  0.00  0.00    -0.070 Cl
ENDROOT
TORSDOF 0
ENDMDL
