MODEL 1
REMARK minimizedAffinity 10.3953581
REMARK minimizedRMSD -1
REMARK  0 active torsions:
REMARK  status: ('A' for Active; 'I' for Inactive)
ROOT
ATOM      1  C   UNL d   1       0.476   0.681  -0.844  0.00  0.00     0.020 A 
ATOM      2  C1  UNL d   1       1.388   1.285   0.021  0.00  0.00     0.020 A 
ATOM      3  C2  UNL d   1       1.954   2.517  -0.311  0.00  0.00     0.034 A 
ATOM      4  C3  UNL d   1       1.610   3.150  -1.511  0.00  0.00     0.017 A 
ATOM      5  C4  UNL d   1       0.695   2.543  -2.379  0.00  0.00     0.017 A 
ATOM      6  C5  UNL d   1       0.130   1.309  -2.041  0.00  0.00     0.034 A 
ATOM      7 Cl   UNL d   1       0.221   3.262  -3.877  0.00  0.00    -0.070 Cl
ATOM      8 Cl1  UNL d   1       2.349   4.672  -1.858  0.00  0.00    -0.070 Cl
ENDROOT
TORSDOF 0
ENDMDL
