MODEL 1
REMARK minimizedAffinity 1.96699822
REMARK minimizedRMSD -1
REMARK  0 active torsions:
REMARK  status: ('A' for Active; 'I' for Inactive)
ROOT
ATOM      1  C   UNL d   1       1.100   0.833  -3.338  0.00  0.00     0.020 A 
ATOM      2  C1  UNL d   1       0.738  -0.005  -2.285  0.00  0.00     0.020 A 
ATOM      3  C2  UNL d   1       0.909   0.418  -0.965  0.00  0.00     0.034 A 
ATOM      4  C3  UNL d   1       1.444   1.684  -0.696  0.00  0.00     0.017 A 
ATOM      5  C4  UNL d   1       1.806   2.525  -1.754  0.00  0.00     0.017 A 
ATOM      6  C5  UNL d   1       1.633   2.095  -3.073  0.00  0.00     0.034 A 
ATOM      7 Cl   UNL d   1       2.472   4.099  -1.500  0.00  0.00    -0.070 Cl
ATOM      8 Cl1  UNL d   1       1.627   2.142   0.960  0.00  0.00    -0.070 Cl
ENDROOT
TORSDOF 0
ENDMDL
