MODEL 1
REMARK minimizedAffinity 5.01510143
REMARK minimizedRMSD -1
REMARK  0 active torsions:
REMARK  status: ('A' for Active; 'I' for Inactive)
ROOT
ATOM      1  C   UNL d   1       0.977   0.005  -1.635  0.00  0.00     0.020 A 
ATOM      2  C1  UNL d   1       0.921  -0.477  -0.328  0.00  0.00     0.020 A 
ATOM      3  C2  UNL d   1       1.259   0.357   0.739  0.00  0.00     0.034 A 
ATOM      4  C3  UNL d   1       1.656   1.678   0.502  0.00  0.00     0.017 A 
ATOM      5  C4  UNL d   1       1.713   2.161  -0.811  0.00  0.00     0.017 A 
ATOM      6  C5  UNL d   1       1.373   1.321  -1.876  0.00  0.00     0.034 A 
ATOM      7 Cl   UNL d   1       2.193   3.779  -1.183  0.00  0.00    -0.070 Cl
ATOM      8 Cl1  UNL d   1       2.060   2.654   1.869  0.00  0.00    -0.070 Cl
ENDROOT
TORSDOF 0
ENDMDL
