MODEL 1
REMARK minimizedAffinity 8.72652245
REMARK minimizedRMSD -1
REMARK  0 active torsions:
REMARK  status: ('A' for Active; 'I' for Inactive)
ROOT
ATOM      1  C   UNL d   1       0.847  -0.183  -1.206  0.00  0.00     0.020 A 
ATOM      2  C1  UNL d   1       0.980  -0.158   0.182  0.00  0.00     0.020 A 
ATOM      3  C2  UNL d   1       1.275   1.041   0.833  0.00  0.00     0.034 A 
ATOM      4  C3  UNL d   1       1.438   2.221   0.097  0.00  0.00     0.017 A 
ATOM      5  C4  UNL d   1       1.305   2.194  -1.296  0.00  0.00     0.017 A 
ATOM      6  C5  UNL d   1       1.009   0.990  -1.943  0.00  0.00     0.034 A 
ATOM      7 Cl   UNL d   1       1.492   3.608  -2.272  0.00  0.00    -0.070 Cl
ATOM      8 Cl1  UNL d   1       1.802   3.668   0.968  0.00  0.00    -0.070 Cl
ENDROOT
TORSDOF 0
ENDMDL
