MODEL 1
REMARK minimizedAffinity 2.08519125
REMARK minimizedRMSD -1
REMARK  0 active torsions:
REMARK  status: ('A' for Active; 'I' for Inactive)
ROOT
ATOM      1  C   UNL d   1       1.227   0.787   0.371  0.00  0.00     0.020 A 
ATOM      2  C1  UNL d   1       0.560   1.142  -0.801  0.00  0.00     0.020 A 
ATOM      3  C2  UNL d   1       0.086   0.150  -1.662  0.00  0.00     0.034 A 
ATOM      4  C3  UNL d   1       0.278  -1.201  -1.353  0.00  0.00     0.017 A 
ATOM      5  C4  UNL d   1       0.948  -1.557  -0.177  0.00  0.00     0.017 A 
ATOM      6  C5  UNL d   1       1.421  -0.559   0.682  0.00  0.00     0.034 A 
ATOM      7 Cl   UNL d   1       1.224  -3.203   0.272  0.00  0.00    -0.070 Cl
ATOM      8 Cl1  UNL d   1      -0.335  -2.375  -2.464  0.00  0.00    -0.070 Cl
ENDROOT
TORSDOF 0
ENDMDL
