MODEL 1
REMARK minimizedAffinity -0.191114306
REMARK minimizedRMSD -1
REMARK  0 active torsions:
REMARK  status: ('A' for Active; 'I' for Inactive)
ROOT
ATOM      1  C   UNL d   1       1.104   1.188  -0.804  0.00  0.00     0.020 A 
ATOM      2  C1  UNL d   1       2.237   1.202   0.008  0.00  0.00     0.020 A 
ATOM      3  C2  UNL d   1       2.810   0.000   0.428  0.00  0.00     0.034 A 
ATOM      4  C3  UNL d   1       2.251  -1.221   0.035  0.00  0.00     0.017 A 
ATOM      5  C4  UNL d   1       1.114  -1.235  -0.780  0.00  0.00     0.017 A 
ATOM      6  C5  UNL d   1       0.543  -0.028  -1.197  0.00  0.00     0.034 A 
ATOM      7 Cl   UNL d   1       0.367  -2.703  -1.305  0.00  0.00    -0.070 Cl
ATOM      8 Cl1  UNL d   1       3.013  -2.669   0.591  0.00  0.00    -0.070 Cl
ENDROOT
TORSDOF 0
ENDMDL
