MODEL 1
REMARK minimizedAffinity 8.95444775
REMARK minimizedRMSD -1
REMARK  2 active torsions:
REMARK  status: ('A' for Active; 'I' for Inactive)
REMARK    1  A    between atoms: C2'_3  and  C1'_4 
REMARK    2  A    between atoms: C1'_4  and  C1_5 
ROOT
ATOM      1  C1  I4B d   1      -4.132   1.691  -3.086  0.00  0.00    -0.075 A 
ATOM      2  C2  I4B d   1      -4.440   0.496  -3.687  0.00  0.00     0.003 A 
ATOM      3  C3  I4B d   1      -4.617   0.428  -5.090  0.00  0.00     0.002 A 
ATOM      4  C4  I4B d   1      -4.527   1.581  -5.843  0.00  0.00    -0.004 A 
ATOM      5  C5  I4B d   1      -4.192   2.788  -5.235  0.00  0.00     0.002 A 
ATOM      6  C6  I4B d   1      -3.981   2.841  -3.849  0.00  0.00     0.003 A 
ENDROOT
BRANCH   1   7
ATOM      7  C1' I4B d   1      -3.984   1.733  -1.598  0.00  0.00     0.060 C 
BRANCH   7   8
ATOM      8  C2' I4B d   1      -4.711   0.533  -1.023  0.00  0.00    -0.013 C 
ATOM      9  C4' I4B d   1      -3.867  -0.174   0.004  0.00  0.00     0.013 C 
ATOM     10  C3' I4B d   1      -5.999   1.015  -0.426  0.00  0.00     0.013 C 
ENDBRANCH   7   8
ENDBRANCH   1   7
TORSDOF 2
ENDMDL
