MODEL 1
REMARK minimizedAffinity 12.5262089
REMARK minimizedRMSD -1
REMARK  2 active torsions:
REMARK  status: ('A' for Active; 'I' for Inactive)
REMARK    1  A    between atoms: C2'_3  and  C1'_4 
REMARK    2  A    between atoms: C1'_4  and  C1_5 
ROOT
ATOM      1  C1  I4B d   1      -1.070   3.221  -2.423  0.00  0.00    -0.075 A 
ATOM      2  C2  I4B d   1      -0.499   4.250  -1.716  0.00  0.00     0.003 A 
ATOM      3  C3  I4B d   1       0.275   3.979  -0.562  0.00  0.00     0.002 A 
ATOM      4  C4  I4B d   1       0.410   2.677  -0.125  0.00  0.00    -0.004 A 
ATOM      5  C5  I4B d   1      -0.151   1.633  -0.855  0.00  0.00     0.002 A 
ATOM      6  C6  I4B d   1      -0.885   1.905  -2.018  0.00  0.00     0.003 A 
ENDROOT
BRANCH   1   7
ATOM      7  C1' I4B d   1      -1.910   3.546  -3.618  0.00  0.00     0.060 C 
BRANCH   7   8
ATOM      8  C2' I4B d   1      -3.309   3.023  -3.361  0.00  0.00    -0.013 C 
ATOM      9  C4' I4B d   1      -4.269   4.150  -3.082  0.00  0.00     0.013 C 
ATOM     10  C3' I4B d   1      -3.735   2.233  -4.563  0.00  0.00     0.013 C 
ENDBRANCH   7   8
ENDBRANCH   1   7
TORSDOF 2
ENDMDL
