MODEL 1
REMARK minimizedAffinity 11.730176
REMARK minimizedRMSD -1
REMARK  2 active torsions:
REMARK  status: ('A' for Active; 'I' for Inactive)
REMARK    1  A    between atoms: C2'_3  and  C1'_4 
REMARK    2  A    between atoms: C1'_4  and  C1_5 
ROOT
ATOM      1  C1  I4B d   1      -0.279   3.493  -0.134  0.00  0.00    -0.075 A 
ATOM      2  C2  I4B d   1       0.223   3.688  -1.396  0.00  0.00     0.003 A 
ATOM      3  C3  I4B d   1      -0.126   4.846  -2.132  0.00  0.00     0.002 A 
ATOM      4  C4  I4B d   1      -1.014   5.753  -1.590  0.00  0.00    -0.004 A 
ATOM      5  C5  I4B d   1      -1.505   5.565  -0.301  0.00  0.00     0.002 A 
ATOM      6  C6  I4B d   1      -1.126   4.435   0.437  0.00  0.00     0.003 A 
ENDROOT
BRANCH   1   7
ATOM      7  C1' I4B d   1       0.084   2.242   0.602  0.00  0.00     0.060 C 
BRANCH   7   8
ATOM      8  C2' I4B d   1       0.129   2.567   2.081  0.00  0.00    -0.013 C 
ATOM      9  C4' I4B d   1      -0.677   1.577   2.881  0.00  0.00     0.013 C 
ATOM     10  C3' I4B d   1       1.565   2.570   2.512  0.00  0.00     0.013 C 
ENDBRANCH   7   8
ENDBRANCH   1   7
TORSDOF 2
ENDMDL
