MODEL 1
REMARK minimizedAffinity 14.1656609
REMARK minimizedRMSD -1
REMARK  2 active torsions:
REMARK  status: ('A' for Active; 'I' for Inactive)
REMARK    1  A    between atoms: C2'_3  and  C1'_4 
REMARK    2  A    between atoms: C1'_4  and  C1_5 
ROOT
ATOM      1  C1  I4B d   1      -1.957   5.476  -0.708  0.00  0.00    -0.075 A 
ATOM      2  C2  I4B d   1      -1.846   5.772   0.628  0.00  0.00     0.003 A 
ATOM      3  C3  I4B d   1      -3.006   6.000   1.406  0.00  0.00     0.002 A 
ATOM      4  C4  I4B d   1      -4.247   5.971   0.802  0.00  0.00    -0.004 A 
ATOM      5  C5  I4B d   1      -4.359   5.648  -0.547  0.00  0.00     0.002 A 
ATOM      6  C6  I4B d   1      -3.208   5.386  -1.305  0.00  0.00     0.003 A 
ENDROOT
BRANCH   1   7
ATOM      7  C1' I4B d   1      -0.709   5.273  -1.507  0.00  0.00     0.060 C 
BRANCH   7   8
ATOM      8  C2' I4B d   1      -0.658   3.820  -1.934  0.00  0.00    -0.013 C 
ATOM      9  C4' I4B d   1       0.322   3.616  -3.059  0.00  0.00     0.013 C 
ATOM     10  C3' I4B d   1      -0.286   2.999  -0.735  0.00  0.00     0.013 C 
ENDBRANCH   7   8
ENDBRANCH   1   7
TORSDOF 2
ENDMDL
