MODEL 1
REMARK minimizedAffinity 4.0993576
REMARK minimizedRMSD -1
REMARK  3 active torsions:
REMARK  status: ('A' for Active; 'I' for Inactive)
REMARK    1  A    between atoms: C3'_2  and  C2'_3 
REMARK    2  A    between atoms: C2'_3  and  C1'_4 
REMARK    3  A    between atoms: C1'_4  and  C1_5 
ROOT
ATOM      1  C1  N4B d   1      -1.917  -2.241  -0.954  0.00  0.00    -0.075 A 
ATOM      2  C2  N4B d   1      -0.732  -2.977  -0.736  0.00  0.00     0.002 A 
ATOM      3  C3  N4B d   1      -0.403  -3.390   0.532  0.00  0.00     0.002 A 
ATOM      4  C4  N4B d   1      -1.230  -3.063   1.596  0.00  0.00    -0.004 A 
ATOM      5  C5  N4B d   1      -2.386  -2.373   1.373  0.00  0.00     0.002 A 
ATOM      6  C6  N4B d   1      -2.732  -1.956   0.104  0.00  0.00     0.002 A 
ENDROOT
BRANCH   1   7
ATOM      7  C1' N4B d   1      -2.275  -1.694  -2.309  0.00  0.00     0.057 C 
BRANCH   7   8
ATOM      8  C2' N4B d   1      -2.288  -2.836  -3.322  0.00  0.00     0.009 C 
BRANCH   8   9
ATOM      9  C3' N4B d   1      -2.160  -2.330  -4.748  0.00  0.00     0.004 C 
ATOM     10  C4' N4B d   1      -2.939  -3.156  -5.729  0.00  0.00     0.003 C 
ENDBRANCH   8   9
ENDBRANCH   7   8
ENDBRANCH   1   7
TORSDOF 3
ENDMDL
