MODEL 1
REMARK minimizedAffinity 5.70132732
REMARK minimizedRMSD -1
REMARK  3 active torsions:
REMARK  status: ('A' for Active; 'I' for Inactive)
REMARK    1  A    between atoms: C3'_2  and  C2'_3 
REMARK    2  A    between atoms: C2'_3  and  C1'_4 
REMARK    3  A    between atoms: C1'_4  and  C1_5 
ROOT
ATOM      1  C1  N4B d   1      -1.752  -2.788  -2.345  0.00  0.00    -0.075 A 
ATOM      2  C2  N4B d   1      -0.773  -3.492  -1.611  0.00  0.00     0.002 A 
ATOM      3  C3  N4B d   1      -0.273  -2.960  -0.448  0.00  0.00     0.002 A 
ATOM      4  C4  N4B d   1      -0.721  -1.722  -0.011  0.00  0.00    -0.004 A 
ATOM      5  C5  N4B d   1      -1.685  -1.060  -0.713  0.00  0.00     0.002 A 
ATOM      6  C6  N4B d   1      -2.200  -1.585  -1.882  0.00  0.00     0.002 A 
ENDROOT
BRANCH   1   7
ATOM      7  C1' N4B d   1      -2.266  -3.289  -3.667  0.00  0.00     0.057 C 
BRANCH   7   8
ATOM      8  C2' N4B d   1      -1.252  -2.956  -4.758  0.00  0.00     0.009 C 
BRANCH   8   9
ATOM      9  C3' N4B d   1      -1.919  -2.391  -6.000  0.00  0.00     0.004 C 
ATOM     10  C4' N4B d   1      -3.409  -2.564  -5.990  0.00  0.00     0.003 C 
ENDBRANCH   8   9
ENDBRANCH   7   8
ENDBRANCH   1   7
TORSDOF 3
ENDMDL
