MODEL 1
REMARK minimizedAffinity 4.7570796
REMARK minimizedRMSD -1
REMARK  3 active torsions:
REMARK  status: ('A' for Active; 'I' for Inactive)
REMARK    1  A    between atoms: C3'_2  and  C2'_3 
REMARK    2  A    between atoms: C2'_3  and  C1'_4 
REMARK    3  A    between atoms: C1'_4  and  C1_5 
ROOT
ATOM      1  C1  N4B d   1       1.902   3.071   1.337  0.00  0.00    -0.075 A 
ATOM      2  C2  N4B d   1       2.522   2.803   0.096  0.00  0.00     0.002 A 
ATOM      3  C3  N4B d   1       3.232   1.640  -0.078  0.00  0.00     0.002 A 
ATOM      4  C4  N4B d   1       3.351   0.744   0.973  0.00  0.00    -0.004 A 
ATOM      5  C5  N4B d   1       2.728   0.999   2.160  0.00  0.00     0.002 A 
ATOM      6  C6  N4B d   1       2.008   2.162   2.349  0.00  0.00     0.002 A 
ENDROOT
BRANCH   1   7
ATOM      7  C1' N4B d   1       1.187   4.368   1.603  0.00  0.00     0.057 C 
BRANCH   7   8
ATOM      8  C2' N4B d   1      -0.284   4.215   1.227  0.00  0.00     0.009 C 
BRANCH   8   9
ATOM      9  C3' N4B d   1      -0.479   4.112  -0.276  0.00  0.00     0.004 C 
ATOM     10  C4' N4B d   1      -1.782   4.695  -0.734  0.00  0.00     0.003 C 
ENDBRANCH   8   9
ENDBRANCH   7   8
ENDBRANCH   1   7
TORSDOF 3
ENDMDL
