MODEL 1
REMARK minimizedAffinity 6.33083296
REMARK minimizedRMSD -1
REMARK  3 active torsions:
REMARK  status: ('A' for Active; 'I' for Inactive)
REMARK    1  A    between atoms: C3'_2  and  C2'_3 
REMARK    2  A    between atoms: C2'_3  and  C1'_4 
REMARK    3  A    between atoms: C1'_4  and  C1_5 
ROOT
ATOM      1  C1  N4B d   1      -1.915  -3.040  -3.454  0.00  0.00    -0.075 A 
ATOM      2  C2  N4B d   1      -3.175  -3.648  -3.649  0.00  0.00     0.002 A 
ATOM      3  C3  N4B d   1      -3.589  -3.980  -4.916  0.00  0.00     0.002 A 
ATOM      4  C4  N4B d   1      -2.772  -3.697  -6.000  0.00  0.00    -0.004 A 
ATOM      5  C5  N4B d   1      -1.546  -3.132  -5.801  0.00  0.00     0.002 A 
ATOM      6  C6  N4B d   1      -1.115  -2.797  -4.533  0.00  0.00     0.002 A 
ENDROOT
BRANCH   1   7
ATOM      7  C1' N4B d   1      -1.456  -2.581  -2.097  0.00  0.00     0.057 C 
BRANCH   7   8
ATOM      8  C2' N4B d   1      -2.497  -1.632  -1.511  0.00  0.00     0.009 C 
BRANCH   8   9
ATOM      9  C3' N4B d   1      -2.238  -1.342  -0.042  0.00  0.00     0.004 C 
ATOM     10  C4' N4B d   1      -1.125  -2.171   0.526  0.00  0.00     0.003 C 
ENDBRANCH   8   9
ENDBRANCH   7   8
ENDBRANCH   1   7
TORSDOF 3
ENDMDL
