MODEL 1
REMARK minimizedAffinity 5.17815924
REMARK minimizedRMSD -1
REMARK  3 active torsions:
REMARK  status: ('A' for Active; 'I' for Inactive)
REMARK    1  A    between atoms: C3'_2  and  C2'_3 
REMARK    2  A    between atoms: C2'_3  and  C1'_4 
REMARK    3  A    between atoms: C1'_4  and  C1_5 
ROOT
ATOM      1  C1  N4B d   1       0.832  -0.474   1.761  0.00  0.00    -0.075 A 
ATOM      2  C2  N4B d   1       0.598  -0.352   3.148  0.00  0.00     0.002 A 
ATOM      3  C3  N4B d   1      -0.467  -1.000   3.725  0.00  0.00     0.002 A 
ATOM      4  C4  N4B d   1      -1.318  -1.758   2.934  0.00  0.00    -0.004 A 
ATOM      5  C5  N4B d   1      -1.070  -1.892   1.599  0.00  0.00     0.002 A 
ATOM      6  C6  N4B d   1      -0.001  -1.249   1.007  0.00  0.00     0.002 A 
ENDROOT
BRANCH   1   7
ATOM      7  C1' N4B d   1       1.933   0.285   1.072  0.00  0.00     0.057 C 
BRANCH   7   8
ATOM      8  C2' N4B d   1       3.239  -0.491   1.209  0.00  0.00     0.009 C 
BRANCH   8   9
ATOM      9  C3' N4B d   1       4.026  -0.514  -0.090  0.00  0.00     0.004 C 
ATOM     10  C4' N4B d   1       3.740  -1.729  -0.921  0.00  0.00     0.003 C 
ENDBRANCH   8   9
ENDBRANCH   7   8
ENDBRANCH   1   7
TORSDOF 3
ENDMDL
