MODEL 1
REMARK minimizedAffinity 8.65113068
REMARK minimizedRMSD -1
REMARK  3 active torsions:
REMARK  status: ('A' for Active; 'I' for Inactive)
REMARK    1  A    between atoms: C3'_2  and  C2'_3 
REMARK    2  A    between atoms: C2'_3  and  C1'_4 
REMARK    3  A    between atoms: C1'_4  and  C1_5 
ROOT
ATOM      1  C1  N4B d   1       1.582   3.416  -3.778  0.00  0.00    -0.075 A 
ATOM      2  C2  N4B d   1       1.790   4.812  -3.779  0.00  0.00     0.002 A 
ATOM      3  C3  N4B d   1       2.315   5.428  -4.889  0.00  0.00     0.002 A 
ATOM      4  C4  N4B d   1       2.655   4.667  -5.998  0.00  0.00    -0.004 A 
ATOM      5  C5  N4B d   1       2.427   3.322  -5.999  0.00  0.00     0.002 A 
ATOM      6  C6  N4B d   1       1.896   2.691  -4.892  0.00  0.00     0.002 A 
ENDROOT
BRANCH   1   7
ATOM      7  C1' N4B d   1       1.091   2.687  -2.558  0.00  0.00     0.057 C 
BRANCH   7   8
ATOM      8  C2' N4B d   1       2.247   2.519  -1.576  0.00  0.00     0.009 C 
BRANCH   8   9
ATOM      9  C3' N4B d   1       2.627   3.833  -0.916  0.00  0.00     0.004 C 
ATOM     10  C4' N4B d   1       2.219   3.898   0.526  0.00  0.00     0.003 C 
ENDBRANCH   8   9
ENDBRANCH   7   8
ENDBRANCH   1   7
TORSDOF 3
ENDMDL
