MODEL 1
REMARK minimizedAffinity 5.78092384
REMARK minimizedRMSD -1
REMARK  3 active torsions:
REMARK  status: ('A' for Active; 'I' for Inactive)
REMARK    1  A    between atoms: C3'_2  and  C2'_3 
REMARK    2  A    between atoms: C2'_3  and  C1'_4 
REMARK    3  A    between atoms: C1'_4  and  C1_5 
ROOT
ATOM      1  C1  N4B d   1      -1.983  -2.159  -1.334  0.00  0.00    -0.075 A 
ATOM      2  C2  N4B d   1      -0.742  -2.717  -0.954  0.00  0.00     0.002 A 
ATOM      3  C3  N4B d   1      -0.430  -2.853   0.377  0.00  0.00     0.002 A 
ATOM      4  C4  N4B d   1      -1.330  -2.423   1.340  0.00  0.00    -0.004 A 
ATOM      5  C5  N4B d   1      -2.537  -1.909   0.964  0.00  0.00     0.002 A 
ATOM      6  C6  N4B d   1      -2.866  -1.770  -0.369  0.00  0.00     0.002 A 
ENDROOT
BRANCH   1   7
ATOM      7  C1' N4B d   1      -2.333  -1.911  -2.776  0.00  0.00     0.057 C 
BRANCH   7   8
ATOM      8  C2' N4B d   1      -2.240  -3.225  -3.547  0.00  0.00     0.009 C 
BRANCH   8   9
ATOM      9  C3' N4B d   1      -1.897  -3.001  -5.010  0.00  0.00     0.004 C 
ATOM     10  C4' N4B d   1      -2.854  -3.682  -5.941  0.00  0.00     0.003 C 
ENDBRANCH   8   9
ENDBRANCH   7   8
ENDBRANCH   1   7
TORSDOF 3
ENDMDL
