MODEL 1
REMARK minimizedAffinity 5.52695751
REMARK minimizedRMSD -1
REMARK  3 active torsions:
REMARK  status: ('A' for Active; 'I' for Inactive)
REMARK    1  A    between atoms: C3'_2  and  C2'_3 
REMARK    2  A    between atoms: C2'_3  and  C1'_4 
REMARK    3  A    between atoms: C1'_4  and  C1_5 
ROOT
ATOM      1  C1  N4B d   1       3.131   2.622  -5.848  0.00  0.00    -0.075 A 
ATOM      2  C2  N4B d   1       3.973   3.745  -5.998  0.00  0.00     0.002 A 
ATOM      3  C3  N4B d   1       3.441   5.011  -5.973  0.00  0.00     0.002 A 
ATOM      4  C4  N4B d   1       2.072   5.176  -5.818  0.00  0.00    -0.004 A 
ATOM      5  C5  N4B d   1       1.269   4.086  -5.648  0.00  0.00     0.002 A 
ATOM      6  C6  N4B d   1       1.792   2.809  -5.668  0.00  0.00     0.002 A 
ENDROOT
BRANCH   1   7
ATOM      7  C1' N4B d   1       3.657   1.216  -5.955  0.00  0.00     0.057 C 
BRANCH   7   8
ATOM      8  C2' N4B d   1       4.739   1.004  -4.900  0.00  0.00     0.009 C 
BRANCH   8   9
ATOM      9  C3' N4B d   1       5.374  -0.371  -5.006  0.00  0.00     0.004 C 
ATOM     10  C4' N4B d   1       4.407  -1.481  -4.720  0.00  0.00     0.003 C 
ENDBRANCH   8   9
ENDBRANCH   7   8
ENDBRANCH   1   7
TORSDOF 3
ENDMDL
