MODEL 1
REMARK minimizedAffinity 3.96587992
REMARK minimizedRMSD -1
REMARK  3 active torsions:
REMARK  status: ('A' for Active; 'I' for Inactive)
REMARK    1  A    between atoms: C3'_2  and  C2'_3 
REMARK    2  A    between atoms: C2'_3  and  C1'_4 
REMARK    3  A    between atoms: C1'_4  and  C1_5 
ROOT
ATOM      1  C1  N4B d   1       1.395  -0.216  -5.631  0.00  0.00    -0.075 A 
ATOM      2  C2  N4B d   1       0.946  -1.504  -5.266  0.00  0.00     0.002 A 
ATOM      3  C3  N4B d   1      -0.365  -1.698  -4.907  0.00  0.00     0.002 A 
ATOM      4  C4  N4B d   1      -1.237  -0.620  -4.887  0.00  0.00    -0.004 A 
ATOM      5  C5  N4B d   1      -0.802   0.616  -5.265  0.00  0.00     0.002 A 
ATOM      6  C6  N4B d   1       0.512   0.825  -5.632  0.00  0.00     0.002 A 
ENDROOT
BRANCH   1   7
ATOM      7  C1' N4B d   1       2.839   0.061  -5.949  0.00  0.00     0.057 C 
BRANCH   7   8
ATOM      8  C2' N4B d   1       3.709  -0.435  -4.798  0.00  0.00     0.009 C 
BRANCH   8   9
ATOM      9  C3' N4B d   1       5.170  -0.068  -4.991  0.00  0.00     0.004 C 
ATOM     10  C4' N4B d   1       5.861  -0.939  -5.997  0.00  0.00     0.003 C 
ENDBRANCH   8   9
ENDBRANCH   7   8
ENDBRANCH   1   7
TORSDOF 3
ENDMDL
