MODEL 1
REMARK minimizedAffinity 10.7950029
REMARK minimizedRMSD -1
REMARK  3 active torsions:
REMARK  status: ('A' for Active; 'I' for Inactive)
REMARK    1  A    between atoms: C3'_2  and  C2'_3 
REMARK    2  A    between atoms: C2'_3  and  C1'_4 
REMARK    3  A    between atoms: C1'_4  and  C1_5 
ROOT
ATOM      1  C1  N4B d   1       1.268  -0.804  -5.462  0.00  0.00    -0.075 A 
ATOM      2  C2  N4B d   1       1.244  -1.809  -4.470  0.00  0.00     0.002 A 
ATOM      3  C3  N4B d   1       0.043  -2.270  -3.988  0.00  0.00     0.002 A 
ATOM      4  C4  N4B d   1      -1.141  -1.729  -4.468  0.00  0.00    -0.004 A 
ATOM      5  C5  N4B d   1      -1.109  -0.777  -5.444  0.00  0.00     0.002 A 
ATOM      6  C6  N4B d   1       0.090  -0.307  -5.940  0.00  0.00     0.002 A 
ENDROOT
BRANCH   1   7
ATOM      7  C1' N4B d   1       2.557  -0.209  -5.958  0.00  0.00     0.057 C 
BRANCH   7   8
ATOM      8  C2' N4B d   1       3.714  -0.756  -5.127  0.00  0.00     0.009 C 
BRANCH   8   9
ATOM      9  C3' N4B d   1       4.887  -1.179  -5.994  0.00  0.00     0.004 C 
ATOM     10  C4' N4B d   1       5.999  -0.173  -5.999  0.00  0.00     0.003 C 
ENDBRANCH   8   9
ENDBRANCH   7   8
ENDBRANCH   1   7
TORSDOF 3
ENDMDL
