MODEL 1
REMARK minimizedAffinity -2.62859011
REMARK minimizedRMSD -1
REMARK  3 active torsions:
REMARK  status: ('A' for Active; 'I' for Inactive)
REMARK    1  A    between atoms: C3'_2  and  C2'_3 
REMARK    2  A    between atoms: C2'_3  and  C1'_4 
REMARK    3  A    between atoms: C1'_4  and  C1_5 
ROOT
ATOM      1  C1  N4B d   1      -0.181  -0.941   2.259  0.00  0.00    -0.075 A 
ATOM      2  C2  N4B d   1       0.546   0.008   1.508  0.00  0.00     0.002 A 
ATOM      3  C3  N4B d   1      -0.116   0.881   0.680  0.00  0.00     0.002 A 
ATOM      4  C4  N4B d   1      -1.497   0.812   0.573  0.00  0.00    -0.004 A 
ATOM      5  C5  N4B d   1      -2.194  -0.091   1.321  0.00  0.00     0.002 A 
ATOM      6  C6  N4B d   1      -1.542  -0.972   2.161  0.00  0.00     0.002 A 
ENDROOT
BRANCH   1   7
ATOM      7  C1' N4B d   1       0.505  -1.973   3.112  0.00  0.00     0.057 C 
BRANCH   7   8
ATOM      8  C2' N4B d   1       2.014  -1.752   3.049  0.00  0.00     0.009 C 
BRANCH   8   9
ATOM      9  C3' N4B d   1       2.576  -1.283   4.380  0.00  0.00     0.004 C 
ATOM     10  C4' N4B d   1       1.506  -0.900   5.359  0.00  0.00     0.003 C 
ENDBRANCH   8   9
ENDBRANCH   7   8
ENDBRANCH   1   7
TORSDOF 3
ENDMDL
