MODEL 1
REMARK minimizedAffinity 4.72235584
REMARK minimizedRMSD -1
REMARK  3 active torsions:
REMARK  status: ('A' for Active; 'I' for Inactive)
REMARK    1  A    between atoms: C3'_2  and  C2'_3 
REMARK    2  A    between atoms: C2'_3  and  C1'_4 
REMARK    3  A    between atoms: C1'_4  and  C1_5 
ROOT
ATOM      1  C1  N4B d   1       1.274  -0.739  -5.256  0.00  0.00    -0.075 A 
ATOM      2  C2  N4B d   1       2.423  -0.389  -5.999  0.00  0.00     0.002 A 
ATOM      3  C3  N4B d   1       3.662  -0.434  -5.410  0.00  0.00     0.002 A 
ATOM      4  C4  N4B d   1       3.776  -0.806  -4.079  0.00  0.00    -0.004 A 
ATOM      5  C5  N4B d   1       2.664  -1.166  -3.375  0.00  0.00     0.002 A 
ATOM      6  C6  N4B d   1       1.413  -1.130  -3.955  0.00  0.00     0.002 A 
ENDROOT
BRANCH   1   7
ATOM      7  C1' N4B d   1      -0.110  -0.622  -5.832  0.00  0.00     0.057 C 
BRANCH   7   8
ATOM      8  C2' N4B d   1      -1.120  -1.156  -4.820  0.00  0.00     0.009 C 
BRANCH   8   9
ATOM      9  C3' N4B d   1      -2.218  -0.148  -4.527  0.00  0.00     0.004 C 
ATOM     10  C4' N4B d   1      -1.739   1.010  -3.702  0.00  0.00     0.003 C 
ENDBRANCH   8   9
ENDBRANCH   7   8
ENDBRANCH   1   7
TORSDOF 3
ENDMDL
