MODEL 1
REMARK minimizedAffinity -1.36475837
REMARK minimizedRMSD -1
REMARK  0 active torsions:
REMARK  status: ('A' for Active; 'I' for Inactive)
ROOT
ATOM      1  C   UNL d   1       2.211   3.063   3.175  0.00  0.00     0.077 C 
ATOM      2  C1  UNL d   1       1.382   2.822   1.948  0.00  0.00    -0.074 A 
ATOM      3  C2  UNL d   1       1.047   3.874   1.089  0.00  0.00    -0.005 A 
ATOM      4  C3  UNL d   1       0.284   3.633  -0.053  0.00  0.00     0.006 A 
ATOM      5  C4  UNL d   1      -0.151   2.341  -0.348  0.00  0.00    -0.005 A 
ATOM      6  C5  UNL d   1       0.175   1.276   0.498  0.00  0.00    -0.074 A 
ATOM      7  C6  UNL d   1      -0.277  -0.120   0.191  0.00  0.00     0.077 C 
ATOM      8  C7  UNL d   1       0.948   1.525   1.641  0.00  0.00    -0.001 A 
ENDROOT
TORSDOF 0
ENDMDL
