MODEL 1
REMARK minimizedAffinity 1.27977395
REMARK minimizedRMSD -1
REMARK  0 active torsions:
REMARK  status: ('A' for Active; 'I' for Inactive)
ROOT
ATOM      1  C   UNL d   1       0.743   4.113   0.182  0.00  0.00     0.077 C 
ATOM      2  C1  UNL d   1       0.740   2.807   0.920  0.00  0.00    -0.074 A 
ATOM      3  C2  UNL d   1       1.181   2.729   2.245  0.00  0.00    -0.005 A 
ATOM      4  C3  UNL d   1       1.164   1.509   2.921  0.00  0.00     0.006 A 
ATOM      5  C4  UNL d   1       0.705   0.357   2.280  0.00  0.00    -0.005 A 
ATOM      6  C5  UNL d   1       0.259   0.416   0.956  0.00  0.00    -0.074 A 
ATOM      7  C6  UNL d   1      -0.245  -0.811   0.256  0.00  0.00     0.077 C 
ATOM      8  C7  UNL d   1       0.274   1.647   0.286  0.00  0.00    -0.001 A 
ENDROOT
TORSDOF 0
ENDMDL
