MODEL 1
REMARK minimizedAffinity 6.03288078
REMARK minimizedRMSD -1
REMARK  0 active torsions:
REMARK  status: ('A' for Active; 'I' for Inactive)
ROOT
ATOM      1  C   UNL d   1       0.262   0.684  -2.116  0.00  0.00     0.077 C 
ATOM      2  C1  UNL d   1      -0.322   1.818  -1.326  0.00  0.00    -0.074 A 
ATOM      3  C2  UNL d   1      -0.499   3.079  -1.903  0.00  0.00    -0.005 A 
ATOM      4  C3  UNL d   1      -1.052   4.122  -1.158  0.00  0.00     0.006 A 
ATOM      5  C4  UNL d   1      -1.432   3.913   0.168  0.00  0.00    -0.005 A 
ATOM      6  C5  UNL d   1      -1.263   2.658   0.761  0.00  0.00    -0.074 A 
ATOM      7  C6  UNL d   1      -1.676   2.414   2.183  0.00  0.00     0.077 C 
ATOM      8  C7  UNL d   1      -0.714   1.614   0.005  0.00  0.00    -0.001 A 
ENDROOT
TORSDOF 0
ENDMDL
