MODEL 1
REMARK minimizedAffinity 2.34527326
REMARK minimizedRMSD -1
REMARK  0 active torsions:
REMARK  status: ('A' for Active; 'I' for Inactive)
ROOT
ATOM      1  C   UNL d   1       1.697  -0.131   0.196  0.00  0.00     0.077 C 
ATOM      2  C1  UNL d   1       0.801   0.835   0.913  0.00  0.00    -0.074 A 
ATOM      3  C2  UNL d   1       0.460   0.638   2.255  0.00  0.00    -0.005 A 
ATOM      4  C3  UNL d   1      -0.366   1.550   2.911  0.00  0.00     0.006 A 
ATOM      5  C4  UNL d   1      -0.859   2.666   2.233  0.00  0.00    -0.005 A 
ATOM      6  C5  UNL d   1      -0.529   2.879   0.891  0.00  0.00    -0.074 A 
ATOM      7  C6  UNL d   1      -1.042   4.078   0.151  0.00  0.00     0.077 C 
ATOM      8  C7  UNL d   1       0.308   1.962   0.241  0.00  0.00    -0.001 A 
ENDROOT
TORSDOF 0
ENDMDL
