MODEL 1
REMARK minimizedAffinity 6.79418516
REMARK minimizedRMSD -1
REMARK  0 active torsions:
REMARK  status: ('A' for Active; 'I' for Inactive)
ROOT
ATOM      1  C   UNL d   1      -0.900   1.493   3.015  0.00  0.00     0.077 C 
ATOM      2  C1  UNL d   1      -1.064   2.514   1.929  0.00  0.00    -0.074 A 
ATOM      3  C2  UNL d   1      -0.465   2.335   0.678  0.00  0.00    -0.005 A 
ATOM      4  C3  UNL d   1      -0.635   3.289  -0.326  0.00  0.00     0.006 A 
ATOM      5  C4  UNL d   1      -1.403   4.429  -0.089  0.00  0.00    -0.005 A 
ATOM      6  C5  UNL d   1      -2.010   4.625   1.156  0.00  0.00    -0.074 A 
ATOM      7  C6  UNL d   1      -2.847   5.840   1.424  0.00  0.00     0.077 C 
ATOM      8  C7  UNL d   1      -1.841   3.658   2.157  0.00  0.00    -0.001 A 
ENDROOT
TORSDOF 0
ENDMDL
