MODEL 1
REMARK minimizedAffinity 4.28193855
REMARK minimizedRMSD -1
REMARK  0 active torsions:
REMARK  status: ('A' for Active; 'I' for Inactive)
ROOT
ATOM      1  C   UNL d   1      -0.407   1.594   3.074  0.00  0.00     0.077 C 
ATOM      2  C1  UNL d   1      -0.700   2.370   1.824  0.00  0.00    -0.074 A 
ATOM      3  C2  UNL d   1      -1.224   3.665   1.888  0.00  0.00    -0.005 A 
ATOM      4  C3  UNL d   1      -1.482   4.378   0.718  0.00  0.00     0.006 A 
ATOM      5  C4  UNL d   1      -1.219   3.804  -0.527  0.00  0.00    -0.005 A 
ATOM      6  C5  UNL d   1      -0.693   2.511  -0.611  0.00  0.00    -0.074 A 
ATOM      7  C6  UNL d   1      -0.395   1.883  -1.940  0.00  0.00     0.077 C 
ATOM      8  C7  UNL d   1      -0.430   1.803   0.570  0.00  0.00    -0.001 A 
ENDROOT
TORSDOF 0
ENDMDL
