MODEL 1
REMARK minimizedAffinity -2.28384757
REMARK minimizedRMSD -1
REMARK  0 active torsions:
REMARK  status: ('A' for Active; 'I' for Inactive)
ROOT
ATOM      1  C   UNL d   1      -0.327   1.500   2.638  0.00  0.00     0.077 C 
ATOM      2  C1  UNL d   1      -0.690   2.064   1.297  0.00  0.00    -0.074 A 
ATOM      3  C2  UNL d   1      -0.989   3.422   1.145  0.00  0.00    -0.005 A 
ATOM      4  C3  UNL d   1      -1.315   3.935  -0.110  0.00  0.00     0.006 A 
ATOM      5  C4  UNL d   1      -1.346   3.096  -1.225  0.00  0.00    -0.005 A 
ATOM      6  C5  UNL d   1      -1.050   1.736  -1.093  0.00  0.00    -0.074 A 
ATOM      7  C6  UNL d   1      -1.069   0.823  -2.283  0.00  0.00     0.077 C 
ATOM      8  C7  UNL d   1      -0.716   1.230   0.171  0.00  0.00    -0.001 A 
ENDROOT
TORSDOF 0
ENDMDL
