MODEL 1
REMARK minimizedAffinity 3.2599318
REMARK minimizedRMSD -1
REMARK  0 active torsions:
REMARK  status: ('A' for Active; 'I' for Inactive)
ROOT
ATOM      1  C   UNL d   1       0.543   1.340  -2.503  0.00  0.00     0.077 C 
ATOM      2  C1  UNL d   1      -0.161   2.171  -1.472  0.00  0.00    -0.074 A 
ATOM      3  C2  UNL d   1      -0.950   3.263  -1.846  0.00  0.00    -0.005 A 
ATOM      4  C3  UNL d   1      -1.606   4.022  -0.876  0.00  0.00     0.006 A 
ATOM      5  C4  UNL d   1      -1.479   3.696   0.475  0.00  0.00    -0.005 A 
ATOM      6  C5  UNL d   1      -0.695   2.607   0.867  0.00  0.00    -0.074 A 
ATOM      7  C6  UNL d   1      -0.555   2.238   2.314  0.00  0.00     0.077 C 
ATOM      8  C7  UNL d   1      -0.044   1.846  -0.114  0.00  0.00    -0.001 A 
ENDROOT
TORSDOF 0
ENDMDL
