MODEL 1
REMARK minimizedAffinity 0.372749507
REMARK minimizedRMSD -1
REMARK  0 active torsions:
REMARK  status: ('A' for Active; 'I' for Inactive)
ROOT
ATOM      1  C   UNL d   1      -0.401   1.107  -1.525  0.00  0.00     0.077 C 
ATOM      2  C1  UNL d   1      -0.698   2.133  -0.472  0.00  0.00    -0.074 A 
ATOM      3  C2  UNL d   1      -1.890   2.864  -0.496  0.00  0.00    -0.005 A 
ATOM      4  C3  UNL d   1      -2.157   3.808   0.495  0.00  0.00     0.006 A 
ATOM      5  C4  UNL d   1      -1.236   4.031   1.520  0.00  0.00    -0.005 A 
ATOM      6  C5  UNL d   1      -0.039   3.309   1.561  0.00  0.00    -0.074 A 
ATOM      7  C6  UNL d   1       0.957   3.529   2.660  0.00  0.00     0.077 C 
ATOM      8  C7  UNL d   1       0.219   2.357   0.565  0.00  0.00    -0.001 A 
ENDROOT
TORSDOF 0
ENDMDL
