MODEL 1
REMARK minimizedAffinity 4.87031794
REMARK minimizedRMSD -1
REMARK  0 active torsions:
REMARK  status: ('A' for Active; 'I' for Inactive)
ROOT
ATOM      1  C   UNL d   1      -0.761   1.559   2.707  0.00  0.00     0.077 C 
ATOM      2  C1  UNL d   1       0.235   0.618   2.096  0.00  0.00    -0.074 A 
ATOM      3  C2  UNL d   1       0.242   0.373   0.719  0.00  0.00    -0.005 A 
ATOM      4  C3  UNL d   1       1.180  -0.497   0.164  0.00  0.00     0.006 A 
ATOM      5  C4  UNL d   1       2.119  -1.131   0.979  0.00  0.00    -0.005 A 
ATOM      6  C5  UNL d   1       2.127  -0.898   2.358  0.00  0.00    -0.074 A 
ATOM      7  C6  UNL d   1       3.136  -1.564   3.247  0.00  0.00     0.077 C 
ATOM      8  C7  UNL d   1       1.186  -0.017   2.907  0.00  0.00    -0.001 A 
ENDROOT
TORSDOF 0
ENDMDL
