MODEL 1
REMARK minimizedAffinity 3.93267488
REMARK minimizedRMSD -1
REMARK  0 active torsions:
REMARK  status: ('A' for Active; 'I' for Inactive)
ROOT
ATOM      1  C   UNL d   1       2.499  -2.349  -0.990  0.00  0.00     0.077 C 
ATOM      2  C1  UNL d   1       1.626  -1.189  -0.610  0.00  0.00    -0.074 A 
ATOM      3  C2  UNL d   1       1.203  -0.264  -1.570  0.00  0.00    -0.005 A 
ATOM      4  C3  UNL d   1       0.384   0.804  -1.204  0.00  0.00     0.006 A 
ATOM      5  C4  UNL d   1      -0.019   0.958   0.123  0.00  0.00    -0.005 A 
ATOM      6  C5  UNL d   1       0.393   0.042   1.096  0.00  0.00    -0.074 A 
ATOM      7  C6  UNL d   1      -0.039   0.187   2.525  0.00  0.00     0.077 C 
ATOM      8  C7  UNL d   1       1.210  -1.033   0.719  0.00  0.00    -0.001 A 
ENDROOT
TORSDOF 0
ENDMDL
