MODEL 1
REMARK minimizedAffinity 4.95780754
REMARK minimizedRMSD -1
REMARK  0 active torsions:
REMARK  status: ('A' for Active; 'I' for Inactive)
ROOT
ATOM      1  O1  BZF d   1       5.211   1.065   0.879  0.00  0.00    -0.204 OA
ATOM      2  C2  BZF d   1       4.452   1.915   0.099  0.00  0.00     0.174 A 
ATOM      3  C3  BZF d   1       3.138   1.643   0.234  0.00  0.00    -0.012 A 
ATOM      4  C3A BZF d   1       3.066   0.615   1.226  0.00  0.00    -0.107 A 
ATOM      5  C4  BZF d   1       2.030  -0.063   1.803  0.00  0.00     0.055 A 
ATOM      6  C5  BZF d   1       2.303  -1.058   2.687  0.00  0.00    -0.016 A 
ATOM      7  C6  BZF d   1       3.598  -1.406   3.012  0.00  0.00     0.022 A 
ATOM      8  C7  BZF d   1       4.658  -0.759   2.470  0.00  0.00     0.029 A 
ATOM      9  C7A BZF d   1       4.385   0.270   1.601  0.00  0.00     0.058 A 
ENDROOT
TORSDOF 0
ENDMDL
