MODEL 1
REMARK minimizedAffinity 14.7180243
REMARK minimizedRMSD -1
REMARK  0 active torsions:
REMARK  status: ('A' for Active; 'I' for Inactive)
ROOT
ATOM      1  O1  BZF d   1      -3.688  -0.103   0.688  0.00  0.00    -0.204 OA
ATOM      2  C2  BZF d   1      -4.019  -1.337   1.214  0.00  0.00     0.174 A 
ATOM      3  C3  BZF d   1      -4.884  -1.204   2.240  0.00  0.00    -0.012 A 
ATOM      4  C3A BZF d   1      -5.180   0.194   2.304  0.00  0.00    -0.107 A 
ATOM      5  C4  BZF d   1      -5.989   0.947   3.106  0.00  0.00     0.055 A 
ATOM      6  C5  BZF d   1      -5.997   2.297   2.956  0.00  0.00    -0.016 A 
ATOM      7  C6  BZF d   1      -5.206   2.928   2.018  0.00  0.00     0.022 A 
ATOM      8  C7  BZF d   1      -4.391   2.223   1.196  0.00  0.00     0.029 A 
ATOM      9  C7A BZF d   1      -4.405   0.856   1.323  0.00  0.00     0.058 A 
ENDROOT
TORSDOF 0
ENDMDL
