MODEL 1
REMARK minimizedAffinity 9.10597038
REMARK minimizedRMSD -1
REMARK  0 active torsions:
REMARK  status: ('A' for Active; 'I' for Inactive)
ROOT
ATOM      1  O1  BZF d   1      -4.420   3.034   1.477  0.00  0.00    -0.204 OA
ATOM      2  C2  BZF d   1      -5.526   3.104   2.302  0.00  0.00     0.174 A 
ATOM      3  C3  BZF d   1      -5.989   1.870   2.587  0.00  0.00    -0.012 A 
ATOM      4  C3A BZF d   1      -5.063   0.969   1.972  0.00  0.00    -0.107 A 
ATOM      5  C4  BZF d   1      -4.975  -0.392   1.915  0.00  0.00     0.055 A 
ATOM      6  C5  BZF d   1      -3.989  -0.960   1.171  0.00  0.00    -0.016 A 
ATOM      7  C6  BZF d   1      -3.079  -0.197   0.469  0.00  0.00     0.022 A 
ATOM      8  C7  BZF d   1      -3.123   1.157   0.499  0.00  0.00     0.029 A 
ATOM      9  C7A BZF d   1      -4.098   1.734   1.277  0.00  0.00     0.058 A 
ENDROOT
TORSDOF 0
ENDMDL
