MODEL 1
REMARK minimizedAffinity 3.32617259
REMARK minimizedRMSD -1
REMARK  0 active torsions:
REMARK  status: ('A' for Active; 'I' for Inactive)
ROOT
ATOM      1  O1  BZF d   1       3.933  -0.694   3.276  0.00  0.00    -0.204 OA
ATOM      2  C2  BZF d   1       5.238  -0.293   3.066  0.00  0.00     0.174 A 
ATOM      3  C3  BZF d   1       5.334   0.459   1.951  0.00  0.00    -0.012 A 
ATOM      4  C3A BZF d   1       3.990   0.610   1.482  0.00  0.00    -0.107 A 
ATOM      5  C4  BZF d   1       3.434   1.266   0.421  0.00  0.00     0.055 A 
ATOM      6  C5  BZF d   1       2.097   1.155   0.204  0.00  0.00    -0.016 A 
ATOM      7  C6  BZF d   1       1.289   0.393   1.022  0.00  0.00     0.022 A 
ATOM      8  C7  BZF d   1       1.794  -0.272   2.090  0.00  0.00     0.029 A 
ATOM      9  C7A BZF d   1       3.139  -0.135   2.332  0.00  0.00     0.058 A 
ENDROOT
TORSDOF 0
ENDMDL
