MODEL 1
REMARK minimizedAffinity 6.11008787
REMARK minimizedRMSD -1
REMARK  0 active torsions:
REMARK  status: ('A' for Active; 'I' for Inactive)
ROOT
ATOM      1  O1  BZF d   1      -4.824  -4.872   4.563  0.00  0.00    -0.204 OA
ATOM      2  C2  BZF d   1      -5.249  -4.889   3.249  0.00  0.00     0.174 A 
ATOM      3  C3  BZF d   1      -5.051  -3.688   2.667  0.00  0.00    -0.012 A 
ATOM      4  C3A BZF d   1      -4.381  -2.897   3.653  0.00  0.00    -0.107 A 
ATOM      5  C4  BZF d   1      -3.905  -1.618   3.666  0.00  0.00     0.055 A 
ATOM      6  C5  BZF d   1      -3.368  -1.124   4.813  0.00  0.00    -0.016 A 
ATOM      7  C6  BZF d   1      -3.297  -1.879   5.965  0.00  0.00     0.022 A 
ATOM      8  C7  BZF d   1      -3.752  -3.155   6.000  0.00  0.00     0.029 A 
ATOM      9  C7A BZF d   1      -4.265  -3.668   4.833  0.00  0.00     0.058 A 
ENDROOT
TORSDOF 0
ENDMDL
