MODEL 1
REMARK minimizedAffinity 14.6734009
REMARK minimizedRMSD -1
REMARK  0 active torsions:
REMARK  status: ('A' for Active; 'I' for Inactive)
ROOT
ATOM      1  O1  BZF d   1       3.610  -0.728   2.898  0.00  0.00    -0.204 OA
ATOM      2  C2  BZF d   1       3.410  -2.009   3.374  0.00  0.00     0.174 A 
ATOM      3  C3  BZF d   1       2.201  -2.475   3.000  0.00  0.00    -0.012 A 
ATOM      4  C3A BZF d   1       1.646  -1.455   2.164  0.00  0.00    -0.107 A 
ATOM      5  C4  BZF d   1       0.472  -1.339   1.477  0.00  0.00     0.055 A 
ATOM      6  C5  BZF d   1       0.205  -0.183   0.815  0.00  0.00    -0.016 A 
ATOM      7  C6  BZF d   1       1.085   0.879   0.825  0.00  0.00     0.022 A 
ATOM      8  C7  BZF d   1       2.265   0.810   1.489  0.00  0.00     0.029 A 
ATOM      9  C7A BZF d   1       2.553  -0.369   2.131  0.00  0.00     0.058 A 
ENDROOT
TORSDOF 0
ENDMDL
