MODEL 1
REMARK minimizedAffinity 6.51689148
REMARK minimizedRMSD -1
REMARK  0 active torsions:
REMARK  status: ('A' for Active; 'I' for Inactive)
ROOT
ATOM      1  O1  BZF d   1      -2.436   5.822   5.946  0.00  0.00    -0.204 OA
ATOM      2  C2  BZF d   1      -1.478   4.827   5.938  0.00  0.00     0.174 A 
ATOM      3  C3  BZF d   1      -2.053   3.609   5.999  0.00  0.00    -0.012 A 
ATOM      4  C3A BZF d   1      -3.462   3.856   5.954  0.00  0.00    -0.107 A 
ATOM      5  C4  BZF d   1      -4.559   3.042   5.964  0.00  0.00     0.055 A 
ATOM      6  C5  BZF d   1      -5.797   3.602   5.985  0.00  0.00    -0.016 A 
ATOM      7  C6  BZF d   1      -5.975   4.969   6.000  0.00  0.00     0.022 A 
ATOM      8  C7  BZF d   1      -4.917   5.817   5.985  0.00  0.00     0.029 A 
ATOM      9  C7A BZF d   1      -3.666   5.255   5.932  0.00  0.00     0.058 A 
ENDROOT
TORSDOF 0
ENDMDL
