MODEL 1
REMARK minimizedAffinity 5.09854031
REMARK minimizedRMSD -1
REMARK  0 active torsions:
REMARK  status: ('A' for Active; 'I' for Inactive)
ROOT
ATOM      1  O1  BZF d   1       3.891  -0.822   3.320  0.00  0.00    -0.204 OA
ATOM      2  C2  BZF d   1       5.191  -0.369   3.211  0.00  0.00     0.174 A 
ATOM      3  C3  BZF d   1       5.336   0.413   2.122  0.00  0.00    -0.012 A 
ATOM      4  C3A BZF d   1       4.024   0.526   1.562  0.00  0.00    -0.107 A 
ATOM      5  C4  BZF d   1       3.519   1.186   0.479  0.00  0.00     0.055 A 
ATOM      6  C5  BZF d   1       2.206   1.032   0.165  0.00  0.00    -0.016 A 
ATOM      7  C6  BZF d   1       1.372   0.222   0.907  0.00  0.00     0.022 A 
ATOM      8  C7  BZF d   1       1.826  -0.449   1.993  0.00  0.00     0.029 A 
ATOM      9  C7A BZF d   1       3.145  -0.269   2.333  0.00  0.00     0.058 A 
ENDROOT
TORSDOF 0
ENDMDL
