MODEL 1
REMARK minimizedAffinity 11.1136856
REMARK minimizedRMSD -1
REMARK  0 active torsions:
REMARK  status: ('A' for Active; 'I' for Inactive)
ROOT
ATOM      1  O1  BZF d   1       2.231   0.756  -6.000  0.00  0.00    -0.204 OA
ATOM      2  C2  BZF d   1       2.607   2.046  -5.676  0.00  0.00     0.174 A 
ATOM      3  C3  BZF d   1       3.356   2.058  -4.554  0.00  0.00    -0.012 A 
ATOM      4  C3A BZF d   1       3.532   0.682  -4.204  0.00  0.00    -0.107 A 
ATOM      5  C4  BZF d   1       4.197   0.049  -3.193  0.00  0.00     0.055 A 
ATOM      6  C5  BZF d   1       4.111  -1.304  -3.092  0.00  0.00    -0.016 A 
ATOM      7  C6  BZF d   1       3.366  -2.052  -3.980  0.00  0.00     0.022 A 
ATOM      8  C7  BZF d   1       2.693  -1.469  -5.002  0.00  0.00     0.029 A 
ATOM      9  C7A BZF d   1       2.805  -0.106  -5.126  0.00  0.00     0.058 A 
ENDROOT
TORSDOF 0
ENDMDL
