MODEL 1
REMARK minimizedAffinity 5.40000153
REMARK minimizedRMSD -1
REMARK  0 active torsions:
REMARK  status: ('A' for Active; 'I' for Inactive)
ROOT
ATOM      1  O1  BZF d   1       4.084  -0.885   3.241  0.00  0.00    -0.204 OA
ATOM      2  C2  BZF d   1       5.280  -0.279   2.909  0.00  0.00     0.174 A 
ATOM      3  C3  BZF d   1       5.135   0.498   1.816  0.00  0.00    -0.012 A 
ATOM      4  C3A BZF d   1       3.742   0.443   1.497  0.00  0.00    -0.107 A 
ATOM      5  C4  BZF d   1       2.978   1.021   0.524  0.00  0.00     0.055 A 
ATOM      6  C5  BZF d   1       1.659   0.703   0.444  0.00  0.00    -0.016 A 
ATOM      7  C6  BZF d   1       1.073  -0.191   1.316  0.00  0.00     0.022 A 
ATOM      8  C7  BZF d   1       1.789  -0.785   2.301  0.00  0.00     0.029 A 
ATOM      9  C7A BZF d   1       3.115  -0.442   2.405  0.00  0.00     0.058 A 
ENDROOT
TORSDOF 0
ENDMDL
