MODEL 1
REMARK minimizedAffinity 5.55570555
REMARK minimizedRMSD -1
REMARK  0 active torsions:
REMARK  status: ('A' for Active; 'I' for Inactive)
ROOT
ATOM      1  O1  BZF d   1      -1.808   3.913   5.969  0.00  0.00    -0.204 OA
ATOM      2  C2  BZF d   1      -1.515   5.263   5.945  0.00  0.00     0.174 A 
ATOM      3  C3  BZF d   1      -2.645   5.997   5.879  0.00  0.00    -0.012 A 
ATOM      4  C3A BZF d   1      -3.714   5.049   5.954  0.00  0.00    -0.107 A 
ATOM      5  C4  BZF d   1      -5.075   5.167   5.954  0.00  0.00     0.055 A 
ATOM      6  C5  BZF d   1      -5.835   4.040   5.966  0.00  0.00    -0.016 A 
ATOM      7  C6  BZF d   1      -5.269   2.782   5.972  0.00  0.00     0.022 A 
ATOM      8  C7  BZF d   1      -3.924   2.616   5.978  0.00  0.00     0.029 A 
ATOM      9  C7A BZF d   1      -3.153   3.752   6.000  0.00  0.00     0.058 A 
ENDROOT
TORSDOF 0
ENDMDL
