MODEL 1
REMARK minimizedAffinity 5.40742493
REMARK minimizedRMSD -1
REMARK  0 active torsions:
REMARK  status: ('A' for Active; 'I' for Inactive)
ROOT
ATOM      1  O1  BZF d   1       3.034  -1.569   3.223  0.00  0.00    -0.204 OA
ATOM      2  C2  BZF d   1       1.696  -1.329   2.980  0.00  0.00     0.174 A 
ATOM      3  C3  BZF d   1       1.540  -0.259   2.175  0.00  0.00    -0.012 A 
ATOM      4  C3A BZF d   1       2.867   0.143   1.821  0.00  0.00    -0.107 A 
ATOM      5  C4  BZF d   1       3.367   1.137   1.030  0.00  0.00     0.055 A 
ATOM      6  C5  BZF d   1       4.714   1.305   0.954  0.00  0.00    -0.016 A 
ATOM      7  C6  BZF d   1       5.587   0.502   1.657  0.00  0.00     0.022 A 
ATOM      8  C7  BZF d   1       5.138  -0.501   2.451  0.00  0.00     0.029 A 
ATOM      9  C7A BZF d   1       3.779  -0.694   2.505  0.00  0.00     0.058 A 
ENDROOT
TORSDOF 0
ENDMDL
