MODEL 1
REMARK minimizedAffinity 5.18854713
REMARK minimizedRMSD -1
REMARK  0 active torsions:
REMARK  status: ('A' for Active; 'I' for Inactive)
ROOT
ATOM      1  O1  BZF d   1      -5.876   3.084   5.896  0.00  0.00    -0.204 OA
ATOM      2  C2  BZF d   1      -6.000   4.455   6.000  0.00  0.00     0.174 A 
ATOM      3  C3  BZF d   1      -5.912   5.037   4.786  0.00  0.00    -0.012 A 
ATOM      4  C3A BZF d   1      -5.814   3.955   3.856  0.00  0.00    -0.107 A 
ATOM      5  C4  BZF d   1      -5.716   3.892   2.495  0.00  0.00     0.055 A 
ATOM      6  C5  BZF d   1      -5.562   2.680   1.899  0.00  0.00    -0.016 A 
ATOM      7  C6  BZF d   1      -5.498   1.514   2.633  0.00  0.00     0.022 A 
ATOM      8  C7  BZF d   1      -5.595   1.525   3.984  0.00  0.00     0.029 A 
ATOM      9  C7A BZF d   1      -5.784   2.745   4.587  0.00  0.00     0.058 A 
ENDROOT
TORSDOF 0
ENDMDL
