MODEL 1
REMARK minimizedAffinity 3.0532403
REMARK minimizedRMSD -1
REMARK  0 active torsions:
REMARK  status: ('A' for Active; 'I' for Inactive)
ROOT
ATOM      1  O1  BZF d   1       5.242  -0.752   3.001  0.00  0.00    -0.204 OA
ATOM      2  C2  BZF d   1       5.998   0.306   2.534  0.00  0.00     0.174 A 
ATOM      3  C3  BZF d   1       5.349   0.959   1.548  0.00  0.00    -0.012 A 
ATOM      4  C3A BZF d   1       4.071   0.322   1.453  0.00  0.00    -0.107 A 
ATOM      5  C4  BZF d   1       2.974   0.531   0.667  0.00  0.00     0.055 A 
ATOM      6  C5  BZF d   1       1.914  -0.313   0.774  0.00  0.00    -0.016 A 
ATOM      7  C6  BZF d   1       1.920  -1.379   1.650  0.00  0.00     0.022 A 
ATOM      8  C7  BZF d   1       2.984  -1.624   2.453  0.00  0.00     0.029 A 
ATOM      9  C7A BZF d   1       4.043  -0.752   2.372  0.00  0.00     0.058 A 
ENDROOT
TORSDOF 0
ENDMDL
