MODEL 1
REMARK minimizedAffinity 5.68834925
REMARK minimizedRMSD -1
REMARK  0 active torsions:
REMARK  status: ('A' for Active; 'I' for Inactive)
ROOT
ATOM      1  O1  BZF d   1      -3.773  -0.231   4.710  0.00  0.00    -0.204 OA
ATOM      2  C2  BZF d   1      -3.695  -0.745   5.990  0.00  0.00     0.174 A 
ATOM      3  C3  BZF d   1      -3.789  -2.090   5.972  0.00  0.00    -0.012 A 
ATOM      4  C3A BZF d   1      -3.843  -2.445   4.587  0.00  0.00    -0.107 A 
ATOM      5  C4  BZF d   1      -3.926  -3.638   3.926  0.00  0.00     0.055 A 
ATOM      6  C5  BZF d   1      -4.033  -3.636   2.571  0.00  0.00    -0.016 A 
ATOM      7  C6  BZF d   1      -4.067  -2.462   1.848  0.00  0.00     0.022 A 
ATOM      8  C7  BZF d   1      -3.983  -1.255   2.459  0.00  0.00     0.029 A 
ATOM      9  C7A BZF d   1      -3.841  -1.255   3.825  0.00  0.00     0.058 A 
ENDROOT
TORSDOF 0
ENDMDL
