MODEL 1
REMARK minimizedAffinity 2.22876883
REMARK minimizedRMSD -1
REMARK  0 active torsions:
REMARK  status: ('A' for Active; 'I' for Inactive)
ROOT
ATOM      1  O1  BZF d   1       2.997   3.552  -6.000  0.00  0.00    -0.204 OA
ATOM      2  C2  BZF d   1       3.036   2.252  -5.534  0.00  0.00     0.174 A 
ATOM      3  C3  BZF d   1       2.163   2.081  -4.520  0.00  0.00    -0.012 A 
ATOM      4  C3A BZF d   1       1.473   3.329  -4.403  0.00  0.00    -0.107 A 
ATOM      5  C4  BZF d   1       0.475   3.777  -3.585  0.00  0.00     0.055 A 
ATOM      6  C5  BZF d   1       0.077   5.073  -3.679  0.00  0.00    -0.016 A 
ATOM      7  C6  BZF d   1       0.657   5.948  -4.573  0.00  0.00     0.022 A 
ATOM      8  C7  BZF d   1       1.647   5.548  -5.409  0.00  0.00     0.029 A 
ATOM      9  C7A BZF d   1       2.029   4.231  -5.339  0.00  0.00     0.058 A 
ENDROOT
TORSDOF 0
ENDMDL
