MODEL 1
REMARK minimizedAffinity 3.09199095
REMARK minimizedRMSD -1
REMARK  0 active torsions:
REMARK  status: ('A' for Active; 'I' for Inactive)
ROOT
ATOM      1  O1  BZF d   1      -5.194   4.047   4.825  0.00  0.00    -0.204 OA
ATOM      2  C2  BZF d   1      -4.592   3.629   5.996  0.00  0.00     0.174 A 
ATOM      3  C3  BZF d   1      -4.426   2.290   5.997  0.00  0.00    -0.012 A 
ATOM      4  C3A BZF d   1      -4.874   1.855   4.710  0.00  0.00    -0.107 A 
ATOM      5  C4  BZF d   1      -4.943   0.633   4.103  0.00  0.00     0.055 A 
ATOM      6  C5  BZF d   1      -5.499   0.540   2.867  0.00  0.00    -0.016 A 
ATOM      7  C6  BZF d   1      -5.999   1.645   2.211  0.00  0.00     0.022 A 
ATOM      8  C7  BZF d   1      -5.949   2.879   2.770  0.00  0.00     0.029 A 
ATOM      9  C7A BZF d   1      -5.358   2.981   4.005  0.00  0.00     0.058 A 
ENDROOT
TORSDOF 0
ENDMDL
