MODEL 1
REMARK minimizedAffinity -2.33278251
REMARK minimizedRMSD -1
REMARK  0 active torsions:
REMARK  status: ('A' for Active; 'I' for Inactive)
ROOT
ATOM      1  C   UNL d   1      -0.443  -1.919   1.219  0.00  0.00     0.020 A 
ATOM      2  C1  UNL d   1      -1.467  -1.471   2.052  0.00  0.00     0.020 A 
ATOM      3  C2  UNL d   1      -2.226  -0.357   1.689  0.00  0.00     0.034 A 
ATOM      4  C3  UNL d   1      -1.963   0.313   0.488  0.00  0.00     0.017 A 
ATOM      5  C4  UNL d   1      -0.934  -0.137  -0.347  0.00  0.00     0.017 A 
ATOM      6  C5  UNL d   1      -0.177  -1.253   0.022  0.00  0.00     0.034 A 
ATOM      7 Cl   UNL d   1      -0.550   0.638  -1.844  0.00  0.00    -0.070 Cl
ATOM      8 Cl1  UNL d   1      -2.941   1.684   0.101  0.00  0.00    -0.070 Cl
ENDROOT
TORSDOF 0
ENDMDL
