MODEL 1
REMARK minimizedAffinity -1.82353759
REMARK minimizedRMSD -1
REMARK  0 active torsions:
REMARK  status: ('A' for Active; 'I' for Inactive)
ROOT
ATOM      1  C   UNL d   1      -1.144  -1.805   2.031  0.00  0.00     0.020 A 
ATOM      2  C1  UNL d   1      -0.272  -2.395   1.117  0.00  0.00     0.020 A 
ATOM      3  C2  UNL d   1       0.055  -1.728  -0.066  0.00  0.00     0.034 A 
ATOM      4  C3  UNL d   1      -0.491  -0.468  -0.338  0.00  0.00     0.017 A 
ATOM      5  C4  UNL d   1      -1.366   0.123   0.581  0.00  0.00     0.017 A 
ATOM      6  C5  UNL d   1      -1.690  -0.549   1.764  0.00  0.00     0.034 A 
ATOM      7 Cl   UNL d   1      -2.080   1.675   0.315  0.00  0.00    -0.070 Cl
ATOM      8 Cl1  UNL d   1      -0.043   0.299  -1.820  0.00  0.00    -0.070 Cl
ENDROOT
TORSDOF 0
ENDMDL
