MODEL 1
REMARK minimizedAffinity -0.797534943
REMARK minimizedRMSD -1
REMARK  0 active torsions:
REMARK  status: ('A' for Active; 'I' for Inactive)
ROOT
ATOM      1  C   UNL d   1       3.163   3.741   0.683  0.00  0.00     0.020 A 
ATOM      2  C1  UNL d   1       2.405   3.023  -0.242  0.00  0.00     0.020 A 
ATOM      3  C2  UNL d   1       1.011   3.082  -0.198  0.00  0.00     0.034 A 
ATOM      4  C3  UNL d   1       0.369   3.861   0.772  0.00  0.00     0.017 A 
ATOM      5  C4  UNL d   1       1.131   4.581   1.700  0.00  0.00     0.017 A 
ATOM      6  C5  UNL d   1       2.527   4.518   1.651  0.00  0.00     0.034 A 
ATOM      7 Cl   UNL d   1       0.411   5.563   2.926  0.00  0.00    -0.070 Cl
ATOM      8 Cl1  UNL d   1      -1.358   3.888   0.767  0.00  0.00    -0.070 Cl
ENDROOT
TORSDOF 0
ENDMDL
