MODEL 1
REMARK minimizedAffinity -0.391987115
REMARK minimizedRMSD -1
REMARK  0 active torsions:
REMARK  status: ('A' for Active; 'I' for Inactive)
ROOT
ATOM      1  C   UNL d   1      -0.451   0.999   0.790  0.00  0.00     0.020 A 
ATOM      2  C1  UNL d   1      -0.794   0.176   1.862  0.00  0.00     0.020 A 
ATOM      3  C2  UNL d   1      -0.735  -1.212   1.722  0.00  0.00     0.034 A 
ATOM      4  C3  UNL d   1      -0.333  -1.781   0.509  0.00  0.00     0.017 A 
ATOM      5  C4  UNL d   1       0.011  -0.954  -0.566  0.00  0.00     0.017 A 
ATOM      6  C5  UNL d   1      -0.049   0.436  -0.421  0.00  0.00     0.034 A 
ATOM      7 Cl   UNL d   1       0.518  -1.583  -2.095  0.00  0.00    -0.070 Cl
ATOM      8 Cl1  UNL d   1      -0.283  -3.505   0.407  0.00  0.00    -0.070 Cl
ENDROOT
TORSDOF 0
ENDMDL
