MODEL 1
REMARK minimizedAffinity -2.67209101
REMARK minimizedRMSD -1
REMARK  0 active torsions:
REMARK  status: ('A' for Active; 'I' for Inactive)
ROOT
ATOM      1  C   UNL d   1      -2.845   0.654   2.634  0.00  0.00     0.020 A 
ATOM      2  C1  UNL d   1      -1.770  -0.233   2.663  0.00  0.00     0.020 A 
ATOM      3  C2  UNL d   1      -0.953  -0.377   1.539  0.00  0.00     0.034 A 
ATOM      4  C3  UNL d   1      -1.210   0.368   0.383  0.00  0.00     0.017 A 
ATOM      5  C4  UNL d   1      -2.289   1.259   0.355  0.00  0.00     0.017 A 
ATOM      6  C5  UNL d   1      -3.104   1.399   1.483  0.00  0.00     0.034 A 
ATOM      7 Cl   UNL d   1      -2.669   2.212  -1.036  0.00  0.00    -0.070 Cl
ATOM      8 Cl1  UNL d   1      -0.159   0.141  -0.970  0.00  0.00    -0.070 Cl
ENDROOT
TORSDOF 0
ENDMDL
