MODEL 1
REMARK minimizedAffinity -4.45128345
REMARK minimizedRMSD -1
REMARK  0 active torsions:
REMARK  status: ('A' for Active; 'I' for Inactive)
ROOT
ATOM      1  C   UNL d   1      -0.168  -3.419   0.539  0.00  0.00     0.020 A 
ATOM      2  C1  UNL d   1       0.873  -2.972  -0.274  0.00  0.00     0.020 A 
ATOM      3  C2  UNL d   1       1.002  -1.611  -0.559  0.00  0.00     0.034 A 
ATOM      4  C3  UNL d   1       0.089  -0.692  -0.030  0.00  0.00     0.017 A 
ATOM      5  C4  UNL d   1      -0.956  -1.141   0.786  0.00  0.00     0.017 A 
ATOM      6  C5  UNL d   1      -1.080  -2.505   1.068  0.00  0.00     0.034 A 
ATOM      7 Cl   UNL d   1      -2.122  -0.067   1.475  0.00  0.00    -0.070 Cl
ATOM      8 Cl1  UNL d   1       0.309   0.976  -0.423  0.00  0.00    -0.070 Cl
ENDROOT
TORSDOF 0
ENDMDL
