MODEL 1
REMARK minimizedAffinity -3.29280567
REMARK minimizedRMSD -1
REMARK  0 active torsions:
REMARK  status: ('A' for Active; 'I' for Inactive)
ROOT
ATOM      1  C   UNL d   1       0.177  -3.067  -0.146  0.00  0.00     0.020 A 
ATOM      2  C1  UNL d   1       0.498  -2.537   1.103  0.00  0.00     0.020 A 
ATOM      3  C2  UNL d   1       0.711  -1.164   1.246  0.00  0.00     0.034 A 
ATOM      4  C3  UNL d   1       0.603  -0.316   0.138  0.00  0.00     0.017 A 
ATOM      5  C4  UNL d   1       0.281  -0.849  -1.116  0.00  0.00     0.017 A 
ATOM      6  C5  UNL d   1       0.069  -2.224  -1.253  0.00  0.00     0.034 A 
ATOM      7 Cl   UNL d   1       0.130   0.134  -2.530  0.00  0.00    -0.070 Cl
ATOM      8 Cl1  UNL d   1       0.879   1.371   0.387  0.00  0.00    -0.070 Cl
ENDROOT
TORSDOF 0
ENDMDL
