MODEL 1
REMARK minimizedAffinity -2.55209208
REMARK minimizedRMSD -1
REMARK  0 active torsions:
REMARK  status: ('A' for Active; 'I' for Inactive)
ROOT
ATOM      1  C   UNL d   1      -3.327   3.081   0.598  0.00  0.00     0.020 A 
ATOM      2  C1  UNL d   1      -4.017   2.183   1.411  0.00  0.00     0.020 A 
ATOM      3  C2  UNL d   1      -3.510   0.899   1.621  0.00  0.00     0.034 A 
ATOM      4  C3  UNL d   1      -2.310   0.509   1.017  0.00  0.00     0.017 A 
ATOM      5  C4  UNL d   1      -1.618   1.410   0.200  0.00  0.00     0.017 A 
ATOM      6  C5  UNL d   1      -2.130   2.695  -0.006  0.00  0.00     0.034 A 
ATOM      7 Cl   UNL d   1      -0.130   1.001  -0.579  0.00  0.00    -0.070 Cl
ATOM      8 Cl1  UNL d   1      -1.742  -1.095   1.321  0.00  0.00    -0.070 Cl
ENDROOT
TORSDOF 0
ENDMDL
