MODEL 1
REMARK minimizedAffinity -5.23866081
REMARK minimizedRMSD -1
REMARK  0 active torsions:
REMARK  status: ('A' for Active; 'I' for Inactive)
ROOT
ATOM      1  C   UNL d   1       1.132   0.123  -1.116  0.00  0.00     0.020 A 
ATOM      2  C1  UNL d   1      -0.262   0.092  -1.117  0.00  0.00     0.020 A 
ATOM      3  C2  UNL d   1      -0.934  -1.090  -1.438  0.00  0.00     0.034 A 
ATOM      4  C3  UNL d   1      -0.212  -2.245  -1.759  0.00  0.00     0.017 A 
ATOM      5  C4  UNL d   1       1.187  -2.213  -1.757  0.00  0.00     0.017 A 
ATOM      6  C5  UNL d   1       1.854  -1.027  -1.435  0.00  0.00     0.034 A 
ATOM      7 Cl   UNL d   1       2.146  -3.598  -2.142  0.00  0.00    -0.070 Cl
ATOM      8 Cl1  UNL d   1      -1.109  -3.671  -2.145  0.00  0.00    -0.070 Cl
ENDROOT
TORSDOF 0
ENDMDL
