MODEL 1
REMARK minimizedAffinity 6.92063713
REMARK minimizedRMSD -1
REMARK  0 active torsions:
REMARK  status: ('A' for Active; 'I' for Inactive)
ROOT
ATOM      1  C   UNL d   1      -2.199  -5.171  -2.516  0.00  0.00     0.020 A 
ATOM      2  C1  UNL d   1      -0.972  -4.585  -2.823  0.00  0.00     0.020 A 
ATOM      3  C2  UNL d   1      -0.646  -3.331  -2.301  0.00  0.00     0.034 A 
ATOM      4  C3  UNL d   1      -1.549  -2.660  -1.469  0.00  0.00     0.017 A 
ATOM      5  C4  UNL d   1      -2.781  -3.249  -1.161  0.00  0.00     0.017 A 
ATOM      6  C5  UNL d   1      -3.101  -4.504  -1.687  0.00  0.00     0.034 A 
ATOM      7 Cl   UNL d   1      -3.947  -2.482  -0.141  0.00  0.00    -0.070 Cl
ATOM      8 Cl1  UNL d   1      -1.081  -1.113  -0.858  0.00  0.00    -0.070 Cl
ENDROOT
TORSDOF 0
ENDMDL
