MODEL 1
REMARK minimizedAffinity 3.87329483
REMARK minimizedRMSD -1
REMARK  0 active torsions:
REMARK  status: ('A' for Active; 'I' for Inactive)
ROOT
ATOM      1  C   UNL d   1      -0.689   4.597   3.326  0.00  0.00     0.020 A 
ATOM      2  C1  UNL d   1       0.614   4.107   3.389  0.00  0.00     0.020 A 
ATOM      3  C2  UNL d   1       0.991   3.021   2.596  0.00  0.00     0.034 A 
ATOM      4  C3  UNL d   1       0.063   2.422   1.736  0.00  0.00     0.017 A 
ATOM      5  C4  UNL d   1      -1.245   2.915   1.674  0.00  0.00     0.017 A 
ATOM      6  C5  UNL d   1      -1.617   4.002   2.470  0.00  0.00     0.034 A 
ATOM      7 Cl   UNL d   1      -2.446   2.228   0.637  0.00  0.00    -0.070 Cl
ATOM      8 Cl1  UNL d   1       0.598   1.083   0.784  0.00  0.00    -0.070 Cl
ENDROOT
TORSDOF 0
ENDMDL
