MODEL 1
REMARK minimizedAffinity 6.8175292
REMARK minimizedRMSD -1
REMARK  0 active torsions:
REMARK  status: ('A' for Active; 'I' for Inactive)
ROOT
ATOM      1  C   UNL d   1       1.377   3.765   1.809  0.00  0.00     0.020 A 
ATOM      2  C1  UNL d   1       2.218   4.877   1.833  0.00  0.00     0.020 A 
ATOM      3  C2  UNL d   1       3.344   4.920   1.008  0.00  0.00     0.034 A 
ATOM      4  C3  UNL d   1       3.632   3.848   0.154  0.00  0.00     0.017 A 
ATOM      5  C4  UNL d   1       2.787   2.732   0.131  0.00  0.00     0.017 A 
ATOM      6  C5  UNL d   1       1.661   2.695   0.959  0.00  0.00     0.034 A 
ATOM      7 Cl   UNL d   1       3.076   1.372  -0.896  0.00  0.00    -0.070 Cl
ATOM      8 Cl1  UNL d   1       5.040   3.968  -0.839  0.00  0.00    -0.070 Cl
ENDROOT
TORSDOF 0
ENDMDL
