MODEL 1
REMARK minimizedAffinity 4.19609165
REMARK minimizedRMSD -1
REMARK  0 active torsions:
REMARK  status: ('A' for Active; 'I' for Inactive)
ROOT
ATOM      1  C   UNL d   1      -1.530   1.476  -0.066  0.00  0.00     0.020 A 
ATOM      2  C1  UNL d   1      -1.073   2.792  -0.138  0.00  0.00     0.020 A 
ATOM      3  C2  UNL d   1      -0.295   3.317   0.896  0.00  0.00     0.034 A 
ATOM      4  C3  UNL d   1       0.029   2.528   2.005  0.00  0.00     0.017 A 
ATOM      5  C4  UNL d   1      -0.430   1.207   2.076  0.00  0.00     0.017 A 
ATOM      6  C5  UNL d   1      -1.209   0.686   1.038  0.00  0.00     0.034 A 
ATOM      7 Cl   UNL d   1      -0.072   0.172   3.413  0.00  0.00    -0.070 Cl
ATOM      8 Cl1  UNL d   1       0.995   3.243   3.246  0.00  0.00    -0.070 Cl
ENDROOT
TORSDOF 0
ENDMDL
