MODEL 1
REMARK minimizedAffinity 6.65637112
REMARK minimizedRMSD -1
REMARK  0 active torsions:
REMARK  status: ('A' for Active; 'I' for Inactive)
ROOT
ATOM      1  C   UNL d   1      -1.174  -4.066  -5.907  0.00  0.00     0.020 A 
ATOM      2  C1  UNL d   1      -1.008  -5.439  -5.732  0.00  0.00     0.020 A 
ATOM      3  C2  UNL d   1      -1.096  -5.996  -4.454  0.00  0.00     0.034 A 
ATOM      4  C3  UNL d   1      -1.350  -5.179  -3.346  0.00  0.00     0.017 A 
ATOM      5  C4  UNL d   1      -1.516  -3.800  -3.523  0.00  0.00     0.017 A 
ATOM      6  C5  UNL d   1      -1.427  -3.248  -4.805  0.00  0.00     0.034 A 
ATOM      7 Cl   UNL d   1      -1.833  -2.728  -2.205  0.00  0.00    -0.070 Cl
ATOM      8 Cl1  UNL d   1      -1.447  -5.935  -1.796  0.00  0.00    -0.070 Cl
ENDROOT
TORSDOF 0
ENDMDL
