MODEL 1
REMARK minimizedAffinity 7.71805954
REMARK minimizedRMSD -1
REMARK  0 active torsions:
REMARK  status: ('A' for Active; 'I' for Inactive)
ROOT
ATOM      1  C   UNL d   1      -1.113  -2.548  -1.906  0.00  0.00     0.020 A 
ATOM      2  C1  UNL d   1      -0.511  -3.359  -2.868  0.00  0.00     0.020 A 
ATOM      3  C2  UNL d   1      -1.224  -4.419  -3.432  0.00  0.00     0.034 A 
ATOM      4  C3  UNL d   1      -2.543  -4.671  -3.036  0.00  0.00     0.017 A 
ATOM      5  C4  UNL d   1      -3.146  -3.856  -2.071  0.00  0.00     0.017 A 
ATOM      6  C5  UNL d   1      -2.427  -2.796  -1.509  0.00  0.00     0.034 A 
ATOM      7 Cl   UNL d   1      -4.769  -4.105  -1.531  0.00  0.00    -0.070 Cl
ATOM      8 Cl1  UNL d   1      -3.365  -5.998  -3.776  0.00  0.00    -0.070 Cl
ENDROOT
TORSDOF 0
ENDMDL
