MODEL 1
REMARK minimizedAffinity 1.57515872
REMARK minimizedRMSD -1
REMARK  0 active torsions:
REMARK  status: ('A' for Active; 'I' for Inactive)
ROOT
ATOM      1  C   UNL d   1       2.414  -2.737   4.426  0.00  0.00     0.020 A 
ATOM      2  C1  UNL d   1       2.356  -4.131   4.429  0.00  0.00     0.020 A 
ATOM      3  C2  UNL d   1       3.432  -4.873   4.919  0.00  0.00     0.034 A 
ATOM      4  C3  UNL d   1       4.571  -4.223   5.408  0.00  0.00     0.017 A 
ATOM      5  C4  UNL d   1       4.629  -2.824   5.404  0.00  0.00     0.017 A 
ATOM      6  C5  UNL d   1       3.548  -2.086   4.912  0.00  0.00     0.034 A 
ATOM      7 Cl   UNL d   1       6.000  -1.951   5.991  0.00  0.00    -0.070 Cl
ATOM      8 Cl1  UNL d   1       5.865  -5.204   6.000  0.00  0.00    -0.070 Cl
ENDROOT
TORSDOF 0
ENDMDL
