MODEL 1
REMARK minimizedAffinity -2.76675177
REMARK minimizedRMSD -1
REMARK  0 active torsions:
REMARK  status: ('A' for Active; 'I' for Inactive)
ROOT
ATOM      1  C   UNL d   1       0.928  -2.795   0.356  0.00  0.00     0.020 A 
ATOM      2  C1  UNL d   1       0.242  -2.233   1.432  0.00  0.00     0.020 A 
ATOM      3  C2  UNL d   1      -0.426  -1.017   1.275  0.00  0.00     0.034 A 
ATOM      4  C3  UNL d   1      -0.410  -0.359   0.040  0.00  0.00     0.017 A 
ATOM      5  C4  UNL d   1       0.279  -0.924  -1.040  0.00  0.00     0.017 A 
ATOM      6  C5  UNL d   1       0.946  -2.142  -0.877  0.00  0.00     0.034 A 
ATOM      7 Cl   UNL d   1       0.343  -0.171  -2.594  0.00  0.00    -0.070 Cl
ATOM      8 Cl1  UNL d   1      -1.258   1.141  -0.082  0.00  0.00    -0.070 Cl
ENDROOT
TORSDOF 0
ENDMDL
