MODEL 1
REMARK minimizedAffinity 2.60619688
REMARK minimizedRMSD -1
REMARK  1 active torsions:
REMARK  status: ('A' for Active; 'I' for Inactive)
REMARK    1  A    between atoms: C1_2  and  C2_3 
ROOT
ATOM      1  C2  UNL d   1      -0.519  -0.837  -0.778  0.00  0.00    -0.076 A 
ATOM      2  C3  UNL d   1      -0.535   0.461  -0.238  0.00  0.00     0.004 A 
ATOM      3  C4  UNL d   1      -1.091   0.709   1.016  0.00  0.00    -0.003 A 
ATOM      4  C5  UNL d   1      -1.640  -0.337   1.750  0.00  0.00     0.000 A 
ATOM      5  C6  UNL d   1      -1.617  -1.633   1.237  0.00  0.00     0.000 A 
ATOM      6  C7  UNL d   1      -1.045  -1.903  -0.018  0.00  0.00    -0.073 A 
ATOM      7  C8  UNL d   1      -1.053  -3.319  -0.525  0.00  0.00     0.078 C 
ENDROOT
BRANCH   1   8
ATOM      8  C1  UNL d   1       0.072  -1.041  -2.154  0.00  0.00     0.053 C 
ATOM      9  C   UNL d   1       0.480   0.268  -2.813  0.00  0.00     0.018 C 
ENDBRANCH   1   8
TORSDOF 1
ENDMDL
