MODEL 1
REMARK minimizedAffinity 6.72413063
REMARK minimizedRMSD -1
REMARK  1 active torsions:
REMARK  status: ('A' for Active; 'I' for Inactive)
REMARK    1  A    between atoms: C1_2  and  C2_3 
ROOT
ATOM      1  C2  UNL d   1      -0.017  -0.227   0.078  0.00  0.00    -0.076 A 
ATOM      2  C3  UNL d   1      -0.099  -1.544   0.562  0.00  0.00     0.004 A 
ATOM      3  C4  UNL d   1      -1.164  -1.948   1.365  0.00  0.00    -0.003 A 
ATOM      4  C5  UNL d   1      -2.165  -1.041   1.697  0.00  0.00     0.000 A 
ATOM      5  C6  UNL d   1      -2.109   0.265   1.211  0.00  0.00     0.000 A 
ATOM      6  C7  UNL d   1      -1.050   0.684   0.387  0.00  0.00    -0.073 A 
ATOM      7  C8  UNL d   1      -1.036   2.105  -0.104  0.00  0.00     0.078 C 
ENDROOT
BRANCH   1   8
ATOM      8  C1  UNL d   1       1.176   0.162  -0.766  0.00  0.00     0.053 C 
ATOM      9  C   UNL d   1       0.966  -0.135  -2.243  0.00  0.00     0.018 C 
ENDBRANCH   1   8
TORSDOF 1
ENDMDL
