MODEL 1
REMARK minimizedAffinity 5.51849079
REMARK minimizedRMSD -1
REMARK  1 active torsions:
REMARK  status: ('A' for Active; 'I' for Inactive)
REMARK    1  A    between atoms: C1_2  and  C2_3 
ROOT
ATOM      1  C2  UNL d   1      -0.713  -0.071   0.010  0.00  0.00    -0.076 A 
ATOM      2  C3  UNL d   1      -1.234  -1.360   0.215  0.00  0.00     0.004 A 
ATOM      3  C4  UNL d   1      -1.500  -1.831   1.500  0.00  0.00    -0.003 A 
ATOM      4  C5  UNL d   1      -1.249  -1.019   2.600  0.00  0.00     0.000 A 
ATOM      5  C6  UNL d   1      -0.749   0.269   2.415  0.00  0.00     0.000 A 
ATOM      6  C7  UNL d   1      -0.491   0.765   1.125  0.00  0.00    -0.073 A 
ATOM      7  C8  UNL d   1       0.053   2.160   0.983  0.00  0.00     0.078 C 
ENDROOT
BRANCH   1   8
ATOM      8  C1  UNL d   1      -0.420   0.375  -1.405  0.00  0.00     0.053 C 
ATOM      9  C   UNL d   1       0.751  -0.375  -2.021  0.00  0.00     0.018 C 
ENDBRANCH   1   8
TORSDOF 1
ENDMDL
