MODEL 1
REMARK minimizedAffinity -2.53564191
REMARK minimizedRMSD -1
REMARK  1 active torsions:
REMARK  status: ('A' for Active; 'I' for Inactive)
REMARK    1  A    between atoms: C1_2  and  C2_3 
ROOT
ATOM      1  C2  UNL d   1      -0.451  -0.850  -0.610  0.00  0.00    -0.076 A 
ATOM      2  C3  UNL d   1      -1.020  -2.049  -0.145  0.00  0.00     0.004 A 
ATOM      3  C4  UNL d   1      -1.384  -2.199   1.192  0.00  0.00    -0.003 A 
ATOM      4  C5  UNL d   1      -1.185  -1.152   2.086  0.00  0.00     0.000 A 
ATOM      5  C6  UNL d   1      -0.638   0.050   1.639  0.00  0.00     0.000 A 
ATOM      6  C7  UNL d   1      -0.281   0.223   0.291  0.00  0.00    -0.073 A 
ATOM      7  C8  UNL d   1       0.311   1.539  -0.136  0.00  0.00     0.078 C 
ENDROOT
BRANCH   1   8
ATOM      8  C1  UNL d   1      -0.051  -0.755  -2.065  0.00  0.00     0.053 C 
ATOM      9  C   UNL d   1      -0.092  -2.103  -2.769  0.00  0.00     0.018 C 
ENDBRANCH   1   8
TORSDOF 1
ENDMDL
