MODEL 1
REMARK minimizedAffinity 0.835004151
REMARK minimizedRMSD -1
REMARK  1 active torsions:
REMARK  status: ('A' for Active; 'I' for Inactive)
REMARK    1  A    between atoms: C1_2  and  C2_3 
ROOT
ATOM      1  C2  UNL d   1       0.622   1.668   0.127  0.00  0.00    -0.076 A 
ATOM      2  C3  UNL d   1       1.713   1.555  -0.753  0.00  0.00     0.004 A 
ATOM      3  C4  UNL d   1       1.788   0.511  -1.673  0.00  0.00    -0.003 A 
ATOM      4  C5  UNL d   1       0.773  -0.438  -1.728  0.00  0.00     0.000 A 
ATOM      5  C6  UNL d   1      -0.325  -0.332  -0.875  0.00  0.00     0.000 A 
ATOM      6  C7  UNL d   1      -0.424   0.724   0.047  0.00  0.00    -0.073 A 
ATOM      7  C8  UNL d   1      -1.627   0.786   0.948  0.00  0.00     0.078 C 
ENDROOT
BRANCH   1   8
ATOM      8  C1  UNL d   1       0.609   2.806   1.122  0.00  0.00     0.053 C 
ATOM      9  C   UNL d   1       1.996   3.378   1.372  0.00  0.00     0.018 C 
ENDBRANCH   1   8
TORSDOF 1
ENDMDL
