MODEL 1
REMARK minimizedAffinity -4.7165122
REMARK minimizedRMSD -1
REMARK  1 active torsions:
REMARK  status: ('A' for Active; 'I' for Inactive)
REMARK    1  A    between atoms: C1_2  and  C2_3 
ROOT
ATOM      1  C2  UNL d   1      -0.350  -1.001  -1.012  0.00  0.00    -0.076 A 
ATOM      2  C3  UNL d   1       0.068  -1.099  -2.351  0.00  0.00     0.004 A 
ATOM      3  C4  UNL d   1       0.114  -2.332  -3.000  0.00  0.00    -0.003 A 
ATOM      4  C5  UNL d   1      -0.257  -3.487  -2.320  0.00  0.00     0.000 A 
ATOM      5  C6  UNL d   1      -0.691  -3.406  -0.997  0.00  0.00     0.000 A 
ATOM      6  C7  UNL d   1      -0.759  -2.169  -0.334  0.00  0.00    -0.073 A 
ATOM      7  C8  UNL d   1      -1.229  -2.141   1.095  0.00  0.00     0.078 C 
ENDROOT
BRANCH   1   8
ATOM      8  C1  UNL d   1      -0.355   0.359  -0.353  0.00  0.00     0.053 C 
ATOM      9  C   UNL d   1       0.909   0.620   0.453  0.00  0.00     0.018 C 
ENDBRANCH   1   8
TORSDOF 1
ENDMDL
