MODEL 1
REMARK minimizedAffinity 0.365285784
REMARK minimizedRMSD -1
REMARK  1 active torsions:
REMARK  status: ('A' for Active; 'I' for Inactive)
REMARK    1  A    between atoms: C1_2  and  C2_3 
ROOT
ATOM      1  C2  UNL d   1       0.591   1.133   0.522  0.00  0.00    -0.076 A 
ATOM      2  C3  UNL d   1       0.907   0.268   1.585  0.00  0.00     0.004 A 
ATOM      3  C4  UNL d   1      -0.037  -0.626   2.087  0.00  0.00    -0.003 A 
ATOM      4  C5  UNL d   1      -1.312  -0.670   1.534  0.00  0.00     0.000 A 
ATOM      5  C6  UNL d   1      -1.637   0.167   0.467  0.00  0.00     0.000 A 
ATOM      6  C7  UNL d   1      -0.692   1.063  -0.061  0.00  0.00    -0.073 A 
ATOM      7  C8  UNL d   1      -1.098   1.948  -1.208  0.00  0.00     0.078 C 
ENDROOT
BRANCH   1   8
ATOM      8  C1  UNL d   1       1.648   2.100   0.037  0.00  0.00     0.053 C 
ATOM      9  C   UNL d   1       1.609   3.426   0.781  0.00  0.00     0.018 C 
ENDBRANCH   1   8
TORSDOF 1
ENDMDL
