MODEL 1
REMARK minimizedAffinity -6.05667639
REMARK minimizedRMSD -1
REMARK  1 active torsions:
REMARK  status: ('A' for Active; 'I' for Inactive)
REMARK    1  A    between atoms: C1_2  and  C2_3 
ROOT
ATOM      1  C2  UNL d   1       0.130  -0.617  -0.189  0.00  0.00    -0.076 A 
ATOM      2  C3  UNL d   1       0.513  -1.283  -1.367  0.00  0.00     0.004 A 
ATOM      3  C4  UNL d   1       0.232  -2.635  -1.550  0.00  0.00    -0.003 A 
ATOM      4  C5  UNL d   1      -0.438  -3.344  -0.558  0.00  0.00     0.000 A 
ATOM      5  C6  UNL d   1      -0.841  -2.696   0.608  0.00  0.00     0.000 A 
ATOM      6  C7  UNL d   1      -0.580  -1.328   0.801  0.00  0.00    -0.073 A 
ATOM      7  C8  UNL d   1      -1.033  -0.681   2.081  0.00  0.00     0.078 C 
ENDROOT
BRANCH   1   8
ATOM      8  C1  UNL d   1       0.486   0.845  -0.035  0.00  0.00     0.053 C 
ATOM      9  C   UNL d   1      -0.567   1.767  -0.631  0.00  0.00     0.018 C 
ENDBRANCH   1   8
TORSDOF 1
ENDMDL
