MODEL 1
REMARK minimizedAffinity -4.76880598
REMARK minimizedRMSD -1
REMARK  1 active torsions:
REMARK  status: ('A' for Active; 'I' for Inactive)
REMARK    1  A    between atoms: C1_2  and  C2_3 
ROOT
ATOM      1  C2  UNL d   1       0.459   1.229   0.355  0.00  0.00    -0.076 A 
ATOM      2  C3  UNL d   1      -0.861   1.580   0.687  0.00  0.00     0.004 A 
ATOM      3  C4  UNL d   1      -1.795   0.607   1.038  0.00  0.00    -0.003 A 
ATOM      4  C5  UNL d   1      -1.424  -0.733   1.063  0.00  0.00     0.000 A 
ATOM      5  C6  UNL d   1      -0.114  -1.098   0.754  0.00  0.00     0.000 A 
ATOM      6  C7  UNL d   1       0.844  -0.128   0.414  0.00  0.00    -0.073 A 
ATOM      7  C8  UNL d   1       2.241  -0.577   0.083  0.00  0.00     0.078 C 
ENDROOT
BRANCH   1   8
ATOM      8  C1  UNL d   1       1.421   2.325  -0.044  0.00  0.00     0.053 C 
ATOM      9  C   UNL d   1       0.878   3.714   0.254  0.00  0.00     0.018 C 
ENDBRANCH   1   8
TORSDOF 1
ENDMDL
