MODEL 1
REMARK minimizedAffinity -6.04686069
REMARK minimizedRMSD -1
REMARK  1 active torsions:
REMARK  status: ('A' for Active; 'I' for Inactive)
REMARK    1  A    between atoms: C1_2  and  C2_3 
ROOT
ATOM      1  C2  UNL d   1       0.006  -0.532  -0.482  0.00  0.00    -0.076 A 
ATOM      2  C3  UNL d   1       0.682  -1.288  -1.455  0.00  0.00     0.004 A 
ATOM      3  C4  UNL d   1       0.860  -2.662  -1.301  0.00  0.00    -0.003 A 
ATOM      4  C5  UNL d   1       0.363  -3.302  -0.171  0.00  0.00     0.000 A 
ATOM      5  C6  UNL d   1      -0.326  -2.571   0.796  0.00  0.00     0.000 A 
ATOM      6  C7  UNL d   1      -0.528  -1.188   0.647  0.00  0.00    -0.073 A 
ATOM      7  C8  UNL d   1      -1.273  -0.447   1.724  0.00  0.00     0.078 C 
ENDROOT
BRANCH   1   8
ATOM      8  C1  UNL d   1      -0.133   0.959  -0.691  0.00  0.00     0.053 C 
ATOM      9  C   UNL d   1       1.019   1.743  -0.080  0.00  0.00     0.018 C 
ENDBRANCH   1   8
TORSDOF 1
ENDMDL
