MODEL 1
REMARK minimizedAffinity 1.89307988
REMARK minimizedRMSD -1
REMARK  0 active torsions:
REMARK  status: ('A' for Active; 'I' for Inactive)
ROOT
ATOM      1  N1  IND d   1       1.537   3.861  -5.336  0.00  0.00    -0.196 N 
ATOM      2  C2  IND d   1       1.058   4.958  -5.997  0.00  0.00     0.054 A 
ATOM      3  C3  IND d   1       1.959   5.964  -5.952  0.00  0.00    -0.031 A 
ATOM      4  C4  IND d   1       4.325   5.998  -4.937  0.00  0.00     0.051 A 
ATOM      5  C5  IND d   1       5.190   5.243  -4.196  0.00  0.00    -0.031 A 
ATOM      6  C6  IND d   1       4.876   3.961  -3.791  0.00  0.00     0.015 A 
ATOM      7  C7  IND d   1       3.685   3.381  -4.124  0.00  0.00    -0.016 A 
ATOM      8  C8  IND d   1       2.801   4.147  -4.870  0.00  0.00    -0.047 A 
ATOM      9  C9  IND d   1       3.097   5.464  -5.247  0.00  0.00    -0.096 A 
ATOM     10  HN1 IND d   1       1.119   3.117  -5.229  0.00  0.00     0.298 HD
ENDROOT
TORSDOF 0
ENDMDL
