MODEL 1
REMARK minimizedAffinity 1.15808201
REMARK minimizedRMSD -1
REMARK  0 active torsions:
REMARK  status: ('A' for Active; 'I' for Inactive)
ROOT
ATOM      1  N1  IND d   1       3.182   5.932  -3.775  0.00  0.00    -0.196 N 
ATOM      2  C2  IND d   1       3.867   5.887  -4.957  0.00  0.00     0.054 A 
ATOM      3  C3  IND d   1       3.006   5.860  -5.999  0.00  0.00    -0.031 A 
ATOM      4  C4  IND d   1       0.435   5.985  -5.999  0.00  0.00     0.051 A 
ATOM      5  C5  IND d   1      -0.643   6.000  -5.159  0.00  0.00    -0.031 A 
ATOM      6  C6  IND d   1      -0.498   5.996  -3.787  0.00  0.00     0.015 A 
ATOM      7  C7  IND d   1       0.736   5.988  -3.201  0.00  0.00    -0.016 A 
ATOM      8  C8  IND d   1       1.833   5.965  -4.051  0.00  0.00    -0.047 A 
ATOM      9  C9  IND d   1       1.691   5.926  -5.444  0.00  0.00    -0.096 A 
ATOM     10  HN1 IND d   1       3.535   5.938  -2.991  0.00  0.00     0.298 HD
ENDROOT
TORSDOF 0
ENDMDL
