MODEL 1
REMARK minimizedAffinity 7.70180368
REMARK minimizedRMSD -1
REMARK  0 active torsions:
REMARK  status: ('A' for Active; 'I' for Inactive)
ROOT
ATOM      1  N1  IND d   1      -1.760   5.979  -4.920  0.00  0.00    -0.196 N 
ATOM      2  C2  IND d   1      -2.179   5.999  -3.618  0.00  0.00     0.054 A 
ATOM      3  C3  IND d   1      -1.122   5.892  -2.782  0.00  0.00    -0.031 A 
ATOM      4  C4  IND d   1       1.391   5.775  -3.329  0.00  0.00     0.051 A 
ATOM      5  C5  IND d   1       2.262   5.689  -4.379  0.00  0.00    -0.031 A 
ATOM      6  C6  IND d   1       1.828   5.698  -5.689  0.00  0.00     0.015 A 
ATOM      7  C7  IND d   1       0.502   5.805  -6.000  0.00  0.00    -0.016 A 
ATOM      8  C8  IND d   1      -0.386   5.886  -4.936  0.00  0.00    -0.047 A 
ATOM      9  C9  IND d   1       0.045   5.835  -3.604  0.00  0.00    -0.096 A 
ATOM     10  HN1 IND d   1      -2.270   6.018  -5.611  0.00  0.00     0.298 HD
ENDROOT
TORSDOF 0
ENDMDL
