MODEL 1
REMARK minimizedAffinity -1.67881548
REMARK minimizedRMSD -1
REMARK  0 active torsions:
REMARK  status: ('A' for Active; 'I' for Inactive)
ROOT
ATOM      1  N1  IND d   1       2.113   4.077  -4.929  0.00  0.00    -0.196 N 
ATOM      2  C2  IND d   1       1.556   5.083  -5.667  0.00  0.00     0.054 A 
ATOM      3  C3  IND d   1       2.494   6.000  -5.995  0.00  0.00    -0.031 A 
ATOM      4  C4  IND d   1       5.023   5.996  -5.515  0.00  0.00     0.051 A 
ATOM      5  C5  IND d   1       5.991   5.304  -4.842  0.00  0.00    -0.031 A 
ATOM      6  C6  IND d   1       5.710   4.142  -4.153  0.00  0.00     0.015 A 
ATOM      7  C7  IND d   1       4.447   3.621  -4.119  0.00  0.00    -0.016 A 
ATOM      8  C8  IND d   1       3.461   4.325  -4.795  0.00  0.00    -0.047 A 
ATOM      9  C9  IND d   1       3.732   5.527  -5.461  0.00  0.00    -0.096 A 
ATOM     10  HN1 IND d   1       1.691   3.401  -4.603  0.00  0.00     0.298 HD
ENDROOT
TORSDOF 0
ENDMDL
