MODEL 1
REMARK minimizedAffinity 6.59038591
REMARK minimizedRMSD -1
REMARK  0 active torsions:
REMARK  status: ('A' for Active; 'I' for Inactive)
ROOT
ATOM      1  N1  IND d   1      -1.552   0.389   0.782  0.00  0.00    -0.196 N 
ATOM      2  C2  IND d   1      -0.232   0.703   0.951  0.00  0.00     0.054 A 
ATOM      3  C3  IND d   1       0.467   0.416  -0.170  0.00  0.00    -0.031 A 
ATOM      4  C4  IND d   1      -0.369  -0.478  -2.435  0.00  0.00     0.051 A 
ATOM      5  C5  IND d   1      -1.489  -0.949  -3.060  0.00  0.00    -0.031 A 
ATOM      6  C6  IND d   1      -2.713  -0.996  -2.425  0.00  0.00     0.015 A 
ATOM      7  C7  IND d   1      -2.865  -0.561  -1.138  0.00  0.00    -0.016 A 
ATOM      8  C8  IND d   1      -1.728  -0.090  -0.498  0.00  0.00    -0.047 A 
ATOM      9  C9  IND d   1      -0.475  -0.079  -1.123  0.00  0.00    -0.096 A 
ATOM     10  HN1 IND d   1      -2.168   0.476   1.375  0.00  0.00     0.298 HD
ENDROOT
TORSDOF 0
ENDMDL
