MODEL 1
REMARK minimizedAffinity 2.12728357
REMARK minimizedRMSD -1
REMARK  0 active torsions:
REMARK  status: ('A' for Active; 'I' for Inactive)
ROOT
ATOM      1  N1  IND d   1      -1.606   5.995  -2.588  0.00  0.00    -0.196 N 
ATOM      2  C2  IND d   1      -2.832   5.988  -3.194  0.00  0.00     0.054 A 
ATOM      3  C3  IND d   1      -2.692   5.987  -4.539  0.00  0.00    -0.031 A 
ATOM      4  C4  IND d   1      -0.547   5.892  -5.960  0.00  0.00     0.051 A 
ATOM      5  C5  IND d   1       0.815   5.922  -5.857  0.00  0.00    -0.031 A 
ATOM      6  C6  IND d   1       1.453   5.975  -4.635  0.00  0.00     0.015 A 
ATOM      7  C7  IND d   1       0.749   5.990  -3.464  0.00  0.00    -0.016 A 
ATOM      8  C8  IND d   1      -0.635   5.968  -3.565  0.00  0.00    -0.047 A 
ATOM      9  C9  IND d   1      -1.288   5.956  -4.804  0.00  0.00    -0.096 A 
ATOM     10  HN1 IND d   1      -1.466   6.014  -1.740  0.00  0.00     0.298 HD
ENDROOT
TORSDOF 0
ENDMDL
