MODEL 1
REMARK minimizedAffinity -0.815798521
REMARK minimizedRMSD -1
REMARK  0 active torsions:
REMARK  status: ('A' for Active; 'I' for Inactive)
ROOT
ATOM      1  N1  IND d   1      -0.585   5.969  -4.882  0.00  0.00    -0.196 N 
ATOM      2  C2  IND d   1       0.758   5.971  -4.624  0.00  0.00     0.054 A 
ATOM      3  C3  IND d   1       0.980   5.998  -3.291  0.00  0.00    -0.031 A 
ATOM      4  C4  IND d   1      -0.709   5.939  -1.349  0.00  0.00     0.051 A 
ATOM      5  C5  IND d   1      -2.050   5.970  -1.087  0.00  0.00    -0.031 A 
ATOM      6  C6  IND d   1      -2.990   6.000  -2.096  0.00  0.00     0.015 A 
ATOM      7  C7  IND d   1      -2.623   5.988  -3.412  0.00  0.00    -0.016 A 
ATOM      8  C8  IND d   1      -1.262   5.964  -3.683  0.00  0.00    -0.047 A 
ATOM      9  C9  IND d   1      -0.302   5.977  -2.662  0.00  0.00    -0.096 A 
ATOM     10  HN1 IND d   1      -0.945   5.970  -5.663  0.00  0.00     0.298 HD
ENDROOT
TORSDOF 0
ENDMDL
