MODEL 1
REMARK minimizedAffinity -0.88399899
REMARK minimizedRMSD -1
REMARK  0 active torsions:
REMARK  status: ('A' for Active; 'I' for Inactive)
ROOT
ATOM      1  N1  IND d   1      -1.671   5.981  -2.522  0.00  0.00    -0.196 N 
ATOM      2  C2  IND d   1      -2.759   5.980  -3.349  0.00  0.00     0.054 A 
ATOM      3  C3  IND d   1      -2.367   5.999  -4.642  0.00  0.00    -0.031 A 
ATOM      4  C4  IND d   1       0.008   5.932  -5.633  0.00  0.00     0.051 A 
ATOM      5  C5  IND d   1       1.326   5.963  -5.273  0.00  0.00    -0.031 A 
ATOM      6  C6  IND d   1       1.721   5.999  -3.951  0.00  0.00     0.015 A 
ATOM      7  C7  IND d   1       0.808   5.994  -2.935  0.00  0.00    -0.016 A 
ATOM      8  C8  IND d   1      -0.532   5.970  -3.296  0.00  0.00    -0.047 A 
ATOM      9  C9  IND d   1      -0.939   5.976  -4.637  0.00  0.00    -0.096 A 
ATOM     10  HN1 IND d   1      -1.694   5.987  -1.662  0.00  0.00     0.298 HD
ENDROOT
TORSDOF 0
ENDMDL
