MODEL 1
REMARK minimizedAffinity -0.777559698
REMARK minimizedRMSD -1
REMARK  0 active torsions:
REMARK  status: ('A' for Active; 'I' for Inactive)
ROOT
ATOM      1  N1  IND d   1      -1.099   5.989  -5.371  0.00  0.00    -0.196 N 
ATOM      2  C2  IND d   1       0.204   5.986  -4.958  0.00  0.00     0.054 A 
ATOM      3  C3  IND d   1       0.269   6.000  -3.607  0.00  0.00    -0.031 A 
ATOM      4  C4  IND d   1      -1.636   5.927  -1.877  0.00  0.00     0.051 A 
ATOM      5  C5  IND d   1      -2.998   5.958  -1.773  0.00  0.00    -0.031 A 
ATOM      6  C6  IND d   1      -3.814   5.999  -2.886  0.00  0.00     0.015 A 
ATOM      7  C7  IND d   1      -3.295   6.000  -4.149  0.00  0.00    -0.016 A 
ATOM      8  C8  IND d   1      -1.912   5.975  -4.259  0.00  0.00    -0.047 A 
ATOM      9  C9  IND d   1      -1.078   5.976  -3.133  0.00  0.00    -0.096 A 
ATOM     10  HN1 IND d   1      -1.366   5.999  -6.188  0.00  0.00     0.298 HD
ENDROOT
TORSDOF 0
ENDMDL
