MODEL 1
REMARK minimizedAffinity 8.09388924
REMARK minimizedRMSD -1
REMARK  0 active torsions:
REMARK  status: ('A' for Active; 'I' for Inactive)
ROOT
ATOM      1  N1  IND d   1       5.996   4.299  -4.079  0.00  0.00    -0.196 N 
ATOM      2  C2  IND d   1       5.875   2.991  -3.700  0.00  0.00     0.054 A 
ATOM      3  C3  IND d   1       4.646   2.523  -4.013  0.00  0.00    -0.031 A 
ATOM      4  C4  IND d   1       2.712   3.697  -5.240  0.00  0.00     0.051 A 
ATOM      5  C5  IND d   1       2.337   4.909  -5.751  0.00  0.00    -0.031 A 
ATOM      6  C6  IND d   1       3.182   6.000  -5.732  0.00  0.00     0.015 A 
ATOM      7  C7  IND d   1       4.442   5.917  -5.210  0.00  0.00    -0.016 A 
ATOM      8  C8  IND d   1       4.822   4.691  -4.685  0.00  0.00    -0.047 A 
ATOM      9  C9  IND d   1       3.955   3.591  -4.662  0.00  0.00    -0.096 A 
ATOM     10  HN1 IND d   1       6.689   4.794  -3.960  0.00  0.00     0.298 HD
ENDROOT
TORSDOF 0
ENDMDL
