MODEL 1
REMARK minimizedAffinity 0.966751575
REMARK minimizedRMSD -1
REMARK  0 active torsions:
REMARK  status: ('A' for Active; 'I' for Inactive)
ROOT
ATOM      1  N1  IND d   1       1.357   5.914  -5.969  0.00  0.00    -0.196 N 
ATOM      2  C2  IND d   1       2.578   5.936  -5.354  0.00  0.00     0.054 A 
ATOM      3  C3  IND d   1       2.428   5.999  -4.012  0.00  0.00    -0.031 A 
ATOM      4  C4  IND d   1       0.273   5.975  -2.604  0.00  0.00     0.051 A 
ATOM      5  C5  IND d   1      -1.089   6.000  -2.719  0.00  0.00    -0.031 A 
ATOM      6  C6  IND d   1      -1.718   5.995  -3.947  0.00  0.00     0.015 A 
ATOM      7  C7  IND d   1      -1.005   5.953  -5.112  0.00  0.00    -0.016 A 
ATOM      8  C8  IND d   1       0.378   5.934  -5.000  0.00  0.00    -0.047 A 
ATOM      9  C9  IND d   1       1.023   5.983  -3.757  0.00  0.00    -0.096 A 
ATOM     10  HN1 IND d   1       1.224   5.892  -6.818  0.00  0.00     0.298 HD
ENDROOT
TORSDOF 0
ENDMDL
