MODEL 1
REMARK minimizedAffinity -2.39504743
REMARK minimizedRMSD -1
REMARK  0 active torsions:
REMARK  status: ('A' for Active; 'I' for Inactive)
ROOT
ATOM      1  N1  IND d   1      -0.850   5.942  -4.804  0.00  0.00    -0.196 N 
ATOM      2  C2  IND d   1       0.306   5.954  -4.075  0.00  0.00     0.054 A 
ATOM      3  C3  IND d   1       0.029   6.000  -2.753  0.00  0.00    -0.031 A 
ATOM      4  C4  IND d   1      -2.252   5.960  -1.558  0.00  0.00     0.051 A 
ATOM      5  C5  IND d   1      -3.596   5.988  -1.802  0.00  0.00    -0.031 A 
ATOM      6  C6  IND d   1      -4.104   6.000  -3.085  0.00  0.00     0.015 A 
ATOM      7  C7  IND d   1      -3.283   5.972  -4.176  0.00  0.00    -0.016 A 
ATOM      8  C8  IND d   1      -1.917   5.951  -3.933  0.00  0.00    -0.047 A 
ATOM      9  C9  IND d   1      -1.395   5.982  -2.633  0.00  0.00    -0.096 A 
ATOM     10  HN1 IND d   1      -0.902   5.931  -5.662  0.00  0.00     0.298 HD
ENDROOT
TORSDOF 0
ENDMDL
