MODEL 1
REMARK minimizedAffinity -1.8227551
REMARK minimizedRMSD -1
REMARK  0 active torsions:
REMARK  status: ('A' for Active; 'I' for Inactive)
ROOT
ATOM      1  N1  IND d   1      -3.187   5.608  -4.131  0.00  0.00    -0.196 N 
ATOM      2  C2  IND d   1      -3.567   5.619  -2.818  0.00  0.00     0.054 A 
ATOM      3  C3  IND d   1      -2.483   5.724  -2.016  0.00  0.00    -0.031 A 
ATOM      4  C4  IND d   1      -0.002   5.992  -2.647  0.00  0.00     0.051 A 
ATOM      5  C5  IND d   1       0.842   6.000  -3.722  0.00  0.00    -0.031 A 
ATOM      6  C6  IND d   1       0.375   5.878  -5.016  0.00  0.00     0.015 A 
ATOM      7  C7  IND d   1      -0.959   5.754  -5.283  0.00  0.00    -0.016 A 
ATOM      8  C8  IND d   1      -1.817   5.738  -4.193  0.00  0.00    -0.047 A 
ATOM      9  C9  IND d   1      -1.346   5.819  -2.876  0.00  0.00    -0.096 A 
ATOM     10  HN1 IND d   1      -3.715   5.531  -4.806  0.00  0.00     0.298 HD
ENDROOT
TORSDOF 0
ENDMDL
