MODEL 1
REMARK minimizedAffinity -3.06933832
REMARK minimizedRMSD -1
REMARK  0 active torsions:
REMARK  status: ('A' for Active; 'I' for Inactive)
ROOT
ATOM      1  N1  IND d   1      -0.734   5.672  -5.927  0.00  0.00    -0.196 N 
ATOM      2  C2  IND d   1       0.630   5.636  -5.999  0.00  0.00     0.054 A 
ATOM      3  C3  IND d   1       1.169   5.747  -4.764  0.00  0.00    -0.031 A 
ATOM      4  C4  IND d   1      -0.001   5.895  -2.476  0.00  0.00     0.051 A 
ATOM      5  C5  IND d   1      -1.238   6.000  -1.903  0.00  0.00    -0.031 A 
ATOM      6  C6  IND d   1      -2.393   5.998  -2.658  0.00  0.00     0.015 A 
ATOM      7  C7  IND d   1      -2.355   5.879  -4.018  0.00  0.00    -0.016 A 
ATOM      8  C8  IND d   1      -1.101   5.780  -4.604  0.00  0.00    -0.047 A 
ATOM      9  C9  IND d   1       0.077   5.824  -3.847  0.00  0.00    -0.096 A 
ATOM     10  HN1 IND d   1      -1.273   5.633  -6.596  0.00  0.00     0.298 HD
ENDROOT
TORSDOF 0
ENDMDL
