MODEL 1
REMARK minimizedAffinity 3.69258642
REMARK minimizedRMSD -1
REMARK  0 active torsions:
REMARK  status: ('A' for Active; 'I' for Inactive)
ROOT
ATOM      1  N1  IND d   1       0.037   5.987  -5.996  0.00  0.00    -0.196 N 
ATOM      2  C2  IND d   1       1.387   5.986  -5.779  0.00  0.00     0.054 A 
ATOM      3  C3  IND d   1       1.649   6.000  -4.452  0.00  0.00    -0.031 A 
ATOM      4  C4  IND d   1       0.018   5.921  -2.462  0.00  0.00     0.051 A 
ATOM      5  C5  IND d   1      -1.314   5.949  -2.159  0.00  0.00    -0.031 A 
ATOM      6  C6  IND d   1      -2.284   5.989  -3.140  0.00  0.00     0.015 A 
ATOM      7  C7  IND d   1      -1.956   5.991  -4.466  0.00  0.00    -0.016 A 
ATOM      8  C8  IND d   1      -0.604   5.970  -4.777  0.00  0.00    -0.047 A 
ATOM      9  C9  IND d   1       0.386   5.972  -3.786  0.00  0.00    -0.096 A 
ATOM     10  HN1 IND d   1      -0.347   5.996  -6.766  0.00  0.00     0.298 HD
ENDROOT
TORSDOF 0
ENDMDL
