MODEL 1
REMARK minimizedAffinity 1.4381237
REMARK minimizedRMSD -1
REMARK  0 active torsions:
REMARK  status: ('A' for Active; 'I' for Inactive)
ROOT
ATOM      1  N1  IND d   1      -0.227   5.985  -1.847  0.00  0.00    -0.196 N 
ATOM      2  C2  IND d   1      -1.431   5.982  -1.201  0.00  0.00     0.054 A 
ATOM      3  C3  IND d   1      -2.445   5.998  -2.095  0.00  0.00    -0.031 A 
ATOM      4  C4  IND d   1      -2.359   5.928  -4.667  0.00  0.00     0.051 A 
ATOM      5  C5  IND d   1      -1.485   5.960  -5.716  0.00  0.00    -0.031 A 
ATOM      6  C6  IND d   1      -0.119   6.000  -5.526  0.00  0.00     0.015 A 
ATOM      7  C7  IND d   1       0.427   5.998  -4.274  0.00  0.00    -0.016 A 
ATOM      8  C8  IND d   1      -0.458   5.973  -3.205  0.00  0.00    -0.047 A 
ATOM      9  C9  IND d   1      -1.847   5.975  -3.392  0.00  0.00    -0.096 A 
ATOM     10  HN1 IND d   1       0.545   5.993  -1.470  0.00  0.00     0.298 HD
ENDROOT
TORSDOF 0
ENDMDL
