MODEL 1
REMARK minimizedAffinity 5.09775305
REMARK minimizedRMSD -1
REMARK  0 active torsions:
REMARK  status: ('A' for Active; 'I' for Inactive)
ROOT
ATOM      1  N1  IND d   1       1.080  -0.153   0.325  0.00  0.00    -0.196 N 
ATOM      2  C2  IND d   1      -0.074  -0.193   1.058  0.00  0.00     0.054 A 
ATOM      3  C3  IND d   1      -0.448   1.056   1.414  0.00  0.00    -0.031 A 
ATOM      4  C4  IND d   1       0.627   3.318   0.819  0.00  0.00     0.051 A 
ATOM      5  C5  IND d   1       1.717   3.863   0.200  0.00  0.00    -0.031 A 
ATOM      6  C6  IND d   1       2.668   3.082  -0.423  0.00  0.00     0.015 A 
ATOM      7  C7  IND d   1       2.558   1.721  -0.462  0.00  0.00    -0.016 A 
ATOM      8  C8  IND d   1       1.456   1.163   0.172  0.00  0.00    -0.047 A 
ATOM      9  C9  IND d   1       0.510   1.949   0.843  0.00  0.00    -0.096 A 
ATOM     10  HN1 IND d   1       1.500  -0.835   0.012  0.00  0.00     0.298 HD
ENDROOT
TORSDOF 0
ENDMDL
