MODEL 1
REMARK minimizedAffinity 2.4076252
REMARK minimizedRMSD -1
REMARK  0 active torsions:
REMARK  status: ('A' for Active; 'I' for Inactive)
ROOT
ATOM      1  N1  IND d   1       2.315   4.949  -4.861  0.00  0.00    -0.196 N 
ATOM      2  C2  IND d   1       2.607   5.991  -5.697  0.00  0.00     0.054 A 
ATOM      3  C3  IND d   1       3.925   5.999  -5.997  0.00  0.00    -0.031 A 
ATOM      4  C4  IND d   1       5.769   4.340  -5.307  0.00  0.00     0.051 A 
ATOM      5  C5  IND d   1       5.995   3.247  -4.518  0.00  0.00    -0.031 A 
ATOM      6  C6  IND d   1       4.984   2.651  -3.791  0.00  0.00     0.015 A 
ATOM      7  C7  IND d   1       3.703   3.123  -3.835  0.00  0.00    -0.016 A 
ATOM      8  C8  IND d   1       3.471   4.237  -4.629  0.00  0.00    -0.047 A 
ATOM      9  C9  IND d   1       4.501   4.871  -5.335  0.00  0.00    -0.096 A 
ATOM     10  HN1 IND d   1       1.541   4.770  -4.534  0.00  0.00     0.298 HD
ENDROOT
TORSDOF 0
ENDMDL
