MODEL 1
REMARK minimizedAffinity 6.86974955
REMARK minimizedRMSD -1
REMARK  0 active torsions:
REMARK  status: ('A' for Active; 'I' for Inactive)
ROOT
ATOM      1  C   UNL d   1       1.760  -0.085   0.378  0.00  0.00    -0.002 A 
ATOM      2  C1  UNL d   1       1.146   0.648  -0.628  0.00  0.00     0.010 A 
ATOM      3  C2  UNL d   1       0.194   0.055  -1.459  0.00  0.00     0.041 A 
ATOM      4  C3  UNL d   1      -0.136  -1.300  -1.259  0.00  0.00    -0.075 A 
ATOM      5  S   UNL d   1      -1.274  -2.235  -2.154  0.00  0.00     0.015 SA
ATOM      6  C4  UNL d   1      -0.974  -3.630  -1.222  0.00  0.00     0.022 A 
ATOM      7  C5  UNL d   1      -0.031  -3.405  -0.247  0.00  0.00     0.026 A 
ATOM      8  C6  UNL d   1       0.467  -2.059  -0.252  0.00  0.00    -0.082 A 
ATOM      9  C7  UNL d   1       1.430  -1.429   0.573  0.00  0.00     0.045 A 
ENDROOT
TORSDOF 0
ENDMDL
