MODEL 1
REMARK minimizedAffinity 5.20459461
REMARK minimizedRMSD -1
REMARK  0 active torsions:
REMARK  status: ('A' for Active; 'I' for Inactive)
ROOT
ATOM      1  C   UNL d   1       2.066   1.050   1.458  0.00  0.00    -0.002 A 
ATOM      2  C1  UNL d   1       2.862   0.137   0.782  0.00  0.00     0.010 A 
ATOM      3  C2  UNL d   1       2.299  -0.761  -0.127  0.00  0.00     0.041 A 
ATOM      4  C3  UNL d   1       0.909  -0.723  -0.349  0.00  0.00    -0.075 A 
ATOM      5  S   UNL d   1      -0.001  -1.726  -1.417  0.00  0.00     0.015 SA
ATOM      6  C4  UNL d   1      -1.468  -0.964  -1.003  0.00  0.00     0.022 A 
ATOM      7  C5  UNL d   1      -1.287   0.032  -0.073  0.00  0.00     0.026 A 
ATOM      8  C6  UNL d   1       0.086   0.188   0.318  0.00  0.00    -0.082 A 
ATOM      9  C7  UNL d   1       0.686   1.085   1.235  0.00  0.00     0.045 A 
ENDROOT
TORSDOF 0
ENDMDL
