MODEL 1
REMARK minimizedAffinity 8.41211224
REMARK minimizedRMSD -1
REMARK  0 active torsions:
REMARK  status: ('A' for Active; 'I' for Inactive)
ROOT
ATOM      1  C   UNL d   1       1.737   1.249   3.024  0.00  0.00    -0.002 A 
ATOM      2  C1  UNL d   1       2.648   1.885   2.192  0.00  0.00     0.010 A 
ATOM      3  C2  UNL d   1       2.806   1.475   0.867  0.00  0.00     0.041 A 
ATOM      4  C3  UNL d   1       2.023   0.406   0.386  0.00  0.00    -0.075 A 
ATOM      5  S   UNL d   1       2.045  -0.266  -1.201  0.00  0.00     0.015 SA
ATOM      6  C4  UNL d   1       0.844  -1.412  -0.813  0.00  0.00     0.022 A 
ATOM      7  C5  UNL d   1       0.426  -1.298   0.491  0.00  0.00     0.026 A 
ATOM      8  C6  UNL d   1       1.098  -0.248   1.204  0.00  0.00    -0.082 A 
ATOM      9  C7  UNL d   1       0.962   0.190   2.543  0.00  0.00     0.045 A 
ENDROOT
TORSDOF 0
ENDMDL
