MODEL 1
REMARK minimizedAffinity 20.3317757
REMARK minimizedRMSD -1
REMARK  0 active torsions:
REMARK  status: ('A' for Active; 'I' for Inactive)
ROOT
ATOM      1  C   UNL d   1       4.307   0.773  -1.611  0.00  0.00    -0.002 A 
ATOM      2  C1  UNL d   1       3.542  -0.358  -1.364  0.00  0.00     0.010 A 
ATOM      3  C2  UNL d   1       2.559  -0.763  -2.269  0.00  0.00     0.041 A 
ATOM      4  C3  UNL d   1       2.357  -0.006  -3.439  0.00  0.00    -0.075 A 
ATOM      5  S   UNL d   1       1.211  -0.312  -4.691  0.00  0.00     0.015 SA
ATOM      6  C4  UNL d   1       1.711   1.051  -5.584  0.00  0.00     0.022 A 
ATOM      7  C5  UNL d   1       2.726   1.734  -4.958  0.00  0.00     0.026 A 
ATOM      8  C6  UNL d   1       3.115   1.136  -3.711  0.00  0.00    -0.082 A 
ATOM      9  C7  UNL d   1       4.103   1.521  -2.774  0.00  0.00     0.045 A 
ENDROOT
TORSDOF 0
ENDMDL
