MODEL 1
REMARK minimizedAffinity 13.0437717
REMARK minimizedRMSD -1
REMARK  0 active torsions:
REMARK  status: ('A' for Active; 'I' for Inactive)
ROOT
ATOM      1  C   UNL d   1       1.676  -5.719  -4.081  0.00  0.00    -0.002 A 
ATOM      2  C1  UNL d   1       2.090  -4.664  -4.882  0.00  0.00     0.010 A 
ATOM      3  C2  UNL d   1       1.154  -3.843  -5.515  0.00  0.00     0.041 A 
ATOM      4  C3  UNL d   1      -0.218  -4.102  -5.326  0.00  0.00    -0.075 A 
ATOM      5  S   UNL d   1      -1.543  -3.229  -6.000  0.00  0.00     0.015 SA
ATOM      6  C4  UNL d   1      -2.689  -4.235  -5.240  0.00  0.00     0.022 A 
ATOM      7  C5  UNL d   1      -2.093  -5.219  -4.487  0.00  0.00     0.026 A 
ATOM      8  C6  UNL d   1      -0.659  -5.158  -4.523  0.00  0.00    -0.082 A 
ATOM      9  C7  UNL d   1       0.314  -5.973  -3.896  0.00  0.00     0.045 A 
ENDROOT
TORSDOF 0
ENDMDL
