MODEL 1
REMARK minimizedAffinity -6.16722441
REMARK minimizedRMSD -1
REMARK  0 active torsions:
REMARK  status: ('A' for Active; 'I' for Inactive)
ROOT
ATOM      1  N1  IND d   1      -0.608   1.551  -1.403  0.00  0.00    -0.196 N 
ATOM      2  C2  IND d   1      -1.198   0.609  -0.607  0.00  0.00     0.054 A 
ATOM      3  C3  IND d   1      -0.370  -0.446  -0.432  0.00  0.00    -0.031 A 
ATOM      4  C4  IND d   1       2.038  -0.791  -1.275  0.00  0.00     0.051 A 
ATOM      5  C5  IND d   1       2.993  -0.222  -2.070  0.00  0.00    -0.031 A 
ATOM      6  C6  IND d   1       2.793   0.993  -2.694  0.00  0.00     0.015 A 
ATOM      7  C7  IND d   1       1.630   1.692  -2.536  0.00  0.00    -0.016 A 
ATOM      8  C8  IND d   1       0.656   1.114  -1.735  0.00  0.00    -0.047 A 
ATOM      9  C9  IND d   1       0.836  -0.138  -1.134  0.00  0.00    -0.096 A 
ATOM     10  HN1 IND d   1      -0.966   2.291  -1.653  0.00  0.00     0.298 HD
ENDROOT
TORSDOF 0
ENDMDL
