MODEL 1
REMARK minimizedAffinity -4.52128506
REMARK minimizedRMSD -1
REMARK  0 active torsions:
REMARK  status: ('A' for Active; 'I' for Inactive)
ROOT
ATOM      1  N1  IND d   1      -0.649   1.265  -0.441  0.00  0.00    -0.196 N 
ATOM      2  C2  IND d   1      -0.889   0.689   0.776  0.00  0.00     0.054 A 
ATOM      3  C3  IND d   1       0.154  -0.090   1.141  0.00  0.00    -0.031 A 
ATOM      4  C4  IND d   1       2.400  -0.483  -0.055  0.00  0.00     0.051 A 
ATOM      5  C5  IND d   1       3.067  -0.200  -1.213  0.00  0.00    -0.031 A 
ATOM      6  C6  IND d   1       2.520   0.604  -2.192  0.00  0.00     0.015 A 
ATOM      7  C7  IND d   1       1.284   1.167  -2.043  0.00  0.00    -0.016 A 
ATOM      8  C8  IND d   1       0.601   0.876  -0.871  0.00  0.00    -0.047 A 
ATOM      9  C9  IND d   1       1.133   0.027   0.107  0.00  0.00    -0.096 A 
ATOM     10  HN1 IND d   1      -1.188   1.783  -0.865  0.00  0.00     0.298 HD
ENDROOT
TORSDOF 0
ENDMDL
