MODEL 1
REMARK minimizedAffinity -0.614752352
REMARK minimizedRMSD -1
REMARK  0 active torsions:
REMARK  status: ('A' for Active; 'I' for Inactive)
ROOT
ATOM      1  N1  IND d   1       0.089   1.862  -1.246  0.00  0.00    -0.196 N 
ATOM      2  C2  IND d   1      -0.471   2.695  -0.318  0.00  0.00     0.054 A 
ATOM      3  C3  IND d   1      -0.596   2.060   0.869  0.00  0.00    -0.031 A 
ATOM      4  C4  IND d   1       0.146  -0.312   1.541  0.00  0.00     0.051 A 
ATOM      5  C5  IND d   1       0.672  -1.463   1.025  0.00  0.00    -0.031 A 
ATOM      6  C6  IND d   1       1.041  -1.565  -0.300  0.00  0.00     0.015 A 
ATOM      7  C7  IND d   1       0.907  -0.512  -1.161  0.00  0.00    -0.016 A 
ATOM      8  C8  IND d   1       0.367   0.656  -0.642  0.00  0.00    -0.047 A 
ATOM      9  C9  IND d   1      -0.049   0.752   0.693  0.00  0.00    -0.096 A 
ATOM     10  HN1 IND d   1       0.242   2.059  -2.069  0.00  0.00     0.298 HD
ENDROOT
TORSDOF 0
ENDMDL
