MODEL 1
REMARK minimizedAffinity -0.956029534
REMARK minimizedRMSD -1
REMARK  0 active torsions:
REMARK  status: ('A' for Active; 'I' for Inactive)
ROOT
ATOM      1  N1  IND d   1       0.227   1.573  -1.811  0.00  0.00    -0.196 N 
ATOM      2  C2  IND d   1      -0.685   1.928  -0.856  0.00  0.00     0.054 A 
ATOM      3  C3  IND d   1      -0.931   0.886  -0.031  0.00  0.00    -0.031 A 
ATOM      4  C4  IND d   1       0.124  -1.462  -0.002  0.00  0.00     0.051 A 
ATOM      5  C5  IND d   1       0.980  -2.267  -0.700  0.00  0.00    -0.031 A 
ATOM      6  C6  IND d   1       1.644  -1.823  -1.825  0.00  0.00     0.015 A 
ATOM      7  C7  IND d   1       1.485  -0.549  -2.290  0.00  0.00    -0.016 A 
ATOM      8  C8  IND d   1       0.611   0.270  -1.587  0.00  0.00    -0.047 A 
ATOM      9  C9  IND d   1      -0.098  -0.189  -0.469  0.00  0.00    -0.096 A 
ATOM     10  HN1 IND d   1       0.512   2.080  -2.444  0.00  0.00     0.298 HD
ENDROOT
TORSDOF 0
ENDMDL
