MODEL 1
REMARK minimizedAffinity -2.68253112
REMARK minimizedRMSD -1
REMARK  0 active torsions:
REMARK  status: ('A' for Active; 'I' for Inactive)
ROOT
ATOM      1  N1  IND d   1      -0.842   1.407  -0.651  0.00  0.00    -0.196 N 
ATOM      2  C2  IND d   1      -1.667   0.945   0.337  0.00  0.00     0.054 A 
ATOM      3  C3  IND d   1      -1.273  -0.282   0.745  0.00  0.00    -0.031 A 
ATOM      4  C4  IND d   1       0.758  -1.678   0.001  0.00  0.00     0.051 A 
ATOM      5  C5  IND d   1       1.784  -1.691  -0.902  0.00  0.00    -0.031 A 
ATOM      6  C6  IND d   1       1.992  -0.650  -1.784  0.00  0.00     0.015 A 
ATOM      7  C7  IND d   1       1.186   0.453  -1.787  0.00  0.00    -0.016 A 
ATOM      8  C8  IND d   1       0.139   0.467  -0.876  0.00  0.00    -0.047 A 
ATOM      9  C9  IND d   1      -0.103  -0.606  -0.008  0.00  0.00    -0.096 A 
ATOM     10  HN1 IND d   1      -0.923   2.157  -1.062  0.00  0.00     0.298 HD
ENDROOT
TORSDOF 0
ENDMDL
