MODEL 1
REMARK minimizedAffinity -0.96519506
REMARK minimizedRMSD -1
REMARK  0 active torsions:
REMARK  status: ('A' for Active; 'I' for Inactive)
ROOT
ATOM      1  N1  IND d   1      -2.168   1.230   0.852  0.00  0.00    -0.196 N 
ATOM      2  C2  IND d   1      -2.119   1.417   2.205  0.00  0.00     0.054 A 
ATOM      3  C3  IND d   1      -1.219   0.577   2.764  0.00  0.00    -0.031 A 
ATOM      4  C4  IND d   1       0.358  -1.116   1.635  0.00  0.00     0.051 A 
ATOM      5  C5  IND d   1       0.653  -1.669   0.421  0.00  0.00    -0.031 A 
ATOM      6  C6  IND d   1       0.012  -1.274  -0.736  0.00  0.00     0.015 A 
ATOM      7  C7  IND d   1      -0.945  -0.299  -0.722  0.00  0.00    -0.016 A 
ATOM      8  C8  IND d   1      -1.252   0.260   0.510  0.00  0.00    -0.047 A 
ATOM      9  C9  IND d   1      -0.635  -0.167   1.693  0.00  0.00    -0.096 A 
ATOM     10  HN1 IND d   1      -2.685   1.648   0.306  0.00  0.00     0.298 HD
ENDROOT
TORSDOF 0
ENDMDL
