MODEL 1
REMARK minimizedAffinity -3.74009228
REMARK minimizedRMSD -1
REMARK  0 active torsions:
REMARK  status: ('A' for Active; 'I' for Inactive)
ROOT
ATOM      1  N1  IND d   1      -1.641   0.587   0.525  0.00  0.00    -0.196 N 
ATOM      2  C2  IND d   1      -1.648   1.013   1.824  0.00  0.00     0.054 A 
ATOM      3  C3  IND d   1      -0.565   0.540   2.480  0.00  0.00    -0.031 A 
ATOM      4  C4  IND d   1       1.401  -0.865   1.592  0.00  0.00     0.051 A 
ATOM      5  C5  IND d   1       1.835  -1.527   0.478  0.00  0.00    -0.031 A 
ATOM      6  C6  IND d   1       1.120  -1.516  -0.702  0.00  0.00     0.015 A 
ATOM      7  C7  IND d   1      -0.056  -0.829  -0.816  0.00  0.00    -0.016 A 
ATOM      8  C8  IND d   1      -0.503  -0.162   0.315  0.00  0.00    -0.047 A 
ATOM      9  C9  IND d   1       0.197  -0.204   1.528  0.00  0.00    -0.096 A 
ATOM     10  HN1 IND d   1      -2.244   0.758  -0.063  0.00  0.00     0.298 HD
ENDROOT
TORSDOF 0
ENDMDL
