MODEL 1
REMARK minimizedAffinity -3.17681909
REMARK minimizedRMSD -1
REMARK  0 active torsions:
REMARK  status: ('A' for Active; 'I' for Inactive)
ROOT
ATOM      1  N1  IND d   1      -1.673   1.276   1.167  0.00  0.00    -0.196 N 
ATOM      2  C2  IND d   1      -1.316   1.785   2.385  0.00  0.00     0.054 A 
ATOM      3  C3  IND d   1      -0.267   1.101   2.892  0.00  0.00    -0.031 A 
ATOM      4  C4  IND d   1       1.088  -0.824   1.850  0.00  0.00     0.051 A 
ATOM      5  C5  IND d   1       1.118  -1.657   0.767  0.00  0.00    -0.031 A 
ATOM      6  C6  IND d   1       0.203  -1.551  -0.260  0.00  0.00     0.015 A 
ATOM      7  C7  IND d   1      -0.774  -0.597  -0.248  0.00  0.00    -0.016 A 
ATOM      8  C8  IND d   1      -0.812   0.247   0.854  0.00  0.00    -0.047 A 
ATOM      9  C9  IND d   1       0.088   0.117   1.919  0.00  0.00    -0.096 A 
ATOM     10  HN1 IND d   1      -2.324   1.552   0.679  0.00  0.00     0.298 HD
ENDROOT
TORSDOF 0
ENDMDL
