MODEL 1
REMARK minimizedAffinity 1.84286273
REMARK minimizedRMSD -1
REMARK  0 active torsions:
REMARK  status: ('A' for Active; 'I' for Inactive)
ROOT
ATOM      1  N1  IND d   1      -0.591   1.751   4.731  0.00  0.00    -0.196 N 
ATOM      2  C2  IND d   1      -1.843   2.008   4.246  0.00  0.00     0.054 A 
ATOM      3  C3  IND d   1      -1.962   1.542   2.983  0.00  0.00    -0.031 A 
ATOM      4  C4  IND d   1      -0.265   0.236   1.554  0.00  0.00     0.051 A 
ATOM      5  C5  IND d   1       1.028  -0.207   1.553  0.00  0.00    -0.031 A 
ATOM      6  C6  IND d   1       1.864  -0.018   2.635  0.00  0.00     0.015 A 
ATOM      7  C7  IND d   1       1.432   0.614   3.767  0.00  0.00    -0.016 A 
ATOM      8  C8  IND d   1       0.122   1.071   3.769  0.00  0.00    -0.047 A 
ATOM      9  C9  IND d   1      -0.718   0.919   2.658  0.00  0.00    -0.096 A 
ATOM     10  HN1 IND d   1      -0.297   1.977   5.508  0.00  0.00     0.298 HD
ENDROOT
TORSDOF 0
ENDMDL
