MODEL 1
REMARK minimizedAffinity -3.63920093
REMARK minimizedRMSD -1
REMARK  0 active torsions:
REMARK  status: ('A' for Active; 'I' for Inactive)
ROOT
ATOM      1  N1  IND d   1      -0.289  -1.465   0.355  0.00  0.00    -0.196 N 
ATOM      2  C2  IND d   1      -1.037  -0.380   0.718  0.00  0.00     0.054 A 
ATOM      3  C3  IND d   1      -0.431   0.762   0.322  0.00  0.00    -0.031 A 
ATOM      4  C4  IND d   1       1.740   1.080  -1.026  0.00  0.00     0.051 A 
ATOM      5  C5  IND d   1       2.791   0.385  -1.553  0.00  0.00    -0.031 A 
ATOM      6  C6  IND d   1       2.870  -0.991  -1.473  0.00  0.00     0.015 A 
ATOM      7  C7  IND d   1       1.890  -1.726  -0.869  0.00  0.00    -0.016 A 
ATOM      8  C8  IND d   1       0.824  -1.023  -0.325  0.00  0.00    -0.047 A 
ATOM      9  C9  IND d   1       0.760   0.376  -0.367  0.00  0.00    -0.096 A 
ATOM     10  HN1 IND d   1      -0.482  -2.286   0.523  0.00  0.00     0.298 HD
ENDROOT
TORSDOF 0
ENDMDL
