MODEL 1
REMARK minimizedAffinity -4.54155254
REMARK minimizedRMSD -1
REMARK  0 active torsions:
REMARK  status: ('A' for Active; 'I' for Inactive)
ROOT
ATOM      1  N1  IND d   1       1.818   0.012  -1.165  0.00  0.00    -0.196 N 
ATOM      2  C2  IND d   1       1.842  -1.258  -0.658  0.00  0.00     0.054 A 
ATOM      3  C3  IND d   1       0.669  -1.544  -0.051  0.00  0.00    -0.031 A 
ATOM      4  C4  IND d   1      -1.465  -0.116   0.139  0.00  0.00     0.051 A 
ATOM      5  C5  IND d   1      -1.956   1.129  -0.138  0.00  0.00    -0.031 A 
ATOM      6  C6  IND d   1      -1.200   2.084  -0.787  0.00  0.00     0.015 A 
ATOM      7  C7  IND d   1       0.078   1.824  -1.195  0.00  0.00    -0.016 A 
ATOM      8  C8  IND d   1       0.582   0.563  -0.909  0.00  0.00    -0.047 A 
ATOM      9  C9  IND d   1      -0.166  -0.396  -0.213  0.00  0.00    -0.096 A 
ATOM     10  HN1 IND d   1       2.467   0.400  -1.575  0.00  0.00     0.298 HD
ENDROOT
TORSDOF 0
ENDMDL
