MODEL 1
REMARK minimizedAffinity -5.7357645
REMARK minimizedRMSD -1
REMARK  0 active torsions:
REMARK  status: ('A' for Active; 'I' for Inactive)
ROOT
ATOM      1  N1  IND d   1       2.060  -1.551  -0.195  0.00  0.00    -0.196 N 
ATOM      2  C2  IND d   1       1.163  -1.380   0.823  0.00  0.00     0.054 A 
ATOM      3  C3  IND d   1       0.495  -0.214   0.670  0.00  0.00    -0.031 A 
ATOM      4  C4  IND d   1       0.642   1.517  -1.230  0.00  0.00     0.051 A 
ATOM      5  C5  IND d   1       1.344   1.815  -2.364  0.00  0.00    -0.031 A 
ATOM      6  C6  IND d   1       2.339   0.988  -2.844  0.00  0.00     0.015 A 
ATOM      7  C7  IND d   1       2.662  -0.179  -2.211  0.00  0.00    -0.016 A 
ATOM      8  C8  IND d   1       1.956  -0.481  -1.056  0.00  0.00    -0.047 A 
ATOM      9  C9  IND d   1       0.975   0.376  -0.540  0.00  0.00    -0.096 A 
ATOM     10  HN1 IND d   1       2.598  -2.216  -0.282  0.00  0.00     0.298 HD
ENDROOT
TORSDOF 0
ENDMDL
