MODEL 1
REMARK minimizedAffinity 0.0687496215
REMARK minimizedRMSD -1
REMARK  0 active torsions:
REMARK  status: ('A' for Active; 'I' for Inactive)
ROOT
ATOM      1  N1  IND d   1       0.798   1.263  -2.651  0.00  0.00    -0.196 N 
ATOM      2  C2  IND d   1       1.745   0.704  -3.464  0.00  0.00     0.054 A 
ATOM      3  C3  IND d   1       2.153  -0.484  -2.962  0.00  0.00    -0.031 A 
ATOM      4  C4  IND d   1       1.330  -1.749  -0.877  0.00  0.00     0.051 A 
ATOM      5  C5  IND d   1       0.502  -1.622   0.203  0.00  0.00    -0.031 A 
ATOM      6  C6  IND d   1      -0.288  -0.506   0.389  0.00  0.00     0.015 A 
ATOM      7  C7  IND d   1      -0.287   0.525  -0.508  0.00  0.00    -0.016 A 
ATOM      8  C8  IND d   1       0.558   0.403  -1.602  0.00  0.00    -0.047 A 
ATOM      9  C9  IND d   1       1.393  -0.709  -1.774  0.00  0.00    -0.096 A 
ATOM     10  HN1 IND d   1       0.417   2.023  -2.774  0.00  0.00     0.298 HD
ENDROOT
TORSDOF 0
ENDMDL
