MODEL 1
REMARK minimizedAffinity -2.32726407
REMARK minimizedRMSD -1
REMARK  0 active torsions:
REMARK  status: ('A' for Active; 'I' for Inactive)
ROOT
ATOM      1  N1  IND d   1       0.978  -0.582  -2.058  0.00  0.00    -0.196 N 
ATOM      2  C2  IND d   1       1.806  -1.663  -1.936  0.00  0.00     0.054 A 
ATOM      3  C3  IND d   1       1.765  -2.147  -0.675  0.00  0.00    -0.031 A 
ATOM      4  C4  IND d   1       0.335  -1.383   1.325  0.00  0.00     0.051 A 
ATOM      5  C5  IND d   1      -0.546  -0.413   1.710  0.00  0.00    -0.031 A 
ATOM      6  C6  IND d   1      -0.975   0.569   0.841  0.00  0.00     0.015 A 
ATOM      7  C7  IND d   1      -0.546   0.611  -0.455  0.00  0.00    -0.016 A 
ATOM      8  C8  IND d   1       0.355  -0.369  -0.848  0.00  0.00    -0.047 A 
ATOM      9  C9  IND d   1       0.827  -1.343   0.041  0.00  0.00    -0.096 A 
ATOM     10  HN1 IND d   1       0.866  -0.114  -2.770  0.00  0.00     0.298 HD
ENDROOT
TORSDOF 0
ENDMDL
