MODEL 1
REMARK minimizedAffinity -5.24360132
REMARK minimizedRMSD -1
REMARK  0 active torsions:
REMARK  status: ('A' for Active; 'I' for Inactive)
ROOT
ATOM      1  N1  IND d   1      -0.962   0.731  -0.451  0.00  0.00    -0.196 N 
ATOM      2  C2  IND d   1      -0.960  -0.387   0.335  0.00  0.00     0.054 A 
ATOM      3  C3  IND d   1       0.047  -1.214  -0.026  0.00  0.00    -0.031 A 
ATOM      4  C4  IND d   1       1.873  -0.886  -1.811  0.00  0.00     0.051 A 
ATOM      5  C5  IND d   1       2.264  -0.038  -2.809  0.00  0.00    -0.031 A 
ATOM      6  C6  IND d   1       1.587   1.135  -3.076  0.00  0.00     0.015 A 
ATOM      7  C7  IND d   1       0.496   1.510  -2.344  0.00  0.00    -0.016 A 
ATOM      8  C8  IND d   1       0.093   0.648  -1.334  0.00  0.00    -0.047 A 
ATOM      9  C9  IND d   1       0.750  -0.564  -1.086  0.00  0.00    -0.096 A 
ATOM     10  HN1 IND d   1      -1.527   1.377  -0.403  0.00  0.00     0.298 HD
ENDROOT
TORSDOF 0
ENDMDL
