MODEL 1
REMARK minimizedAffinity 5.04814577
REMARK minimizedRMSD -1
REMARK  0 active torsions:
REMARK  status: ('A' for Active; 'I' for Inactive)
ROOT
ATOM      1  N1  IND d   1      -2.604   0.021   2.872  0.00  0.00    -0.196 N 
ATOM      2  C2  IND d   1      -3.113   0.289   4.112  0.00  0.00     0.054 A 
ATOM      3  C3  IND d   1      -4.452   0.104   4.120  0.00  0.00    -0.031 A 
ATOM      4  C4  IND d   1      -5.999  -0.732   2.240  0.00  0.00     0.051 A 
ATOM      5  C5  IND d   1      -6.000  -1.070   0.916  0.00  0.00    -0.031 A 
ATOM      6  C6  IND d   1      -4.844  -1.064   0.162  0.00  0.00     0.015 A 
ATOM      7  C7  IND d   1      -3.638  -0.729   0.709  0.00  0.00    -0.016 A 
ATOM      8  C8  IND d   1      -3.635  -0.379   2.051  0.00  0.00    -0.047 A 
ATOM      9  C9  IND d   1      -4.811  -0.342   2.811  0.00  0.00    -0.096 A 
ATOM     10  HN1 IND d   1      -1.778   0.091   2.643  0.00  0.00     0.298 HD
ENDROOT
TORSDOF 0
ENDMDL
