MODEL 1
REMARK minimizedAffinity -3.43409038
REMARK minimizedRMSD -1
REMARK  0 active torsions:
REMARK  status: ('A' for Active; 'I' for Inactive)
ROOT
ATOM      1  N1  IND d   1      -1.830   1.740   1.281  0.00  0.00    -0.196 N 
ATOM      2  C2  IND d   1      -1.560   1.708   2.621  0.00  0.00     0.054 A 
ATOM      3  C3  IND d   1      -0.557   0.839   2.878  0.00  0.00    -0.031 A 
ATOM      4  C4  IND d   1       0.854  -0.560   1.242  0.00  0.00     0.051 A 
ATOM      5  C5  IND d   1       0.957  -0.893  -0.079  0.00  0.00    -0.031 A 
ATOM      6  C6  IND d   1       0.121  -0.353  -1.034  0.00  0.00     0.015 A 
ATOM      7  C7  IND d   1      -0.846   0.554  -0.704  0.00  0.00    -0.016 A 
ATOM      8  C8  IND d   1      -0.958   0.889   0.638  0.00  0.00    -0.047 A 
ATOM      9  C9  IND d   1      -0.140   0.311   1.618  0.00  0.00    -0.096 A 
ATOM     10  HN1 IND d   1      -2.442   2.212   0.904  0.00  0.00     0.298 HD
ENDROOT
TORSDOF 0
ENDMDL
