MODEL 1
REMARK minimizedAffinity 3.66625834
REMARK minimizedRMSD -1
REMARK  0 active torsions:
REMARK  status: ('A' for Active; 'I' for Inactive)
ROOT
ATOM      1  N1  IND d   1      -2.046  -1.934   3.807  0.00  0.00    -0.196 N 
ATOM      2  C2  IND d   1      -1.724  -1.242   2.673  0.00  0.00     0.054 A 
ATOM      3  C3  IND d   1      -1.624  -2.084   1.620  0.00  0.00    -0.031 A 
ATOM      4  C4  IND d   1      -2.048  -4.621   1.509  0.00  0.00     0.051 A 
ATOM      5  C5  IND d   1      -2.329  -5.702   2.297  0.00  0.00    -0.031 A 
ATOM      6  C6  IND d   1      -2.538  -5.579   3.655  0.00  0.00     0.015 A 
ATOM      7  C7  IND d   1      -2.483  -4.364   4.277  0.00  0.00    -0.016 A 
ATOM      8  C8  IND d   1      -2.191  -3.265   3.482  0.00  0.00    -0.047 A 
ATOM      9  C9  IND d   1      -1.936  -3.389   2.110  0.00  0.00    -0.096 A 
ATOM     10  HN1 IND d   1      -2.142  -1.595   4.591  0.00  0.00     0.298 HD
ENDROOT
TORSDOF 0
ENDMDL
