MODEL 1
REMARK minimizedAffinity 6.51543093
REMARK minimizedRMSD -1
REMARK  0 active torsions:
REMARK  status: ('A' for Active; 'I' for Inactive)
ROOT
ATOM      1  N1  IND d   1       2.461  -5.974  -5.620  0.00  0.00    -0.196 N 
ATOM      2  C2  IND d   1       1.615  -5.744  -4.571  0.00  0.00     0.054 A 
ATOM      3  C3  IND d   1       2.280  -5.157  -3.551  0.00  0.00    -0.031 A 
ATOM      4  C4  IND d   1       4.735  -4.392  -3.423  0.00  0.00     0.051 A 
ATOM      5  C5  IND d   1       5.910  -4.421  -4.121  0.00  0.00    -0.031 A 
ATOM      6  C6  IND d   1       5.996  -4.978  -5.381  0.00  0.00     0.015 A 
ATOM      7  C7  IND d   1       4.903  -5.519  -5.997  0.00  0.00    -0.016 A 
ATOM      8  C8  IND d   1       3.710  -5.498  -5.288  0.00  0.00    -0.047 A 
ATOM      9  C9  IND d   1       3.626  -4.972  -3.993  0.00  0.00    -0.096 A 
ATOM     10  HN1 IND d   1       2.248  -6.353  -6.362  0.00  0.00     0.298 HD
ENDROOT
TORSDOF 0
ENDMDL
