MODEL 1
REMARK minimizedAffinity 4.23613739
REMARK minimizedRMSD -1
REMARK  0 active torsions:
REMARK  status: ('A' for Active; 'I' for Inactive)
ROOT
ATOM      1  N1  IND d   1       3.419   1.880  -5.959  0.00  0.00    -0.196 N 
ATOM      2  C2  IND d   1       4.496   1.039  -5.965  0.00  0.00     0.054 A 
ATOM      3  C3  IND d   1       5.647   1.748  -6.000  0.00  0.00    -0.031 A 
ATOM      4  C4  IND d   1       5.998   4.298  -5.948  0.00  0.00     0.051 A 
ATOM      5  C5  IND d   1       5.313   5.481  -5.978  0.00  0.00    -0.031 A 
ATOM      6  C6  IND d   1       3.934   5.524  -6.000  0.00  0.00     0.015 A 
ATOM      7  C7  IND d   1       3.185   4.382  -5.982  0.00  0.00    -0.016 A 
ATOM      8  C8  IND d   1       3.877   3.179  -5.959  0.00  0.00    -0.047 A 
ATOM      9  C9  IND d   1       5.276   3.128  -5.980  0.00  0.00    -0.096 A 
ATOM     10  HN1 IND d   1       2.593   1.638  -5.955  0.00  0.00     0.298 HD
ENDROOT
TORSDOF 0
ENDMDL
