MODEL 1
REMARK minimizedAffinity 5.39313269
REMARK minimizedRMSD -1
REMARK  0 active torsions:
REMARK  status: ('A' for Active; 'I' for Inactive)
ROOT
ATOM      1  N1  IND d   1       3.589   4.494  -5.916  0.00  0.00    -0.196 N 
ATOM      2  C2  IND d   1       4.724   5.253  -5.841  0.00  0.00     0.054 A 
ATOM      3  C3  IND d   1       5.818   4.460  -5.795  0.00  0.00    -0.031 A 
ATOM      4  C4  IND d   1       5.986   1.895  -5.934  0.00  0.00     0.051 A 
ATOM      5  C5  IND d   1       5.217   0.765  -5.973  0.00  0.00    -0.031 A 
ATOM      6  C6  IND d   1       3.838   0.822  -6.000  0.00  0.00     0.015 A 
ATOM      7  C7  IND d   1       3.175   2.017  -5.998  0.00  0.00    -0.016 A 
ATOM      8  C8  IND d   1       3.952   3.165  -5.951  0.00  0.00    -0.047 A 
ATOM      9  C9  IND d   1       5.350   3.113  -5.881  0.00  0.00    -0.096 A 
ATOM     10  HN1 IND d   1       2.784   4.795  -5.939  0.00  0.00     0.298 HD
ENDROOT
TORSDOF 0
ENDMDL
