MODEL 1
REMARK minimizedAffinity 16.3324375
REMARK minimizedRMSD -1
REMARK  0 active torsions:
REMARK  status: ('A' for Active; 'I' for Inactive)
ROOT
ATOM      1  N1  IND d   1      -2.453  -3.853  -1.195  0.00  0.00    -0.196 N 
ATOM      2  C2  IND d   1      -1.633  -3.950  -2.285  0.00  0.00     0.054 A 
ATOM      3  C3  IND d   1      -0.490  -3.259  -2.076  0.00  0.00    -0.031 A 
ATOM      4  C4  IND d   1       0.290  -1.981   0.018  0.00  0.00     0.051 A 
ATOM      5  C5  IND d   1      -0.132  -1.580   1.255  0.00  0.00    -0.031 A 
ATOM      6  C6  IND d   1      -1.373  -1.927   1.749  0.00  0.00     0.015 A 
ATOM      7  C7  IND d   1      -2.238  -2.699   1.027  0.00  0.00    -0.016 A 
ATOM      8  C8  IND d   1      -1.816  -3.101  -0.233  0.00  0.00    -0.047 A 
ATOM      9  C9  IND d   1      -0.575  -2.717  -0.757  0.00  0.00    -0.096 A 
ATOM     10  HN1 IND d   1      -3.235  -4.203  -1.123  0.00  0.00     0.298 HD
ENDROOT
TORSDOF 0
ENDMDL
