MODEL 1
REMARK minimizedAffinity 7.86062527
REMARK minimizedRMSD -1
REMARK  0 active torsions:
REMARK  status: ('A' for Active; 'I' for Inactive)
ROOT
ATOM      1  N1  IND d   1      -1.322  -4.714  -0.444  0.00  0.00    -0.196 N 
ATOM      2  C2  IND d   1      -1.314  -3.504  -1.080  0.00  0.00     0.054 A 
ATOM      3  C3  IND d   1      -1.222  -2.499  -0.180  0.00  0.00    -0.031 A 
ATOM      4  C4  IND d   1      -0.971  -2.615   2.379  0.00  0.00     0.051 A 
ATOM      5  C5  IND d   1      -0.965  -3.498   3.422  0.00  0.00    -0.031 A 
ATOM      6  C6  IND d   1      -1.077  -4.859   3.226  0.00  0.00     0.015 A 
ATOM      7  C7  IND d   1      -1.188  -5.391   1.972  0.00  0.00    -0.016 A 
ATOM      8  C8  IND d   1      -1.202  -4.497   0.911  0.00  0.00    -0.047 A 
ATOM      9  C9  IND d   1      -1.132  -3.112   1.107  0.00  0.00    -0.096 A 
ATOM     10  HN1 IND d   1      -1.391  -5.481  -0.826  0.00  0.00     0.298 HD
ENDROOT
TORSDOF 0
ENDMDL
