MODEL 1
REMARK minimizedAffinity 11.0590019
REMARK minimizedRMSD -1
REMARK  0 active torsions:
REMARK  status: ('A' for Active; 'I' for Inactive)
ROOT
ATOM      1  N1  IND d   1       0.578   1.512   2.191  0.00  0.00    -0.196 N 
ATOM      2  C2  IND d   1       1.902   1.339   1.894  0.00  0.00     0.054 A 
ATOM      3  C3  IND d   1       2.235   2.055   0.797  0.00  0.00    -0.031 A 
ATOM      4  C4  IND d   1       0.793   3.658  -0.610  0.00  0.00     0.051 A 
ATOM      5  C5  IND d   1      -0.488   4.114  -0.749  0.00  0.00    -0.031 A 
ATOM      6  C6  IND d   1      -1.499   3.720   0.104  0.00  0.00     0.015 A 
ATOM      7  C7  IND d   1      -1.263   2.860   1.139  0.00  0.00    -0.016 A 
ATOM      8  C8  IND d   1       0.035   2.390   1.279  0.00  0.00    -0.047 A 
ATOM      9  C9  IND d   1       1.056   2.753   0.391  0.00  0.00    -0.096 A 
ATOM     10  HN1 IND d   1       0.156   1.136   2.839  0.00  0.00     0.298 HD
ENDROOT
TORSDOF 0
ENDMDL
