MODEL 1
REMARK minimizedAffinity 10.157135
REMARK minimizedRMSD -1
REMARK  0 active torsions:
REMARK  status: ('A' for Active; 'I' for Inactive)
ROOT
ATOM      1  N1  IND d   1      -1.811  -0.526   2.914  0.00  0.00    -0.196 N 
ATOM      2  C2  IND d   1      -1.504  -1.729   2.341  0.00  0.00     0.054 A 
ATOM      3  C3  IND d   1      -0.630  -1.556   1.325  0.00  0.00    -0.031 A 
ATOM      4  C4  IND d   1       0.509   0.599   0.495  0.00  0.00     0.051 A 
ATOM      5  C5  IND d   1       0.518   1.953   0.683  0.00  0.00    -0.031 A 
ATOM      6  C6  IND d   1      -0.262   2.562   1.644  0.00  0.00     0.015 A 
ATOM      7  C7  IND d   1      -1.076   1.835   2.466  0.00  0.00    -0.016 A 
ATOM      8  C8  IND d   1      -1.093   0.460   2.275  0.00  0.00    -0.047 A 
ATOM      9  C9  IND d   1      -0.336  -0.159   1.272  0.00  0.00    -0.096 A 
ATOM     10  HN1 IND d   1      -2.360  -0.406   3.565  0.00  0.00     0.298 HD
ENDROOT
TORSDOF 0
ENDMDL
