MODEL 1
REMARK minimizedAffinity 12.5002832
REMARK minimizedRMSD -1
REMARK  0 active torsions:
REMARK  status: ('A' for Active; 'I' for Inactive)
ROOT
ATOM      1  N1  IND d   1       1.119   5.074   0.592  0.00  0.00    -0.196 N 
ATOM      2  C2  IND d   1       0.423   5.684  -0.413  0.00  0.00     0.054 A 
ATOM      3  C3  IND d   1      -0.868   5.282  -0.402  0.00  0.00    -0.031 A 
ATOM      4  C4  IND d   1      -2.077   3.708   1.238  0.00  0.00     0.051 A 
ATOM      5  C5  IND d   1      -1.850   2.878   2.300  0.00  0.00    -0.031 A 
ATOM      6  C6  IND d   1      -0.597   2.738   2.860  0.00  0.00     0.015 A 
ATOM      7  C7  IND d   1       0.478   3.433   2.384  0.00  0.00    -0.016 A 
ATOM      8  C8  IND d   1       0.253   4.271   1.301  0.00  0.00    -0.047 A 
ATOM      9  C9  IND d   1      -1.008   4.385   0.701  0.00  0.00    -0.096 A 
ATOM     10  HN1 IND d   1       1.958   5.174   0.755  0.00  0.00     0.298 HD
ENDROOT
TORSDOF 0
ENDMDL
