MODEL 1
REMARK minimizedAffinity 14.2815313
REMARK minimizedRMSD -1
REMARK  0 active torsions:
REMARK  status: ('A' for Active; 'I' for Inactive)
ROOT
ATOM      1  N1  IND d   1       1.254  -0.241   2.180  0.00  0.00    -0.196 N 
ATOM      2  C2  IND d   1       0.765  -0.890   1.080  0.00  0.00     0.054 A 
ATOM      3  C3  IND d   1       0.753  -0.061   0.012  0.00  0.00    -0.031 A 
ATOM      4  C4  IND d   1       1.586   2.367  -0.183  0.00  0.00     0.051 A 
ATOM      5  C5  IND d   1       2.082   3.399   0.563  0.00  0.00    -0.031 A 
ATOM      6  C6  IND d   1       2.336   3.267   1.913  0.00  0.00     0.015 A 
ATOM      7  C7  IND d   1       2.112   2.089   2.567  0.00  0.00    -0.016 A 
ATOM      8  C8  IND d   1       1.601   1.041   1.814  0.00  0.00    -0.047 A 
ATOM      9  C9  IND d   1       1.302   1.182   0.453  0.00  0.00    -0.096 A 
ATOM     10  HN1 IND d   1       1.332  -0.578   2.967  0.00  0.00     0.298 HD
ENDROOT
TORSDOF 0
ENDMDL
