MODEL 1
REMARK minimizedAffinity -1.72622895
REMARK minimizedRMSD -1
REMARK  0 active torsions:
REMARK  status: ('A' for Active; 'I' for Inactive)
ROOT
ATOM      1  N1  IND d   1      -3.873   1.095   0.684  0.00  0.00    -0.196 N 
ATOM      2  C2  IND d   1      -4.414   2.163   0.024  0.00  0.00     0.054 A 
ATOM      3  C3  IND d   1      -3.487   3.134  -0.139  0.00  0.00    -0.031 A 
ATOM      4  C4  IND d   1      -0.995   3.141   0.508  0.00  0.00     0.051 A 
ATOM      5  C5  IND d   1      -0.050   2.403   1.165  0.00  0.00    -0.031 A 
ATOM      6  C6  IND d   1      -0.337   1.166   1.704  0.00  0.00     0.015 A 
ATOM      7  C7  IND d   1      -1.581   0.612   1.596  0.00  0.00    -0.016 A 
ATOM      8  C8  IND d   1      -2.545   1.361   0.935  0.00  0.00    -0.047 A 
ATOM      9  C9  IND d   1      -2.271   2.636   0.424  0.00  0.00    -0.096 A 
ATOM     10  HN1 IND d   1      -4.292   0.378   0.906  0.00  0.00     0.298 HD
ENDROOT
TORSDOF 0
ENDMDL
