MODEL 1
REMARK minimizedAffinity 15.276844
REMARK minimizedRMSD -1
REMARK  0 active torsions:
REMARK  status: ('A' for Active; 'I' for Inactive)
ROOT
ATOM      1  N1  IND d   1       1.804  -4.128  -3.691  0.00  0.00    -0.196 N 
ATOM      2  C2  IND d   1       1.695  -5.280  -4.421  0.00  0.00     0.054 A 
ATOM      3  C3  IND d   1       0.628  -6.000  -4.007  0.00  0.00    -0.031 A 
ATOM      4  C4  IND d   1      -1.134  -5.431  -2.219  0.00  0.00     0.051 A 
ATOM      5  C5  IND d   1      -1.436  -4.505  -1.260  0.00  0.00    -0.031 A 
ATOM      6  C6  IND d   1      -0.659  -3.382  -1.060  0.00  0.00     0.015 A 
ATOM      7  C7  IND d   1       0.447  -3.137  -1.823  0.00  0.00    -0.016 A 
ATOM      8  C8  IND d   1       0.761  -4.078  -2.793  0.00  0.00    -0.047 A 
ATOM      9  C9  IND d   1       0.000  -5.241  -2.972  0.00  0.00    -0.096 A 
ATOM     10  HN1 IND d   1       2.420  -3.535  -3.779  0.00  0.00     0.298 HD
ENDROOT
TORSDOF 0
ENDMDL
