MODEL 1
REMARK minimizedAffinity 12.8591356
REMARK minimizedRMSD -1
REMARK  0 active torsions:
REMARK  status: ('A' for Active; 'I' for Inactive)
ROOT
ATOM      1  N1  IND d   1      -0.709   2.048   4.122  0.00  0.00    -0.196 N 
ATOM      2  C2  IND d   1      -1.891   2.482   3.591  0.00  0.00     0.054 A 
ATOM      3  C3  IND d   1      -1.716   2.873   2.309  0.00  0.00    -0.031 A 
ATOM      4  C4  IND d   1       0.404   2.792   0.850  0.00  0.00     0.051 A 
ATOM      5  C5  IND d   1       1.739   2.508   0.906  0.00  0.00    -0.031 A 
ATOM      6  C6  IND d   1       2.339   2.044   2.059  0.00  0.00     0.015 A 
ATOM      7  C7  IND d   1       1.619   1.835   3.201  0.00  0.00    -0.016 A 
ATOM      8  C8  IND d   1       0.264   2.129   3.150  0.00  0.00    -0.047 A 
ATOM      9  C9  IND d   1      -0.341   2.641   1.996  0.00  0.00    -0.096 A 
ATOM     10  HN1 IND d   1      -0.592   1.771   4.928  0.00  0.00     0.298 HD
ENDROOT
TORSDOF 0
ENDMDL
