MODEL 1
REMARK minimizedAffinity 10.1814203
REMARK minimizedRMSD -1
REMARK  0 active torsions:
REMARK  status: ('A' for Active; 'I' for Inactive)
ROOT
ATOM      1  N1  IND d   1      -1.083   1.886   2.304  0.00  0.00    -0.196 N 
ATOM      2  C2  IND d   1      -0.007   2.408   1.641  0.00  0.00     0.054 A 
ATOM      3  C3  IND d   1       0.485   1.509   0.761  0.00  0.00    -0.031 A 
ATOM      4  C4  IND d   1      -0.380  -0.843   0.169  0.00  0.00     0.051 A 
ATOM      5  C5  IND d   1      -1.314  -1.771   0.535  0.00  0.00    -0.031 A 
ATOM      6  C6  IND d   1      -2.239  -1.521   1.528  0.00  0.00     0.015 A 
ATOM      7  C7  IND d   1      -2.272  -0.324   2.186  0.00  0.00    -0.016 A 
ATOM      8  C8  IND d   1      -1.321   0.618   1.822  0.00  0.00    -0.047 A 
ATOM      9  C9  IND d   1      -0.352   0.354   0.845  0.00  0.00    -0.096 A 
ATOM     10  HN1 IND d   1      -1.535   2.283   2.918  0.00  0.00     0.298 HD
ENDROOT
TORSDOF 0
ENDMDL
