MODEL 1
REMARK minimizedAffinity 7.33634233
REMARK minimizedRMSD -1
REMARK  0 active torsions:
REMARK  status: ('A' for Active; 'I' for Inactive)
ROOT
ATOM      1  N1  IND d   1       3.180   4.356  -5.771  0.00  0.00    -0.196 N 
ATOM      2  C2  IND d   1       4.160   5.297  -5.616  0.00  0.00     0.054 A 
ATOM      3  C3  IND d   1       5.375   4.706  -5.557  0.00  0.00    -0.031 A 
ATOM      4  C4  IND d   1       5.998   2.220  -5.797  0.00  0.00     0.051 A 
ATOM      5  C5  IND d   1       5.443   0.977  -5.917  0.00  0.00    -0.031 A 
ATOM      6  C6  IND d   1       4.077   0.793  -5.999  0.00  0.00     0.015 A 
ATOM      7  C7  IND d   1       3.213   1.851  -5.975  0.00  0.00    -0.016 A 
ATOM      8  C8  IND d   1       3.773   3.114  -5.846  0.00  0.00    -0.047 A 
ATOM      9  C9  IND d   1       5.156   3.304  -5.720  0.00  0.00    -0.096 A 
ATOM     10  HN1 IND d   1       2.336   4.513  -5.814  0.00  0.00     0.298 HD
ENDROOT
TORSDOF 0
ENDMDL
