MODEL 1
REMARK minimizedAffinity -3.57959151
REMARK minimizedRMSD -1
REMARK  0 active torsions:
REMARK  status: ('A' for Active; 'I' for Inactive)
ROOT
ATOM      1  N1  IND d   1       3.755   1.483   3.623  0.00  0.00    -0.196 N 
ATOM      2  C2  IND d   1       4.748   2.330   4.028  0.00  0.00     0.054 A 
ATOM      3  C3  IND d   1       4.942   3.303   3.109  0.00  0.00    -0.031 A 
ATOM      4  C4  IND d   1       3.671   3.757   0.917  0.00  0.00     0.051 A 
ATOM      5  C5  IND d   1       2.705   3.235   0.104  0.00  0.00    -0.031 A 
ATOM      6  C6  IND d   1       2.023   2.080   0.430  0.00  0.00     0.015 A 
ATOM      7  C7  IND d   1       2.276   1.408   1.592  0.00  0.00    -0.016 A 
ATOM      8  C8  IND d   1       3.262   1.932   2.417  0.00  0.00    -0.047 A 
ATOM      9  C9  IND d   1       3.986   3.079   2.071  0.00  0.00    -0.096 A 
ATOM     10  HN1 IND d   1       3.483   0.788   4.049  0.00  0.00     0.298 HD
ENDROOT
TORSDOF 0
ENDMDL
