MODEL 1
REMARK minimizedAffinity 7.41546822
REMARK minimizedRMSD -1
REMARK  2 active torsions:
REMARK  status: ('A' for Active; 'I' for Inactive)
REMARK    1  A    between atoms: C2'_3  and  C1'_4 
REMARK    2  A    between atoms: C1'_4  and  C1_5 
ROOT
ATOM      1  C1  I4B d   1      -1.744  -2.224  -1.551  0.00  0.00    -0.075 A 
ATOM      2  C2  I4B d   1      -2.963  -2.685  -1.120  0.00  0.00     0.003 A 
ATOM      3  C3  I4B d   1      -3.075  -3.348   0.126  0.00  0.00     0.002 A 
ATOM      4  C4  I4B d   1      -1.942  -3.573   0.880  0.00  0.00    -0.004 A 
ATOM      5  C5  I4B d   1      -0.710  -3.085   0.453  0.00  0.00     0.002 A 
ATOM      6  C6  I4B d   1      -0.612  -2.396  -0.764  0.00  0.00     0.003 A 
ENDROOT
BRANCH   1   7
ATOM      7  C1' I4B d   1      -1.657  -1.557  -2.887  0.00  0.00     0.060 C 
BRANCH   7   8
ATOM      8  C2' I4B d   1      -1.838  -2.620  -3.952  0.00  0.00    -0.013 C 
ATOM      9  C4' I4B d   1      -1.315  -2.151  -5.284  0.00  0.00     0.013 C 
ATOM     10  C3' I4B d   1      -1.126  -3.858  -3.496  0.00  0.00     0.013 C 
ENDBRANCH   7   8
ENDBRANCH   1   7
TORSDOF 2
ENDMDL
