MODEL 1
REMARK minimizedAffinity 10.9276619
REMARK minimizedRMSD -1
REMARK  2 active torsions:
REMARK  status: ('A' for Active; 'I' for Inactive)
REMARK    1  A    between atoms: C2'_3  and  C1'_4 
REMARK    2  A    between atoms: C1'_4  and  C1_5 
ROOT
ATOM      1  C1  I4B d   1       3.753   1.400  -2.024  0.00  0.00    -0.075 A 
ATOM      2  C2  I4B d   1       4.622   0.377  -1.739  0.00  0.00     0.003 A 
ATOM      3  C3  I4B d   1       4.616  -0.228  -0.459  0.00  0.00     0.002 A 
ATOM      4  C4  I4B d   1       3.765   0.251   0.515  0.00  0.00    -0.004 A 
ATOM      5  C5  I4B d   1       2.868   1.273   0.218  0.00  0.00     0.002 A 
ATOM      6  C6  I4B d   1       2.853   1.844  -1.063  0.00  0.00     0.003 A 
ENDROOT
BRANCH   1   7
ATOM      7  C1' I4B d   1       3.809   2.039  -3.375  0.00  0.00     0.060 C 
BRANCH   7   8
ATOM      8  C2' I4B d   1       4.717   1.199  -4.251  0.00  0.00    -0.013 C 
ATOM      9  C4' I4B d   1       4.064   0.886  -5.571  0.00  0.00     0.013 C 
ATOM     10  C3' I4B d   1       5.999   1.952  -4.446  0.00  0.00     0.013 C 
ENDBRANCH   7   8
ENDBRANCH   1   7
TORSDOF 2
ENDMDL
