MODEL 1
REMARK minimizedAffinity 16.1482773
REMARK minimizedRMSD -1
REMARK  2 active torsions:
REMARK  status: ('A' for Active; 'I' for Inactive)
REMARK    1  A    between atoms: C2'_3  and  C1'_4 
REMARK    2  A    between atoms: C1'_4  and  C1_5 
ROOT
ATOM      1  C1  I4B d   1       2.799   2.577   0.510  0.00  0.00    -0.075 A 
ATOM      2  C2  I4B d   1       3.936   3.252   0.877  0.00  0.00     0.003 A 
ATOM      3  C3  I4B d   1       3.843   4.520   1.500  0.00  0.00     0.002 A 
ATOM      4  C4  I4B d   1       2.603   5.095   1.690  0.00  0.00    -0.004 A 
ATOM      5  C5  I4B d   1       1.450   4.399   1.338  0.00  0.00     0.002 A 
ATOM      6  C6  I4B d   1       1.547   3.127   0.756  0.00  0.00     0.003 A 
ENDROOT
BRANCH   1   7
ATOM      7  C1' I4B d   1       2.935   1.255  -0.175  0.00  0.00     0.060 C 
BRANCH   7   8
ATOM      8  C2' I4B d   1       3.011   0.182   0.891  0.00  0.00    -0.013 C 
ATOM      9  C4' I4B d   1       1.680  -0.499   1.075  0.00  0.00     0.013 C 
ATOM     10  C3' I4B d   1       4.070  -0.800   0.486  0.00  0.00     0.013 C 
ENDBRANCH   7   8
ENDBRANCH   1   7
TORSDOF 2
ENDMDL
