MODEL 1
REMARK minimizedAffinity 0.154531047
REMARK minimizedRMSD -1
REMARK  2 active torsions:
REMARK  status: ('A' for Active; 'I' for Inactive)
REMARK    1  A    between atoms: C2'_3  and  C1'_4 
REMARK    2  A    between atoms: C1'_4  and  C1_5 
ROOT
ATOM      1  C1  I4B d   1      -1.462  -3.457  -2.390  0.00  0.00    -0.075 A 
ATOM      2  C2  I4B d   1      -0.124  -3.412  -2.086  0.00  0.00     0.003 A 
ATOM      3  C3  I4B d   1       0.299  -3.354  -0.736  0.00  0.00     0.002 A 
ATOM      4  C4  I4B d   1      -0.645  -3.293   0.270  0.00  0.00    -0.004 A 
ATOM      5  C5  I4B d   1      -2.000  -3.362  -0.039  0.00  0.00     0.002 A 
ATOM      6  C6  I4B d   1      -2.411  -3.457  -1.377  0.00  0.00     0.003 A 
ENDROOT
BRANCH   1   7
ATOM      7  C1' I4B d   1      -1.873  -3.485  -3.828  0.00  0.00     0.060 C 
BRANCH   7   8
ATOM      8  C2' I4B d   1      -1.263  -2.278  -4.511  0.00  0.00    -0.013 C 
ATOM      9  C4' I4B d   1      -1.489  -2.322  -6.000  0.00  0.00     0.013 C 
ATOM     10  C3' I4B d   1      -1.871  -1.047  -3.907  0.00  0.00     0.013 C 
ENDBRANCH   7   8
ENDBRANCH   1   7
TORSDOF 2
ENDMDL
