MODEL 1
REMARK minimizedAffinity 5.80403185
REMARK minimizedRMSD -1
REMARK  2 active torsions:
REMARK  status: ('A' for Active; 'I' for Inactive)
REMARK    1  A    between atoms: C2'_3  and  C1'_4 
REMARK    2  A    between atoms: C1'_4  and  C1_5 
ROOT
ATOM      1  C1  I4B d   1      -1.402  -3.191  -2.800  0.00  0.00    -0.075 A 
ATOM      2  C2  I4B d   1      -0.271  -3.598  -2.138  0.00  0.00     0.003 A 
ATOM      3  C3  I4B d   1      -0.131  -3.354  -0.750  0.00  0.00     0.002 A 
ATOM      4  C4  I4B d   1      -1.118  -2.661  -0.079  0.00  0.00    -0.004 A 
ATOM      5  C5  I4B d   1      -2.274  -2.270  -0.747  0.00  0.00     0.002 A 
ATOM      6  C6  I4B d   1      -2.423  -2.547  -2.114  0.00  0.00     0.003 A 
ENDROOT
BRANCH   1   7
ATOM      7  C1' I4B d   1      -1.501  -3.435  -4.273  0.00  0.00     0.060 C 
BRANCH   7   8
ATOM      8  C2' I4B d   1      -0.887  -2.247  -4.985  0.00  0.00    -0.013 C 
ATOM      9  C4' I4B d   1       0.420  -2.617  -5.635  0.00  0.00     0.013 C 
ATOM     10  C3' I4B d   1      -1.875  -1.754  -6.000  0.00  0.00     0.013 C 
ENDBRANCH   7   8
ENDBRANCH   1   7
TORSDOF 2
ENDMDL
