MODEL 1
REMARK minimizedAffinity 5.04745531
REMARK minimizedRMSD -1
REMARK  2 active torsions:
REMARK  status: ('A' for Active; 'I' for Inactive)
REMARK    1  A    between atoms: C2'_3  and  C1'_4 
REMARK    2  A    between atoms: C1'_4  and  C1_5 
ROOT
ATOM      1  C1  I4B d   1      -0.558  -3.289  -1.240  0.00  0.00    -0.075 A 
ATOM      2  C2  I4B d   1       0.411  -3.865  -2.025  0.00  0.00     0.003 A 
ATOM      3  C3  I4B d   1       0.273  -3.875  -3.434  0.00  0.00     0.002 A 
ATOM      4  C4  I4B d   1      -0.866  -3.348  -4.010  0.00  0.00    -0.004 A 
ATOM      5  C5  I4B d   1      -1.835  -2.745  -3.214  0.00  0.00     0.002 A 
ATOM      6  C6  I4B d   1      -1.675  -2.704  -1.821  0.00  0.00     0.003 A 
ENDROOT
BRANCH   1   7
ATOM      7  C1' I4B d   1      -0.395  -3.325   0.246  0.00  0.00     0.060 C 
BRANCH   7   8
ATOM      8  C2' I4B d   1      -1.681  -3.861   0.843  0.00  0.00    -0.013 C 
ATOM      9  C4' I4B d   1      -1.403  -4.750   2.026  0.00  0.00     0.013 C 
ATOM     10  C3' I4B d   1      -2.533  -2.690   1.234  0.00  0.00     0.013 C 
ENDBRANCH   7   8
ENDBRANCH   1   7
TORSDOF 2
ENDMDL
