MODEL 1
REMARK minimizedAffinity 2.67687392
REMARK minimizedRMSD -1
REMARK  2 active torsions:
REMARK  status: ('A' for Active; 'I' for Inactive)
REMARK    1  A    between atoms: C2'_3  and  C1'_4 
REMARK    2  A    between atoms: C1'_4  and  C1_5 
ROOT
ATOM      1  C1  I4B d   1      -0.612  -2.512  -1.180  0.00  0.00    -0.075 A 
ATOM      2  C2  I4B d   1       0.450  -3.373  -1.300  0.00  0.00     0.003 A 
ATOM      3  C3  I4B d   1       0.679  -4.056  -2.519  0.00  0.00     0.002 A 
ATOM      4  C4  I4B d   1      -0.201  -3.887  -3.568  0.00  0.00    -0.004 A 
ATOM      5  C5  I4B d   1      -1.264  -2.996  -3.452  0.00  0.00     0.002 A 
ATOM      6  C6  I4B d   1      -1.464  -2.294  -2.254  0.00  0.00     0.003 A 
ENDROOT
BRANCH   1   7
ATOM      7  C1' I4B d   1      -0.843  -1.832   0.133  0.00  0.00     0.060 C 
BRANCH   7   8
ATOM      8  C2' I4B d   1      -1.987  -2.541   0.830  0.00  0.00    -0.013 C 
ATOM      9  C4' I4B d   1      -3.193  -2.643  -0.066  0.00  0.00     0.013 C 
ATOM     10  C3' I4B d   1      -1.505  -3.899   1.246  0.00  0.00     0.013 C 
ENDBRANCH   7   8
ENDBRANCH   1   7
TORSDOF 2
ENDMDL
