MODEL 1
REMARK minimizedAffinity 2.06477094
REMARK minimizedRMSD -1
REMARK  2 active torsions:
REMARK  status: ('A' for Active; 'I' for Inactive)
REMARK    1  A    between atoms: C1_2  and  C2_3 
REMARK    2  A    between atoms: C2_3  and  C3_4 
ROOT
ATOM      1  C3  UNL d   1       0.269  -1.300   3.359  0.00  0.00    -0.075 A 
ATOM      2  C4  UNL d   1       0.088  -2.119   4.483  0.00  0.00     0.002 A 
ATOM      3  C5  UNL d   1      -1.191  -2.528   4.863  0.00  0.00     0.002 A 
ATOM      4  C6  UNL d   1      -2.303  -2.115   4.133  0.00  0.00    -0.004 A 
ATOM      5  C7  UNL d   1      -2.137  -1.287   3.025  0.00  0.00     0.002 A 
ATOM      6  C8  UNL d   1      -0.858  -0.880   2.640  0.00  0.00     0.002 A 
ENDROOT
BRANCH   1   7
ATOM      7  C2  UNL d   1       1.652  -0.879   2.925  0.00  0.00     0.056 C 
BRANCH   7   8
ATOM      8  C1  UNL d   1       1.805  -0.707   1.410  0.00  0.00     0.007 C 
ATOM      9  C   UNL d   1       1.901   0.750   0.977  0.00  0.00     0.009 C 
ENDBRANCH   7   8
ENDBRANCH   1   7
TORSDOF 2
ENDMDL
