MODEL 1
REMARK minimizedAffinity 0.901143134
REMARK minimizedRMSD -1
REMARK  2 active torsions:
REMARK  status: ('A' for Active; 'I' for Inactive)
REMARK    1  A    between atoms: C1_2  and  C2_3 
REMARK    2  A    between atoms: C2_3  and  C3_4 
ROOT
ATOM      1  C3  UNL d   1       0.442  -1.440   3.450  0.00  0.00    -0.075 A 
ATOM      2  C4  UNL d   1       1.109  -0.820   2.383  0.00  0.00     0.002 A 
ATOM      3  C5  UNL d   1       0.392  -0.129   1.405  0.00  0.00     0.002 A 
ATOM      4  C6  UNL d   1      -0.997  -0.057   1.476  0.00  0.00    -0.004 A 
ATOM      5  C7  UNL d   1      -1.671  -0.683   2.522  0.00  0.00     0.002 A 
ATOM      6  C8  UNL d   1      -0.957  -1.371   3.504  0.00  0.00     0.002 A 
ENDROOT
BRANCH   1   7
ATOM      7  C2  UNL d   1       1.213  -2.164   4.527  0.00  0.00     0.056 C 
BRANCH   7   8
ATOM      8  C1  UNL d   1       2.543  -1.498   4.897  0.00  0.00     0.007 C 
ATOM      9  C   UNL d   1       3.376  -2.321   5.870  0.00  0.00     0.009 C 
ENDBRANCH   7   8
ENDBRANCH   1   7
TORSDOF 2
ENDMDL
