MODEL 1
REMARK minimizedAffinity 3.81017065
REMARK minimizedRMSD -1
REMARK  2 active torsions:
REMARK  status: ('A' for Active; 'I' for Inactive)
REMARK    1  A    between atoms: C1_2  and  C2_3 
REMARK    2  A    between atoms: C2_3  and  C3_4 
ROOT
ATOM      1  C3  UNL d   1      -0.058  -1.090   2.631  0.00  0.00    -0.075 A 
ATOM      2  C4  UNL d   1      -1.128  -1.998   2.622  0.00  0.00     0.002 A 
ATOM      3  C5  UNL d   1      -2.409  -1.579   2.261  0.00  0.00     0.002 A 
ATOM      4  C6  UNL d   1      -2.639  -0.249   1.916  0.00  0.00    -0.004 A 
ATOM      5  C7  UNL d   1      -1.588   0.665   1.939  0.00  0.00     0.002 A 
ATOM      6  C8  UNL d   1      -0.304   0.248   2.295  0.00  0.00     0.002 A 
ENDROOT
BRANCH   1   7
ATOM      7  C2  UNL d   1       1.336  -1.544   2.992  0.00  0.00     0.056 C 
BRANCH   7   8
ATOM      8  C1  UNL d   1       1.429  -2.259   4.344  0.00  0.00     0.007 C 
ATOM      9  C   UNL d   1       1.237  -1.326   5.531  0.00  0.00     0.009 C 
ENDBRANCH   7   8
ENDBRANCH   1   7
TORSDOF 2
ENDMDL
