MODEL 1
REMARK minimizedAffinity -1.05213737
REMARK minimizedRMSD -1
REMARK  2 active torsions:
REMARK  status: ('A' for Active; 'I' for Inactive)
REMARK    1  A    between atoms: C1_2  and  C2_3 
REMARK    2  A    between atoms: C2_3  and  C3_4 
ROOT
ATOM      1  C3  UNL d   1      -0.053  -0.580   2.266  0.00  0.00    -0.075 A 
ATOM      2  C4  UNL d   1       1.322  -0.754   2.480  0.00  0.00     0.002 A 
ATOM      3  C5  UNL d   1       1.779  -1.589   3.500  0.00  0.00     0.002 A 
ATOM      4  C6  UNL d   1       0.871  -2.251   4.323  0.00  0.00    -0.004 A 
ATOM      5  C7  UNL d   1      -0.497  -2.073   4.129  0.00  0.00     0.002 A 
ATOM      6  C8  UNL d   1      -0.958  -1.241   3.107  0.00  0.00     0.002 A 
ENDROOT
BRANCH   1   7
ATOM      7  C2  UNL d   1      -0.555   0.299   1.145  0.00  0.00     0.056 C 
BRANCH   7   8
ATOM      8  C1  UNL d   1      -1.907  -0.135   0.570  0.00  0.00     0.007 C 
ATOM      9  C   UNL d   1      -1.849  -0.468  -0.915  0.00  0.00     0.009 C 
ENDBRANCH   7   8
ENDBRANCH   1   7
TORSDOF 2
ENDMDL
