MODEL 1
REMARK minimizedAffinity 1.31222367
REMARK minimizedRMSD -1
REMARK  2 active torsions:
REMARK  status: ('A' for Active; 'I' for Inactive)
REMARK    1  A    between atoms: C1_2  and  C2_3 
REMARK    2  A    between atoms: C2_3  and  C3_4 
ROOT
ATOM      1  C3  UNL d   1      -0.177  -1.235   3.374  0.00  0.00    -0.075 A 
ATOM      2  C4  UNL d   1      -0.880  -0.373   2.521  0.00  0.00     0.002 A 
ATOM      3  C5  UNL d   1      -2.271  -0.439   2.436  0.00  0.00     0.002 A 
ATOM      4  C6  UNL d   1      -2.974  -1.374   3.193  0.00  0.00    -0.004 A 
ATOM      5  C7  UNL d   1      -2.285  -2.247   4.031  0.00  0.00     0.002 A 
ATOM      6  C8  UNL d   1      -0.893  -2.179   4.122  0.00  0.00     0.002 A 
ENDROOT
BRANCH   1   7
ATOM      7  C2  UNL d   1       1.326  -1.148   3.493  0.00  0.00     0.056 C 
BRANCH   7   8
ATOM      8  C1  UNL d   1       1.897  -1.865   4.721  0.00  0.00     0.007 C 
ATOM      9  C   UNL d   1       1.122  -1.574   6.000  0.00  0.00     0.009 C 
ENDBRANCH   7   8
ENDBRANCH   1   7
TORSDOF 2
ENDMDL
