MODEL 1
REMARK minimizedAffinity 1.26491857
REMARK minimizedRMSD -1
REMARK  2 active torsions:
REMARK  status: ('A' for Active; 'I' for Inactive)
REMARK    1  A    between atoms: C1_2  and  C2_3 
REMARK    2  A    between atoms: C2_3  and  C3_4 
ROOT
ATOM      1  C3  UNL d   1      -0.309  -0.469   2.589  0.00  0.00    -0.075 A 
ATOM      2  C4  UNL d   1       0.529  -0.037   1.551  0.00  0.00     0.002 A 
ATOM      3  C5  UNL d   1       1.889  -0.346   1.563  0.00  0.00     0.002 A 
ATOM      4  C6  UNL d   1       2.430  -1.080   2.616  0.00  0.00    -0.004 A 
ATOM      5  C7  UNL d   1       1.611  -1.500   3.662  0.00  0.00     0.002 A 
ATOM      6  C8  UNL d   1       0.248  -1.196   3.650  0.00  0.00     0.002 A 
ENDROOT
BRANCH   1   7
ATOM      7  C2  UNL d   1      -1.788  -0.163   2.567  0.00  0.00     0.056 C 
BRANCH   7   8
ATOM      8  C1  UNL d   1      -2.672  -1.324   3.035  0.00  0.00     0.007 C 
ATOM      9  C   UNL d   1      -2.742  -2.467   2.032  0.00  0.00     0.009 C 
ENDBRANCH   7   8
ENDBRANCH   1   7
TORSDOF 2
ENDMDL
