MODEL 1
REMARK minimizedAffinity 3.54692554
REMARK minimizedRMSD -1
REMARK  2 active torsions:
REMARK  status: ('A' for Active; 'I' for Inactive)
REMARK    1  A    between atoms: C1_2  and  C2_3 
REMARK    2  A    between atoms: C2_3  and  C3_4 
ROOT
ATOM      1  C3  UNL d   1      -0.692  -3.810  -4.625  0.00  0.00    -0.075 A 
ATOM      2  C4  UNL d   1      -0.307  -4.977  -5.302  0.00  0.00     0.002 A 
ATOM      3  C5  UNL d   1       0.359  -6.000  -4.627  0.00  0.00     0.002 A 
ATOM      4  C6  UNL d   1       0.658  -5.866  -3.273  0.00  0.00    -0.004 A 
ATOM      5  C7  UNL d   1       0.295  -4.704  -2.594  0.00  0.00     0.002 A 
ATOM      6  C8  UNL d   1      -0.376  -3.681  -3.266  0.00  0.00     0.002 A 
ENDROOT
BRANCH   1   7
ATOM      7  C2  UNL d   1      -1.440  -2.712  -5.343  0.00  0.00     0.056 C 
BRANCH   7   8
ATOM      8  C1  UNL d   1      -1.694  -1.467  -4.486  0.00  0.00     0.007 C 
ATOM      9  C   UNL d   1      -1.107  -0.196  -5.084  0.00  0.00     0.009 C 
ENDBRANCH   7   8
ENDBRANCH   1   7
TORSDOF 2
ENDMDL
