MODEL 1
REMARK minimizedAffinity -3.19733787
REMARK minimizedRMSD -1
REMARK  1 active torsions:
REMARK  status: ('A' for Active; 'I' for Inactive)
REMARK    1  A    between atoms: C1_2  and  C2_3 
ROOT
ATOM      1  C2  UNL d   1       0.142  -0.469  -0.066  0.00  0.00    -0.073 A 
ATOM      2  C3  UNL d   1       0.636  -0.907   1.168  0.00  0.00    -0.002 A 
ATOM      3  C4  UNL d   1       0.365  -0.188   2.332  0.00  0.00     0.004 A 
ATOM      4  C5  UNL d   1      -0.408   0.972   2.277  0.00  0.00    -0.004 A 
ATOM      5  C6  UNL d   1      -0.921   1.420   1.055  0.00  0.00    -0.075 A 
ATOM      6  C7  UNL d   1      -1.752   2.667   0.978  0.00  0.00     0.076 C 
ATOM      7  C8  UNL d   1      -0.642   0.693  -0.110  0.00  0.00     0.001 A 
ENDROOT
BRANCH   1   8
ATOM      8  C1  UNL d   1       0.427  -1.246  -1.325  0.00  0.00     0.053 C 
ATOM      9  C   UNL d   1       1.369  -2.412  -1.074  0.00  0.00     0.018 C 
ENDBRANCH   1   8
TORSDOF 1
ENDMDL
