MODEL 1
REMARK minimizedAffinity -3.45274043
REMARK minimizedRMSD -1
REMARK  1 active torsions:
REMARK  status: ('A' for Active; 'I' for Inactive)
REMARK    1  A    between atoms: C1_2  and  C2_3 
ROOT
ATOM      1  C2  UNL d   1       0.785  -0.798  -0.849  0.00  0.00    -0.073 A 
ATOM      2  C3  UNL d   1       1.150   0.353  -1.556  0.00  0.00    -0.002 A 
ATOM      3  C4  UNL d   1       0.827   1.617  -1.061  0.00  0.00     0.004 A 
ATOM      4  C5  UNL d   1       0.143   1.743   0.148  0.00  0.00    -0.004 A 
ATOM      5  C6  UNL d   1      -0.221   0.605   0.875  0.00  0.00    -0.075 A 
ATOM      6  C7  UNL d   1      -0.960   0.723   2.176  0.00  0.00     0.076 C 
ATOM      7  C8  UNL d   1       0.105  -0.661   0.369  0.00  0.00     0.001 A 
ENDROOT
BRANCH   1   8
ATOM      8  C1  UNL d   1       1.138  -2.164  -1.377  0.00  0.00     0.053 C 
ATOM      9  C   UNL d   1       0.385  -2.493  -2.657  0.00  0.00     0.018 C 
ENDBRANCH   1   8
TORSDOF 1
ENDMDL
