MODEL 1
REMARK minimizedAffinity 0.0659721345
REMARK minimizedRMSD -1
REMARK  1 active torsions:
REMARK  status: ('A' for Active; 'I' for Inactive)
REMARK    1  A    between atoms: C1_2  and  C2_3 
ROOT
ATOM      1  C2  UNL d   1       0.329  -1.397  -1.742  0.00  0.00    -0.073 A 
ATOM      2  C3  UNL d   1       0.594  -1.916  -0.470  0.00  0.00    -0.002 A 
ATOM      3  C4  UNL d   1       0.579  -1.082   0.649  0.00  0.00     0.004 A 
ATOM      4  C5  UNL d   1       0.292   0.276   0.509  0.00  0.00    -0.004 A 
ATOM      5  C6  UNL d   1       0.012   0.811  -0.753  0.00  0.00    -0.075 A 
ATOM      6  C7  UNL d   1      -0.296   2.270  -0.921  0.00  0.00     0.076 C 
ATOM      7  C8  UNL d   1       0.032  -0.032  -1.872  0.00  0.00     0.001 A 
ENDROOT
BRANCH   1   8
ATOM      8  C1  UNL d   1       0.338  -2.294  -2.952  0.00  0.00     0.053 C 
ATOM      9  C   UNL d   1       0.629  -3.741  -2.586  0.00  0.00     0.018 C 
ENDBRANCH   1   8
TORSDOF 1
ENDMDL
