MODEL 1
REMARK minimizedAffinity -1.4043237
REMARK minimizedRMSD -1
REMARK  1 active torsions:
REMARK  status: ('A' for Active; 'I' for Inactive)
REMARK    1  A    between atoms: C1_2  and  C2_3 
ROOT
ATOM      1  C2  UNL d   1       0.837  -0.885  -0.680  0.00  0.00    -0.073 A 
ATOM      2  C3  UNL d   1       1.103   0.151  -1.583  0.00  0.00    -0.002 A 
ATOM      3  C4  UNL d   1       0.598   1.432  -1.355  0.00  0.00     0.004 A 
ATOM      4  C5  UNL d   1      -0.172   1.692  -0.222  0.00  0.00    -0.004 A 
ATOM      5  C6  UNL d   1      -0.439   0.673   0.698  0.00  0.00    -0.075 A 
ATOM      6  C7  UNL d   1      -1.268   0.935   1.921  0.00  0.00     0.076 C 
ATOM      7  C8  UNL d   1       0.069  -0.612   0.461  0.00  0.00     0.001 A 
ENDROOT
BRANCH   1   8
ATOM      8  C1  UNL d   1       1.385  -2.268  -0.918  0.00  0.00     0.053 C 
ATOM      9  C   UNL d   1       0.762  -2.926  -2.139  0.00  0.00     0.018 C 
ENDBRANCH   1   8
TORSDOF 1
ENDMDL
