MODEL 1
REMARK minimizedAffinity -2.73360682
REMARK minimizedRMSD -1
REMARK  1 active torsions:
REMARK  status: ('A' for Active; 'I' for Inactive)
REMARK    1  A    between atoms: C1_2  and  C2_3 
ROOT
ATOM      1  C2  UNL d   1       0.478  -0.492  -0.340  0.00  0.00    -0.073 A 
ATOM      2  C3  UNL d   1       0.076   0.832  -0.553  0.00  0.00    -0.002 A 
ATOM      3  C4  UNL d   1      -0.703   1.493   0.398  0.00  0.00     0.004 A 
ATOM      4  C5  UNL d   1      -1.081   0.842   1.571  0.00  0.00    -0.004 A 
ATOM      5  C6  UNL d   1      -0.680  -0.477   1.807  0.00  0.00    -0.075 A 
ATOM      6  C7  UNL d   1      -1.080  -1.192   3.064  0.00  0.00     0.076 C 
ATOM      7  C8  UNL d   1       0.100  -1.135   0.847  0.00  0.00     0.001 A 
ENDROOT
BRANCH   1   8
ATOM      8  C1  UNL d   1       1.325  -1.208  -1.360  0.00  0.00     0.053 C 
ATOM      9  C   UNL d   1       0.709  -2.532  -1.784  0.00  0.00     0.018 C 
ENDBRANCH   1   8
TORSDOF 1
ENDMDL
