MODEL 1
REMARK minimizedAffinity -1.58424544
REMARK minimizedRMSD -1
REMARK  1 active torsions:
REMARK  status: ('A' for Active; 'I' for Inactive)
REMARK    1  A    between atoms: C1_2  and  C2_3 
ROOT
ATOM      1  C2  UNL d   1       0.132  -1.327  -1.011  0.00  0.00    -0.073 A 
ATOM      2  C3  UNL d   1      -0.419  -1.326   0.275  0.00  0.00    -0.002 A 
ATOM      3  C4  UNL d   1      -0.727  -0.121   0.909  0.00  0.00     0.004 A 
ATOM      4  C5  UNL d   1      -0.494   1.092   0.262  0.00  0.00    -0.004 A 
ATOM      5  C6  UNL d   1       0.046   1.112  -1.028  0.00  0.00    -0.075 A 
ATOM      6  C7  UNL d   1       0.305   2.409  -1.737  0.00  0.00     0.076 C 
ATOM      7  C8  UNL d   1       0.355  -0.102  -1.657  0.00  0.00     0.001 A 
ENDROOT
BRANCH   1   8
ATOM      8  C1  UNL d   1       0.460  -2.625  -1.703  0.00  0.00     0.053 C 
ATOM      9  C   UNL d   1      -0.230  -2.742  -3.052  0.00  0.00     0.018 C 
ENDBRANCH   1   8
TORSDOF 1
ENDMDL
