MODEL 1
REMARK minimizedAffinity -2.3615675
REMARK minimizedRMSD -1
REMARK  1 active torsions:
REMARK  status: ('A' for Active; 'I' for Inactive)
REMARK    1  A    between atoms: C1_2  and  C2_3 
ROOT
ATOM      1  C2  UNL d   1      -0.357  -0.231   0.400  0.00  0.00    -0.073 A 
ATOM      2  C3  UNL d   1       0.069   0.872  -0.349  0.00  0.00    -0.002 A 
ATOM      3  C4  UNL d   1       0.691   0.687  -1.585  0.00  0.00     0.004 A 
ATOM      4  C5  UNL d   1       0.885  -0.600  -2.087  0.00  0.00    -0.004 A 
ATOM      5  C6  UNL d   1       0.455  -1.714  -1.359  0.00  0.00    -0.075 A 
ATOM      6  C7  UNL d   1       0.659  -3.105  -1.884  0.00  0.00     0.076 C 
ATOM      7  C8  UNL d   1      -0.165  -1.520  -0.117  0.00  0.00     0.001 A 
ENDROOT
BRANCH   1   8
ATOM      8  C1  UNL d   1      -1.034  -0.036   1.732  0.00  0.00     0.053 C 
ATOM      9  C   UNL d   1      -1.428   1.414   1.964  0.00  0.00     0.018 C 
ENDBRANCH   1   8
TORSDOF 1
ENDMDL
