MODEL 1
REMARK minimizedAffinity -3.40541267
REMARK minimizedRMSD -1
REMARK  1 active torsions:
REMARK  status: ('A' for Active; 'I' for Inactive)
REMARK    1  A    between atoms: C1_2  and  C2_3 
ROOT
ATOM      1  C2  UNL d   1       1.063  -0.973  -0.726  0.00  0.00    -0.073 A 
ATOM      2  C3  UNL d   1       1.522   0.134  -1.450  0.00  0.00    -0.002 A 
ATOM      3  C4  UNL d   1       1.076   1.418  -1.132  0.00  0.00     0.004 A 
ATOM      4  C5  UNL d   1       0.175   1.609  -0.085  0.00  0.00    -0.004 A 
ATOM      5  C6  UNL d   1      -0.286   0.517   0.657  0.00  0.00    -0.075 A 
ATOM      6  C7  UNL d   1      -1.258   0.705   1.785  0.00  0.00     0.076 C 
ATOM      7  C8  UNL d   1       0.164  -0.770   0.330  0.00  0.00     0.001 A 
ENDROOT
BRANCH   1   8
ATOM      8  C1  UNL d   1       1.546  -2.360  -1.061  0.00  0.00     0.053 C 
ATOM      9  C   UNL d   1       0.805  -2.950  -2.251  0.00  0.00     0.018 C 
ENDBRANCH   1   8
TORSDOF 1
ENDMDL
