MODEL 1
REMARK minimizedAffinity -2.96315074
REMARK minimizedRMSD -1
REMARK  1 active torsions:
REMARK  status: ('A' for Active; 'I' for Inactive)
REMARK    1  A    between atoms: C1_2  and  C2_3 
ROOT
ATOM      1  C2  UNL d   1      -0.409  -0.551   0.380  0.00  0.00    -0.073 A 
ATOM      2  C3  UNL d   1       0.626   0.284  -0.055  0.00  0.00    -0.002 A 
ATOM      3  C4  UNL d   1       1.412  -0.079  -1.150  0.00  0.00     0.004 A 
ATOM      4  C5  UNL d   1       1.166  -1.275  -1.825  0.00  0.00    -0.004 A 
ATOM      5  C6  UNL d   1       0.129  -2.117  -1.412  0.00  0.00    -0.075 A 
ATOM      6  C7  UNL d   1      -0.147  -3.408  -2.125  0.00  0.00     0.076 C 
ATOM      7  C8  UNL d   1      -0.654  -1.747  -0.310  0.00  0.00     0.001 A 
ENDROOT
BRANCH   1   8
ATOM      8  C1  UNL d   1      -1.263  -0.160   1.558  0.00  0.00     0.053 C 
ATOM      9  C   UNL d   1      -1.024   1.279   1.983  0.00  0.00     0.018 C 
ENDBRANCH   1   8
TORSDOF 1
ENDMDL
