MODEL 1
REMARK minimizedAffinity -0.883073509
REMARK minimizedRMSD -1
REMARK  1 active torsions:
REMARK  status: ('A' for Active; 'I' for Inactive)
REMARK    1  A    between atoms: C1_2  and  C2_3 
ROOT
ATOM      1  C2  UNL d   1       0.006   0.901  -0.110  0.00  0.00    -0.073 A 
ATOM      2  C3  UNL d   1      -0.431   2.099   0.466  0.00  0.00    -0.002 A 
ATOM      3  C4  UNL d   1      -0.991   2.103   1.745  0.00  0.00     0.004 A 
ATOM      4  C5  UNL d   1      -1.113   0.912   2.461  0.00  0.00    -0.004 A 
ATOM      5  C6  UNL d   1      -0.671  -0.293   1.907  0.00  0.00    -0.075 A 
ATOM      6  C7  UNL d   1      -0.797  -1.583   2.664  0.00  0.00     0.076 C 
ATOM      7  C8  UNL d   1      -0.112  -0.289   0.622  0.00  0.00     0.001 A 
ENDROOT
BRANCH   1   8
ATOM      8  C1  UNL d   1       0.618   0.893  -1.487  0.00  0.00     0.053 C 
ATOM      9  C   UNL d   1       0.714   2.292  -2.076  0.00  0.00     0.018 C 
ENDBRANCH   1   8
TORSDOF 1
ENDMDL
