MODEL 1
REMARK minimizedAffinity -1.42789447
REMARK minimizedRMSD -1
REMARK  1 active torsions:
REMARK  status: ('A' for Active; 'I' for Inactive)
REMARK    1  A    between atoms: C1_2  and  C2_3 
ROOT
ATOM      1  C2  UNL d   1       0.434  -1.046  -1.065  0.00  0.00    -0.073 A 
ATOM      2  C3  UNL d   1      -0.065  -1.060  -2.372  0.00  0.00    -0.002 A 
ATOM      3  C4  UNL d   1      -0.072  -2.243  -3.111  0.00  0.00     0.004 A 
ATOM      4  C5  UNL d   1       0.412  -3.425  -2.550  0.00  0.00    -0.004 A 
ATOM      5  C6  UNL d   1       0.904  -3.433  -1.240  0.00  0.00    -0.075 A 
ATOM      6  C7  UNL d   1       1.431  -4.695  -0.622  0.00  0.00     0.076 C 
ATOM      7  C8  UNL d   1       0.910  -2.240  -0.506  0.00  0.00     0.001 A 
ENDROOT
BRANCH   1   8
ATOM      8  C1  UNL d   1       0.437   0.229  -0.261  0.00  0.00     0.053 C 
ATOM      9  C   UNL d   1      -0.071   0.011   1.156  0.00  0.00     0.018 C 
ENDBRANCH   1   8
TORSDOF 1
ENDMDL
