MODEL 1
REMARK minimizedAffinity -5.48868752
REMARK minimizedRMSD -1
REMARK  1 active torsions:
REMARK  status: ('A' for Active; 'I' for Inactive)
REMARK    1  A    between atoms: C1_2  and  C2_3 
ROOT
ATOM      1  C2  UNL d   1       0.512  -0.167   0.096  0.00  0.00    -0.073 A 
ATOM      2  C3  UNL d   1      -0.373  -0.627   1.078  0.00  0.00    -0.002 A 
ATOM      3  C4  UNL d   1      -1.213   0.265   1.744  0.00  0.00     0.004 A 
ATOM      4  C5  UNL d   1      -1.183   1.624   1.432  0.00  0.00    -0.004 A 
ATOM      5  C6  UNL d   1      -0.315   2.102   0.445  0.00  0.00    -0.075 A 
ATOM      6  C7  UNL d   1      -0.269   3.561   0.098  0.00  0.00     0.076 C 
ATOM      7  C8  UNL d   1       0.528   1.200  -0.218  0.00  0.00     0.001 A 
ENDROOT
BRANCH   1   8
ATOM      8  C1  UNL d   1       1.416  -1.128  -0.631  0.00  0.00     0.053 C 
ATOM      9  C   UNL d   1       0.643  -2.039  -1.571  0.00  0.00     0.018 C 
ENDBRANCH   1   8
TORSDOF 1
ENDMDL
