MODEL 1
REMARK minimizedAffinity -5.91300678
REMARK minimizedRMSD -1
REMARK  1 active torsions:
REMARK  status: ('A' for Active; 'I' for Inactive)
REMARK    1  A    between atoms: C1_2  and  C2_3 
ROOT
ATOM      1  C2  UNL d   1      -0.714   1.054   1.001  0.00  0.00    -0.073 A 
ATOM      2  C3  UNL d   1      -1.473   1.663   2.007  0.00  0.00    -0.002 A 
ATOM      3  C4  UNL d   1      -1.906   2.982   1.864  0.00  0.00     0.004 A 
ATOM      4  C5  UNL d   1      -1.591   3.702   0.712  0.00  0.00    -0.004 A 
ATOM      5  C6  UNL d   1      -0.844   3.108  -0.310  0.00  0.00    -0.075 A 
ATOM      6  C7  UNL d   1      -0.495   3.870  -1.554  0.00  0.00     0.076 C 
ATOM      7  C8  UNL d   1      -0.411   1.784  -0.157  0.00  0.00     0.001 A 
ENDROOT
BRANCH   1   8
ATOM      8  C1  UNL d   1      -0.250  -0.372   1.149  0.00  0.00     0.053 C 
ATOM      9  C   UNL d   1       0.501  -0.857  -0.081  0.00  0.00     0.018 C 
ENDBRANCH   1   8
TORSDOF 1
ENDMDL
