MODEL 1
REMARK minimizedAffinity -1.13152647
REMARK minimizedRMSD -1
REMARK  1 active torsions:
REMARK  status: ('A' for Active; 'I' for Inactive)
REMARK    1  A    between atoms: C1_2  and  C2_3 
ROOT
ATOM      1  C2  UNL d   1       0.463  -1.420  -0.598  0.00  0.00    -0.073 A 
ATOM      2  C3  UNL d   1       0.804  -0.428  -1.524  0.00  0.00    -0.002 A 
ATOM      3  C4  UNL d   1       0.546   0.915  -1.245  0.00  0.00     0.004 A 
ATOM      4  C5  UNL d   1      -0.049   1.279  -0.036  0.00  0.00    -0.004 A 
ATOM      5  C6  UNL d   1      -0.386   0.303   0.906  0.00  0.00    -0.075 A 
ATOM      6  C7  UNL d   1      -1.028   0.677   2.210  0.00  0.00     0.076 C 
ATOM      7  C8  UNL d   1      -0.126  -1.044   0.618  0.00  0.00     0.001 A 
ENDROOT
BRANCH   1   8
ATOM      8  C1  UNL d   1       0.746  -2.871  -0.892  0.00  0.00     0.053 C 
ATOM      9  C   UNL d   1       0.037  -3.346  -2.151  0.00  0.00     0.018 C 
ENDBRANCH   1   8
TORSDOF 1
ENDMDL
