MODEL 1
REMARK minimizedAffinity -3.85560131
REMARK minimizedRMSD -1
REMARK  1 active torsions:
REMARK  status: ('A' for Active; 'I' for Inactive)
REMARK    1  A    between atoms: C1_2  and  C2_3 
ROOT
ATOM      1  C2  UNL d   1      -0.106  -0.314   0.472  0.00  0.00    -0.073 A 
ATOM      2  C3  UNL d   1      -0.882  -0.069   1.611  0.00  0.00    -0.002 A 
ATOM      3  C4  UNL d   1      -1.358   1.216   1.876  0.00  0.00     0.004 A 
ATOM      4  C5  UNL d   1      -1.070   2.265   1.004  0.00  0.00    -0.004 A 
ATOM      5  C6  UNL d   1      -0.306   2.038  -0.145  0.00  0.00    -0.075 A 
ATOM      6  C7  UNL d   1       0.014   3.157  -1.092  0.00  0.00     0.076 C 
ATOM      7  C8  UNL d   1       0.171   0.746  -0.404  0.00  0.00     0.001 A 
ENDROOT
BRANCH   1   8
ATOM      8  C1  UNL d   1       0.405  -1.700   0.178  0.00  0.00     0.053 C 
ATOM      9  C   UNL d   1       0.706  -1.895  -1.300  0.00  0.00     0.018 C 
ENDBRANCH   1   8
TORSDOF 1
ENDMDL
