MODEL 1
REMARK minimizedAffinity 4.94198751
REMARK minimizedRMSD -1
REMARK  0 active torsions:
REMARK  status: ('A' for Active; 'I' for Inactive)
ROOT
ATOM      1  C4' PXY d   1       4.297   0.623  -2.307  0.00  0.00     0.077 C 
ATOM      2  C1' PXY d   1       0.564  -1.749   1.416  0.00  0.00     0.077 C 
ATOM      3  C1  PXY d   1       1.534  -1.119   0.435  0.00  0.00    -0.082 A 
ATOM      4  C2  PXY d   1       2.591  -1.803   0.030  0.00  0.00     0.003 A 
ATOM      5  C3  PXY d   1       3.495  -1.237  -0.831  0.00  0.00     0.003 A 
ATOM      6  C4  PXY d   1       3.287   0.023  -1.325  0.00  0.00    -0.082 A 
ATOM      7  C5  PXY d   1       2.204   0.724  -0.925  0.00  0.00     0.003 A 
ATOM      8  C6  PXY d   1       1.320   0.146  -0.018  0.00  0.00     0.003 A 
ENDROOT
TORSDOF 0
ENDMDL
