MODEL 1
REMARK minimizedAffinity 0.482806712
REMARK minimizedRMSD -1
REMARK  0 active torsions:
REMARK  status: ('A' for Active; 'I' for Inactive)
ROOT
ATOM      1  C4' PXY d   1       0.329  -0.993   1.809  0.00  0.00     0.077 C 
ATOM      2  C1' PXY d   1       4.370   0.001  -2.204  0.00  0.00     0.077 C 
ATOM      3  C1  PXY d   1       3.309  -0.272  -1.156  0.00  0.00    -0.082 A 
ATOM      4  C2  PXY d   1       2.602   0.733  -0.664  0.00  0.00     0.003 A 
ATOM      5  C3  PXY d   1       1.661   0.508   0.308  0.00  0.00     0.003 A 
ATOM      6  C4  PXY d   1       1.404  -0.765   0.742  0.00  0.00    -0.082 A 
ATOM      7  C5  PXY d   1       2.114  -1.796   0.237  0.00  0.00     0.003 A 
ATOM      8  C6  PXY d   1       3.093  -1.542  -0.719  0.00  0.00     0.003 A 
ENDROOT
TORSDOF 0
ENDMDL
