MODEL 1
REMARK minimizedAffinity 2.21898246
REMARK minimizedRMSD -1
REMARK  0 active torsions:
REMARK  status: ('A' for Active; 'I' for Inactive)
ROOT
ATOM      1  C4' PXY d   1      -3.707   0.784   2.305  0.00  0.00     0.077 C 
ATOM      2  C1' PXY d   1       1.583  -1.154   1.013  0.00  0.00     0.077 C 
ATOM      3  C1  PXY d   1       0.200  -0.634   1.351  0.00  0.00    -0.082 A 
ATOM      4  C2  PXY d   1      -0.632  -1.391   2.046  0.00  0.00     0.003 A 
ATOM      5  C3  PXY d   1      -1.898  -0.949   2.333  0.00  0.00     0.003 A 
ATOM      6  C4  PXY d   1      -2.298   0.303   1.949  0.00  0.00    -0.082 A 
ATOM      7  C5  PXY d   1      -1.451   1.086   1.248  0.00  0.00     0.003 A 
ATOM      8  C6  PXY d   1      -0.184   0.603   0.932  0.00  0.00     0.003 A 
ENDROOT
TORSDOF 0
ENDMDL
