MODEL 1
REMARK minimizedAffinity 3.03534317
REMARK minimizedRMSD -1
REMARK  0 active torsions:
REMARK  status: ('A' for Active; 'I' for Inactive)
ROOT
ATOM      1  C4' PXY d   1      -2.193  -2.611   0.514  0.00  0.00     0.077 C 
ATOM      2  C1' PXY d   1      -4.861  -6.000   4.363  0.00  0.00     0.077 C 
ATOM      3  C1  PXY d   1      -4.155  -5.122   3.349  0.00  0.00    -0.082 A 
ATOM      4  C2  PXY d   1      -3.995  -3.832   3.599  0.00  0.00     0.003 A 
ATOM      5  C3  PXY d   1      -3.388  -3.017   2.679  0.00  0.00     0.003 A 
ATOM      6  C4  PXY d   1      -2.891  -3.537   1.514  0.00  0.00    -0.082 A 
ATOM      7  C5  PXY d   1      -3.041  -4.854   1.256  0.00  0.00     0.003 A 
ATOM      8  C6  PXY d   1      -3.697  -5.657   2.185  0.00  0.00     0.003 A 
ENDROOT
TORSDOF 0
ENDMDL
