MODEL 1
REMARK minimizedAffinity 5.4806695
REMARK minimizedRMSD -1
REMARK  0 active torsions:
REMARK  status: ('A' for Active; 'I' for Inactive)
ROOT
ATOM      1  C4' PXY d   1       0.712  -1.457   1.781  0.00  0.00     0.077 C 
ATOM      2  C1' PXY d   1       4.308  -0.593  -2.662  0.00  0.00     0.077 C 
ATOM      3  C1  PXY d   1       3.360  -0.831  -1.502  0.00  0.00    -0.082 A 
ATOM      4  C2  PXY d   1       2.937   0.195  -0.782  0.00  0.00     0.003 A 
ATOM      5  C3  PXY d   1       2.106  -0.005   0.289  0.00  0.00     0.003 A 
ATOM      6  C4  PXY d   1       1.661  -1.263   0.595  0.00  0.00    -0.082 A 
ATOM      7  C5  PXY d   1       2.080  -2.314  -0.141  0.00  0.00     0.003 A 
ATOM      8  C6  PXY d   1       2.956  -2.094  -1.200  0.00  0.00     0.003 A 
ENDROOT
TORSDOF 0
ENDMDL
