MODEL 1
REMARK minimizedAffinity 6.62803173
REMARK minimizedRMSD -1
REMARK  0 active torsions:
REMARK  status: ('A' for Active; 'I' for Inactive)
ROOT
ATOM      1  C4' PXY d   1      -2.710  -2.994   1.576  0.00  0.00     0.077 C 
ATOM      2  C1' PXY d   1      -4.010   1.807  -1.369  0.00  0.00     0.077 C 
ATOM      3  C1  PXY d   1      -3.661   0.555  -0.589  0.00  0.00    -0.082 A 
ATOM      4  C2  PXY d   1      -3.802  -0.631  -1.158  0.00  0.00     0.003 A 
ATOM      5  C3  PXY d   1      -3.521  -1.775  -0.456  0.00  0.00     0.003 A 
ATOM      6  C4  PXY d   1      -3.041  -1.703   0.824  0.00  0.00    -0.082 A 
ATOM      7  C5  PXY d   1      -2.884  -0.496   1.408  0.00  0.00     0.003 A 
ATOM      8  C6  PXY d   1      -3.214   0.652   0.693  0.00  0.00     0.003 A 
ENDROOT
TORSDOF 0
ENDMDL
