MODEL 1
REMARK minimizedAffinity 4.65758467
REMARK minimizedRMSD -1
REMARK  0 active torsions:
REMARK  status: ('A' for Active; 'I' for Inactive)
ROOT
ATOM      1  C4' PXY d   1      -5.018   0.374  -0.701  0.00  0.00     0.077 C 
ATOM      2  C1' PXY d   1      -1.500   3.425  -4.125  0.00  0.00     0.077 C 
ATOM      3  C1  PXY d   1      -2.415   2.614  -3.229  0.00  0.00    -0.082 A 
ATOM      4  C2  PXY d   1      -3.669   3.000  -3.053  0.00  0.00     0.003 A 
ATOM      5  C3  PXY d   1      -4.501   2.297  -2.221  0.00  0.00     0.003 A 
ATOM      6  C4  PXY d   1      -4.061   1.156  -1.604  0.00  0.00    -0.082 A 
ATOM      7  C5  PXY d   1      -2.787   0.750  -1.787  0.00  0.00     0.003 A 
ATOM      8  C6  PXY d   1      -1.946   1.501  -2.603  0.00  0.00     0.003 A 
ENDROOT
TORSDOF 0
ENDMDL
