MODEL 1
REMARK minimizedAffinity -4.19097519
REMARK minimizedRMSD -1
REMARK  0 active torsions:
REMARK  status: ('A' for Active; 'I' for Inactive)
ROOT
ATOM      1  C4' PXY d   1       0.673  -1.256   0.940  0.00  0.00     0.077 C 
ATOM      2  C1' PXY d   1       1.618  -5.036   5.211  0.00  0.00     0.077 C 
ATOM      3  C1  PXY d   1       1.379  -4.037   4.096  0.00  0.00    -0.082 A 
ATOM      4  C2  PXY d   1       0.236  -4.061   3.430  0.00  0.00     0.003 A 
ATOM      5  C3  PXY d   1       0.016  -3.186   2.398  0.00  0.00     0.003 A 
ATOM      6  C4  PXY d   1       0.954  -2.240   2.080  0.00  0.00    -0.082 A 
ATOM      7  C5  PXY d   1       2.118  -2.202   2.762  0.00  0.00     0.003 A 
ATOM      8  C6  PXY d   1       2.338  -3.126   3.779  0.00  0.00     0.003 A 
ENDROOT
TORSDOF 0
ENDMDL
