MODEL 1
REMARK minimizedAffinity -0.505522132
REMARK minimizedRMSD -1
REMARK  0 active torsions:
REMARK  status: ('A' for Active; 'I' for Inactive)
ROOT
ATOM      1  C4' PXY d   1       1.104   2.527   0.088  0.00  0.00     0.077 C 
ATOM      2  C1' PXY d   1       2.066  -3.135  -0.572  0.00  0.00     0.077 C 
ATOM      3  C1  PXY d   1       1.801  -1.653  -0.395  0.00  0.00    -0.082 A 
ATOM      4  C2  PXY d   1       2.508  -0.775  -1.089  0.00  0.00     0.003 A 
ATOM      5  C3  PXY d   1       2.304   0.570  -0.917  0.00  0.00     0.003 A 
ATOM      6  C4  PXY d   1       1.330   1.020  -0.066  0.00  0.00    -0.082 A 
ATOM      7  C5  PXY d   1       0.598   0.130   0.638  0.00  0.00     0.003 A 
ATOM      8  C6  PXY d   1       0.849  -1.230   0.480  0.00  0.00     0.003 A 
ENDROOT
TORSDOF 0
ENDMDL
