MODEL 1
REMARK minimizedAffinity -0.413187504
REMARK minimizedRMSD -1
REMARK  0 active torsions:
REMARK  status: ('A' for Active; 'I' for Inactive)
ROOT
ATOM      1  C4' PXY d   1      -4.035  -4.874   2.993  0.00  0.00     0.077 C 
ATOM      2  C1' PXY d   1      -4.859  -6.000  -2.616  0.00  0.00     0.077 C 
ATOM      3  C1  PXY d   1      -4.630  -5.705  -1.147  0.00  0.00    -0.082 A 
ATOM      4  C2  PXY d   1      -5.573  -5.998  -0.266  0.00  0.00     0.003 A 
ATOM      5  C3  PXY d   1      -5.395  -5.709   1.062  0.00  0.00     0.003 A 
ATOM      6  C4  PXY d   1      -4.219  -5.163   1.501  0.00  0.00    -0.082 A 
ATOM      7  C5  PXY d   1      -3.248  -4.870   0.610  0.00  0.00     0.003 A 
ATOM      8  C6  PXY d   1      -3.464  -5.134  -0.740  0.00  0.00     0.003 A 
ENDROOT
TORSDOF 0
ENDMDL
