MODEL 1
REMARK minimizedAffinity -3.70933962
REMARK minimizedRMSD -1
REMARK  0 active torsions:
REMARK  status: ('A' for Active; 'I' for Inactive)
ROOT
ATOM      1  C4' PXY d   1      -4.713  -5.977  -2.625  0.00  0.00     0.077 C 
ATOM      2  C1' PXY d   1      -3.360  -6.000   2.995  0.00  0.00     0.077 C 
ATOM      3  C1  PXY d   1      -3.726  -5.999   1.524  0.00  0.00    -0.082 A 
ATOM      4  C2  PXY d   1      -2.768  -5.997   0.612  0.00  0.00     0.003 A 
ATOM      5  C3  PXY d   1      -3.082  -5.964  -0.723  0.00  0.00     0.003 A 
ATOM      6  C4  PXY d   1      -4.390  -5.987  -1.128  0.00  0.00    -0.082 A 
ATOM      7  C5  PXY d   1      -5.373  -6.000  -0.203  0.00  0.00     0.003 A 
ATOM      8  C6  PXY d   1      -5.034  -5.992   1.147  0.00  0.00     0.003 A 
ENDROOT
TORSDOF 0
ENDMDL
