MODEL 1
REMARK minimizedAffinity 1.36654699
REMARK minimizedRMSD -1
REMARK  0 active torsions:
REMARK  status: ('A' for Active; 'I' for Inactive)
ROOT
ATOM      1  C4' PXY d   1      -2.458  -3.962  -0.020  0.00  0.00     0.077 C 
ATOM      2  C1' PXY d   1      -4.324  -5.870   5.108  0.00  0.00     0.077 C 
ATOM      3  C1  PXY d   1      -3.844  -5.377   3.757  0.00  0.00    -0.082 A 
ATOM      4  C2  PXY d   1      -2.595  -4.961   3.619  0.00  0.00     0.003 A 
ATOM      5  C3  PXY d   1      -2.154  -4.481   2.412  0.00  0.00     0.003 A 
ATOM      6  C4  PXY d   1      -2.983  -4.478   1.323  0.00  0.00    -0.082 A 
ATOM      7  C5  PXY d   1      -4.255  -4.910   1.454  0.00  0.00     0.003 A 
ATOM      8  C6  PXY d   1      -4.696  -5.354   2.697  0.00  0.00     0.003 A 
ENDROOT
TORSDOF 0
ENDMDL
