MODEL 1
REMARK minimizedAffinity 6.90152168
REMARK minimizedRMSD -1
REMARK  0 active torsions:
REMARK  status: ('A' for Active; 'I' for Inactive)
ROOT
ATOM      1  C4' PXY d   1      -4.525  -5.117   5.933  0.00  0.00     0.077 C 
ATOM      2  C1' PXY d   1      -2.842  -4.015   0.514  0.00  0.00     0.077 C 
ATOM      3  C1  PXY d   1      -3.271  -4.307   1.938  0.00  0.00    -0.082 A 
ATOM      4  C2  PXY d   1      -4.533  -4.614   2.191  0.00  0.00     0.003 A 
ATOM      5  C3  PXY d   1      -4.945  -4.849   3.478  0.00  0.00     0.003 A 
ATOM      6  C4  PXY d   1      -4.045  -4.824   4.509  0.00  0.00    -0.082 A 
ATOM      7  C5  PXY d   1      -2.753  -4.522   4.258  0.00  0.00     0.003 A 
ATOM      8  C6  PXY d   1      -2.363  -4.246   2.951  0.00  0.00     0.003 A 
ENDROOT
TORSDOF 0
ENDMDL
