MODEL 1
REMARK minimizedAffinity 6.18883038
REMARK minimizedRMSD -1
REMARK  0 active torsions:
REMARK  status: ('A' for Active; 'I' for Inactive)
ROOT
ATOM      1  C4' PXY d   1      -2.136  -5.938  -5.346  0.00  0.00     0.077 C 
ATOM      2  C1' PXY d   1       3.521  -5.823  -4.159  0.00  0.00     0.077 C 
ATOM      3  C1  PXY d   1       2.035  -5.857  -4.458  0.00  0.00    -0.082 A 
ATOM      4  C2  PXY d   1       1.622  -5.993  -5.708  0.00  0.00     0.003 A 
ATOM      5  C3  PXY d   1       0.282  -5.994  -6.000  0.00  0.00     0.003 A 
ATOM      6  C4  PXY d   1      -0.645  -5.908  -4.997  0.00  0.00    -0.082 A 
ATOM      7  C5  PXY d   1      -0.232  -5.780  -3.718  0.00  0.00     0.003 A 
ATOM      8  C6  PXY d   1       1.132  -5.740  -3.447  0.00  0.00     0.003 A 
ENDROOT
TORSDOF 0
ENDMDL
