MODEL 1
REMARK minimizedAffinity 7.96998787
REMARK minimizedRMSD -1
REMARK  0 active torsions:
REMARK  status: ('A' for Active; 'I' for Inactive)
ROOT
ATOM      1  C4' PXY d   1       3.758   2.281  -0.806  0.00  0.00     0.077 C 
ATOM      2  C1' PXY d   1      -1.174  -0.452   0.470  0.00  0.00     0.077 C 
ATOM      3  C1  PXY d   1       0.126   0.253   0.134  0.00  0.00    -0.082 A 
ATOM      4  C2  PXY d   1       0.345   1.474   0.594  0.00  0.00     0.003 A 
ATOM      5  C3  PXY d   1       1.501   2.139   0.273  0.00  0.00     0.003 A 
ATOM      6  C4  PXY d   1       2.465   1.527  -0.483  0.00  0.00    -0.082 A 
ATOM      7  C5  PXY d   1       2.252   0.277  -0.948  0.00  0.00     0.003 A 
ATOM      8  C6  PXY d   1       1.055  -0.364  -0.645  0.00  0.00     0.003 A 
ENDROOT
TORSDOF 0
ENDMDL
