MODEL 1
REMARK minimizedAffinity -2.25206923
REMARK minimizedRMSD -1
REMARK  0 active torsions:
REMARK  status: ('A' for Active; 'I' for Inactive)
ROOT
ATOM      1  C4' PXY d   1      -2.217  -5.998  -4.661  0.00  0.00     0.077 C 
ATOM      2  C1' PXY d   1       3.531  -5.972  -4.050  0.00  0.00     0.077 C 
ATOM      3  C1  PXY d   1       2.025  -5.973  -4.222  0.00  0.00    -0.082 A 
ATOM      4  C2  PXY d   1       1.244  -5.966  -3.154  0.00  0.00     0.003 A 
ATOM      5  C3  PXY d   1      -0.120  -6.000  -3.291  0.00  0.00     0.003 A 
ATOM      6  C4  PXY d   1      -0.691  -5.987  -4.535  0.00  0.00    -0.082 A 
ATOM      7  C5  PXY d   1       0.098  -5.984  -5.630  0.00  0.00     0.003 A 
ATOM      8  C6  PXY d   1       1.481  -5.991  -5.469  0.00  0.00     0.003 A 
ENDROOT
TORSDOF 0
ENDMDL
