MODEL 1
REMARK minimizedAffinity 3.80088758
REMARK minimizedRMSD -1
REMARK  0 active torsions:
REMARK  status: ('A' for Active; 'I' for Inactive)
ROOT
ATOM      1  C4' PXY d   1       2.272  -4.918  -4.473  0.00  0.00     0.077 C 
ATOM      2  C1' PXY d   1      -3.190  -6.000  -2.921  0.00  0.00     0.077 C 
ATOM      3  C1  PXY d   1      -1.757  -5.707  -3.319  0.00  0.00    -0.082 A 
ATOM      4  C2  PXY d   1      -1.344  -6.000  -4.541  0.00  0.00     0.003 A 
ATOM      5  C3  PXY d   1      -0.043  -5.771  -4.908  0.00  0.00     0.003 A 
ATOM      6  C4  PXY d   1       0.831  -5.187  -4.031  0.00  0.00    -0.082 A 
ATOM      7  C5  PXY d   1       0.416  -4.876  -2.785  0.00  0.00     0.003 A 
ATOM      8  C6  PXY d   1      -0.898  -5.154  -2.419  0.00  0.00     0.003 A 
ENDROOT
TORSDOF 0
ENDMDL
