MODEL 1
REMARK minimizedAffinity 3.96112776
REMARK minimizedRMSD -1
REMARK  0 active torsions:
REMARK  status: ('A' for Active; 'I' for Inactive)
ROOT
ATOM      1  C4' PXY d   1       3.353  -0.758   0.378  0.00  0.00     0.077 C 
ATOM      2  C1' PXY d   1      -0.827   1.348  -3.014  0.00  0.00     0.077 C 
ATOM      3  C1  PXY d   1       0.263   0.801  -2.114  0.00  0.00    -0.082 A 
ATOM      4  C2  PXY d   1       1.450   0.513  -2.625  0.00  0.00     0.003 A 
ATOM      5  C3  PXY d   1       2.437  -0.012  -1.832  0.00  0.00     0.003 A 
ATOM      6  C4  PXY d   1       2.225  -0.195  -0.491  0.00  0.00    -0.082 A 
ATOM      7  C5  PXY d   1       1.021   0.106   0.039  0.00  0.00     0.003 A 
ATOM      8  C6  PXY d   1       0.019   0.600  -0.791  0.00  0.00     0.003 A 
ENDROOT
TORSDOF 0
ENDMDL
