MODEL 1
REMARK minimizedAffinity 2.70442438
REMARK minimizedRMSD -1
REMARK  0 active torsions:
REMARK  status: ('A' for Active; 'I' for Inactive)
ROOT
ATOM      1  C4' PXY d   1      -1.925   2.722  -2.248  0.00  0.00     0.077 C 
ATOM      2  C1' PXY d   1      -2.204  -1.807   1.332  0.00  0.00     0.077 C 
ATOM      3  C1  PXY d   1      -2.133  -0.611   0.403  0.00  0.00    -0.082 A 
ATOM      4  C2  PXY d   1      -2.431  -0.759  -0.877  0.00  0.00     0.003 A 
ATOM      5  C3  PXY d   1      -2.341   0.305  -1.738  0.00  0.00     0.003 A 
ATOM      6  C4  PXY d   1      -1.993   1.545  -1.272  0.00  0.00    -0.082 A 
ATOM      7  C5  PXY d   1      -1.697   1.706   0.035  0.00  0.00     0.003 A 
ATOM      8  C6  PXY d   1      -1.755   0.605   0.884  0.00  0.00     0.003 A 
ENDROOT
TORSDOF 0
ENDMDL
