MODEL 1
REMARK minimizedAffinity -3.47817874
REMARK minimizedRMSD -1
REMARK  0 active torsions:
REMARK  status: ('A' for Active; 'I' for Inactive)
ROOT
ATOM      1  C1  DEN d   1      -1.153   1.254   0.414  0.00  0.00     0.130 A 
ATOM      2  C2  DEN d   1      -0.091   2.120  -0.090  0.00  0.00    -0.031 A 
ATOM      3  C3  DEN d   1       1.122   1.297  -0.273  0.00  0.00     0.027 A 
ATOM      4  C4  DEN d   1       1.454  -1.223   0.167  0.00  0.00     0.027 A 
ATOM      5  C5  DEN d   1       0.843  -2.375   0.610  0.00  0.00    -0.003 A 
ATOM      6  C6  DEN d   1      -0.455  -2.392   1.047  0.00  0.00     0.001 A 
ATOM      7  C7  DEN d   1      -1.199  -1.242   1.008  0.00  0.00     0.017 A 
ATOM      8  C8  DEN d   1      -0.588  -0.075   0.570  0.00  0.00    -0.094 A 
ATOM      9  C9  DEN d   1       0.722  -0.081   0.121  0.00  0.00    -0.072 A 
ENDROOT
TORSDOF 0
ENDMDL
