MODEL 1
REMARK minimizedAffinity -1.59015882
REMARK minimizedRMSD -1
REMARK  0 active torsions:
REMARK  status: ('A' for Active; 'I' for Inactive)
ROOT
ATOM      1  C1  DEN d   1      -1.540   0.738  -0.004  0.00  0.00     0.130 A 
ATOM      2  C2  DEN d   1      -0.543   1.668  -0.527  0.00  0.00    -0.031 A 
ATOM      3  C3  DEN d   1       0.784   1.033  -0.399  0.00  0.00     0.027 A 
ATOM      4  C4  DEN d   1       1.389  -1.288   0.550  0.00  0.00     0.027 A 
ATOM      5  C5  DEN d   1       0.881  -2.432   1.124  0.00  0.00    -0.003 A 
ATOM      6  C6  DEN d   1      -0.453  -2.586   1.392  0.00  0.00     0.001 A 
ATOM      7  C7  DEN d   1      -1.333  -1.595   1.043  0.00  0.00     0.017 A 
ATOM      8  C8  DEN d   1      -0.829  -0.435   0.471  0.00  0.00    -0.094 A 
ATOM      9  C9  DEN d   1       0.522  -0.305   0.197  0.00  0.00    -0.072 A 
ENDROOT
TORSDOF 0
ENDMDL
