MODEL 1
REMARK minimizedAffinity -4.24966288
REMARK minimizedRMSD -1
REMARK  0 active torsions:
REMARK  status: ('A' for Active; 'I' for Inactive)
ROOT
ATOM      1  C1  DEN d   1      -0.350   0.979  -0.038  0.00  0.00     0.130 A 
ATOM      2  C2  DEN d   1       1.108   1.048  -0.003  0.00  0.00    -0.031 A 
ATOM      3  C3  DEN d   1       1.620  -0.288   0.361  0.00  0.00     0.027 A 
ATOM      4  C4  DEN d   1       0.303  -2.448   0.867  0.00  0.00     0.027 A 
ATOM      5  C5  DEN d   1      -0.957  -2.995   0.974  0.00  0.00    -0.003 A 
ATOM      6  C6  DEN d   1      -2.093  -2.255   0.787  0.00  0.00     0.001 A 
ATOM      7  C7  DEN d   1      -1.993  -0.934   0.437  0.00  0.00     0.017 A 
ATOM      8  C8  DEN d   1      -0.727  -0.373   0.334  0.00  0.00    -0.094 A 
ATOM      9  C9  DEN d   1       0.410  -1.141   0.516  0.00  0.00    -0.072 A 
ENDROOT
TORSDOF 0
ENDMDL
