MODEL 1
REMARK minimizedAffinity -4.86909628
REMARK minimizedRMSD -1
REMARK  0 active torsions:
REMARK  status: ('A' for Active; 'I' for Inactive)
ROOT
ATOM      1  C1  DEN d   1      -1.773  -1.372   0.961  0.00  0.00     0.130 A 
ATOM      2  C2  DEN d   1      -0.644  -2.250   0.667  0.00  0.00    -0.031 A 
ATOM      3  C3  DEN d   1       0.463  -1.415   0.159  0.00  0.00     0.027 A 
ATOM      4  C4  DEN d   1       0.540   1.139  -0.193  0.00  0.00     0.027 A 
ATOM      5  C5  DEN d   1      -0.183   2.308  -0.096  0.00  0.00    -0.003 A 
ATOM      6  C6  DEN d   1      -1.486   2.328   0.326  0.00  0.00     0.001 A 
ATOM      7  C7  DEN d   1      -2.093   1.161   0.708  0.00  0.00     0.017 A 
ATOM      8  C8  DEN d   1      -1.374  -0.022   0.605  0.00  0.00    -0.094 A 
ATOM      9  C9  DEN d   1      -0.054  -0.020   0.189  0.00  0.00    -0.072 A 
ENDROOT
TORSDOF 0
ENDMDL
