MODEL 1
REMARK minimizedAffinity -4.01114082
REMARK minimizedRMSD -1
REMARK  0 active torsions:
REMARK  status: ('A' for Active; 'I' for Inactive)
ROOT
ATOM      1  C1  DEN d   1      -1.812  -1.773   0.715  0.00  0.00     0.130 A 
ATOM      2  C2  DEN d   1      -0.989  -2.915   1.105  0.00  0.00    -0.031 A 
ATOM      3  C3  DEN d   1       0.424  -2.487   1.087  0.00  0.00     0.027 A 
ATOM      4  C4  DEN d   1       1.413  -0.178   0.502  0.00  0.00     0.027 A 
ATOM      5  C5  DEN d   1       1.109   1.104   0.099  0.00  0.00    -0.003 A 
ATOM      6  C6  DEN d   1      -0.176   1.504  -0.158  0.00  0.00     0.001 A 
ATOM      7  C7  DEN d   1      -1.210   0.625   0.030  0.00  0.00     0.017 A 
ATOM      8  C8  DEN d   1      -0.911  -0.671   0.429  0.00  0.00    -0.094 A 
ATOM      9  C9  DEN d   1       0.393  -1.052   0.695  0.00  0.00    -0.072 A 
ENDROOT
TORSDOF 0
ENDMDL
