MODEL 1
REMARK minimizedAffinity -2.66370225
REMARK minimizedRMSD -1
REMARK  0 active torsions:
REMARK  status: ('A' for Active; 'I' for Inactive)
ROOT
ATOM      1  C1  DEN d   1      -1.280   0.805  -0.146  0.00  0.00     0.130 A 
ATOM      2  C2  DEN d   1      -0.128   1.572  -0.612  0.00  0.00    -0.031 A 
ATOM      3  C3  DEN d   1       1.095   0.856  -0.197  0.00  0.00     0.027 A 
ATOM      4  C4  DEN d   1       1.316  -1.355   1.112  0.00  0.00     0.027 A 
ATOM      5  C5  DEN d   1       0.616  -2.367   1.733  0.00  0.00    -0.003 A 
ATOM      6  C6  DEN d   1      -0.752  -2.374   1.800  0.00  0.00     0.001 A 
ATOM      7  C7  DEN d   1      -1.466  -1.373   1.197  0.00  0.00     0.017 A 
ATOM      8  C8  DEN d   1      -0.768  -0.346   0.576  0.00  0.00    -0.094 A 
ATOM      9  C9  DEN d   1       0.615  -0.363   0.508  0.00  0.00    -0.072 A 
ENDROOT
TORSDOF 0
ENDMDL
