MODEL 1
REMARK minimizedAffinity -1.456007
REMARK minimizedRMSD -1
REMARK  0 active torsions:
REMARK  status: ('A' for Active; 'I' for Inactive)
ROOT
ATOM      1  C1  DEN d   1      -0.679   1.302   0.356  0.00  0.00     0.130 A 
ATOM      2  C2  DEN d   1       0.353   1.758  -0.571  0.00  0.00    -0.031 A 
ATOM      3  C3  DEN d   1       1.203   0.600  -0.913  0.00  0.00     0.027 A 
ATOM      4  C4  DEN d   1       1.019  -1.843  -0.105  0.00  0.00     0.027 A 
ATOM      5  C5  DEN d   1       0.311  -2.710   0.697  0.00  0.00    -0.003 A 
ATOM      6  C6  DEN d   1      -0.747  -2.297   1.462  0.00  0.00     0.001 A 
ATOM      7  C7  DEN d   1      -1.156  -0.990   1.406  0.00  0.00     0.017 A 
ATOM      8  C8  DEN d   1      -0.442  -0.109   0.605  0.00  0.00    -0.094 A 
ATOM      9  C9  DEN d   1       0.617  -0.549  -0.170  0.00  0.00    -0.072 A 
ENDROOT
TORSDOF 0
ENDMDL
