MODEL 1
REMARK minimizedAffinity -2.29902792
REMARK minimizedRMSD -1
REMARK  0 active torsions:
REMARK  status: ('A' for Active; 'I' for Inactive)
ROOT
ATOM      1  C1  DEN d   1      -0.760   0.212  -0.925  0.00  0.00     0.130 A 
ATOM      2  C2  DEN d   1      -0.036   0.180   0.342  0.00  0.00    -0.031 A 
ATOM      3  C3  DEN d   1       1.211   0.954   0.176  0.00  0.00     0.027 A 
ATOM      4  C4  DEN d   1       2.082   2.199  -1.908  0.00  0.00     0.027 A 
ATOM      5  C5  DEN d   1       1.820   2.501  -3.226  0.00  0.00    -0.003 A 
ATOM      6  C6  DEN d   1       0.705   2.038  -3.874  0.00  0.00     0.001 A 
ATOM      7  C7  DEN d   1      -0.212   1.283  -3.192  0.00  0.00     0.017 A 
ATOM      8  C8  DEN d   1       0.049   0.967  -1.865  0.00  0.00    -0.094 A 
ATOM      9  C9  DEN d   1       1.175   1.456  -1.224  0.00  0.00    -0.072 A 
ENDROOT
TORSDOF 0
ENDMDL
