MODEL 1
REMARK minimizedAffinity -3.13914084
REMARK minimizedRMSD -1
REMARK  0 active torsions:
REMARK  status: ('A' for Active; 'I' for Inactive)
ROOT
ATOM      1  C1  DEN d   1      -1.101   0.722  -1.240  0.00  0.00     0.130 A 
ATOM      2  C2  DEN d   1       0.161   1.274  -1.724  0.00  0.00    -0.031 A 
ATOM      3  C3  DEN d   1       1.261   0.491  -1.126  0.00  0.00     0.027 A 
ATOM      4  C4  DEN d   1       1.133  -1.517   0.488  0.00  0.00     0.027 A 
ATOM      5  C5  DEN d   1       0.280  -2.340   1.191  0.00  0.00    -0.003 A 
ATOM      6  C6  DEN d   1      -1.080  -2.180   1.159  0.00  0.00     0.001 A 
ATOM      7  C7  DEN d   1      -1.630  -1.202   0.374  0.00  0.00     0.017 A 
ATOM      8  C8  DEN d   1      -0.777  -0.363  -0.331  0.00  0.00    -0.094 A 
ATOM      9  C9  DEN d   1       0.595  -0.549  -0.296  0.00  0.00    -0.072 A 
ENDROOT
TORSDOF 0
ENDMDL
