MODEL 1
REMARK minimizedAffinity -5.62351084
REMARK minimizedRMSD -1
REMARK  0 active torsions:
REMARK  status: ('A' for Active; 'I' for Inactive)
ROOT
ATOM      1  C1  DEN d   1      -0.986  -2.328   1.168  0.00  0.00     0.130 A 
ATOM      2  C2  DEN d   1       0.289  -2.324   0.457  0.00  0.00    -0.031 A 
ATOM      3  C3  DEN d   1       0.643  -0.921   0.162  0.00  0.00     0.027 A 
ATOM      4  C4  DEN d   1      -0.653   1.234   0.738  0.00  0.00     0.027 A 
ATOM      5  C5  DEN d   1      -1.793   1.735   1.326  0.00  0.00    -0.003 A 
ATOM      6  C6  DEN d   1      -2.753   0.922   1.868  0.00  0.00     0.001 A 
ATOM      7  C7  DEN d   1      -2.568  -0.436   1.873  0.00  0.00     0.017 A 
ATOM      8  C8  DEN d   1      -1.425  -0.949   1.276  0.00  0.00    -0.094 A 
ATOM      9  C9  DEN d   1      -0.460  -0.109   0.744  0.00  0.00    -0.072 A 
ENDROOT
TORSDOF 0
ENDMDL
