MODEL 1
REMARK minimizedAffinity -3.50534534
REMARK minimizedRMSD -1
REMARK  0 active torsions:
REMARK  status: ('A' for Active; 'I' for Inactive)
ROOT
ATOM      1  C1  DEN d   1       1.154  -0.552   0.885  0.00  0.00     0.130 A 
ATOM      2  C2  DEN d   1       1.201   0.495  -0.132  0.00  0.00    -0.031 A 
ATOM      3  C3  DEN d   1      -0.094   0.500  -0.842  0.00  0.00     0.027 A 
ATOM      4  C4  DEN d   1      -2.158  -1.000  -0.465  0.00  0.00     0.027 A 
ATOM      5  C5  DEN d   1      -2.667  -2.041   0.279  0.00  0.00    -0.003 A 
ATOM      6  C6  DEN d   1      -1.934  -2.676   1.245  0.00  0.00     0.001 A 
ATOM      7  C7  DEN d   1      -0.664  -2.246   1.526  0.00  0.00     0.017 A 
ATOM      8  C8  DEN d   1      -0.140  -1.201   0.775  0.00  0.00    -0.094 A 
ATOM      9  C9  DEN d   1      -0.902  -0.564  -0.189  0.00  0.00    -0.072 A 
ENDROOT
TORSDOF 0
ENDMDL
