MODEL 1
REMARK minimizedAffinity -4.02182007
REMARK minimizedRMSD -1
REMARK  0 active torsions:
REMARK  status: ('A' for Active; 'I' for Inactive)
ROOT
ATOM      1  C1  DEN d   1      -2.322  -1.141   0.812  0.00  0.00     0.130 A 
ATOM      2  C2  DEN d   1      -1.870  -2.527   0.736  0.00  0.00    -0.031 A 
ATOM      3  C3  DEN d   1      -0.405  -2.521   0.554  0.00  0.00     0.027 A 
ATOM      4  C4  DEN d   1       1.201  -0.509   0.388  0.00  0.00     0.027 A 
ATOM      5  C5  DEN d   1       1.281   0.867   0.387  0.00  0.00    -0.003 A 
ATOM      6  C6  DEN d   1       0.171   1.663   0.493  0.00  0.00     0.001 A 
ATOM      7  C7  DEN d   1      -1.063   1.089   0.649  0.00  0.00     0.017 A 
ATOM      8  C8  DEN d   1      -1.153  -0.297   0.644  0.00  0.00    -0.094 A 
ATOM      9  C9  DEN d   1      -0.018  -1.084   0.548  0.00  0.00    -0.072 A 
ENDROOT
TORSDOF 0
ENDMDL
