MODEL 1
REMARK minimizedAffinity 1.63689673
REMARK minimizedRMSD -1
REMARK  0 active torsions:
REMARK  status: ('A' for Active; 'I' for Inactive)
ROOT
ATOM      1  C   UNL d   1       0.049  -0.210   3.734  0.00  0.00    -0.002 A 
ATOM      2  C1  UNL d   1       1.319  -0.450   3.230  0.00  0.00     0.010 A 
ATOM      3  C2  UNL d   1       1.547  -0.450   1.852  0.00  0.00     0.041 A 
ATOM      4  C3  UNL d   1       0.468  -0.201   0.982  0.00  0.00    -0.075 A 
ATOM      5  S   UNL d   1       0.511  -0.151  -0.741  0.00  0.00     0.015 SA
ATOM      6  C4  UNL d   1      -1.155   0.192  -0.847  0.00  0.00     0.022 A 
ATOM      7  C5  UNL d   1      -1.746   0.269   0.392  0.00  0.00     0.026 A 
ATOM      8  C6  UNL d   1      -0.820   0.045   1.467  0.00  0.00    -0.082 A 
ATOM      9  C7  UNL d   1      -1.020   0.037   2.868  0.00  0.00     0.045 A 
ENDROOT
TORSDOF 0
ENDMDL
