MODEL 1
REMARK minimizedAffinity -1.87097478
REMARK minimizedRMSD -1
REMARK  0 active torsions:
REMARK  status: ('A' for Active; 'I' for Inactive)
ROOT
ATOM      1  C   UNL d   1      -2.235   0.619   1.143  0.00  0.00    -0.002 A 
ATOM      2  C1  UNL d   1      -1.768   0.252  -0.111  0.00  0.00     0.010 A 
ATOM      3  C2  UNL d   1      -0.501  -0.317  -0.258  0.00  0.00     0.041 A 
ATOM      4  C3  UNL d   1       0.295  -0.514   0.887  0.00  0.00    -0.075 A 
ATOM      5  S   UNL d   1       1.878  -1.195   0.948  0.00  0.00     0.015 SA
ATOM      6  C4  UNL d   1       1.970  -1.015   2.641  0.00  0.00     0.022 A 
ATOM      7  C5  UNL d   1       0.831  -0.451   3.163  0.00  0.00     0.026 A 
ATOM      8  C6  UNL d   1      -0.154  -0.154   2.161  0.00  0.00    -0.082 A 
ATOM      9  C7  UNL d   1      -1.443   0.422   2.277  0.00  0.00     0.045 A 
ENDROOT
TORSDOF 0
ENDMDL
