MODEL 1
REMARK minimizedAffinity -2.18760228
REMARK minimizedRMSD -1
REMARK  0 active torsions:
REMARK  status: ('A' for Active; 'I' for Inactive)
ROOT
ATOM      1  C   UNL d   1      -0.483   0.590   3.584  0.00  0.00    -0.002 A 
ATOM      2  C1  UNL d   1       0.799   0.113   3.347  0.00  0.00     0.010 A 
ATOM      3  C2  UNL d   1       1.162  -0.351   2.081  0.00  0.00     0.041 A 
ATOM      4  C3  UNL d   1       0.207  -0.324   1.046  0.00  0.00    -0.075 A 
ATOM      5  S   UNL d   1       0.426  -0.840  -0.585  0.00  0.00     0.015 SA
ATOM      6  C4  UNL d   1      -1.176  -0.438  -1.006  0.00  0.00     0.022 A 
ATOM      7  C5  UNL d   1      -1.875   0.078   0.059  0.00  0.00     0.026 A 
ATOM      8  C6  UNL d   1      -1.090   0.153   1.259  0.00  0.00    -0.082 A 
ATOM      9  C7  UNL d   1      -1.428   0.614   2.554  0.00  0.00     0.045 A 
ENDROOT
TORSDOF 0
ENDMDL
