MODEL 1
REMARK minimizedAffinity 6.04731894
REMARK minimizedRMSD -1
REMARK  0 active torsions:
REMARK  status: ('A' for Active; 'I' for Inactive)
ROOT
ATOM      1  C   UNL d   1      -0.038  -0.126  -1.521  0.00  0.00    -0.002 A 
ATOM      2  C1  UNL d   1      -1.163  -0.938  -1.534  0.00  0.00     0.010 A 
ATOM      3  C2  UNL d   1      -1.930  -1.108  -0.380  0.00  0.00     0.041 A 
ATOM      4  C3  UNL d   1      -1.545  -0.440   0.799  0.00  0.00    -0.075 A 
ATOM      5  S   UNL d   1      -2.332  -0.499   2.331  0.00  0.00     0.015 SA
ATOM      6  C4  UNL d   1      -1.195   0.553   3.040  0.00  0.00     0.022 A 
ATOM      7  C5  UNL d   1      -0.230   0.949   2.144  0.00  0.00     0.026 A 
ATOM      8  C6  UNL d   1      -0.416   0.383   0.837  0.00  0.00    -0.082 A 
ATOM      9  C7  UNL d   1       0.341   0.535  -0.349  0.00  0.00     0.045 A 
ENDROOT
TORSDOF 0
ENDMDL
