MODEL 1
REMARK minimizedAffinity 2.21002293
REMARK minimizedRMSD -1
REMARK  0 active torsions:
REMARK  status: ('A' for Active; 'I' for Inactive)
ROOT
ATOM      1  C   UNL d   1      -2.819   0.624   0.453  0.00  0.00    -0.002 A 
ATOM      2  C1  UNL d   1      -2.011   0.327  -0.635  0.00  0.00     0.010 A 
ATOM      3  C2  UNL d   1      -0.713  -0.152  -0.445  0.00  0.00     0.041 A 
ATOM      4  C3  UNL d   1      -0.237  -0.330   0.869  0.00  0.00    -0.075 A 
ATOM      5  S   UNL d   1       1.318  -0.904   1.342  0.00  0.00     0.015 SA
ATOM      6  C4  UNL d   1       0.945  -0.770   3.000  0.00  0.00     0.022 A 
ATOM      7  C5  UNL d   1      -0.330  -0.300   3.205  0.00  0.00     0.026 A 
ATOM      8  C6  UNL d   1      -1.033  -0.039   1.980  0.00  0.00    -0.082 A 
ATOM      9  C7  UNL d   1      -2.344   0.446   1.755  0.00  0.00     0.045 A 
ENDROOT
TORSDOF 0
ENDMDL
