MODEL 1
REMARK minimizedAffinity -1.27205837
REMARK minimizedRMSD -1
REMARK  0 active torsions:
REMARK  status: ('A' for Active; 'I' for Inactive)
ROOT
ATOM      1  C   UNL d   1       1.292   2.205   1.025  0.00  0.00     0.124 A 
ATOM      2  C1  UNL d   1       0.126   1.849   1.687  0.00  0.00     0.062 A 
ATOM      3  C2  UNL d   1      -0.695   0.850   1.171  0.00  0.00     0.162 A 
ATOM      4  C3  UNL d   1      -0.352   0.200  -0.015  0.00  0.00    -0.034 A 
ATOM      5  C4  UNL d   1       0.822   0.565  -0.676  0.00  0.00     0.162 A 
ATOM      6  C5  UNL d   1       1.639   1.564  -0.155  0.00  0.00     0.062 A 
ATOM      7  F   UNL d   1       2.766   1.907  -0.797  0.00  0.00    -0.097 F 
ATOM      8  F1  UNL d   1       1.182  -0.039  -1.818  0.00  0.00    -0.096 F 
ATOM      9  I   UNL d   1      -1.577  -1.293  -0.790  0.00  0.00    -0.060 I 
ATOM     10  F2  UNL d   1      -1.816   0.526   1.832  0.00  0.00    -0.096 F 
ATOM     11  F3  UNL d   1      -0.212   2.468   2.827  0.00  0.00    -0.097 F 
ATOM     12  F4  UNL d   1       2.080   3.167   1.524  0.00  0.00    -0.092 F 
ENDROOT
TORSDOF 0
ENDMDL
