MODEL 1
REMARK minimizedAffinity 0.366374254
REMARK minimizedRMSD -1
REMARK  0 active torsions:
REMARK  status: ('A' for Active; 'I' for Inactive)
ROOT
ATOM      1  C   UNL d   1       1.134   1.817   1.125  0.00  0.00     0.124 A 
ATOM      2  C1  UNL d   1       1.592   1.086   0.038  0.00  0.00     0.062 A 
ATOM      3  C2  UNL d   1       0.878  -0.020  -0.413  0.00  0.00     0.162 A 
ATOM      4  C3  UNL d   1      -0.304  -0.402   0.223  0.00  0.00    -0.034 A 
ATOM      5  C4  UNL d   1      -0.757   0.337   1.317  0.00  0.00     0.162 A 
ATOM      6  C5  UNL d   1      -0.039   1.442   1.764  0.00  0.00     0.062 A 
ATOM      7  F   UNL d   1      -0.483   2.146   2.815  0.00  0.00    -0.097 F 
ATOM      8  F1  UNL d   1      -1.889  -0.002   1.952  0.00  0.00    -0.096 F 
ATOM      9  I   UNL d   1      -1.375  -2.055  -0.449  0.00  0.00    -0.060 I 
ATOM     10  F2  UNL d   1       1.343  -0.707  -1.467  0.00  0.00    -0.096 F 
ATOM     11  F3  UNL d   1       2.726   1.446  -0.580  0.00  0.00    -0.097 F 
ATOM     12  F4  UNL d   1       1.824   2.880   1.558  0.00  0.00    -0.092 F 
ENDROOT
TORSDOF 0
ENDMDL
