MODEL 1
REMARK minimizedAffinity -1.01083994
REMARK minimizedRMSD -1
REMARK  0 active torsions:
REMARK  status: ('A' for Active; 'I' for Inactive)
ROOT
ATOM      1  C   UNL d   1       1.209   2.274   0.495  0.00  0.00     0.124 A 
ATOM      2  C1  UNL d   1       0.181   1.858   1.329  0.00  0.00     0.062 A 
ATOM      3  C2  UNL d   1      -0.457   0.642   1.102  0.00  0.00     0.162 A 
ATOM      4  C3  UNL d   1      -0.067  -0.168   0.035  0.00  0.00    -0.034 A 
ATOM      5  C4  UNL d   1       0.968   0.257  -0.800  0.00  0.00     0.162 A 
ATOM      6  C5  UNL d   1       1.602   1.473  -0.568  0.00  0.00     0.062 A 
ATOM      7  F   UNL d   1       2.595   1.873  -1.375  0.00  0.00    -0.097 F 
ATOM      8  F1  UNL d   1       1.368  -0.497  -1.834  0.00  0.00    -0.096 F 
ATOM      9  I   UNL d   1      -1.017  -1.988  -0.308  0.00  0.00    -0.060 I 
ATOM     10  F2  UNL d   1      -1.447   0.265   1.924  0.00  0.00    -0.096 F 
ATOM     11  F3  UNL d   1      -0.201   2.630   2.357  0.00  0.00    -0.097 F 
ATOM     12  F4  UNL d   1       1.820   3.445   0.716  0.00  0.00    -0.092 F 
ENDROOT
TORSDOF 0
ENDMDL
