MODEL 1
REMARK minimizedAffinity -2.76677537
REMARK minimizedRMSD -1
REMARK  0 active torsions:
REMARK  status: ('A' for Active; 'I' for Inactive)
ROOT
ATOM      1  C   UNL d   1       1.310   1.362   0.362  0.00  0.00     0.124 A 
ATOM      2  C1  UNL d   1      -0.004   1.787   0.224  0.00  0.00     0.062 A 
ATOM      3  C2  UNL d   1      -0.973   0.916  -0.266  0.00  0.00     0.162 A 
ATOM      4  C3  UNL d   1      -0.632  -0.389  -0.621  0.00  0.00    -0.034 A 
ATOM      5  C4  UNL d   1       0.692  -0.809  -0.480  0.00  0.00     0.162 A 
ATOM      6  C5  UNL d   1       1.657   0.065   0.010  0.00  0.00     0.062 A 
ATOM      7  F   UNL d   1       2.926  -0.347   0.142  0.00  0.00    -0.097 F 
ATOM      8  F1  UNL d   1       1.054  -2.057  -0.812  0.00  0.00    -0.096 F 
ATOM      9  I   UNL d   1      -2.079  -1.693  -1.354  0.00  0.00    -0.060 I 
ATOM     10  F2  UNL d   1      -2.235   1.354  -0.389  0.00  0.00    -0.096 F 
ATOM     11  F3  UNL d   1      -0.341   3.039   0.563  0.00  0.00    -0.097 F 
ATOM     12  F4  UNL d   1       2.241   2.202   0.833  0.00  0.00    -0.092 F 
ENDROOT
TORSDOF 0
ENDMDL
