MODEL 1
REMARK minimizedAffinity -1.32979178
REMARK minimizedRMSD -1
REMARK  0 active torsions:
REMARK  status: ('A' for Active; 'I' for Inactive)
ROOT
ATOM      1  C   UNL d   1      -0.737   1.378   1.800  0.00  0.00     0.124 A 
ATOM      2  C1  UNL d   1       0.117   2.128   1.004  0.00  0.00     0.062 A 
ATOM      3  C2  UNL d   1       1.049   1.495   0.187  0.00  0.00     0.162 A 
ATOM      4  C3  UNL d   1       1.131   0.102   0.160  0.00  0.00    -0.034 A 
ATOM      5  C4  UNL d   1       0.268  -0.645   0.964  0.00  0.00     0.162 A 
ATOM      6  C5  UNL d   1      -0.661  -0.007   1.779  0.00  0.00     0.062 A 
ATOM      7  F   UNL d   1      -1.486  -0.733   2.547  0.00  0.00    -0.097 F 
ATOM      8  F1  UNL d   1       0.319  -1.985   0.963  0.00  0.00    -0.096 F 
ATOM      9  I   UNL d   1       2.522  -0.849  -1.060  0.00  0.00    -0.060 I 
ATOM     10  F2  UNL d   1       1.863   2.245  -0.572  0.00  0.00    -0.096 F 
ATOM     11  F3  UNL d   1       0.047   3.467   1.022  0.00  0.00    -0.097 F 
ATOM     12  F4  UNL d   1      -1.632   1.991   2.586  0.00  0.00    -0.092 F 
ENDROOT
TORSDOF 0
ENDMDL
