MODEL 1
REMARK minimizedAffinity -0.339272439
REMARK minimizedRMSD -1
REMARK  0 active torsions:
REMARK  status: ('A' for Active; 'I' for Inactive)
ROOT
ATOM      1  C   UNL d   1       1.283   1.070   0.862  0.00  0.00     0.124 A 
ATOM      2  C1  UNL d   1       1.603   0.370  -0.293  0.00  0.00     0.062 A 
ATOM      3  C2  UNL d   1       0.774  -0.653  -0.745  0.00  0.00     0.162 A 
ATOM      4  C3  UNL d   1      -0.385  -0.981  -0.041  0.00  0.00    -0.034 A 
ATOM      5  C4  UNL d   1      -0.700  -0.273   1.120  0.00  0.00     0.162 A 
ATOM      6  C5  UNL d   1       0.132   0.748   1.567  0.00  0.00     0.062 A 
ATOM      7  F   UNL d   1      -0.178   1.423   2.683  0.00  0.00    -0.097 F 
ATOM      8  F1  UNL d   1      -1.806  -0.563   1.821  0.00  0.00    -0.096 F 
ATOM      9  I   UNL d   1      -1.628  -2.509  -0.713  0.00  0.00    -0.060 I 
ATOM     10  F2  UNL d   1       1.108  -1.312  -1.864  0.00  0.00    -0.096 F 
ATOM     11  F3  UNL d   1       2.715   0.678  -0.976  0.00  0.00    -0.097 F 
ATOM     12  F4  UNL d   1       2.084   2.053   1.294  0.00  0.00    -0.092 F 
ENDROOT
TORSDOF 0
ENDMDL
