MODEL 1
REMARK minimizedAffinity -0.280065447
REMARK minimizedRMSD -1
REMARK  0 active torsions:
REMARK  status: ('A' for Active; 'I' for Inactive)
ROOT
ATOM      1  C   UNL d   1       0.138   1.007   1.240  0.00  0.00     0.124 A 
ATOM      2  C1  UNL d   1       0.978   1.287   0.171  0.00  0.00     0.062 A 
ATOM      3  C2  UNL d   1       0.861   0.572  -1.017  0.00  0.00     0.162 A 
ATOM      4  C3  UNL d   1      -0.100  -0.431  -1.143  0.00  0.00    -0.034 A 
ATOM      5  C4  UNL d   1      -0.940  -0.708  -0.063  0.00  0.00     0.162 A 
ATOM      6  C5  UNL d   1      -0.820   0.010   1.122  0.00  0.00     0.062 A 
ATOM      7  F   UNL d   1      -1.631  -0.263   2.154  0.00  0.00    -0.097 F 
ATOM      8  F1  UNL d   1      -1.876  -1.666  -0.150  0.00  0.00    -0.096 F 
ATOM      9  I   UNL d   1      -0.278  -1.503  -2.918  0.00  0.00    -0.060 I 
ATOM     10  F2  UNL d   1       1.685   0.864  -2.034  0.00  0.00    -0.096 F 
ATOM     11  F3  UNL d   1       1.905   2.250   0.283  0.00  0.00    -0.097 F 
ATOM     12  F4  UNL d   1       0.254   1.696   2.383  0.00  0.00    -0.092 F 
ENDROOT
TORSDOF 0
ENDMDL
