MODEL 1
REMARK minimizedAffinity -1.27941847
REMARK minimizedRMSD -1
REMARK  0 active torsions:
REMARK  status: ('A' for Active; 'I' for Inactive)
ROOT
ATOM      1  C   UNL d   1       1.136   1.090   0.859  0.00  0.00     0.124 A 
ATOM      2  C1  UNL d   1       1.647   0.179  -0.055  0.00  0.00     0.062 A 
ATOM      3  C2  UNL d   1       0.789  -0.653  -0.768  0.00  0.00     0.162 A 
ATOM      4  C3  UNL d   1      -0.590  -0.578  -0.571  0.00  0.00    -0.034 A 
ATOM      5  C4  UNL d   1      -1.096   0.340   0.351  0.00  0.00     0.162 A 
ATOM      6  C5  UNL d   1      -0.234   1.170   1.061  0.00  0.00     0.062 A 
ATOM      7  F   UNL d   1      -0.730   2.049   1.944  0.00  0.00    -0.097 F 
ATOM      8  F1  UNL d   1      -2.417   0.440   0.565  0.00  0.00    -0.096 F 
ATOM      9  I   UNL d   1      -1.877  -1.820  -1.635  0.00  0.00    -0.060 I 
ATOM     10  F2  UNL d   1       1.310  -1.524  -1.645  0.00  0.00    -0.096 F 
ATOM     11  F3  UNL d   1       2.971   0.099  -0.252  0.00  0.00    -0.097 F 
ATOM     12  F4  UNL d   1       1.964   1.888   1.544  0.00  0.00    -0.092 F 
ENDROOT
TORSDOF 0
ENDMDL
