MODEL 1
REMARK minimizedAffinity -0.213289842
REMARK minimizedRMSD -1
REMARK  0 active torsions:
REMARK  status: ('A' for Active; 'I' for Inactive)
ROOT
ATOM      1  C   UNL d   1       0.438  -1.463  -0.376  0.00  0.00     0.124 A 
ATOM      2  C1  UNL d   1       1.626  -0.780  -0.593  0.00  0.00     0.062 A 
ATOM      3  C2  UNL d   1       1.782   0.522  -0.126  0.00  0.00     0.162 A 
ATOM      4  C3  UNL d   1       0.745   1.150   0.565  0.00  0.00    -0.034 A 
ATOM      5  C4  UNL d   1      -0.448   0.457   0.779  0.00  0.00     0.162 A 
ATOM      6  C5  UNL d   1      -0.598  -0.844   0.310  0.00  0.00     0.062 A 
ATOM      7  F   UNL d   1      -1.747  -1.502   0.521  0.00  0.00    -0.097 F 
ATOM      8  F1  UNL d   1      -1.465   1.031   1.439  0.00  0.00    -0.096 F 
ATOM      9  I   UNL d   1       0.974   3.096   1.265  0.00  0.00    -0.060 I 
ATOM     10  F2  UNL d   1       2.941   1.157  -0.350  0.00  0.00    -0.096 F 
ATOM     11  F3  UNL d   1       2.628  -1.376  -1.256  0.00  0.00    -0.097 F 
ATOM     12  F4  UNL d   1       0.290  -2.715  -0.827  0.00  0.00    -0.092 F 
ENDROOT
TORSDOF 0
ENDMDL
