MODEL 1
REMARK minimizedAffinity -3.48342848
REMARK minimizedRMSD -1
REMARK  0 active torsions:
REMARK  status: ('A' for Active; 'I' for Inactive)
ROOT
ATOM      1  C   UNL d   1       1.168   1.656   0.858  0.00  0.00     0.124 A 
ATOM      2  C1  UNL d   1      -0.030   1.381   1.502  0.00  0.00     0.062 A 
ATOM      3  C2  UNL d   1      -0.905   0.434   0.978  0.00  0.00     0.162 A 
ATOM      4  C3  UNL d   1      -0.585  -0.247  -0.197  0.00  0.00    -0.034 A 
ATOM      5  C4  UNL d   1       0.622   0.035  -0.839  0.00  0.00     0.162 A 
ATOM      6  C5  UNL d   1       1.493   0.983  -0.312  0.00  0.00     0.062 A 
ATOM      7  F   UNL d   1       2.651   1.247  -0.935  0.00  0.00    -0.097 F 
ATOM      8  F1  UNL d   1       0.962  -0.601  -1.970  0.00  0.00    -0.096 F 
ATOM      9  I   UNL d   1      -1.890  -1.664  -0.983  0.00  0.00    -0.060 I 
ATOM     10  F2  UNL d   1      -2.056   0.188   1.621  0.00  0.00    -0.096 F 
ATOM     11  F3  UNL d   1      -0.347   2.030   2.631  0.00  0.00    -0.097 F 
ATOM     12  F4  UNL d   1       2.008   2.568   1.363  0.00  0.00    -0.092 F 
ENDROOT
TORSDOF 0
ENDMDL
