MODEL 1
REMARK minimizedAffinity 1.35827196
REMARK minimizedRMSD -1
REMARK  0 active torsions:
REMARK  status: ('A' for Active; 'I' for Inactive)
ROOT
ATOM      1  C   UNL d   1      -1.663  -1.571  -2.529  0.00  0.00     0.124 A 
ATOM      2  C1  UNL d   1      -1.687  -1.700  -1.147  0.00  0.00     0.062 A 
ATOM      3  C2  UNL d   1      -0.809  -0.962  -0.359  0.00  0.00     0.162 A 
ATOM      4  C3  UNL d   1       0.101  -0.086  -0.951  0.00  0.00    -0.034 A 
ATOM      5  C4  UNL d   1       0.120   0.038  -2.341  0.00  0.00     0.162 A 
ATOM      6  C5  UNL d   1      -0.760  -0.702  -3.124  0.00  0.00     0.062 A 
ATOM      7  F   UNL d   1      -0.735  -0.575  -4.459  0.00  0.00    -0.097 F 
ATOM      8  F1  UNL d   1       0.982   0.871  -2.943  0.00  0.00    -0.096 F 
ATOM      9  I   UNL d   1       1.416   1.019   0.224  0.00  0.00    -0.060 I 
ATOM     10  F2  UNL d   1      -0.855  -1.108   0.974  0.00  0.00    -0.096 F 
ATOM     11  F3  UNL d   1      -2.559  -2.540  -0.569  0.00  0.00    -0.097 F 
ATOM     12  F4  UNL d   1      -2.509  -2.283  -3.284  0.00  0.00    -0.092 F 
ENDROOT
TORSDOF 0
ENDMDL
