MODEL 1
REMARK minimizedAffinity 0.706868649
REMARK minimizedRMSD -1
REMARK  0 active torsions:
REMARK  status: ('A' for Active; 'I' for Inactive)
ROOT
ATOM      1  C   UNL d   1       1.468   1.981   0.831  0.00  0.00     0.124 A 
ATOM      2  C1  UNL d   1       0.336   1.685   1.576  0.00  0.00     0.062 A 
ATOM      3  C2  UNL d   1      -0.434   0.568   1.265  0.00  0.00     0.162 A 
ATOM      4  C3  UNL d   1      -0.074  -0.262   0.203  0.00  0.00    -0.034 A 
ATOM      5  C4  UNL d   1       1.066   0.043  -0.542  0.00  0.00     0.162 A 
ATOM      6  C5  UNL d   1       1.832   1.161  -0.227  0.00  0.00     0.062 A 
ATOM      7  F   UNL d   1       2.926   1.446  -0.949  0.00  0.00    -0.097 F 
ATOM      8  F1  UNL d   1       1.442  -0.733  -1.570  0.00  0.00    -0.096 F 
ATOM      9  I   UNL d   1      -1.222  -1.934  -0.265  0.00  0.00    -0.060 I 
ATOM     10  F2  UNL d   1      -1.524   0.305   2.002  0.00  0.00    -0.096 F 
ATOM     11  F3  UNL d   1      -0.019   2.476   2.598  0.00  0.00    -0.097 F 
ATOM     12  F4  UNL d   1       2.206   3.057   1.132  0.00  0.00    -0.092 F 
ENDROOT
TORSDOF 0
ENDMDL
