MODEL 1
REMARK minimizedAffinity 2.20946646
REMARK minimizedRMSD -1
REMARK  1 active torsions:
REMARK  status: ('A' for Active; 'I' for Inactive)
REMARK    1  A    between atoms: C3_4  and  O_7 
ROOT
ATOM      1  C   UNL d   1       0.471   2.999  -0.933  0.00  0.00    -0.033 A 
ATOM      2  C1  UNL d   1       0.717   2.078  -1.952  0.00  0.00     0.039 A 
ATOM      3  C2  UNL d   1       1.238   0.819  -1.647  0.00  0.00    -0.080 A 
ATOM      4  C3  UNL d   1       1.507   0.494  -0.320  0.00  0.00     0.150 A 
ATOM      5  C4  UNL d   1       1.260   1.406   0.701  0.00  0.00    -0.007 A 
ATOM      6  C5  UNL d   1       0.741   2.663   0.394  0.00  0.00     0.039 A 
ENDROOT
BRANCH   4   7
ATOM      7  O   UNL d   1       2.020  -0.720   0.026  0.00  0.00    -0.526 OA
ATOM      8  H5  UNL d   1       2.166  -1.236  -0.785  0.00  0.00     0.418 HD
ENDBRANCH   4   7
TORSDOF 1
ENDMDL
