MODEL 1
REMARK minimizedAffinity -1.52830279
REMARK minimizedRMSD -1
REMARK  1 active torsions:
REMARK  status: ('A' for Active; 'I' for Inactive)
REMARK    1  A    between atoms: C3_4  and  O_7 
ROOT
ATOM      1  C   UNL d   1       1.510  -1.797   0.063  0.00  0.00    -0.033 A 
ATOM      2  C1  UNL d   1       0.903  -1.926  -1.188  0.00  0.00     0.039 A 
ATOM      3  C2  UNL d   1       0.499  -0.789  -1.890  0.00  0.00    -0.080 A 
ATOM      4  C3  UNL d   1       0.708   0.469  -1.331  0.00  0.00     0.150 A 
ATOM      5  C4  UNL d   1       1.315   0.605  -0.087  0.00  0.00    -0.007 A 
ATOM      6  C5  UNL d   1       1.717  -0.532   0.613  0.00  0.00     0.039 A 
ENDROOT
BRANCH   4   7
ATOM      7  O   UNL d   1       0.326   1.608  -1.976  0.00  0.00    -0.526 OA
ATOM      8  H5  UNL d   1      -0.106   1.359  -2.811  0.00  0.00     0.418 HD
ENDBRANCH   4   7
TORSDOF 1
ENDMDL
