MODEL 1
REMARK minimizedAffinity -0.119920351
REMARK minimizedRMSD -1
REMARK  1 active torsions:
REMARK  status: ('A' for Active; 'I' for Inactive)
REMARK    1  A    between atoms: C3_4  and  O_7 
ROOT
ATOM      1  C   UNL d   1      -3.442   2.100   3.607  0.00  0.00    -0.033 A 
ATOM      2  C1  UNL d   1      -2.728   3.190   3.106  0.00  0.00     0.039 A 
ATOM      3  C2  UNL d   1      -2.902   3.591   1.780  0.00  0.00    -0.080 A 
ATOM      4  C3  UNL d   1      -3.793   2.896   0.967  0.00  0.00     0.150 A 
ATOM      5  C4  UNL d   1      -4.511   1.811   1.461  0.00  0.00    -0.007 A 
ATOM      6  C5  UNL d   1      -4.335   1.411   2.785  0.00  0.00     0.039 A 
ENDROOT
BRANCH   4   7
ATOM      7  O   UNL d   1      -3.992   3.247  -0.335  0.00  0.00    -0.526 OA
ATOM      8  H5  UNL d   1      -3.408   3.995  -0.545  0.00  0.00     0.418 HD
ENDBRANCH   4   7
TORSDOF 1
ENDMDL
