MODEL 1
REMARK minimizedAffinity -3.91565228
REMARK minimizedRMSD -1
REMARK  1 active torsions:
REMARK  status: ('A' for Active; 'I' for Inactive)
REMARK    1  A    between atoms: C3_4  and  O_7 
ROOT
ATOM      1  C   UNL d   1       0.974   0.111   0.214  0.00  0.00    -0.033 A 
ATOM      2  C1  UNL d   1       0.945   0.011  -1.179  0.00  0.00     0.039 A 
ATOM      3  C2  UNL d   1       1.089   1.155  -1.966  0.00  0.00    -0.080 A 
ATOM      4  C3  UNL d   1       1.262   2.391  -1.349  0.00  0.00     0.150 A 
ATOM      5  C4  UNL d   1       1.296   2.498   0.037  0.00  0.00    -0.007 A 
ATOM      6  C5  UNL d   1       1.152   1.354   0.822  0.00  0.00     0.039 A 
ENDROOT
BRANCH   4   7
ATOM      7  O   UNL d   1       1.402   3.537  -2.075  0.00  0.00    -0.526 OA
ATOM      8  H5  UNL d   1       1.330   3.314  -3.018  0.00  0.00     0.418 HD
ENDBRANCH   4   7
TORSDOF 1
ENDMDL
