MODEL 1
REMARK minimizedAffinity 5.10124636
REMARK minimizedRMSD -1
REMARK  1 active torsions:
REMARK  status: ('A' for Active; 'I' for Inactive)
REMARK    1  A    between atoms: C3_4  and  O_7 
ROOT
ATOM      1  C   UNL d   1       1.776  -0.427  -1.132  0.00  0.00    -0.033 A 
ATOM      2  C1  UNL d   1       2.050   0.483  -0.108  0.00  0.00     0.039 A 
ATOM      3  C2  UNL d   1       1.826   1.847  -0.306  0.00  0.00    -0.080 A 
ATOM      4  C3  UNL d   1       1.328   2.287  -1.529  0.00  0.00     0.150 A 
ATOM      5  C4  UNL d   1       1.050   1.386  -2.552  0.00  0.00    -0.007 A 
ATOM      6  C5  UNL d   1       1.275   0.025  -2.353  0.00  0.00     0.039 A 
ENDROOT
BRANCH   4   7
ATOM      7  O   UNL d   1       1.098   3.609  -1.770  0.00  0.00    -0.526 OA
ATOM      8  H5  UNL d   1       1.363   4.116  -0.985  0.00  0.00     0.418 HD
ENDBRANCH   4   7
TORSDOF 1
ENDMDL
