MODEL 1
REMARK minimizedAffinity -4.03015041
REMARK minimizedRMSD -1
REMARK  1 active torsions:
REMARK  status: ('A' for Active; 'I' for Inactive)
REMARK    1  A    between atoms: C3_4  and  O_7 
ROOT
ATOM      1  C   UNL d   1       0.942   0.149  -0.058  0.00  0.00    -0.033 A 
ATOM      2  C1  UNL d   1       0.723   1.298   0.704  0.00  0.00     0.039 A 
ATOM      3  C2  UNL d   1       0.867   2.560   0.125  0.00  0.00    -0.080 A 
ATOM      4  C3  UNL d   1       1.229   2.659  -1.216  0.00  0.00     0.150 A 
ATOM      5  C4  UNL d   1       1.444   1.519  -1.982  0.00  0.00    -0.007 A 
ATOM      6  C5  UNL d   1       1.300   0.259  -1.402  0.00  0.00     0.039 A 
ENDROOT
BRANCH   4   7
ATOM      7  O   UNL d   1       1.386   3.870  -1.824  0.00  0.00    -0.526 OA
ATOM      8  H5  UNL d   1       1.233   4.567  -1.165  0.00  0.00     0.418 HD
ENDBRANCH   4   7
TORSDOF 1
ENDMDL
