MODEL 1
REMARK minimizedAffinity -2.08683991
REMARK minimizedRMSD -1
REMARK  1 active torsions:
REMARK  status: ('A' for Active; 'I' for Inactive)
REMARK    1  A    between atoms: C3_4  and  O_7 
ROOT
ATOM      1  C   UNL d   1       0.711   0.930  -1.549  0.00  0.00    -0.033 A 
ATOM      2  C1  UNL d   1       0.904  -0.205  -0.760  0.00  0.00     0.039 A 
ATOM      3  C2  UNL d   1       1.120  -0.074   0.614  0.00  0.00    -0.080 A 
ATOM      4  C3  UNL d   1       1.140   1.196   1.184  0.00  0.00     0.150 A 
ATOM      5  C4  UNL d   1       0.945   2.331   0.404  0.00  0.00    -0.007 A 
ATOM      6  C5  UNL d   1       0.730   2.198  -0.967  0.00  0.00     0.039 A 
ENDROOT
BRANCH   4   7
ATOM      7  O   UNL d   1       1.352   1.374   2.519  0.00  0.00    -0.526 OA
ATOM      8  H5  UNL d   1       1.500   0.504   2.926  0.00  0.00     0.418 HD
ENDBRANCH   4   7
TORSDOF 1
ENDMDL
