MODEL 1
REMARK minimizedAffinity -0.504257143
REMARK minimizedRMSD -1
REMARK  1 active torsions:
REMARK  status: ('A' for Active; 'I' for Inactive)
REMARK    1  A    between atoms: C3_4  and  O_7 
ROOT
ATOM      1  C   UNL d   1      -2.244   2.606   3.047  0.00  0.00    -0.033 A 
ATOM      2  C1  UNL d   1      -2.882   2.605   1.805  0.00  0.00     0.039 A 
ATOM      3  C2  UNL d   1      -4.148   2.031   1.668  0.00  0.00    -0.080 A 
ATOM      4  C3  UNL d   1      -4.764   1.464   2.780  0.00  0.00     0.150 A 
ATOM      5  C4  UNL d   1      -4.136   1.465   4.021  0.00  0.00    -0.007 A 
ATOM      6  C5  UNL d   1      -2.872   2.038   4.155  0.00  0.00     0.039 A 
ENDROOT
BRANCH   4   7
ATOM      7  O   UNL d   1      -5.997   0.888   2.695  0.00  0.00    -0.526 OA
ATOM      8  H5  UNL d   1      -6.295   0.935   1.771  0.00  0.00     0.418 HD
ENDBRANCH   4   7
TORSDOF 1
ENDMDL
