MODEL 1
REMARK minimizedAffinity 0.836601794
REMARK minimizedRMSD -1
REMARK  1 active torsions:
REMARK  status: ('A' for Active; 'I' for Inactive)
REMARK    1  A    between atoms: C3_4  and  O_7 
ROOT
ATOM      1  C   UNL d   1       0.975  -0.145   0.552  0.00  0.00    -0.033 A 
ATOM      2  C1  UNL d   1       1.162   1.118   1.118  0.00  0.00     0.039 A 
ATOM      3  C2  UNL d   1       1.266   2.243   0.298  0.00  0.00    -0.080 A 
ATOM      4  C3  UNL d   1       1.180   2.093  -1.083  0.00  0.00     0.150 A 
ATOM      5  C4  UNL d   1       0.990   0.838  -1.653  0.00  0.00    -0.007 A 
ATOM      6  C5  UNL d   1       0.888  -0.285  -0.833  0.00  0.00     0.039 A 
ENDROOT
BRANCH   4   7
ATOM      7  O   UNL d   1       1.281   3.161  -1.924  0.00  0.00    -0.526 OA
ATOM      8  H5  UNL d   1       1.439   3.958  -1.391  0.00  0.00     0.418 HD
ENDBRANCH   4   7
TORSDOF 1
ENDMDL
