MODEL 1
REMARK minimizedAffinity 2.75314546
REMARK minimizedRMSD -1
REMARK  1 active torsions:
REMARK  status: ('A' for Active; 'I' for Inactive)
REMARK    1  A    between atoms: C3_4  and  O_7 
ROOT
ATOM      1  C   UNL d   1      -2.458   2.702   3.284  0.00  0.00    -0.033 A 
ATOM      2  C1  UNL d   1      -3.115   2.593   2.057  0.00  0.00     0.039 A 
ATOM      3  C2  UNL d   1      -4.303   1.866   1.962  0.00  0.00    -0.080 A 
ATOM      4  C3  UNL d   1      -4.824   1.256   3.099  0.00  0.00     0.150 A 
ATOM      5  C4  UNL d   1      -4.178   1.364   4.326  0.00  0.00    -0.007 A 
ATOM      6  C5  UNL d   1      -2.990   2.089   4.419  0.00  0.00     0.039 A 
ENDROOT
BRANCH   4   7
ATOM      7  O   UNL d   1      -5.979   0.532   3.054  0.00  0.00    -0.526 OA
ATOM      8  H5  UNL d   1      -6.299   0.520   2.137  0.00  0.00     0.418 HD
ENDBRANCH   4   7
TORSDOF 1
ENDMDL
