MODEL 1
REMARK minimizedAffinity 0.466104358
REMARK minimizedRMSD -1
REMARK  1 active torsions:
REMARK  status: ('A' for Active; 'I' for Inactive)
REMARK    1  A    between atoms: C3_4  and  O_7 
ROOT
ATOM      1  C   UNL d   1       0.660   0.712  -1.162  0.00  0.00    -0.033 A 
ATOM      2  C1  UNL d   1       0.643   1.941  -0.500  0.00  0.00     0.039 A 
ATOM      3  C2  UNL d   1       1.242   2.069   0.755  0.00  0.00    -0.080 A 
ATOM      4  C3  UNL d   1       1.855   0.962   1.336  0.00  0.00     0.150 A 
ATOM      5  C4  UNL d   1       1.879  -0.265   0.680  0.00  0.00    -0.007 A 
ATOM      6  C5  UNL d   1       1.280  -0.391  -0.572  0.00  0.00     0.039 A 
ENDROOT
BRANCH   4   7
ATOM      7  O   UNL d   1       2.448   1.037   2.561  0.00  0.00    -0.526 OA
ATOM      8  H5  UNL d   1       2.329   1.937   2.906  0.00  0.00     0.418 HD
ENDBRANCH   4   7
TORSDOF 1
ENDMDL
