MODEL 1
REMARK minimizedAffinity -2.85301924
REMARK minimizedRMSD -1
REMARK  1 active torsions:
REMARK  status: ('A' for Active; 'I' for Inactive)
REMARK    1  A    between atoms: C1_2  and  C2_3 
ROOT
ATOM      1  C2  UNL d   1       0.527  -1.852  -0.944  0.00  0.00    -0.077 A 
ATOM      2  C3  UNL d   1      -0.294  -1.851  -2.080  0.00  0.00     0.002 A 
ATOM      3  C4  UNL d   1      -0.688  -3.054  -2.668  0.00  0.00     0.002 A 
ATOM      4  C5  UNL d   1      -0.270  -4.267  -2.124  0.00  0.00    -0.004 A 
ATOM      5  C6  UNL d   1       0.549  -4.279  -0.996  0.00  0.00     0.002 A 
ATOM      6  C7  UNL d   1       0.945  -3.077  -0.407  0.00  0.00     0.002 A 
ENDROOT
BRANCH   1   7
ATOM      7  C1  UNL d   1       0.913  -0.556  -0.279  0.00  0.00     0.055 C 
ATOM      8  C   UNL d   1      -0.121  -0.135   0.754  0.00  0.00     0.019 C 
ENDBRANCH   1   7
TORSDOF 1
ENDMDL
