MODEL 1
REMARK minimizedAffinity -3.17663121
REMARK minimizedRMSD -1
REMARK  1 active torsions:
REMARK  status: ('A' for Active; 'I' for Inactive)
REMARK    1  A    between atoms: C1_2  and  C2_3 
ROOT
ATOM      1  C2  UNL d   1       0.732  -1.549  -1.296  0.00  0.00    -0.077 A 
ATOM      2  C3  UNL d   1       0.195  -1.417  -2.584  0.00  0.00     0.002 A 
ATOM      3  C4  UNL d   1      -0.104  -2.550  -3.344  0.00  0.00     0.002 A 
ATOM      4  C5  UNL d   1       0.125  -3.821  -2.823  0.00  0.00    -0.004 A 
ATOM      5  C6  UNL d   1       0.660  -3.963  -1.543  0.00  0.00     0.002 A 
ATOM      6  C7  UNL d   1       0.961  -2.832  -0.783  0.00  0.00     0.002 A 
ENDROOT
BRANCH   1   7
ATOM      7  C1  UNL d   1       1.010  -0.330  -0.456  0.00  0.00     0.055 C 
ATOM      8  C   UNL d   1       0.460  -0.492   0.954  0.00  0.00     0.019 C 
ENDBRANCH   1   7
TORSDOF 1
ENDMDL
