MODEL 1
REMARK minimizedAffinity -3.28115892
REMARK minimizedRMSD -1
REMARK  1 active torsions:
REMARK  status: ('A' for Active; 'I' for Inactive)
REMARK    1  A    between atoms: C1_2  and  C2_3 
ROOT
ATOM      1  C2  UNL d   1       0.230   1.697  -0.137  0.00  0.00    -0.077 A 
ATOM      2  C3  UNL d   1       0.924   0.632  -0.728  0.00  0.00     0.002 A 
ATOM      3  C4  UNL d   1       0.837  -0.654  -0.190  0.00  0.00     0.002 A 
ATOM      4  C5  UNL d   1       0.053  -0.887   0.938  0.00  0.00    -0.004 A 
ATOM      5  C6  UNL d   1      -0.639   0.166   1.535  0.00  0.00     0.002 A 
ATOM      6  C7  UNL d   1      -0.552   1.452   0.999  0.00  0.00     0.002 A 
ENDROOT
BRANCH   1   7
ATOM      7  C1  UNL d   1       0.284   3.074  -0.744  0.00  0.00     0.055 C 
ATOM      8  C   UNL d   1       0.013   4.150   0.298  0.00  0.00     0.019 C 
ENDBRANCH   1   7
TORSDOF 1
ENDMDL
