MODEL 1
REMARK minimizedAffinity -2.99129272
REMARK minimizedRMSD -1
REMARK  1 active torsions:
REMARK  status: ('A' for Active; 'I' for Inactive)
REMARK    1  A    between atoms: C1_2  and  C2_3 
ROOT
ATOM      1  C2  UNL d   1      -0.638   1.224   0.430  0.00  0.00    -0.077 A 
ATOM      2  C3  UNL d   1      -0.093   1.998  -0.604  0.00  0.00     0.002 A 
ATOM      3  C4  UNL d   1      -0.148   3.392  -0.547  0.00  0.00     0.002 A 
ATOM      4  C5  UNL d   1      -0.743   4.023   0.543  0.00  0.00    -0.004 A 
ATOM      5  C6  UNL d   1      -1.289   3.262   1.576  0.00  0.00     0.002 A 
ATOM      6  C7  UNL d   1      -1.236   1.869   1.520  0.00  0.00     0.002 A 
ENDROOT
BRANCH   1   7
ATOM      7  C1  UNL d   1      -0.535  -0.279   0.394  0.00  0.00     0.055 C 
ATOM      8  C   UNL d   1       0.753  -0.730  -0.278  0.00  0.00     0.019 C 
ENDBRANCH   1   7
TORSDOF 1
ENDMDL
