MODEL 1
REMARK minimizedAffinity -2.31834531
REMARK minimizedRMSD -1
REMARK  1 active torsions:
REMARK  status: ('A' for Active; 'I' for Inactive)
REMARK    1  A    between atoms: C1_2  and  C2_3 
ROOT
ATOM      1  C2  UNL d   1       0.289  -1.161  -0.887  0.00  0.00    -0.077 A 
ATOM      2  C3  UNL d   1      -0.076  -1.158  -2.240  0.00  0.00     0.002 A 
ATOM      3  C4  UNL d   1       0.080  -2.307  -3.017  0.00  0.00     0.002 A 
ATOM      4  C5  UNL d   1       0.598  -3.469  -2.449  0.00  0.00    -0.004 A 
ATOM      5  C6  UNL d   1       0.967  -3.482  -1.104  0.00  0.00     0.002 A 
ATOM      6  C7  UNL d   1       0.812  -2.334  -0.326  0.00  0.00     0.002 A 
ENDROOT
BRANCH   1   7
ATOM      7  C1  UNL d   1       0.076   0.063  -0.035  0.00  0.00     0.055 C 
ATOM      8  C   UNL d   1      -0.640  -0.284   1.263  0.00  0.00     0.019 C 
ENDBRANCH   1   7
TORSDOF 1
ENDMDL
