MODEL 1
REMARK minimizedAffinity -4.42812729
REMARK minimizedRMSD -1
REMARK  1 active torsions:
REMARK  status: ('A' for Active; 'I' for Inactive)
REMARK    1  A    between atoms: C1_2  and  C2_3 
ROOT
ATOM      1  C2  UNL d   1       0.615  -1.034  -0.783  0.00  0.00    -0.077 A 
ATOM      2  C3  UNL d   1      -0.239  -1.192  -1.883  0.00  0.00     0.002 A 
ATOM      3  C4  UNL d   1      -0.184  -2.352  -2.658  0.00  0.00     0.002 A 
ATOM      4  C5  UNL d   1       0.719  -3.364  -2.339  0.00  0.00    -0.004 A 
ATOM      5  C6  UNL d   1       1.574  -3.214  -1.247  0.00  0.00     0.002 A 
ATOM      6  C7  UNL d   1       1.522  -2.055  -0.472  0.00  0.00     0.002 A 
ENDROOT
BRANCH   1   7
ATOM      7  C1  UNL d   1       0.524   0.195   0.084  0.00  0.00     0.055 C 
ATOM      8  C   UNL d   1      -0.303  -0.069   1.334  0.00  0.00     0.019 C 
ENDBRANCH   1   7
TORSDOF 1
ENDMDL
