MODEL 1
REMARK minimizedAffinity -2.23078108
REMARK minimizedRMSD -1
REMARK  1 active torsions:
REMARK  status: ('A' for Active; 'I' for Inactive)
REMARK    1  A    between atoms: C1_2  and  C2_3 
ROOT
ATOM      1  C2  UNL d   1       0.650  -1.470  -1.526  0.00  0.00    -0.077 A 
ATOM      2  C3  UNL d   1       0.024  -1.682  -2.762  0.00  0.00     0.002 A 
ATOM      3  C4  UNL d   1       0.032  -2.949  -3.349  0.00  0.00     0.002 A 
ATOM      4  C5  UNL d   1       0.661  -4.013  -2.706  0.00  0.00    -0.004 A 
ATOM      5  C6  UNL d   1       1.289  -3.811  -1.478  0.00  0.00     0.002 A 
ATOM      6  C7  UNL d   1       1.283  -2.545  -0.890  0.00  0.00     0.002 A 
ENDROOT
BRANCH   1   7
ATOM      7  C1  UNL d   1       0.600  -0.116  -0.868  0.00  0.00     0.055 C 
ATOM      8  C   UNL d   1       0.118  -0.218   0.572  0.00  0.00     0.019 C 
ENDBRANCH   1   7
TORSDOF 1
ENDMDL
