MODEL 1
REMARK minimizedAffinity -3.76244664
REMARK minimizedRMSD -1
REMARK  1 active torsions:
REMARK  status: ('A' for Active; 'I' for Inactive)
REMARK    1  A    between atoms: C1_2  and  C2_3 
ROOT
ATOM      1  C2  UNL d   1       1.095  -1.742  -1.841  0.00  0.00    -0.077 A 
ATOM      2  C3  UNL d   1       0.552  -1.758  -3.133  0.00  0.00     0.002 A 
ATOM      3  C4  UNL d   1       0.031  -2.939  -3.665  0.00  0.00     0.002 A 
ATOM      4  C5  UNL d   1       0.043  -4.111  -2.911  0.00  0.00    -0.004 A 
ATOM      5  C6  UNL d   1       0.583  -4.105  -1.625  0.00  0.00     0.002 A 
ATOM      6  C7  UNL d   1       1.105  -2.926  -1.092  0.00  0.00     0.002 A 
ENDROOT
BRANCH   1   7
ATOM      7  C1  UNL d   1       1.613  -0.458  -1.246  0.00  0.00     0.055 C 
ATOM      8  C   UNL d   1       0.707   0.039  -0.129  0.00  0.00     0.019 C 
ENDBRANCH   1   7
TORSDOF 1
ENDMDL
