MODEL 1
REMARK minimizedAffinity -3.98023939
REMARK minimizedRMSD -1
REMARK  1 active torsions:
REMARK  status: ('A' for Active; 'I' for Inactive)
REMARK    1  A    between atoms: C1_2  and  C2_3 
ROOT
ATOM      1  C2  UNL d   1      -0.415   0.820   0.312  0.00  0.00    -0.077 A 
ATOM      2  C3  UNL d   1       0.188   1.425  -0.799  0.00  0.00     0.002 A 
ATOM      3  C4  UNL d   1       0.117   2.809  -0.975  0.00  0.00     0.002 A 
ATOM      4  C5  UNL d   1      -0.552   3.598  -0.042  0.00  0.00    -0.004 A 
ATOM      5  C6  UNL d   1      -1.157   3.004   1.065  0.00  0.00     0.002 A 
ATOM      6  C7  UNL d   1      -1.088   1.622   1.242  0.00  0.00     0.002 A 
ENDROOT
BRANCH   1   7
ATOM      7  C1  UNL d   1      -0.297  -0.666   0.529  0.00  0.00     0.055 C 
ATOM      8  C   UNL d   1       0.725  -1.284  -0.415  0.00  0.00     0.019 C 
ENDBRANCH   1   7
TORSDOF 1
ENDMDL
