MODEL 1
REMARK minimizedAffinity -3.75081444
REMARK minimizedRMSD -1
REMARK  1 active torsions:
REMARK  status: ('A' for Active; 'I' for Inactive)
REMARK    1  A    between atoms: C1_2  and  C2_3 
ROOT
ATOM      1  C2  UNL d   1       0.221  -0.019  -0.198  0.00  0.00    -0.077 A 
ATOM      2  C3  UNL d   1       0.314   1.379  -0.235  0.00  0.00     0.002 A 
ATOM      3  C4  UNL d   1      -0.264   2.153   0.773  0.00  0.00     0.002 A 
ATOM      4  C5  UNL d   1      -0.935   1.538   1.827  0.00  0.00    -0.004 A 
ATOM      5  C6  UNL d   1      -1.036   0.148   1.873  0.00  0.00     0.002 A 
ATOM      6  C7  UNL d   1      -0.459  -0.627   0.865  0.00  0.00     0.002 A 
ENDROOT
BRANCH   1   7
ATOM      7  C1  UNL d   1       0.886  -0.858  -1.258  0.00  0.00     0.055 C 
ATOM      8  C   UNL d   1      -0.012  -2.003  -1.702  0.00  0.00     0.019 C 
ENDBRANCH   1   7
TORSDOF 1
ENDMDL
