MODEL 1
REMARK minimizedAffinity 0.20665656
REMARK minimizedRMSD -1
REMARK  1 active torsions:
REMARK  status: ('A' for Active; 'I' for Inactive)
REMARK    1  A    between atoms: C1_2  and  C2_3 
ROOT
ATOM      1  C2  UNL d   1       0.292   0.582   0.169  0.00  0.00    -0.077 A 
ATOM      2  C3  UNL d   1      -0.065  -0.740   0.469  0.00  0.00     0.002 A 
ATOM      3  C4  UNL d   1      -0.871  -1.020   1.575  0.00  0.00     0.002 A 
ATOM      4  C5  UNL d   1      -1.328   0.016   2.386  0.00  0.00    -0.004 A 
ATOM      5  C6  UNL d   1      -0.977   1.334   2.097  0.00  0.00     0.002 A 
ATOM      6  C7  UNL d   1      -0.171   1.616   0.993  0.00  0.00     0.002 A 
ENDROOT
BRANCH   1   7
ATOM      7  C1  UNL d   1       1.119   0.891  -1.052  0.00  0.00     0.055 C 
ATOM      8  C   UNL d   1       0.783   2.264  -1.615  0.00  0.00     0.019 C 
ENDBRANCH   1   7
TORSDOF 1
ENDMDL
