MODEL 1
REMARK minimizedAffinity 8.89073658
REMARK minimizedRMSD -1
REMARK  0 active torsions:
REMARK  status: ('A' for Active; 'I' for Inactive)
ROOT
ATOM      1  C   UNL d   1      -1.117  -1.563   1.036  0.00  0.00    -0.002 A 
ATOM      2  C1  UNL d   1      -0.460  -2.113   2.128  0.00  0.00     0.010 A 
ATOM      3  C2  UNL d   1      -0.632  -1.575   3.405  0.00  0.00     0.041 A 
ATOM      4  C3  UNL d   1      -1.485  -0.466   3.569  0.00  0.00    -0.075 A 
ATOM      5  S   UNL d   1      -1.849   0.358   5.039  0.00  0.00     0.015 SA
ATOM      6  C4  UNL d   1      -2.885   1.459   4.252  0.00  0.00     0.022 A 
ATOM      7  C5  UNL d   1      -2.963   1.219   2.901  0.00  0.00     0.026 A 
ATOM      8  C6  UNL d   1      -2.158   0.105   2.485  0.00  0.00    -0.082 A 
ATOM      9  C7  UNL d   1      -1.962  -0.462   1.203  0.00  0.00     0.045 A 
ENDROOT
TORSDOF 0
ENDMDL
