MODEL 1
REMARK minimizedAffinity 14.9600906
REMARK minimizedRMSD -1
REMARK  0 active torsions:
REMARK  status: ('A' for Active; 'I' for Inactive)
ROOT
ATOM      1  C   UNL d   1      -1.692  -0.014   2.898  0.00  0.00    -0.002 A 
ATOM      2  C1  UNL d   1      -2.638  -0.367   1.946  0.00  0.00     0.010 A 
ATOM      3  C2  UNL d   1      -3.958   0.074   2.060  0.00  0.00     0.041 A 
ATOM      4  C3  UNL d   1      -4.314   0.886   3.155  0.00  0.00    -0.075 A 
ATOM      5  S   UNL d   1      -5.870   1.544   3.499  0.00  0.00     0.015 SA
ATOM      6  C4  UNL d   1      -5.314   2.309   4.917  0.00  0.00     0.022 A 
ATOM      7  C5  UNL d   1      -3.977   2.079   5.138  0.00  0.00     0.026 A 
ATOM      8  C6  UNL d   1      -3.378   1.255   4.126  0.00  0.00    -0.082 A 
ATOM      9  C7  UNL d   1      -2.048   0.791   3.983  0.00  0.00     0.045 A 
ENDROOT
TORSDOF 0
ENDMDL
