MODEL 1
REMARK minimizedAffinity 13.9601135
REMARK minimizedRMSD -1
REMARK  0 active torsions:
REMARK  status: ('A' for Active; 'I' for Inactive)
ROOT
ATOM      1  C   UNL d   1      -5.886  -0.392  -2.324  0.00  0.00    -0.002 A 
ATOM      2  C1  UNL d   1      -5.676  -1.208  -1.222  0.00  0.00     0.010 A 
ATOM      3  C2  UNL d   1      -5.573  -0.660   0.058  0.00  0.00     0.041 A 
ATOM      4  C3  UNL d   1      -5.688   0.735   0.213  0.00  0.00    -0.075 A 
ATOM      5  S   UNL d   1      -5.595   1.629   1.685  0.00  0.00     0.015 SA
ATOM      6  C4  UNL d   1      -5.834   3.115   0.885  0.00  0.00     0.022 A 
ATOM      7  C5  UNL d   1      -5.982   2.952  -0.472  0.00  0.00     0.026 A 
ATOM      8  C6  UNL d   1      -5.901   1.578  -0.881  0.00  0.00    -0.082 A 
ATOM      9  C7  UNL d   1      -6.000   0.992  -2.166  0.00  0.00     0.045 A 
ENDROOT
TORSDOF 0
ENDMDL
