MODEL 1
REMARK minimizedAffinity 18.9344406
REMARK minimizedRMSD -1
REMARK  0 active torsions:
REMARK  status: ('A' for Active; 'I' for Inactive)
ROOT
ATOM      1  C   UNL d   1      -0.354  -1.771   1.776  0.00  0.00    -0.002 A 
ATOM      2  C1  UNL d   1      -1.421  -1.480   0.936  0.00  0.00     0.010 A 
ATOM      3  C2  UNL d   1      -2.361  -0.511   1.291  0.00  0.00     0.041 A 
ATOM      4  C3  UNL d   1      -2.208   0.170   2.516  0.00  0.00    -0.075 A 
ATOM      5  S   UNL d   1      -3.236   1.396   3.158  0.00  0.00     0.015 SA
ATOM      6  C4  UNL d   1      -2.283   1.564   4.561  0.00  0.00     0.022 A 
ATOM      7  C5  UNL d   1      -1.204   0.713   4.556  0.00  0.00     0.026 A 
ATOM      8  C6  UNL d   1      -1.143  -0.105   3.377  0.00  0.00    -0.082 A 
ATOM      9  C7  UNL d   1      -0.207  -1.094   2.989  0.00  0.00     0.045 A 
ENDROOT
TORSDOF 0
ENDMDL
