MODEL 1
REMARK minimizedAffinity 18.0354919
REMARK minimizedRMSD -1
REMARK  0 active torsions:
REMARK  status: ('A' for Active; 'I' for Inactive)
ROOT
ATOM      1  C   UNL d   1      -2.082  -0.216   2.230  0.00  0.00    -0.002 A 
ATOM      2  C1  UNL d   1      -3.206  -0.531   1.479  0.00  0.00     0.010 A 
ATOM      3  C2  UNL d   1      -4.460  -0.031   1.835  0.00  0.00     0.041 A 
ATOM      4  C3  UNL d   1      -4.567   0.800   2.967  0.00  0.00    -0.075 A 
ATOM      5  S   UNL d   1      -6.000   1.528   3.591  0.00  0.00     0.015 SA
ATOM      6  C4  UNL d   1      -5.154   2.274   4.868  0.00  0.00     0.022 A 
ATOM      7  C5  UNL d   1      -3.810   1.986   4.835  0.00  0.00     0.026 A 
ATOM      8  C6  UNL d   1      -3.450   1.132   3.739  0.00  0.00    -0.082 A 
ATOM      9  C7  UNL d   1      -2.192   0.608   3.353  0.00  0.00     0.045 A 
ENDROOT
TORSDOF 0
ENDMDL
