MODEL 1
REMARK minimizedAffinity 15.9593849
REMARK minimizedRMSD -1
REMARK  0 active torsions:
REMARK  status: ('A' for Active; 'I' for Inactive)
ROOT
ATOM      1  C   UNL d   1      -0.965  -0.855   2.256  0.00  0.00    -0.002 A 
ATOM      2  C1  UNL d   1      -2.145  -0.822   1.526  0.00  0.00     0.010 A 
ATOM      3  C2  UNL d   1      -3.226  -0.051   1.957  0.00  0.00     0.041 A 
ATOM      4  C3  UNL d   1      -3.099   0.697   3.144  0.00  0.00    -0.075 A 
ATOM      5  S   UNL d   1      -4.291   1.714   3.864  0.00  0.00     0.015 SA
ATOM      6  C4  UNL d   1      -3.262   2.131   5.157  0.00  0.00     0.022 A 
ATOM      7  C5  UNL d   1      -2.035   1.518   5.058  0.00  0.00     0.026 A 
ATOM      8  C6  UNL d   1      -1.921   0.681   3.896  0.00  0.00    -0.082 A 
ATOM      9  C7  UNL d   1      -0.844  -0.112   3.433  0.00  0.00     0.045 A 
ENDROOT
TORSDOF 0
ENDMDL
