MODEL 1
REMARK minimizedAffinity 17.1323376
REMARK minimizedRMSD -1
REMARK  0 active torsions:
REMARK  status: ('A' for Active; 'I' for Inactive)
ROOT
ATOM      1  C   UNL d   1      -2.230   0.176   2.940  0.00  0.00    -0.002 A 
ATOM      2  C1  UNL d   1      -1.586   0.430   4.142  0.00  0.00     0.010 A 
ATOM      3  C2  UNL d   1      -2.216   1.171   5.144  0.00  0.00     0.041 A 
ATOM      4  C3  UNL d   1      -3.519   1.656   4.915  0.00  0.00    -0.075 A 
ATOM      5  S   UNL d   1      -4.487   2.586   5.997  0.00  0.00     0.015 SA
ATOM      6  C4  UNL d   1      -5.779   2.668   4.889  0.00  0.00     0.022 A 
ATOM      7  C5  UNL d   1      -5.496   2.007   3.717  0.00  0.00     0.026 A 
ATOM      8  C6  UNL d   1      -4.189   1.413   3.713  0.00  0.00    -0.082 A 
ATOM      9  C7  UNL d   1      -3.523   0.659   2.717  0.00  0.00     0.045 A 
ENDROOT
TORSDOF 0
ENDMDL
