MODEL 1
REMARK minimizedAffinity 9.53161907
REMARK minimizedRMSD -1
REMARK  0 active torsions:
REMARK  status: ('A' for Active; 'I' for Inactive)
ROOT
ATOM      1  C   UNL d   1       0.718  -1.423   2.141  0.00  0.00    -0.002 A 
ATOM      2  C1  UNL d   1       1.225  -1.915   3.335  0.00  0.00     0.010 A 
ATOM      3  C2  UNL d   1       0.766  -1.422   4.558  0.00  0.00     0.041 A 
ATOM      4  C3  UNL d   1      -0.222  -0.417   4.561  0.00  0.00    -0.075 A 
ATOM      5  S   UNL d   1      -0.934   0.336   5.938  0.00  0.00     0.015 SA
ATOM      6  C4  UNL d   1      -1.929   1.328   4.973  0.00  0.00     0.022 A 
ATOM      7  C5  UNL d   1      -1.735   1.103   3.631  0.00  0.00     0.026 A 
ATOM      8  C6  UNL d   1      -0.748   0.093   3.371  0.00  0.00    -0.082 A 
ATOM      9  C7  UNL d   1      -0.262  -0.427   2.147  0.00  0.00     0.045 A 
ENDROOT
TORSDOF 0
ENDMDL
