MODEL 1
REMARK minimizedAffinity 17.7037601
REMARK minimizedRMSD -1
REMARK  0 active torsions:
REMARK  status: ('A' for Active; 'I' for Inactive)
ROOT
ATOM      1  C   UNL d   1       2.244   2.917  -2.624  0.00  0.00    -0.002 A 
ATOM      2  C1  UNL d   1       2.733   2.633  -3.892  0.00  0.00     0.010 A 
ATOM      3  C2  UNL d   1       3.893   3.253  -4.360  0.00  0.00     0.041 A 
ATOM      4  C3  UNL d   1       4.561   4.170  -3.524  0.00  0.00    -0.075 A 
ATOM      5  S   UNL d   1       6.000   5.049  -3.886  0.00  0.00     0.015 SA
ATOM      6  C4  UNL d   1       5.999   5.821  -2.366  0.00  0.00     0.022 A 
ATOM      7  C5  UNL d   1       4.934   5.429  -1.589  0.00  0.00     0.026 A 
ATOM      8  C6  UNL d   1       4.088   4.471  -2.244  0.00  0.00    -0.082 A 
ATOM      9  C7  UNL d   1       2.909   3.827  -1.798  0.00  0.00     0.045 A 
ENDROOT
TORSDOF 0
ENDMDL
