MODEL 1
REMARK minimizedAffinity 26.3963604
REMARK minimizedRMSD -1
REMARK  0 active torsions:
REMARK  status: ('A' for Active; 'I' for Inactive)
ROOT
ATOM      1  C   UNL d   1      -2.763  -0.516   2.274  0.00  0.00    -0.002 A 
ATOM      2  C1  UNL d   1      -1.953   0.367   2.974  0.00  0.00     0.010 A 
ATOM      3  C2  UNL d   1      -0.576   0.154   3.058  0.00  0.00     0.041 A 
ATOM      4  C3  UNL d   1      -0.020  -0.972   2.420  0.00  0.00    -0.075 A 
ATOM      5  S   UNL d   1       1.640  -1.435   2.387  0.00  0.00     0.015 SA
ATOM      6  C4  UNL d   1       1.314  -2.816   1.443  0.00  0.00     0.022 A 
ATOM      7  C5  UNL d   1      -0.024  -2.936   1.150  0.00  0.00     0.026 A 
ATOM      8  C6  UNL d   1      -0.815  -1.876   1.708  0.00  0.00    -0.082 A 
ATOM      9  C7  UNL d   1      -2.208  -1.632   1.641  0.00  0.00     0.045 A 
ENDROOT
TORSDOF 0
ENDMDL
