MODEL 1
REMARK minimizedAffinity 16.4991989
REMARK minimizedRMSD -1
REMARK  0 active torsions:
REMARK  status: ('A' for Active; 'I' for Inactive)
ROOT
ATOM      1  C   UNL d   1      -2.513  -5.699  -5.002  0.00  0.00    -0.002 A 
ATOM      2  C1  UNL d   1      -2.592  -5.170  -3.722  0.00  0.00     0.010 A 
ATOM      3  C2  UNL d   1      -1.435  -4.935  -2.977  0.00  0.00     0.041 A 
ATOM      4  C3  UNL d   1      -0.184  -5.240  -3.548  0.00  0.00    -0.075 A 
ATOM      5  S   UNL d   1       1.367  -5.034  -2.823  0.00  0.00     0.015 SA
ATOM      6  C4  UNL d   1       2.172  -5.642  -4.197  0.00  0.00     0.022 A 
ATOM      7  C5  UNL d   1       1.295  -5.998  -5.194  0.00  0.00     0.026 A 
ATOM      8  C6  UNL d   1      -0.078  -5.772  -4.836  0.00  0.00    -0.082 A 
ATOM      9  C7  UNL d   1      -1.269  -6.000  -5.565  0.00  0.00     0.045 A 
ENDROOT
TORSDOF 0
ENDMDL
