MODEL 1
REMARK minimizedAffinity 10.6803207
REMARK minimizedRMSD -1
REMARK  0 active torsions:
REMARK  status: ('A' for Active; 'I' for Inactive)
ROOT
ATOM      1  C   UNL d   1       0.046  -3.718   1.817  0.00  0.00    -0.002 A 
ATOM      2  C1  UNL d   1      -0.873  -3.006   1.059  0.00  0.00     0.010 A 
ATOM      3  C2  UNL d   1      -1.287  -1.733   1.457  0.00  0.00     0.041 A 
ATOM      4  C3  UNL d   1      -0.755  -1.181   2.639  0.00  0.00    -0.075 A 
ATOM      5  S   UNL d   1      -1.115   0.361   3.320  0.00  0.00     0.015 SA
ATOM      6  C4  UNL d   1      -0.057   0.112   4.632  0.00  0.00     0.022 A 
ATOM      7  C5  UNL d   1       0.564  -1.113   4.568  0.00  0.00     0.026 A 
ATOM      8  C6  UNL d   1       0.172  -1.878   3.418  0.00  0.00    -0.082 A 
ATOM      9  C7  UNL d   1       0.571  -3.167   2.989  0.00  0.00     0.045 A 
ENDROOT
TORSDOF 0
ENDMDL
