MODEL 1
REMARK minimizedAffinity 18.7138996
REMARK minimizedRMSD -1
REMARK  0 active torsions:
REMARK  status: ('A' for Active; 'I' for Inactive)
ROOT
ATOM      1  C   UNL d   1      -3.641   0.856   3.762  0.00  0.00    -0.002 A 
ATOM      2  C1  UNL d   1      -2.511   1.241   4.470  0.00  0.00     0.010 A 
ATOM      3  C2  UNL d   1      -1.242   0.818   4.067  0.00  0.00     0.041 A 
ATOM      4  C3  UNL d   1      -1.127  -0.004   2.929  0.00  0.00    -0.075 A 
ATOM      5  S   UNL d   1       0.324  -0.641   2.249  0.00  0.00     0.015 SA
ATOM      6  C4  UNL d   1      -0.522  -1.439   1.003  0.00  0.00     0.022 A 
ATOM      7  C5  UNL d   1      -1.879  -1.235   1.088  0.00  0.00     0.026 A 
ATOM      8  C6  UNL d   1      -2.250  -0.404   2.199  0.00  0.00    -0.082 A 
ATOM      9  C7  UNL d   1      -3.522   0.040   2.633  0.00  0.00     0.045 A 
ENDROOT
TORSDOF 0
ENDMDL
