MODEL 1
REMARK minimizedAffinity -3.64310122
REMARK minimizedRMSD -1
REMARK  0 active torsions:
REMARK  status: ('A' for Active; 'I' for Inactive)
ROOT
ATOM      1  C2' OXE d   1      -0.875   0.327  -0.090  0.00  0.00     0.078 C 
ATOM      2  C1' OXE d   1       0.953   2.455   0.004  0.00  0.00     0.078 C 
ATOM      3  C1  OXE d   1       1.506   1.057  -0.116  0.00  0.00    -0.078 A 
ATOM      4  C2  OXE d   1       0.606   0.018  -0.114  0.00  0.00    -0.078 A 
ATOM      5  C3  OXE d   1       1.060  -1.287  -0.277  0.00  0.00     0.003 A 
ATOM      6  C4  OXE d   1       2.433  -1.564  -0.288  0.00  0.00    -0.002 A 
ATOM      7  C5  OXE d   1       3.367  -0.524  -0.251  0.00  0.00    -0.002 A 
ATOM      8  C6  OXE d   1       2.921   0.792  -0.208  0.00  0.00     0.003 A 
ENDROOT
TORSDOF 0
ENDMDL
