MODEL 1
REMARK minimizedAffinity -4.90353394
REMARK minimizedRMSD -1
REMARK  0 active torsions:
REMARK  status: ('A' for Active; 'I' for Inactive)
ROOT
ATOM      1  C2' OXE d   1      -1.234   0.680  -0.418  0.00  0.00     0.078 C 
ATOM      2  C1' OXE d   1      -0.314  -1.958  -0.699  0.00  0.00     0.078 C 
ATOM      3  C1  OXE d   1       0.703  -0.887  -0.392  0.00  0.00    -0.078 A 
ATOM      4  C2  OXE d   1       0.251   0.407  -0.302  0.00  0.00    -0.078 A 
ATOM      5  C3  OXE d   1       1.138   1.426   0.034  0.00  0.00     0.003 A 
ATOM      6  C4  OXE d   1       2.511   1.167   0.129  0.00  0.00    -0.002 A 
ATOM      7  C5  OXE d   1       2.998  -0.139   0.002  0.00  0.00    -0.002 A 
ATOM      8  C6  OXE d   1       2.104  -1.181  -0.215  0.00  0.00     0.003 A 
ENDROOT
TORSDOF 0
ENDMDL
