MODEL 1
REMARK minimizedAffinity -0.857513964
REMARK minimizedRMSD -1
REMARK  0 active torsions:
REMARK  status: ('A' for Active; 'I' for Inactive)
ROOT
ATOM      1  C2' OXE d   1      -0.349  -2.184  -0.649  0.00  0.00     0.078 C 
ATOM      2  C1' OXE d   1      -0.851   0.466   0.128  0.00  0.00     0.078 C 
ATOM      3  C1  OXE d   1       0.585   0.052  -0.070  0.00  0.00    -0.078 A 
ATOM      4  C2  OXE d   1       0.825  -1.259  -0.405  0.00  0.00    -0.078 A 
ATOM      5  C3  OXE d   1       2.128  -1.680  -0.653  0.00  0.00     0.003 A 
ATOM      6  C4  OXE d   1       3.208  -0.822  -0.416  0.00  0.00    -0.002 A 
ATOM      7  C5  OXE d   1       2.988   0.507  -0.036  0.00  0.00    -0.002 A 
ATOM      8  C6  OXE d   1       1.684   0.970   0.100  0.00  0.00     0.003 A 
ENDROOT
TORSDOF 0
ENDMDL
