MODEL 1
REMARK minimizedAffinity 0.696372271
REMARK minimizedRMSD -1
REMARK  0 active torsions:
REMARK  status: ('A' for Active; 'I' for Inactive)
ROOT
ATOM      1  C2' OXE d   1      -0.553   2.337  -0.783  0.00  0.00     0.078 C 
ATOM      2  C1' OXE d   1      -0.518  -0.428  -0.298  0.00  0.00     0.078 C 
ATOM      3  C1  OXE d   1      -1.648   0.376   0.294  0.00  0.00    -0.078 A 
ATOM      4  C2  OXE d   1      -1.632   1.735   0.091  0.00  0.00    -0.078 A 
ATOM      5  C3  OXE d   1      -2.680   2.516   0.569  0.00  0.00     0.003 A 
ATOM      6  C4  OXE d   1      -3.669   1.953   1.385  0.00  0.00    -0.002 A 
ATOM      7  C5  OXE d   1      -3.682   0.577   1.637  0.00  0.00    -0.002 A 
ATOM      8  C6  OXE d   1      -2.705  -0.230   1.066  0.00  0.00     0.003 A 
ENDROOT
TORSDOF 0
ENDMDL
