MODEL 1
REMARK minimizedAffinity -1.9016608
REMARK minimizedRMSD -1
REMARK  0 active torsions:
REMARK  status: ('A' for Active; 'I' for Inactive)
ROOT
ATOM      1  C2' OXE d   1      -0.143   1.303  -0.640  0.00  0.00     0.078 C 
ATOM      2  C1' OXE d   1      -0.258  -1.438  -0.049  0.00  0.00     0.078 C 
ATOM      3  C1  OXE d   1      -1.465  -0.596   0.281  0.00  0.00    -0.078 A 
ATOM      4  C2  OXE d   1      -1.382   0.752   0.032  0.00  0.00    -0.078 A 
ATOM      5  C3  OXE d   1      -2.487   1.566   0.267  0.00  0.00     0.003 A 
ATOM      6  C4  OXE d   1      -3.626   1.050   0.897  0.00  0.00    -0.002 A 
ATOM      7  C5  OXE d   1      -3.716  -0.313   1.196  0.00  0.00    -0.002 A 
ATOM      8  C6  OXE d   1      -2.663  -1.156   0.856  0.00  0.00     0.003 A 
ENDROOT
TORSDOF 0
ENDMDL
