MODEL 1
REMARK minimizedAffinity -2.12978697
REMARK minimizedRMSD -1
REMARK  0 active torsions:
REMARK  status: ('A' for Active; 'I' for Inactive)
ROOT
ATOM      1  C2' OXE d   1      -0.740   1.113  -0.677  0.00  0.00     0.078 C 
ATOM      2  C1' OXE d   1       1.973   0.773  -0.043  0.00  0.00     0.078 C 
ATOM      3  C1  OXE d   1       1.142  -0.466  -0.262  0.00  0.00    -0.078 A 
ATOM      4  C2  OXE d   1      -0.196  -0.291  -0.526  0.00  0.00    -0.078 A 
ATOM      5  C3  OXE d   1      -0.997  -1.399  -0.791  0.00  0.00     0.003 A 
ATOM      6  C4  OXE d   1      -0.487  -2.694  -0.640  0.00  0.00    -0.002 A 
ATOM      7  C5  OXE d   1       0.862  -2.895  -0.332  0.00  0.00    -0.002 A 
ATOM      8  C6  OXE d   1       1.698  -1.794  -0.183  0.00  0.00     0.003 A 
ENDROOT
TORSDOF 0
ENDMDL
