MODEL 1
REMARK minimizedAffinity -3.0679462
REMARK minimizedRMSD -1
REMARK  0 active torsions:
REMARK  status: ('A' for Active; 'I' for Inactive)
ROOT
ATOM      1  C2' OXE d   1      -0.476  -2.003  -1.023  0.00  0.00     0.078 C 
ATOM      2  C1' OXE d   1       2.085  -1.339  -0.086  0.00  0.00     0.078 C 
ATOM      3  C1  OXE d   1       1.069  -0.230  -0.201  0.00  0.00    -0.078 A 
ATOM      4  C2  OXE d   1      -0.167  -0.556  -0.704  0.00  0.00    -0.078 A 
ATOM      5  C3  OXE d   1      -1.159   0.418  -0.780  0.00  0.00     0.003 A 
ATOM      6  C4  OXE d   1      -0.862   1.756  -0.493  0.00  0.00    -0.002 A 
ATOM      7  C5  OXE d   1       0.403   2.116  -0.016  0.00  0.00    -0.002 A 
ATOM      8  C6  OXE d   1       1.365   1.130   0.176  0.00  0.00     0.003 A 
ENDROOT
TORSDOF 0
ENDMDL
