MODEL 1
REMARK minimizedAffinity -4.39677286
REMARK minimizedRMSD -1
REMARK  0 active torsions:
REMARK  status: ('A' for Active; 'I' for Inactive)
ROOT
ATOM      1  C2' OXE d   1      -0.034   0.744  -0.018  0.00  0.00     0.078 C 
ATOM      2  C1' OXE d   1       2.410   2.124   0.040  0.00  0.00     0.078 C 
ATOM      3  C1  OXE d   1       2.453   0.617   0.061  0.00  0.00    -0.078 A 
ATOM      4  C2  OXE d   1       1.251  -0.050   0.080  0.00  0.00    -0.078 A 
ATOM      5  C3  OXE d   1       1.234  -1.441   0.044  0.00  0.00     0.003 A 
ATOM      6  C4  OXE d   1       2.426  -2.167   0.144  0.00  0.00    -0.002 A 
ATOM      7  C5  OXE d   1       3.660  -1.508   0.166  0.00  0.00    -0.002 A 
ATOM      8  C6  OXE d   1       3.692  -0.120   0.083  0.00  0.00     0.003 A 
ENDROOT
TORSDOF 0
ENDMDL
