MODEL 1
REMARK minimizedAffinity 2.84101987
REMARK minimizedRMSD -1
REMARK  0 active torsions:
REMARK  status: ('A' for Active; 'I' for Inactive)
ROOT
ATOM      1  C2' OXE d   1      -0.999   0.340  -1.346  0.00  0.00     0.078 C 
ATOM      2  C1' OXE d   1      -0.224  -0.568   1.194  0.00  0.00     0.078 C 
ATOM      3  C1  OXE d   1      -1.639  -0.074   1.025  0.00  0.00    -0.078 A 
ATOM      4  C2  OXE d   1      -1.996   0.412  -0.209  0.00  0.00    -0.078 A 
ATOM      5  C3  OXE d   1      -3.304   0.829  -0.434  0.00  0.00     0.003 A 
ATOM      6  C4  OXE d   1      -4.217   0.902   0.625  0.00  0.00    -0.002 A 
ATOM      7  C5  OXE d   1      -3.862   0.449   1.900  0.00  0.00    -0.002 A 
ATOM      8  C6  OXE d   1      -2.593  -0.081   2.106  0.00  0.00     0.003 A 
ENDROOT
TORSDOF 0
ENDMDL
