MODEL 1
REMARK minimizedAffinity 12.2472248
REMARK minimizedRMSD -1
REMARK  1 active torsions:
REMARK  status: ('A' for Active; 'I' for Inactive)
REMARK    1  A    between atoms: C1_2  and  C2_3 
ROOT
ATOM      1  C2  UNL d   1       2.692   4.205  -2.614  0.00  0.00    -0.073 A 
ATOM      2  C3  UNL d   1       2.171   2.997  -3.092  0.00  0.00    -0.002 A 
ATOM      3  C4  UNL d   1       2.882   2.242  -4.024  0.00  0.00     0.004 A 
ATOM      4  C5  UNL d   1       4.123   2.682  -4.484  0.00  0.00    -0.004 A 
ATOM      5  C6  UNL d   1       4.667   3.880  -4.010  0.00  0.00    -0.075 A 
ATOM      6  C7  UNL d   1       6.000   4.368  -4.496  0.00  0.00     0.076 C 
ATOM      7  C8  UNL d   1       3.945   4.634  -3.075  0.00  0.00     0.001 A 
ENDROOT
BRANCH   1   8
ATOM      8  C1  UNL d   1       1.931   5.021  -1.602  0.00  0.00     0.053 C 
ATOM      9  C   UNL d   1       0.839   5.858  -2.250  0.00  0.00     0.018 C 
ENDBRANCH   1   8
TORSDOF 1
ENDMDL
