MODEL 1
REMARK minimizedAffinity 6.07039356
REMARK minimizedRMSD -1
REMARK  1 active torsions:
REMARK  status: ('A' for Active; 'I' for Inactive)
REMARK    1  A    between atoms: C1_2  and  C2_3 
ROOT
ATOM      1  C2  UNL d   1      -0.024  -5.609  -4.830  0.00  0.00    -0.073 A 
ATOM      2  C3  UNL d   1      -1.023  -5.981  -5.737  0.00  0.00    -0.002 A 
ATOM      3  C4  UNL d   1      -2.357  -5.653  -5.491  0.00  0.00     0.004 A 
ATOM      4  C5  UNL d   1      -2.704  -4.943  -4.341  0.00  0.00    -0.004 A 
ATOM      5  C6  UNL d   1      -1.719  -4.552  -3.429  0.00  0.00    -0.075 A 
ATOM      6  C7  UNL d   1      -2.077  -3.791  -2.187  0.00  0.00     0.076 C 
ATOM      7  C8  UNL d   1      -0.382  -4.889  -3.682  0.00  0.00     0.001 A 
ENDROOT
BRANCH   1   8
ATOM      8  C1  UNL d   1       1.418  -5.957  -5.095  0.00  0.00     0.053 C 
ATOM      9  C   UNL d   1       2.259  -5.900  -3.830  0.00  0.00     0.018 C 
ENDBRANCH   1   8
TORSDOF 1
ENDMDL
