MODEL 1
REMARK minimizedAffinity 6.20374918
REMARK minimizedRMSD -1
REMARK  1 active torsions:
REMARK  status: ('A' for Active; 'I' for Inactive)
REMARK    1  A    between atoms: C1_2  and  C2_3 
ROOT
ATOM      1  C2  UNL d   1      -2.150  -5.778  -5.270  0.00  0.00    -0.073 A 
ATOM      2  C3  UNL d   1      -0.962  -5.995  -5.976  0.00  0.00    -0.002 A 
ATOM      3  C4  UNL d   1       0.273  -5.795  -5.358  0.00  0.00     0.004 A 
ATOM      4  C5  UNL d   1       0.333  -5.383  -4.027  0.00  0.00    -0.004 A 
ATOM      5  C6  UNL d   1      -0.843  -5.172  -3.300  0.00  0.00    -0.075 A 
ATOM      6  C7  UNL d   1      -0.796  -4.727  -1.868  0.00  0.00     0.076 C 
ATOM      7  C8  UNL d   1      -2.080  -5.372  -3.929  0.00  0.00     0.001 A 
ENDROOT
BRANCH   1   8
ATOM      8  C1  UNL d   1      -3.486  -5.999  -5.931  0.00  0.00     0.053 C 
ATOM      9  C   UNL d   1      -4.643  -5.756  -4.975  0.00  0.00     0.018 C 
ENDBRANCH   1   8
TORSDOF 1
ENDMDL
