MODEL 1
REMARK minimizedAffinity 8.70275593
REMARK minimizedRMSD -1
REMARK  1 active torsions:
REMARK  status: ('A' for Active; 'I' for Inactive)
REMARK    1  A    between atoms: C1_2  and  C2_3 
ROOT
ATOM      1  C2  UNL d   1       1.874   4.319  -3.279  0.00  0.00    -0.073 A 
ATOM      2  C3  UNL d   1       2.002   5.173  -2.178  0.00  0.00    -0.002 A 
ATOM      3  C4  UNL d   1       0.933   5.976  -1.780  0.00  0.00     0.004 A 
ATOM      4  C5  UNL d   1      -0.277   5.929  -2.474  0.00  0.00    -0.004 A 
ATOM      5  C6  UNL d   1      -0.428   5.073  -3.569  0.00  0.00    -0.075 A 
ATOM      6  C7  UNL d   1      -1.722   5.011  -4.327  0.00  0.00     0.076 C 
ATOM      7  C8  UNL d   1       0.651   4.271  -3.964  0.00  0.00     0.001 A 
ENDROOT
BRANCH   1   8
ATOM      8  C1  UNL d   1       3.024   3.445  -3.708  0.00  0.00     0.053 C 
ATOM      9  C   UNL d   1       3.502   3.781  -5.112  0.00  0.00     0.018 C 
ENDBRANCH   1   8
TORSDOF 1
ENDMDL
