MODEL 1
REMARK minimizedAffinity 10.1493359
REMARK minimizedRMSD -1
REMARK  1 active torsions:
REMARK  status: ('A' for Active; 'I' for Inactive)
REMARK    1  A    between atoms: C1_2  and  C2_3 
ROOT
ATOM      1  C2  UNL d   1       3.308   1.882  -0.384  0.00  0.00    -0.073 A 
ATOM      2  C3  UNL d   1       3.276   0.848   0.559  0.00  0.00    -0.002 A 
ATOM      3  C4  UNL d   1       4.126   0.876   1.666  0.00  0.00     0.004 A 
ATOM      4  C5  UNL d   1       5.010   1.940   1.844  0.00  0.00    -0.004 A 
ATOM      5  C6  UNL d   1       5.049   2.989   0.919  0.00  0.00    -0.075 A 
ATOM      6  C7  UNL d   1       5.996   4.139   1.096  0.00  0.00     0.076 C 
ATOM      7  C8  UNL d   1       4.194   2.951  -0.191  0.00  0.00     0.001 A 
ENDROOT
BRANCH   1   8
ATOM      8  C1  UNL d   1       2.388   1.858  -1.576  0.00  0.00     0.053 C 
ATOM      9  C   UNL d   1       2.802   2.867  -2.636  0.00  0.00     0.018 C 
ENDBRANCH   1   8
TORSDOF 1
ENDMDL
