MODEL 1
REMARK minimizedAffinity 14.594758
REMARK minimizedRMSD -1
REMARK  1 active torsions:
REMARK  status: ('A' for Active; 'I' for Inactive)
REMARK    1  A    between atoms: C1_2  and  C2_3 
ROOT
ATOM      1  C2  UNL d   1      -3.609   0.167   1.324  0.00  0.00    -0.073 A 
ATOM      2  C3  UNL d   1      -3.574   1.082   2.383  0.00  0.00    -0.002 A 
ATOM      3  C4  UNL d   1      -2.508   1.076   3.284  0.00  0.00     0.004 A 
ATOM      4  C5  UNL d   1      -1.465   0.162   3.132  0.00  0.00    -0.004 A 
ATOM      5  C6  UNL d   1      -1.477  -0.752   2.074  0.00  0.00    -0.075 A 
ATOM      6  C7  UNL d   1      -0.364  -1.743   1.898  0.00  0.00     0.076 C 
ATOM      7  C8  UNL d   1      -2.552  -0.742   1.175  0.00  0.00     0.001 A 
ENDROOT
BRANCH   1   8
ATOM      8  C1  UNL d   1      -4.755   0.173   0.345  0.00  0.00     0.053 C 
ATOM      9  C   UNL d   1      -5.112   1.581  -0.105  0.00  0.00     0.018 C 
ENDBRANCH   1   8
TORSDOF 1
ENDMDL
