MODEL 1
REMARK minimizedAffinity 11.8510199
REMARK minimizedRMSD -1
REMARK  1 active torsions:
REMARK  status: ('A' for Active; 'I' for Inactive)
REMARK    1  A    between atoms: C1_2  and  C2_3 
ROOT
ATOM      1  C2  UNL d   1       3.915   2.768   0.518  0.00  0.00    -0.073 A 
ATOM      2  C3  UNL d   1       2.955   1.841   0.942  0.00  0.00    -0.002 A 
ATOM      3  C4  UNL d   1       2.060   1.285   0.027  0.00  0.00     0.004 A 
ATOM      4  C5  UNL d   1       2.120   1.642  -1.320  0.00  0.00    -0.004 A 
ATOM      5  C6  UNL d   1       3.080   2.557  -1.765  0.00  0.00    -0.075 A 
ATOM      6  C7  UNL d   1       3.156   2.954  -3.210  0.00  0.00     0.076 C 
ATOM      7  C8  UNL d   1       3.973   3.114  -0.840  0.00  0.00     0.001 A 
ENDROOT
BRANCH   1   8
ATOM      8  C1  UNL d   1       4.887   3.367   1.501  0.00  0.00     0.053 C 
ATOM      9  C   UNL d   1       6.000   4.135   0.805  0.00  0.00     0.018 C 
ENDBRANCH   1   8
TORSDOF 1
ENDMDL
