MODEL 1
REMARK minimizedAffinity 10.5112686
REMARK minimizedRMSD -1
REMARK  1 active torsions:
REMARK  status: ('A' for Active; 'I' for Inactive)
REMARK    1  A    between atoms: C1_2  and  C2_3 
ROOT
ATOM      1  C2  UNL d   1       3.712   4.194  -2.610  0.00  0.00    -0.073 A 
ATOM      2  C3  UNL d   1       3.229   2.931  -2.970  0.00  0.00    -0.002 A 
ATOM      3  C4  UNL d   1       1.860   2.661  -2.925  0.00  0.00     0.004 A 
ATOM      4  C5  UNL d   1       0.962   3.651  -2.527  0.00  0.00    -0.004 A 
ATOM      5  C6  UNL d   1       1.425   4.923  -2.175  0.00  0.00    -0.075 A 
ATOM      6  C7  UNL d   1       0.472   5.999  -1.743  0.00  0.00     0.076 C 
ATOM      7  C8  UNL d   1       2.801   5.186  -2.220  0.00  0.00     0.001 A 
ENDROOT
BRANCH   1   8
ATOM      8  C1  UNL d   1       5.188   4.493  -2.663  0.00  0.00     0.053 C 
ATOM      9  C   UNL d   1       5.721   4.484  -4.087  0.00  0.00     0.018 C 
ENDBRANCH   1   8
TORSDOF 1
ENDMDL
