MODEL 1
REMARK minimizedAffinity 9.54216385
REMARK minimizedRMSD -1
REMARK  1 active torsions:
REMARK  status: ('A' for Active; 'I' for Inactive)
REMARK    1  A    between atoms: C1_2  and  C2_3 
ROOT
ATOM      1  C2  UNL d   1      -3.138   0.958   3.482  0.00  0.00    -0.073 A 
ATOM      2  C3  UNL d   1      -3.987   0.921   2.370  0.00  0.00    -0.002 A 
ATOM      3  C4  UNL d   1      -3.690   0.099   1.283  0.00  0.00     0.004 A 
ATOM      4  C5  UNL d   1      -2.546  -0.700   1.299  0.00  0.00    -0.004 A 
ATOM      5  C6  UNL d   1      -1.691  -0.686   2.405  0.00  0.00    -0.075 A 
ATOM      6  C7  UNL d   1      -0.456  -1.538   2.437  0.00  0.00     0.076 C 
ATOM      7  C8  UNL d   1      -1.995   0.144   3.492  0.00  0.00     0.001 A 
ENDROOT
BRANCH   1   8
ATOM      8  C1  UNL d   1      -3.458   1.839   4.661  0.00  0.00     0.053 C 
ATOM      9  C   UNL d   1      -4.921   1.743   5.065  0.00  0.00     0.018 C 
ENDBRANCH   1   8
TORSDOF 1
ENDMDL
