MODEL 1
REMARK minimizedAffinity 1.97259951
REMARK minimizedRMSD -1
REMARK  1 active torsions:
REMARK  status: ('A' for Active; 'I' for Inactive)
REMARK    1  A    between atoms: C1_2  and  C2_3 
ROOT
ATOM      1  C2  UNL d   1      -3.435   1.152   3.552  0.00  0.00    -0.073 A 
ATOM      2  C3  UNL d   1      -2.231   0.457   3.710  0.00  0.00    -0.002 A 
ATOM      3  C4  UNL d   1      -1.842  -0.501   2.773  0.00  0.00     0.004 A 
ATOM      4  C5  UNL d   1      -2.649  -0.769   1.666  0.00  0.00    -0.004 A 
ATOM      5  C6  UNL d   1      -3.850  -0.076   1.485  0.00  0.00    -0.075 A 
ATOM      6  C7  UNL d   1      -4.730  -0.354   0.302  0.00  0.00     0.076 C 
ATOM      7  C8  UNL d   1      -4.235   0.883   2.432  0.00  0.00     0.001 A 
ENDROOT
BRANCH   1   8
ATOM      8  C1  UNL d   1      -3.856   2.192   4.558  0.00  0.00     0.053 C 
ATOM      9  C   UNL d   1      -5.189   1.851   5.207  0.00  0.00     0.018 C 
ENDBRANCH   1   8
TORSDOF 1
ENDMDL
