MODEL 1
REMARK minimizedAffinity 16.5412025
REMARK minimizedRMSD -1
REMARK  1 active torsions:
REMARK  status: ('A' for Active; 'I' for Inactive)
REMARK    1  A    between atoms: C1_2  and  C2_3 
ROOT
ATOM      1  C2  UNL d   1      -1.306  -1.096   2.249  0.00  0.00    -0.073 A 
ATOM      2  C3  UNL d   1      -1.348  -0.121   3.252  0.00  0.00    -0.002 A 
ATOM      3  C4  UNL d   1      -2.311   0.888   3.216  0.00  0.00     0.004 A 
ATOM      4  C5  UNL d   1      -3.247   0.928   2.182  0.00  0.00    -0.004 A 
ATOM      5  C6  UNL d   1      -3.229  -0.044   1.177  0.00  0.00    -0.075 A 
ATOM      6  C7  UNL d   1      -4.227  -0.014   0.057  0.00  0.00     0.076 C 
ATOM      7  C8  UNL d   1      -2.257  -1.052   1.219  0.00  0.00     0.001 A 
ENDROOT
BRANCH   1   8
ATOM      8  C1  UNL d   1      -0.271  -2.190   2.287  0.00  0.00     0.053 C 
ATOM      9  C   UNL d   1       0.897  -1.839   3.195  0.00  0.00     0.018 C 
ENDBRANCH   1   8
TORSDOF 1
ENDMDL
