MODEL 1
REMARK minimizedAffinity 13.9518471
REMARK minimizedRMSD -1
REMARK  1 active torsions:
REMARK  status: ('A' for Active; 'I' for Inactive)
REMARK    1  A    between atoms: C1_2  and  C2_3 
ROOT
ATOM      1  C2  UNL d   1       4.861   4.323  -2.580  0.00  0.00    -0.073 A 
ATOM      2  C3  UNL d   1       5.393   4.202  -3.868  0.00  0.00    -0.002 A 
ATOM      3  C4  UNL d   1       4.674   3.549  -4.870  0.00  0.00     0.004 A 
ATOM      4  C5  UNL d   1       3.414   3.016  -4.596  0.00  0.00    -0.004 A 
ATOM      5  C6  UNL d   1       2.860   3.137  -3.317  0.00  0.00    -0.075 A 
ATOM      6  C7  UNL d   1       1.507   2.567  -3.006  0.00  0.00     0.076 C 
ATOM      7  C8  UNL d   1       3.590   3.792  -2.316  0.00  0.00     0.001 A 
ENDROOT
BRANCH   1   8
ATOM      8  C1  UNL d   1       5.631   5.033  -1.497  0.00  0.00     0.053 C 
ATOM      9  C   UNL d   1       6.000   4.100  -0.354  0.00  0.00     0.018 C 
ENDBRANCH   1   8
TORSDOF 1
ENDMDL
