MODEL 1
REMARK minimizedAffinity 9.4196558
REMARK minimizedRMSD -1
REMARK  1 active torsions:
REMARK  status: ('A' for Active; 'I' for Inactive)
REMARK    1  A    between atoms: C1_2  and  C2_3 
ROOT
ATOM      1  C2  UNL d   1       3.042   4.555  -2.717  0.00  0.00    -0.073 A 
ATOM      2  C3  UNL d   1       4.223   5.172  -2.290  0.00  0.00    -0.002 A 
ATOM      3  C4  UNL d   1       5.388   5.067  -3.053  0.00  0.00     0.004 A 
ATOM      4  C5  UNL d   1       5.381   4.352  -4.251  0.00  0.00    -0.004 A 
ATOM      5  C6  UNL d   1       4.206   3.739  -4.699  0.00  0.00    -0.075 A 
ATOM      6  C7  UNL d   1       4.183   2.965  -5.984  0.00  0.00     0.076 C 
ATOM      7  C8  UNL d   1       3.042   3.846  -3.927  0.00  0.00     0.001 A 
ENDROOT
BRANCH   1   8
ATOM      8  C1  UNL d   1       1.780   4.671  -1.900  0.00  0.00     0.053 C 
ATOM      9  C   UNL d   1       1.047   5.976  -2.165  0.00  0.00     0.018 C 
ENDBRANCH   1   8
TORSDOF 1
ENDMDL
