MODEL 1
REMARK minimizedAffinity 11.3412399
REMARK minimizedRMSD -1
REMARK  3 active torsions:
REMARK  status: ('A' for Active; 'I' for Inactive)
REMARK    1  A    between atoms: C3'_2  and  C2'_3 
REMARK    2  A    between atoms: C2'_3  and  C1'_4 
REMARK    3  A    between atoms: C1'_4  and  C1_5 
ROOT
ATOM      1  C1  N4B d   1       2.631   0.688   0.699  0.00  0.00    -0.075 A 
ATOM      2  C2  N4B d   1       3.090   1.588  -0.287  0.00  0.00     0.002 A 
ATOM      3  C3  N4B d   1       3.018   2.942  -0.068  0.00  0.00     0.002 A 
ATOM      4  C4  N4B d   1       2.477   3.417   1.118  0.00  0.00    -0.004 A 
ATOM      5  C5  N4B d   1       2.059   2.540   2.076  0.00  0.00     0.002 A 
ATOM      6  C6  N4B d   1       2.129   1.177   1.870  0.00  0.00     0.002 A 
ENDROOT
BRANCH   1   7
ATOM      7  C1' N4B d   1       2.610  -0.799   0.469  0.00  0.00     0.057 C 
BRANCH   7   8
ATOM      8  C2' N4B d   1       2.156  -1.078  -0.961  0.00  0.00     0.009 C 
BRANCH   8   9
ATOM      9  C3' N4B d   1       2.246  -2.554  -1.307  0.00  0.00     0.004 C 
ATOM     10  C4' N4B d   1       2.563  -2.792  -2.754  0.00  0.00     0.003 C 
ENDBRANCH   8   9
ENDBRANCH   7   8
ENDBRANCH   1   7
TORSDOF 3
ENDMDL
