MODEL 1
REMARK minimizedAffinity -2.28817868
REMARK minimizedRMSD -1
REMARK  3 active torsions:
REMARK  status: ('A' for Active; 'I' for Inactive)
REMARK    1  A    between atoms: C3'_2  and  C2'_3 
REMARK    2  A    between atoms: C2'_3  and  C1'_4 
REMARK    3  A    between atoms: C1'_4  and  C1_5 
ROOT
ATOM      1  C1  N4B d   1       0.605  -3.121   4.960  0.00  0.00    -0.075 A 
ATOM      2  C2  N4B d   1       1.430  -4.129   5.505  0.00  0.00     0.002 A 
ATOM      3  C3  N4B d   1       0.871  -5.284   5.995  0.00  0.00     0.002 A 
ATOM      4  C4  N4B d   1      -0.507  -5.444   5.967  0.00  0.00    -0.004 A 
ATOM      5  C5  N4B d   1      -1.294  -4.477   5.416  0.00  0.00     0.002 A 
ATOM      6  C6  N4B d   1      -0.745  -3.313   4.917  0.00  0.00     0.002 A 
ENDROOT
BRANCH   1   7
ATOM      7  C1' N4B d   1       1.164  -1.805   4.491  0.00  0.00     0.057 C 
BRANCH   7   8
ATOM      8  C2' N4B d   1       0.044  -0.770   4.458  0.00  0.00     0.009 C 
BRANCH   8   9
ATOM      9  C3' N4B d   1       0.530   0.607   4.877  0.00  0.00     0.004 C 
ATOM     10  C4' N4B d   1       1.798   0.556   5.677  0.00  0.00     0.003 C 
ENDBRANCH   8   9
ENDBRANCH   7   8
ENDBRANCH   1   7
TORSDOF 3
ENDMDL
