MODEL 1
REMARK minimizedAffinity 6.75893974
REMARK minimizedRMSD -1
REMARK  3 active torsions:
REMARK  status: ('A' for Active; 'I' for Inactive)
REMARK    1  A    between atoms: C3'_2  and  C2'_3 
REMARK    2  A    between atoms: C2'_3  and  C1'_4 
REMARK    3  A    between atoms: C1'_4  and  C1_5 
ROOT
ATOM      1  C1  N4B d   1      -4.891   4.326   1.371  0.00  0.00    -0.075 A 
ATOM      2  C2  N4B d   1      -5.952   4.340   2.302  0.00  0.00     0.002 A 
ATOM      3  C3  N4B d   1      -5.903   5.180   3.387  0.00  0.00     0.002 A 
ATOM      4  C4  N4B d   1      -4.800   6.000   3.570  0.00  0.00    -0.004 A 
ATOM      5  C5  N4B d   1      -3.791   6.000   2.652  0.00  0.00     0.002 A 
ATOM      6  C6  N4B d   1      -3.828   5.162   1.555  0.00  0.00     0.002 A 
ENDROOT
BRANCH   1   7
ATOM      7  C1' N4B d   1      -4.860   3.363   0.216  0.00  0.00     0.057 C 
BRANCH   7   8
ATOM      8  C2' N4B d   1      -4.872   1.935   0.754  0.00  0.00     0.009 C 
BRANCH   8   9
ATOM      9  C3' N4B d   1      -5.022   0.910  -0.357  0.00  0.00     0.004 C 
ATOM     10  C4' N4B d   1      -3.703   0.444  -0.898  0.00  0.00     0.003 C 
ENDBRANCH   8   9
ENDBRANCH   7   8
ENDBRANCH   1   7
TORSDOF 3
ENDMDL
