MODEL 1
REMARK minimizedAffinity 4.06352711
REMARK minimizedRMSD -1
REMARK  3 active torsions:
REMARK  status: ('A' for Active; 'I' for Inactive)
REMARK    1  A    between atoms: C3'_2  and  C2'_3 
REMARK    2  A    between atoms: C2'_3  and  C1'_4 
REMARK    3  A    between atoms: C1'_4  and  C1_5 
ROOT
ATOM      1  C1  N4B d   1      -4.199   5.585   3.232  0.00  0.00    -0.075 A 
ATOM      2  C2  N4B d   1      -3.389   5.984   4.317  0.00  0.00     0.002 A 
ATOM      3  C3  N4B d   1      -3.904   5.999   5.590  0.00  0.00     0.002 A 
ATOM      4  C4  N4B d   1      -5.227   5.640   5.799  0.00  0.00    -0.004 A 
ATOM      5  C5  N4B d   1      -5.996   5.231   4.749  0.00  0.00     0.002 A 
ATOM      6  C6  N4B d   1      -5.490   5.207   3.465  0.00  0.00     0.002 A 
ENDROOT
BRANCH   1   7
ATOM      7  C1' N4B d   1      -3.706   5.634   1.812  0.00  0.00     0.057 C 
BRANCH   7   8
ATOM      8  C2' N4B d   1      -4.902   5.728   0.869  0.00  0.00     0.009 C 
BRANCH   8   9
ATOM      9  C3' N4B d   1      -4.521   5.409  -0.566  0.00  0.00     0.004 C 
ATOM     10  C4' N4B d   1      -5.707   5.079  -1.422  0.00  0.00     0.003 C 
ENDBRANCH   8   9
ENDBRANCH   7   8
ENDBRANCH   1   7
TORSDOF 3
ENDMDL
