MODEL 1
REMARK minimizedAffinity 7.46375895
REMARK minimizedRMSD -1
REMARK  3 active torsions:
REMARK  status: ('A' for Active; 'I' for Inactive)
REMARK    1  A    between atoms: C3'_2  and  C2'_3 
REMARK    2  A    between atoms: C2'_3  and  C1'_4 
REMARK    3  A    between atoms: C1'_4  and  C1_5 
ROOT
ATOM      1  C1  N4B d   1       3.282   1.076  -0.317  0.00  0.00    -0.075 A 
ATOM      2  C2  N4B d   1       2.188   1.542   0.445  0.00  0.00     0.002 A 
ATOM      3  C3  N4B d   1       2.283   2.731   1.127  0.00  0.00     0.002 A 
ATOM      4  C4  N4B d   1       3.463   3.457   1.077  0.00  0.00    -0.004 A 
ATOM      5  C5  N4B d   1       4.506   3.013   0.318  0.00  0.00     0.002 A 
ATOM      6  C6  N4B d   1       4.423   1.822  -0.376  0.00  0.00     0.002 A 
ENDROOT
BRANCH   1   7
ATOM      7  C1' N4B d   1       3.255  -0.259  -1.010  0.00  0.00     0.057 C 
BRANCH   7   8
ATOM      8  C2' N4B d   1       2.334  -1.203  -0.243  0.00  0.00     0.009 C 
BRANCH   8   9
ATOM      9  C3' N4B d   1       2.202  -2.551  -0.931  0.00  0.00     0.004 C 
ATOM     10  C4' N4B d   1       2.917  -2.604  -2.248  0.00  0.00     0.003 C 
ENDBRANCH   8   9
ENDBRANCH   7   8
ENDBRANCH   1   7
TORSDOF 3
ENDMDL
