MODEL 1
REMARK minimizedAffinity -5.71346951
REMARK minimizedRMSD -1
REMARK  1 active torsions:
REMARK  status: ('A' for Active; 'I' for Inactive)
REMARK    1  A    between atoms: C1_2  and  C2_3 
ROOT
ATOM      1  C2  UNL d   1      -0.201  -0.095  -0.167  0.00  0.00    -0.073 A 
ATOM      2  C3  UNL d   1      -0.703   0.468  -1.346  0.00  0.00    -0.002 A 
ATOM      3  C4  UNL d   1      -1.925   1.141  -1.341  0.00  0.00     0.004 A 
ATOM      4  C5  UNL d   1      -2.654   1.265  -0.158  0.00  0.00    -0.004 A 
ATOM      5  C6  UNL d   1      -2.164   0.720   1.033  0.00  0.00    -0.075 A 
ATOM      6  C7  UNL d   1      -2.937   0.842   2.313  0.00  0.00     0.076 C 
ATOM      7  C8  UNL d   1      -0.937   0.043   1.019  0.00  0.00     0.001 A 
ENDROOT
BRANCH   1   8
ATOM      8  C1  UNL d   1       1.121  -0.817  -0.165  0.00  0.00     0.053 C 
ATOM      9  C   UNL d   1       0.967  -2.288   0.188  0.00  0.00     0.018 C 
ENDBRANCH   1   8
TORSDOF 1
ENDMDL
