MODEL 1
REMARK minimizedAffinity -2.48172259
REMARK minimizedRMSD -1
REMARK  1 active torsions:
REMARK  status: ('A' for Active; 'I' for Inactive)
REMARK    1  A    between atoms: C1_2  and  C2_3 
ROOT
ATOM      1  C2  UNL d   1      -1.401   0.165  -0.252  0.00  0.00    -0.073 A 
ATOM      2  C3  UNL d   1      -1.094  -1.182  -0.478  0.00  0.00    -0.002 A 
ATOM      3  C4  UNL d   1       0.215  -1.641  -0.324  0.00  0.00     0.004 A 
ATOM      4  C5  UNL d   1       1.226  -0.763   0.064  0.00  0.00    -0.004 A 
ATOM      5  C6  UNL d   1       0.937   0.584   0.306  0.00  0.00    -0.075 A 
ATOM      6  C7  UNL d   1       2.014   1.542   0.721  0.00  0.00     0.076 C 
ATOM      7  C8  UNL d   1      -0.379   1.038   0.146  0.00  0.00     0.001 A 
ENDROOT
BRANCH   1   8
ATOM      8  C1  UNL d   1      -2.814   0.664  -0.412  0.00  0.00     0.053 C 
ATOM      9  C   UNL d   1      -3.521   0.811   0.927  0.00  0.00     0.018 C 
ENDBRANCH   1   8
TORSDOF 1
ENDMDL
