MODEL 1
REMARK minimizedAffinity -5.03190088
REMARK minimizedRMSD -1
REMARK  1 active torsions:
REMARK  status: ('A' for Active; 'I' for Inactive)
REMARK    1  A    between atoms: C1_2  and  C2_3 
ROOT
ATOM      1  C2  UNL d   1      -1.452   0.203   0.124  0.00  0.00    -0.073 A 
ATOM      2  C3  UNL d   1      -1.143   1.525  -0.219  0.00  0.00    -0.002 A 
ATOM      3  C4  UNL d   1       0.185   1.917  -0.386  0.00  0.00     0.004 A 
ATOM      4  C5  UNL d   1       1.217   0.993  -0.219  0.00  0.00    -0.004 A 
ATOM      5  C6  UNL d   1       0.927  -0.334   0.112  0.00  0.00    -0.075 A 
ATOM      6  C7  UNL d   1       2.026  -1.340   0.298  0.00  0.00     0.076 C 
ATOM      7  C8  UNL d   1      -0.409  -0.720   0.281  0.00  0.00     0.001 A 
ENDROOT
BRANCH   1   8
ATOM      8  C1  UNL d   1      -2.886  -0.227   0.299  0.00  0.00     0.053 C 
ATOM      9  C   UNL d   1      -3.860   0.899  -0.008  0.00  0.00     0.018 C 
ENDBRANCH   1   8
TORSDOF 1
ENDMDL
