MODEL 1
REMARK minimizedAffinity -2.41420364
REMARK minimizedRMSD -1
REMARK  1 active torsions:
REMARK  status: ('A' for Active; 'I' for Inactive)
REMARK    1  A    between atoms: C1_2  and  C2_3 
ROOT
ATOM      1  C2  UNL d   1      -1.717   0.596   0.244  0.00  0.00    -0.073 A 
ATOM      2  C3  UNL d   1      -1.312   1.492  -0.752  0.00  0.00    -0.002 A 
ATOM      3  C4  UNL d   1       0.013   1.508  -1.190  0.00  0.00     0.004 A 
ATOM      4  C5  UNL d   1       0.943   0.625  -0.643  0.00  0.00    -0.004 A 
ATOM      5  C6  UNL d   1       0.556  -0.285   0.345  0.00  0.00    -0.075 A 
ATOM      6  C7  UNL d   1       1.545  -1.240   0.946  0.00  0.00     0.076 C 
ATOM      7  C8  UNL d   1      -0.776  -0.293   0.782  0.00  0.00     0.001 A 
ENDROOT
BRANCH   1   8
ATOM      8  C1  UNL d   1      -3.148   0.571   0.715  0.00  0.00     0.053 C 
ATOM      9  C   UNL d   1      -3.404   1.590   1.814  0.00  0.00     0.018 C 
ENDBRANCH   1   8
TORSDOF 1
ENDMDL
