MODEL 1
REMARK minimizedAffinity 11.3174858
REMARK minimizedRMSD -1
REMARK  1 active torsions:
REMARK  status: ('A' for Active; 'I' for Inactive)
REMARK    1  A    between atoms: C1_2  and  C2_3 
ROOT
ATOM      1  C2  UNL d   1       1.707  -1.472  -3.024  0.00  0.00    -0.076 A 
ATOM      2  C3  UNL d   1       1.415  -2.843  -3.132  0.00  0.00     0.004 A 
ATOM      3  C4  UNL d   1       1.532  -3.690  -2.031  0.00  0.00    -0.003 A 
ATOM      4  C5  UNL d   1       1.941  -3.179  -0.804  0.00  0.00     0.000 A 
ATOM      5  C6  UNL d   1       2.218  -1.818  -0.675  0.00  0.00     0.000 A 
ATOM      6  C7  UNL d   1       2.089  -0.948  -1.771  0.00  0.00    -0.073 A 
ATOM      7  C8  UNL d   1       2.406   0.509  -1.577  0.00  0.00     0.078 C 
ENDROOT
BRANCH   1   8
ATOM      8  C1  UNL d   1       1.589  -0.607  -4.259  0.00  0.00     0.053 C 
ATOM      9  C   UNL d   1       2.299  -1.209  -5.462  0.00  0.00     0.018 C 
ENDBRANCH   1   8
TORSDOF 1
ENDMDL
