MODEL 1
REMARK minimizedAffinity 15.4010019
REMARK minimizedRMSD -1
REMARK  1 active torsions:
REMARK  status: ('A' for Active; 'I' for Inactive)
REMARK    1  A    between atoms: C1_2  and  C2_3 
ROOT
ATOM      1  C2  UNL d   1      -1.219  -4.397  -2.425  0.00  0.00    -0.076 A 
ATOM      2  C3  UNL d   1      -2.402  -5.156  -2.464  0.00  0.00     0.004 A 
ATOM      3  C4  UNL d   1      -3.553  -4.660  -3.073  0.00  0.00    -0.003 A 
ATOM      4  C5  UNL d   1      -3.540  -3.397  -3.655  0.00  0.00     0.000 A 
ATOM      5  C6  UNL d   1      -2.370  -2.638  -3.642  0.00  0.00     0.000 A 
ATOM      6  C7  UNL d   1      -1.196  -3.130  -3.046  0.00  0.00    -0.073 A 
ATOM      7  C8  UNL d   1       0.035  -2.266  -3.055  0.00  0.00     0.078 C 
ENDROOT
BRANCH   1   8
ATOM      8  C1  UNL d   1      -0.010  -4.976  -1.726  0.00  0.00     0.053 C 
ATOM      9  C   UNL d   1       0.727  -5.994  -2.583  0.00  0.00     0.018 C 
ENDBRANCH   1   8
TORSDOF 1
ENDMDL
