MODEL 1
REMARK minimizedAffinity 17.9496479
REMARK minimizedRMSD -1
REMARK  1 active torsions:
REMARK  status: ('A' for Active; 'I' for Inactive)
REMARK    1  A    between atoms: C1_2  and  C2_3 
ROOT
ATOM      1  C2  UNL d   1       3.362  -0.564  -0.288  0.00  0.00    -0.076 A 
ATOM      2  C3  UNL d   1       2.118  -0.160  -0.803  0.00  0.00     0.004 A 
ATOM      3  C4  UNL d   1       1.103  -1.086  -1.039  0.00  0.00    -0.003 A 
ATOM      4  C5  UNL d   1       1.316  -2.432  -0.763  0.00  0.00     0.000 A 
ATOM      5  C6  UNL d   1       2.538  -2.849  -0.236  0.00  0.00     0.000 A 
ATOM      6  C7  UNL d   1       3.565  -1.926   0.024  0.00  0.00    -0.073 A 
ATOM      7  C8  UNL d   1       4.865  -2.431   0.587  0.00  0.00     0.078 C 
ENDROOT
BRANCH   1   8
ATOM      8  C1  UNL d   1       4.433   0.481  -0.078  0.00  0.00     0.053 C 
ATOM      9  C   UNL d   1       3.956   1.883  -0.426  0.00  0.00     0.018 C 
ENDBRANCH   1   8
TORSDOF 1
ENDMDL
