MODEL 1
REMARK minimizedAffinity 17.1425934
REMARK minimizedRMSD -1
REMARK  1 active torsions:
REMARK  status: ('A' for Active; 'I' for Inactive)
REMARK    1  A    between atoms: C1_2  and  C2_3 
ROOT
ATOM      1  C2  UNL d   1       1.690   1.535   3.304  0.00  0.00    -0.076 A 
ATOM      2  C3  UNL d   1       2.669   1.544   4.312  0.00  0.00     0.004 A 
ATOM      3  C4  UNL d   1       2.323   1.746   5.647  0.00  0.00    -0.003 A 
ATOM      4  C5  UNL d   1       0.992   1.942   5.996  0.00  0.00     0.000 A 
ATOM      5  C6  UNL d   1       0.005   1.919   5.011  0.00  0.00     0.000 A 
ATOM      6  C7  UNL d   1       0.335   1.701   3.663  0.00  0.00    -0.073 A 
ATOM      7  C8  UNL d   1      -0.770   1.692   2.642  0.00  0.00     0.078 C 
ENDROOT
BRANCH   1   8
ATOM      8  C1  UNL d   1       2.127   1.339   1.871  0.00  0.00     0.053 C 
ATOM      9  C   UNL d   1       3.627   1.518   1.689  0.00  0.00     0.018 C 
ENDBRANCH   1   8
TORSDOF 1
ENDMDL
