MODEL 1
REMARK minimizedAffinity 18.2186546
REMARK minimizedRMSD -1
REMARK  1 active torsions:
REMARK  status: ('A' for Active; 'I' for Inactive)
REMARK    1  A    between atoms: C1_2  and  C2_3 
ROOT
ATOM      1  C2  UNL d   1       1.661   1.104   0.838  0.00  0.00    -0.076 A 
ATOM      2  C3  UNL d   1       0.346   0.679   1.095  0.00  0.00     0.004 A 
ATOM      3  C4  UNL d   1      -0.267   0.945   2.318  0.00  0.00    -0.003 A 
ATOM      4  C5  UNL d   1       0.425   1.640   3.304  0.00  0.00     0.000 A 
ATOM      5  C6  UNL d   1       1.724   2.084   3.059  0.00  0.00     0.000 A 
ATOM      6  C7  UNL d   1       2.351   1.839   1.826  0.00  0.00    -0.073 A 
ATOM      7  C8  UNL d   1       3.756   2.335   1.618  0.00  0.00     0.078 C 
ENDROOT
BRANCH   1   8
ATOM      8  C1  UNL d   1       2.284   0.763  -0.497  0.00  0.00     0.053 C 
ATOM      9  C   UNL d   1       1.538  -0.346  -1.223  0.00  0.00     0.018 C 
ENDBRANCH   1   8
TORSDOF 1
ENDMDL
