MODEL 1
REMARK minimizedAffinity 10.316494
REMARK minimizedRMSD -1
REMARK  1 active torsions:
REMARK  status: ('A' for Active; 'I' for Inactive)
REMARK    1  A    between atoms: C1_2  and  C2_3 
ROOT
ATOM      1  C2  UNL d   1      -1.736   1.881   3.849  0.00  0.00    -0.076 A 
ATOM      2  C3  UNL d   1      -2.994   1.886   3.223  0.00  0.00     0.004 A 
ATOM      3  C4  UNL d   1      -4.169   1.878   3.972  0.00  0.00    -0.003 A 
ATOM      4  C5  UNL d   1      -4.105   1.866   5.361  0.00  0.00     0.000 A 
ATOM      5  C6  UNL d   1      -2.865   1.878   6.000  0.00  0.00     0.000 A 
ATOM      6  C7  UNL d   1      -1.671   1.903   5.259  0.00  0.00    -0.073 A 
ATOM      7  C8  UNL d   1      -0.362   1.910   6.000  0.00  0.00     0.078 C 
ENDROOT
BRANCH   1   8
ATOM      8  C1  UNL d   1      -0.496   1.863   2.984  0.00  0.00     0.053 C 
ATOM      9  C   UNL d   1       0.469   0.753   3.372  0.00  0.00     0.018 C 
ENDBRANCH   1   8
TORSDOF 1
ENDMDL
