MODEL 1
REMARK minimizedAffinity 17.486227
REMARK minimizedRMSD -1
REMARK  1 active torsions:
REMARK  status: ('A' for Active; 'I' for Inactive)
REMARK    1  A    between atoms: C1_2  and  C2_3 
ROOT
ATOM      1  C2  UNL d   1       1.965  -0.552  -1.548  0.00  0.00    -0.076 A 
ATOM      2  C3  UNL d   1       1.920  -1.560  -0.569  0.00  0.00     0.004 A 
ATOM      3  C4  UNL d   1       1.163  -2.714  -0.761  0.00  0.00    -0.003 A 
ATOM      4  C5  UNL d   1       0.437  -2.879  -1.936  0.00  0.00     0.000 A 
ATOM      5  C6  UNL d   1       0.484  -1.898  -2.926  0.00  0.00     0.000 A 
ATOM      6  C7  UNL d   1       1.256  -0.736  -2.755  0.00  0.00    -0.073 A 
ATOM      7  C8  UNL d   1       1.264   0.293  -3.852  0.00  0.00     0.078 C 
ENDROOT
BRANCH   1   8
ATOM      8  C1  UNL d   1       2.782   0.690  -1.273  0.00  0.00     0.053 C 
ATOM      9  C   UNL d   1       3.409   0.679   0.112  0.00  0.00     0.018 C 
ENDBRANCH   1   8
TORSDOF 1
ENDMDL
