MODEL 1
REMARK minimizedAffinity 16.3815975
REMARK minimizedRMSD -1
REMARK  1 active torsions:
REMARK  status: ('A' for Active; 'I' for Inactive)
REMARK    1  A    between atoms: C1_2  and  C2_3 
ROOT
ATOM      1  C2  UNL d   1      -2.876  -4.123  -4.252  0.00  0.00    -0.076 A 
ATOM      2  C3  UNL d   1      -3.023  -3.731  -2.910  0.00  0.00     0.004 A 
ATOM      3  C4  UNL d   1      -2.232  -4.291  -1.908  0.00  0.00    -0.003 A 
ATOM      4  C5  UNL d   1      -1.281  -5.253  -2.232  0.00  0.00     0.000 A 
ATOM      5  C6  UNL d   1      -1.110  -5.641  -3.561  0.00  0.00     0.000 A 
ATOM      6  C7  UNL d   1      -1.888  -5.074  -4.585  0.00  0.00    -0.073 A 
ATOM      7  C8  UNL d   1      -1.666  -5.534  -6.000  0.00  0.00     0.078 C 
ENDROOT
BRANCH   1   8
ATOM      8  C1  UNL d   1      -3.781  -3.500  -5.291  0.00  0.00     0.053 C 
ATOM      9  C   UNL d   1      -5.054  -2.927  -4.687  0.00  0.00     0.018 C 
ENDBRANCH   1   8
TORSDOF 1
ENDMDL
