MODEL 1
REMARK minimizedAffinity 1.72598863
REMARK minimizedRMSD -1
REMARK  1 active torsions:
REMARK  status: ('A' for Active; 'I' for Inactive)
REMARK    1  A    between atoms: C1_2  and  C2_3 
ROOT
ATOM      1  C2  UNL d   1      -2.875  -4.916  -4.730  0.00  0.00    -0.076 A 
ATOM      2  C3  UNL d   1      -3.428  -4.495  -3.508  0.00  0.00     0.004 A 
ATOM      3  C4  UNL d   1      -2.757  -4.707  -2.305  0.00  0.00    -0.003 A 
ATOM      4  C5  UNL d   1      -1.521  -5.344  -2.304  0.00  0.00     0.000 A 
ATOM      5  C6  UNL d   1      -0.949  -5.753  -3.509  0.00  0.00     0.000 A 
ATOM      6  C7  UNL d   1      -1.605  -5.532  -4.732  0.00  0.00    -0.073 A 
ATOM      7  C8  UNL d   1      -0.945  -5.999  -6.000  0.00  0.00     0.078 C 
ENDROOT
BRANCH   1   8
ATOM      8  C1  UNL d   1      -3.662  -4.683  -6.000  0.00  0.00     0.053 C 
ATOM      9  C   UNL d   1      -5.003  -5.399  -5.994  0.00  0.00     0.018 C 
ENDBRANCH   1   8
TORSDOF 1
ENDMDL
