MODEL 1
REMARK minimizedAffinity 13.8216543
REMARK minimizedRMSD -1
REMARK  1 active torsions:
REMARK  status: ('A' for Active; 'I' for Inactive)
REMARK    1  A    between atoms: C1_2  and  C2_3 
ROOT
ATOM      1  C2  UNL d   1      -2.200  -4.127  -4.205  0.00  0.00    -0.076 A 
ATOM      2  C3  UNL d   1      -2.152  -3.408  -2.998  0.00  0.00     0.004 A 
ATOM      3  C4  UNL d   1      -1.251  -3.753  -1.992  0.00  0.00    -0.003 A 
ATOM      4  C5  UNL d   1      -0.382  -4.823  -2.177  0.00  0.00     0.000 A 
ATOM      5  C6  UNL d   1      -0.404  -5.537  -3.375  0.00  0.00     0.000 A 
ATOM      6  C7  UNL d   1      -1.295  -5.192  -4.405  0.00  0.00    -0.073 A 
ATOM      7  C8  UNL d   1      -1.279  -6.000  -5.674  0.00  0.00     0.078 C 
ENDROOT
BRANCH   1   8
ATOM      8  C1  UNL d   1      -3.217  -3.724  -5.248  0.00  0.00     0.053 C 
ATOM      9  C   UNL d   1      -3.751  -2.318  -5.028  0.00  0.00     0.018 C 
ENDBRANCH   1   8
TORSDOF 1
ENDMDL
