MODEL 1
REMARK minimizedAffinity 3.60054302
REMARK minimizedRMSD -1
REMARK  1 active torsions:
REMARK  status: ('A' for Active; 'I' for Inactive)
REMARK    1  A    between atoms: C1_2  and  C2_3 
ROOT
ATOM      1  C2  UNL d   1      -2.992  -4.731  -4.411  0.00  0.00    -0.076 A 
ATOM      2  C3  UNL d   1      -2.585  -3.511  -3.844  0.00  0.00     0.004 A 
ATOM      3  C4  UNL d   1      -3.180  -2.309  -4.224  0.00  0.00    -0.003 A 
ATOM      4  C5  UNL d   1      -4.192  -2.308  -5.177  0.00  0.00     0.000 A 
ATOM      5  C6  UNL d   1      -4.620  -3.511  -5.738  0.00  0.00     0.000 A 
ATOM      6  C7  UNL d   1      -4.042  -4.733  -5.354  0.00  0.00    -0.073 A 
ATOM      7  C8  UNL d   1      -4.539  -6.000  -5.995  0.00  0.00     0.078 C 
ENDROOT
BRANCH   1   8
ATOM      8  C1  UNL d   1      -2.291  -6.000  -3.980  0.00  0.00     0.053 C 
ATOM      9  C   UNL d   1      -0.779  -5.904  -4.111  0.00  0.00     0.018 C 
ENDBRANCH   1   8
TORSDOF 1
ENDMDL
