MODEL 1
REMARK minimizedAffinity -2.16902757
REMARK minimizedRMSD -1
REMARK  1 active torsions:
REMARK  status: ('A' for Active; 'I' for Inactive)
REMARK    1  A    between atoms: C1_2  and  C2_3 
ROOT
ATOM      1  C2  UNL d   1      -2.654  -4.802  -4.525  0.00  0.00    -0.076 A 
ATOM      2  C3  UNL d   1      -3.234  -5.997  -4.986  0.00  0.00     0.004 A 
ATOM      3  C4  UNL d   1      -4.420  -5.983  -5.717  0.00  0.00    -0.003 A 
ATOM      4  C5  UNL d   1      -5.047  -4.773  -5.999  0.00  0.00     0.000 A 
ATOM      5  C6  UNL d   1      -4.476  -3.578  -5.564  0.00  0.00     0.000 A 
ATOM      6  C7  UNL d   1      -3.272  -3.573  -4.840  0.00  0.00    -0.073 A 
ATOM      7  C8  UNL d   1      -2.705  -2.254  -4.391  0.00  0.00     0.078 C 
ENDROOT
BRANCH   1   8
ATOM      8  C1  UNL d   1      -1.381  -4.881  -3.713  0.00  0.00     0.053 C 
ATOM      9  C   UNL d   1      -0.455  -5.990  -4.189  0.00  0.00     0.018 C 
ENDBRANCH   1   8
TORSDOF 1
ENDMDL
