MODEL 1
REMARK minimizedAffinity 18.8695927
REMARK minimizedRMSD -1
REMARK  1 active torsions:
REMARK  status: ('A' for Active; 'I' for Inactive)
REMARK    1  A    between atoms: C1_2  and  C2_3 
ROOT
ATOM      1  C2  UNL d   1      -3.558   0.613   4.639  0.00  0.00    -0.076 A 
ATOM      2  C3  UNL d   1      -3.752   1.223   5.891  0.00  0.00     0.004 A 
ATOM      3  C4  UNL d   1      -4.424   2.439   6.000  0.00  0.00    -0.003 A 
ATOM      4  C5  UNL d   1      -4.914   3.065   4.859  0.00  0.00     0.000 A 
ATOM      5  C6  UNL d   1      -4.746   2.466   3.611  0.00  0.00     0.000 A 
ATOM      6  C7  UNL d   1      -4.085   1.232   3.485  0.00  0.00    -0.073 A 
ATOM      7  C8  UNL d   1      -3.927   0.634   2.114  0.00  0.00     0.078 C 
ENDROOT
BRANCH   1   8
ATOM      8  C1  UNL d   1      -2.798  -0.692   4.579  0.00  0.00     0.053 C 
ATOM      9  C   UNL d   1      -3.675  -1.858   4.150  0.00  0.00     0.018 C 
ENDBRANCH   1   8
TORSDOF 1
ENDMDL
