MODEL 1
REMARK minimizedAffinity -4.43959665
REMARK minimizedRMSD -1
REMARK  0 active torsions:
REMARK  status: ('A' for Active; 'I' for Inactive)
ROOT
ATOM      1  C   UNL d   1      -0.131   2.339   1.912  0.00  0.00    -0.002 A 
ATOM      2  C1  UNL d   1       1.082   2.698   1.343  0.00  0.00     0.010 A 
ATOM      3  C2  UNL d   1       1.682   1.886   0.378  0.00  0.00     0.041 A 
ATOM      4  C3  UNL d   1       1.034   0.697  -0.010  0.00  0.00    -0.075 A 
ATOM      5  S   UNL d   1       1.581  -0.452  -1.173  0.00  0.00     0.015 SA
ATOM      6  C4  UNL d   1       0.215  -1.446  -0.943  0.00  0.00     0.022 A 
ATOM      7  C5  UNL d   1      -0.646  -0.929  -0.005  0.00  0.00     0.026 A 
ATOM      8  C6  UNL d   1      -0.189   0.315   0.548  0.00  0.00    -0.082 A 
ATOM      9  C7  UNL d   1      -0.771   1.159   1.524  0.00  0.00     0.045 A 
ENDROOT
TORSDOF 0
ENDMDL
