MODEL 1
REMARK minimizedAffinity -3.65601325
REMARK minimizedRMSD -1
REMARK  0 active torsions:
REMARK  status: ('A' for Active; 'I' for Inactive)
ROOT
ATOM      1  C   UNL d   1       2.782   2.567   0.737  0.00  0.00    -0.002 A 
ATOM      2  C1  UNL d   1       3.300   1.703  -0.219  0.00  0.00     0.010 A 
ATOM      3  C2  UNL d   1       2.563   0.598  -0.650  0.00  0.00     0.041 A 
ATOM      4  C3  UNL d   1       1.285   0.374  -0.102  0.00  0.00    -0.075 A 
ATOM      5  S   UNL d   1       0.203  -0.913  -0.480  0.00  0.00     0.015 SA
ATOM      6  C4  UNL d   1      -0.972  -0.347   0.617  0.00  0.00     0.022 A 
ATOM      7  C5  UNL d   1      -0.565   0.795   1.265  0.00  0.00     0.026 A 
ATOM      8  C6  UNL d   1       0.742   1.230   0.861  0.00  0.00    -0.082 A 
ATOM      9  C7  UNL d   1       1.514   2.341   1.278  0.00  0.00     0.045 A 
ENDROOT
TORSDOF 0
ENDMDL
