MODEL 1
REMARK minimizedAffinity 0.135866314
REMARK minimizedRMSD -1
REMARK  0 active torsions:
REMARK  status: ('A' for Active; 'I' for Inactive)
ROOT
ATOM      1  C   UNL d   1      -2.504  -1.884  -2.820  0.00  0.00    -0.002 A 
ATOM      2  C1  UNL d   1      -1.410  -1.558  -3.609  0.00  0.00     0.010 A 
ATOM      3  C2  UNL d   1      -0.267  -0.995  -3.038  0.00  0.00     0.041 A 
ATOM      4  C3  UNL d   1      -0.241  -0.765  -1.648  0.00  0.00    -0.075 A 
ATOM      5  S   UNL d   1       1.052  -0.087  -0.731  0.00  0.00     0.015 SA
ATOM      6  C4  UNL d   1       0.182  -0.216   0.729  0.00  0.00     0.022 A 
ATOM      7  C5  UNL d   1      -1.066  -0.761   0.540  0.00  0.00     0.026 A 
ATOM      8  C6  UNL d   1      -1.330  -1.087  -0.834  0.00  0.00    -0.082 A 
ATOM      9  C7  UNL d   1      -2.475  -1.655  -1.442  0.00  0.00     0.045 A 
ENDROOT
TORSDOF 0
ENDMDL
