MODEL 1
REMARK minimizedAffinity -2.81671667
REMARK minimizedRMSD -1
REMARK  0 active torsions:
REMARK  status: ('A' for Active; 'I' for Inactive)
ROOT
ATOM      1  C   UNL d   1      -0.643  -1.465  -0.041  0.00  0.00    -0.002 A 
ATOM      2  C1  UNL d   1       0.402  -1.580  -0.946  0.00  0.00     0.010 A 
ATOM      3  C2  UNL d   1       1.399  -0.605  -1.008  0.00  0.00     0.041 A 
ATOM      4  C3  UNL d   1       1.328   0.498  -0.135  0.00  0.00    -0.075 A 
ATOM      5  S   UNL d   1       2.436   1.815  -0.030  0.00  0.00     0.015 SA
ATOM      6  C4  UNL d   1       1.549   2.560   1.219  0.00  0.00     0.022 A 
ATOM      7  C5  UNL d   1       0.432   1.836   1.561  0.00  0.00     0.026 A 
ATOM      8  C6  UNL d   1       0.286   0.636   0.787  0.00  0.00    -0.082 A 
ATOM      9  C7  UNL d   1      -0.710  -0.370   0.824  0.00  0.00     0.045 A 
ENDROOT
TORSDOF 0
ENDMDL
