MODEL 1
REMARK minimizedAffinity -1.33814621
REMARK minimizedRMSD -1
REMARK  0 active torsions:
REMARK  status: ('A' for Active; 'I' for Inactive)
ROOT
ATOM      1  C   UNL d   1      -0.074   2.416   2.093  0.00  0.00    -0.002 A 
ATOM      2  C1  UNL d   1       1.168   2.647   1.519  0.00  0.00     0.010 A 
ATOM      3  C2  UNL d   1       1.637   1.832   0.487  0.00  0.00     0.041 A 
ATOM      4  C3  UNL d   1       0.827   0.772   0.035  0.00  0.00    -0.075 A 
ATOM      5  S   UNL d   1       1.193  -0.355  -1.217  0.00  0.00     0.015 SA
ATOM      6  C4  UNL d   1      -0.291  -1.170  -1.021  0.00  0.00     0.022 A 
ATOM      7  C5  UNL d   1      -1.059  -0.609  -0.028  0.00  0.00     0.026 A 
ATOM      8  C6  UNL d   1      -0.428   0.519   0.597  0.00  0.00    -0.082 A 
ATOM      9  C7  UNL d   1      -0.874   1.363   1.642  0.00  0.00     0.045 A 
ENDROOT
TORSDOF 0
ENDMDL
