MODEL 1
REMARK minimizedAffinity -1.17585814
REMARK minimizedRMSD -1
REMARK  0 active torsions:
REMARK  status: ('A' for Active; 'I' for Inactive)
ROOT
ATOM      1  C   UNL d   1      -0.631   2.025   1.916  0.00  0.00    -0.002 A 
ATOM      2  C1  UNL d   1       0.607   2.509   1.515  0.00  0.00     0.010 A 
ATOM      3  C2  UNL d   1       1.395   1.786   0.618  0.00  0.00     0.041 A 
ATOM      4  C3  UNL d   1       0.914   0.558   0.124  0.00  0.00    -0.075 A 
ATOM      5  S   UNL d   1       1.706  -0.498  -0.985  0.00  0.00     0.015 SA
ATOM      6  C4  UNL d   1       0.420  -1.617  -0.953  0.00  0.00     0.022 A 
ATOM      7  C5  UNL d   1      -0.596  -1.210  -0.122  0.00  0.00     0.026 A 
ATOM      8  C6  UNL d   1      -0.329   0.050   0.512  0.00  0.00    -0.082 A 
ATOM      9  C7  UNL d   1      -1.104   0.806   1.424  0.00  0.00     0.045 A 
ENDROOT
TORSDOF 0
ENDMDL
