MODEL 1
REMARK minimizedAffinity 0.483650774
REMARK minimizedRMSD -1
REMARK  0 active torsions:
REMARK  status: ('A' for Active; 'I' for Inactive)
ROOT
ATOM      1  C   UNL d   1       1.165   2.746   1.227  0.00  0.00    -0.002 A 
ATOM      2  C1  UNL d   1       1.980   2.453   0.144  0.00  0.00     0.010 A 
ATOM      3  C2  UNL d   1       1.805   1.271  -0.578  0.00  0.00     0.041 A 
ATOM      4  C3  UNL d   1       0.785   0.380  -0.190  0.00  0.00    -0.075 A 
ATOM      5  S   UNL d   1       0.386  -1.127  -0.926  0.00  0.00     0.015 SA
ATOM      6  C4  UNL d   1      -0.878  -1.417   0.181  0.00  0.00     0.022 A 
ATOM      7  C5  UNL d   1      -1.005  -0.400   1.096  0.00  0.00     0.026 A 
ATOM      8  C6  UNL d   1      -0.049   0.653   0.898  0.00  0.00    -0.082 A 
ATOM      9  C7  UNL d   1       0.154   1.860   1.610  0.00  0.00     0.045 A 
ENDROOT
TORSDOF 0
ENDMDL
