MODEL 1
REMARK minimizedAffinity -2.75725389
REMARK minimizedRMSD -1
REMARK  0 active torsions:
REMARK  status: ('A' for Active; 'I' for Inactive)
ROOT
ATOM      1  C1  DEN d   1      -1.181   0.546  -0.975  0.00  0.00     0.130 A 
ATOM      2  C2  DEN d   1      -0.877   0.324  -2.386  0.00  0.00    -0.031 A 
ATOM      3  C3  DEN d   1       0.498  -0.207  -2.479  0.00  0.00     0.027 A 
ATOM      4  C4  DEN d   1       2.175  -0.708  -0.584  0.00  0.00     0.027 A 
ATOM      5  C5  DEN d   1       2.374  -0.669   0.779  0.00  0.00    -0.003 A 
ATOM      6  C6  DEN d   1       1.422  -0.194   1.642  0.00  0.00     0.001 A 
ATOM      7  C7  DEN d   1       0.210   0.219   1.156  0.00  0.00     0.017 A 
ATOM      8  C8  DEN d   1       0.005   0.189  -0.217  0.00  0.00    -0.094 A 
ATOM      9  C9  DEN d   1       0.975  -0.305  -1.073  0.00  0.00    -0.072 A 
ENDROOT
TORSDOF 0
ENDMDL
