MODEL 1
REMARK minimizedAffinity -4.311759
REMARK minimizedRMSD -1
REMARK  0 active torsions:
REMARK  status: ('A' for Active; 'I' for Inactive)
ROOT
ATOM      1  C1  DEN d   1       0.602  -1.013   3.046  0.00  0.00     0.130 A 
ATOM      2  C2  DEN d   1       1.916  -1.492   3.467  0.00  0.00    -0.031 A 
ATOM      3  C3  DEN d   1       2.819  -1.433   2.300  0.00  0.00     0.027 A 
ATOM      4  C4  DEN d   1       2.315  -0.647  -0.104  0.00  0.00     0.027 A 
ATOM      5  C5  DEN d   1       1.337  -0.162  -0.944  0.00  0.00    -0.003 A 
ATOM      6  C6  DEN d   1       0.048   0.040  -0.526  0.00  0.00     0.001 A 
ATOM      7  C7  DEN d   1      -0.287  -0.203   0.780  0.00  0.00     0.017 A 
ATOM      8  C8  DEN d   1       0.691  -0.699   1.631  0.00  0.00    -0.094 A 
ATOM      9  C9  DEN d   1       1.991  -0.884   1.193  0.00  0.00    -0.072 A 
ENDROOT
TORSDOF 0
ENDMDL
