MODEL 1
REMARK minimizedAffinity -3.0813365
REMARK minimizedRMSD -1
REMARK  0 active torsions:
REMARK  status: ('A' for Active; 'I' for Inactive)
ROOT
ATOM      1  C1  DEN d   1      -1.889  -0.420   1.243  0.00  0.00     0.130 A 
ATOM      2  C2  DEN d   1      -2.096   0.320   0.001  0.00  0.00    -0.031 A 
ATOM      3  C3  DEN d   1      -0.772   0.593  -0.593  0.00  0.00     0.027 A 
ATOM      4  C4  DEN d   1       1.566  -0.058   0.282  0.00  0.00     0.027 A 
ATOM      5  C5  DEN d   1       2.248  -0.682   1.303  0.00  0.00    -0.003 A 
ATOM      6  C6  DEN d   1       1.607  -1.228   2.383  0.00  0.00     0.001 A 
ATOM      7  C7  DEN d   1       0.239  -1.201   2.445  0.00  0.00     0.017 A 
ATOM      8  C8  DEN d   1      -0.456  -0.566   1.424  0.00  0.00    -0.094 A 
ATOM      9  C9  DEN d   1       0.210  -0.031   0.334  0.00  0.00    -0.072 A 
ENDROOT
TORSDOF 0
ENDMDL
