MODEL 1
REMARK minimizedAffinity -2.10902548
REMARK minimizedRMSD -1
REMARK  0 active torsions:
REMARK  status: ('A' for Active; 'I' for Inactive)
ROOT
ATOM      1  C1  DEN d   1       0.419   2.754  -0.803  0.00  0.00     0.130 A 
ATOM      2  C2  DEN d   1       0.411   3.024  -2.238  0.00  0.00    -0.031 A 
ATOM      3  C3  DEN d   1      -0.276   1.902  -2.910  0.00  0.00     0.027 A 
ATOM      4  C4  DEN d   1      -1.325  -0.213  -1.873  0.00  0.00     0.027 A 
ATOM      5  C5  DEN d   1      -1.554  -0.891  -0.695  0.00  0.00    -0.003 A 
ATOM      6  C6  DEN d   1      -1.116  -0.421   0.515  0.00  0.00     0.001 A 
ATOM      7  C7  DEN d   1      -0.465   0.782   0.580  0.00  0.00     0.017 A 
ATOM      8  C8  DEN d   1      -0.223   1.467  -0.603  0.00  0.00    -0.094 A 
ATOM      9  C9  DEN d   1      -0.684   0.982  -1.815  0.00  0.00    -0.072 A 
ENDROOT
TORSDOF 0
ENDMDL
