MODEL 1
REMARK minimizedAffinity -3.23749352
REMARK minimizedRMSD -1
REMARK  0 active torsions:
REMARK  status: ('A' for Active; 'I' for Inactive)
ROOT
ATOM      1  C1  DEN d   1      -0.833   1.520  -2.777  0.00  0.00     0.130 A 
ATOM      2  C2  DEN d   1      -0.908   2.964  -2.572  0.00  0.00    -0.031 A 
ATOM      3  C3  DEN d   1      -0.711   3.232  -1.133  0.00  0.00     0.027 A 
ATOM      4  C4  DEN d   1      -0.295   1.559   0.786  0.00  0.00     0.027 A 
ATOM      5  C5  DEN d   1      -0.161   0.226   1.104  0.00  0.00    -0.003 A 
ATOM      6  C6  DEN d   1      -0.274  -0.764   0.164  0.00  0.00     0.001 A 
ATOM      7  C7  DEN d   1      -0.484  -0.432  -1.149  0.00  0.00     0.017 A 
ATOM      8  C8  DEN d   1      -0.628   0.910  -1.475  0.00  0.00    -0.094 A 
ATOM      9  C9  DEN d   1      -0.498   1.896  -0.512  0.00  0.00    -0.072 A 
ENDROOT
TORSDOF 0
ENDMDL
