MODEL 1
REMARK minimizedAffinity -4.89171457
REMARK minimizedRMSD -1
REMARK  0 active torsions:
REMARK  status: ('A' for Active; 'I' for Inactive)
ROOT
ATOM      1  C1  DEN d   1      -1.548  -0.304   0.228  0.00  0.00     0.130 A 
ATOM      2  C2  DEN d   1      -1.206  -0.131  -1.181  0.00  0.00    -0.031 A 
ATOM      3  C3  DEN d   1       0.266  -0.122  -1.297  0.00  0.00     0.027 A 
ATOM      4  C4  DEN d   1       2.040  -0.363   0.560  0.00  0.00     0.027 A 
ATOM      5  C5  DEN d   1       2.233  -0.520   1.915  0.00  0.00    -0.003 A 
ATOM      6  C6  DEN d   1       1.188  -0.582   2.799  0.00  0.00     0.001 A 
ATOM      7  C7  DEN d   1      -0.099  -0.531   2.333  0.00  0.00     0.017 A 
ATOM      8  C8  DEN d   1      -0.301  -0.365   0.969  0.00  0.00    -0.094 A 
ATOM      9  C9  DEN d   1       0.768  -0.317   0.090  0.00  0.00    -0.072 A 
ENDROOT
TORSDOF 0
ENDMDL
