MODEL 1
REMARK minimizedAffinity 6.64308596
REMARK minimizedRMSD -1
REMARK  0 active torsions:
REMARK  status: ('A' for Active; 'I' for Inactive)
ROOT
ATOM      1  C1  DEN d   1       0.888  -2.227   2.275  0.00  0.00     0.130 A 
ATOM      2  C2  DEN d   1       2.164  -2.380   2.968  0.00  0.00    -0.031 A 
ATOM      3  C3  DEN d   1       3.189  -1.637   2.208  0.00  0.00     0.027 A 
ATOM      4  C4  DEN d   1       2.924  -0.266   0.040  0.00  0.00     0.027 A 
ATOM      5  C5  DEN d   1       2.033   0.146  -0.926  0.00  0.00    -0.003 A 
ATOM      6  C6  DEN d   1       0.716  -0.229  -0.912  0.00  0.00     0.001 A 
ATOM      7  C7  DEN d   1       0.242  -1.004   0.113  0.00  0.00     0.017 A 
ATOM      8  C8  DEN d   1       1.136  -1.429   1.087  0.00  0.00    -0.094 A 
ATOM      9  C9  DEN d   1       2.461  -1.028   1.062  0.00  0.00    -0.072 A 
ENDROOT
TORSDOF 0
ENDMDL
