MODEL 1
REMARK minimizedAffinity -4.44677305
REMARK minimizedRMSD -1
REMARK  0 active torsions:
REMARK  status: ('A' for Active; 'I' for Inactive)
ROOT
ATOM      1  C   UNL d   1      -0.347  -0.121   2.829  0.00  0.00     0.020 A 
ATOM      2  C1  UNL d   1      -1.182  -0.903   2.032  0.00  0.00     0.020 A 
ATOM      3  C2  UNL d   1      -0.915  -1.042   0.668  0.00  0.00     0.034 A 
ATOM      4  C3  UNL d   1       0.190  -0.399   0.098  0.00  0.00     0.017 A 
ATOM      5  C4  UNL d   1       1.027   0.386   0.900  0.00  0.00     0.017 A 
ATOM      6  C5  UNL d   1       0.755   0.522   2.264  0.00  0.00     0.034 A 
ATOM      7 Cl   UNL d   1       2.409   1.210   0.268  0.00  0.00    -0.070 Cl
ATOM      8 Cl1  UNL d   1       0.461  -0.615  -1.595  0.00  0.00    -0.070 Cl
ENDROOT
TORSDOF 0
ENDMDL
