MODEL 1
REMARK minimizedAffinity -4.78658247
REMARK minimizedRMSD -1
REMARK  0 active torsions:
REMARK  status: ('A' for Active; 'I' for Inactive)
ROOT
ATOM      1  C   UNL d   1      -0.525  -0.707   3.536  0.00  0.00     0.020 A 
ATOM      2  C1  UNL d   1       0.720  -0.970   2.967  0.00  0.00     0.020 A 
ATOM      3  C2  UNL d   1       0.910  -0.800   1.594  0.00  0.00     0.034 A 
ATOM      4  C3  UNL d   1      -0.147  -0.366   0.785  0.00  0.00     0.017 A 
ATOM      5  C4  UNL d   1      -1.396  -0.102   1.357  0.00  0.00     0.017 A 
ATOM      6  C5  UNL d   1      -1.581  -0.274   2.733  0.00  0.00     0.034 A 
ATOM      7 Cl   UNL d   1      -2.748   0.436   0.424  0.00  0.00    -0.070 Cl
ATOM      8 Cl1  UNL d   1       0.159  -0.178  -0.905  0.00  0.00    -0.070 Cl
ENDROOT
TORSDOF 0
ENDMDL
