MODEL 1
REMARK minimizedAffinity -3.4251132
REMARK minimizedRMSD -1
REMARK  0 active torsions:
REMARK  status: ('A' for Active; 'I' for Inactive)
ROOT
ATOM      1  C   UNL d   1       1.612  -1.111  -0.322  0.00  0.00     0.020 A 
ATOM      2  C1  UNL d   1       0.759  -0.753  -1.365  0.00  0.00     0.020 A 
ATOM      3  C2  UNL d   1      -0.545  -0.336  -1.089  0.00  0.00     0.034 A 
ATOM      4  C3  UNL d   1      -1.000  -0.277   0.233  0.00  0.00     0.017 A 
ATOM      5  C4  UNL d   1      -0.143  -0.636   1.280  0.00  0.00     0.017 A 
ATOM      6  C5  UNL d   1       1.162  -1.052   0.998  0.00  0.00     0.034 A 
ATOM      7 Cl   UNL d   1      -0.633  -0.588   2.937  0.00  0.00    -0.070 Cl
ATOM      8 Cl1  UNL d   1      -2.625   0.248   0.501  0.00  0.00    -0.070 Cl
ENDROOT
TORSDOF 0
ENDMDL
