MODEL 1
REMARK minimizedAffinity -2.3741343
REMARK minimizedRMSD -1
REMARK  0 active torsions:
REMARK  status: ('A' for Active; 'I' for Inactive)
ROOT
ATOM      1  C   UNL d   1       1.412  -0.353   2.201  0.00  0.00     0.020 A 
ATOM      2  C1  UNL d   1       0.248  -0.364   2.970  0.00  0.00     0.020 A 
ATOM      3  C2  UNL d   1      -1.001  -0.391   2.346  0.00  0.00     0.034 A 
ATOM      4  C3  UNL d   1      -1.089  -0.406   0.949  0.00  0.00     0.017 A 
ATOM      5  C4  UNL d   1       0.079  -0.396   0.178  0.00  0.00     0.017 A 
ATOM      6  C5  UNL d   1       1.327  -0.369   0.808  0.00  0.00     0.034 A 
ATOM      7 Cl   UNL d   1       0.049  -0.414  -1.550  0.00  0.00    -0.070 Cl
ATOM      8 Cl1  UNL d   1      -2.667  -0.440   0.244  0.00  0.00    -0.070 Cl
ENDROOT
TORSDOF 0
ENDMDL
