MODEL 1
REMARK minimizedAffinity -5.58996487
REMARK minimizedRMSD -1
REMARK  0 active torsions:
REMARK  status: ('A' for Active; 'I' for Inactive)
ROOT
ATOM      1  C   UNL d   1       0.522   0.882  -0.361  0.00  0.00     0.020 A 
ATOM      2  C1  UNL d   1       1.304   0.657   0.771  0.00  0.00     0.020 A 
ATOM      3  C2  UNL d   1       0.708   0.217   1.955  0.00  0.00     0.034 A 
ATOM      4  C3  UNL d   1      -0.674   0.001   2.009  0.00  0.00     0.017 A 
ATOM      5  C4  UNL d   1      -1.458   0.227   0.872  0.00  0.00     0.017 A 
ATOM      6  C5  UNL d   1      -0.855   0.667  -0.311  0.00  0.00     0.034 A 
ATOM      7 Cl   UNL d   1      -3.169  -0.018   0.862  0.00  0.00    -0.070 Cl
ATOM      8 Cl1  UNL d   1      -1.344  -0.544   3.506  0.00  0.00    -0.070 Cl
ENDROOT
TORSDOF 0
ENDMDL
