MODEL 1
REMARK minimizedAffinity -3.75748253
REMARK minimizedRMSD -1
REMARK  0 active torsions:
REMARK  status: ('A' for Active; 'I' for Inactive)
ROOT
ATOM      1  C   UNL d   1       0.455   1.052  -0.240  0.00  0.00     0.020 A 
ATOM      2  C1  UNL d   1       1.230   1.045   0.920  0.00  0.00     0.020 A 
ATOM      3  C2  UNL d   1       0.777   0.372   2.057  0.00  0.00     0.034 A 
ATOM      4  C3  UNL d   1      -0.453  -0.295   2.037  0.00  0.00     0.017 A 
ATOM      5  C4  UNL d   1      -1.230  -0.287   0.873  0.00  0.00     0.017 A 
ATOM      6  C5  UNL d   1      -0.771   0.388  -0.263  0.00  0.00     0.034 A 
ATOM      7 Cl   UNL d   1      -2.758  -1.088   0.772  0.00  0.00    -0.070 Cl
ATOM      8 Cl1  UNL d   1      -0.951  -1.106   3.480  0.00  0.00    -0.070 Cl
ENDROOT
TORSDOF 0
ENDMDL
