MODEL 1
REMARK minimizedAffinity -4.95161915
REMARK minimizedRMSD -1
REMARK  0 active torsions:
REMARK  status: ('A' for Active; 'I' for Inactive)
ROOT
ATOM      1  C   UNL d   1       0.039  -0.797   2.585  0.00  0.00     0.020 A 
ATOM      2  C1  UNL d   1      -1.323  -0.664   2.849  0.00  0.00     0.020 A 
ATOM      3  C2  UNL d   1      -2.155  -0.028   1.924  0.00  0.00     0.034 A 
ATOM      4  C3  UNL d   1      -1.624   0.476   0.731  0.00  0.00     0.017 A 
ATOM      5  C4  UNL d   1      -0.256   0.341   0.467  0.00  0.00     0.017 A 
ATOM      6  C5  UNL d   1       0.572  -0.296   1.397  0.00  0.00     0.034 A 
ATOM      7 Cl   UNL d   1       0.471   0.938  -0.983  0.00  0.00    -0.070 Cl
ATOM      8 Cl1  UNL d   1      -2.710   1.250  -0.368  0.00  0.00    -0.070 Cl
ENDROOT
TORSDOF 0
ENDMDL
