MODEL 1
REMARK minimizedAffinity -4.05270529
REMARK minimizedRMSD -1
REMARK  0 active torsions:
REMARK  status: ('A' for Active; 'I' for Inactive)
ROOT
ATOM      1  C   UNL d   1      -0.445   1.297  -0.763  0.00  0.00     0.020 A 
ATOM      2  C1  UNL d   1       0.587   1.119   0.158  0.00  0.00     0.020 A 
ATOM      3  C2  UNL d   1       0.404   0.278   1.257  0.00  0.00     0.034 A 
ATOM      4  C3  UNL d   1      -0.813  -0.389   1.439  0.00  0.00     0.017 A 
ATOM      5  C4  UNL d   1      -1.848  -0.210   0.514  0.00  0.00     0.017 A 
ATOM      6  C5  UNL d   1      -1.660   0.634  -0.585  0.00  0.00     0.034 A 
ATOM      7 Cl   UNL d   1      -3.378  -0.999   0.671  0.00  0.00    -0.070 Cl
ATOM      8 Cl1  UNL d   1      -0.969  -1.415   2.820  0.00  0.00    -0.070 Cl
ENDROOT
TORSDOF 0
ENDMDL
