MODEL 1
REMARK minimizedAffinity -4.79825592
REMARK minimizedRMSD -1
REMARK  0 active torsions:
REMARK  status: ('A' for Active; 'I' for Inactive)
ROOT
ATOM      1  C   UNL d   1       0.150   0.857  -0.695  0.00  0.00     0.020 A 
ATOM      2  C1  UNL d   1       1.029   0.574   0.349  0.00  0.00     0.020 A 
ATOM      3  C2  UNL d   1       0.537   0.096   1.566  0.00  0.00     0.034 A 
ATOM      4  C3  UNL d   1      -0.838  -0.099   1.741  0.00  0.00     0.017 A 
ATOM      5  C4  UNL d   1      -1.719   0.186   0.692  0.00  0.00     0.017 A 
ATOM      6  C5  UNL d   1      -1.221   0.664  -0.524  0.00  0.00     0.034 A 
ATOM      7 Cl   UNL d   1      -3.428  -0.030   0.833  0.00  0.00    -0.070 Cl
ATOM      8 Cl1  UNL d   1      -1.376  -0.692   3.272  0.00  0.00    -0.070 Cl
ENDROOT
TORSDOF 0
ENDMDL
