MODEL 1
REMARK minimizedAffinity 2.53458428
REMARK minimizedRMSD -1
REMARK  0 active torsions:
REMARK  status: ('A' for Active; 'I' for Inactive)
ROOT
ATOM      1  C   UNL d   1       0.643   0.088   0.496  0.00  0.00     0.020 A 
ATOM      2  C1  UNL d   1       1.540   1.147   0.633  0.00  0.00     0.020 A 
ATOM      3  C2  UNL d   1       1.584   1.875   1.824  0.00  0.00     0.034 A 
ATOM      4  C3  UNL d   1       0.730   1.545   2.882  0.00  0.00     0.017 A 
ATOM      5  C4  UNL d   1      -0.170   0.482   2.744  0.00  0.00     0.017 A 
ATOM      6  C5  UNL d   1      -0.210  -0.244   1.549  0.00  0.00     0.034 A 
ATOM      7 Cl   UNL d   1      -1.254   0.015   4.006  0.00  0.00    -0.070 Cl
ATOM      8 Cl1  UNL d   1       0.839   2.487   4.326  0.00  0.00    -0.070 Cl
ENDROOT
TORSDOF 0
ENDMDL
