MODEL 1
REMARK minimizedAffinity 4.42117643
REMARK minimizedRMSD -1
REMARK  0 active torsions:
REMARK  status: ('A' for Active; 'I' for Inactive)
ROOT
ATOM      1  C   UNL d   1       0.303   0.685  -0.787  0.00  0.00     0.020 A 
ATOM      2  C1  UNL d   1      -0.900   1.289  -1.149  0.00  0.00     0.020 A 
ATOM      3  C2  UNL d   1      -2.113   0.719  -0.754  0.00  0.00     0.034 A 
ATOM      4  C3  UNL d   1      -2.125  -0.457   0.003  0.00  0.00     0.017 A 
ATOM      5  C4  UNL d   1      -0.916  -1.063   0.365  0.00  0.00     0.017 A 
ATOM      6  C5  UNL d   1       0.296  -0.488  -0.032  0.00  0.00     0.034 A 
ATOM      7 Cl   UNL d   1      -0.850  -2.515   1.299  0.00  0.00    -0.070 Cl
ATOM      8 Cl1  UNL d   1      -3.661  -1.106   0.456  0.00  0.00    -0.070 Cl
ENDROOT
TORSDOF 0
ENDMDL
