MODEL 1
REMARK minimizedAffinity -2.22615123
REMARK minimizedRMSD -1
REMARK  0 active torsions:
REMARK  status: ('A' for Active; 'I' for Inactive)
ROOT
ATOM      1  C   UNL d   1      -0.394  -0.939  -0.730  0.00  0.00     0.020 A 
ATOM      2  C1  UNL d   1       0.271   0.286  -0.705  0.00  0.00     0.020 A 
ATOM      3  C2  UNL d   1       0.384   0.995   0.493  0.00  0.00     0.034 A 
ATOM      4  C3  UNL d   1      -0.168   0.480   1.671  0.00  0.00     0.017 A 
ATOM      5  C4  UNL d   1      -0.835  -0.750   1.645  0.00  0.00     0.017 A 
ATOM      6  C5  UNL d   1      -0.946  -1.456   0.443  0.00  0.00     0.034 A 
ATOM      7 Cl   UNL d   1      -1.542  -1.451   3.058  0.00  0.00    -0.070 Cl
ATOM      8 Cl1  UNL d   1       0.010   1.410   3.116  0.00  0.00    -0.070 Cl
ENDROOT
TORSDOF 0
ENDMDL
