MODEL 1
REMARK minimizedAffinity -3.59790421
REMARK minimizedRMSD -1
REMARK  0 active torsions:
REMARK  status: ('A' for Active; 'I' for Inactive)
ROOT
ATOM      1  C   UNL d   1       0.064   0.817  -0.972  0.00  0.00     0.020 A 
ATOM      2  C1  UNL d   1       1.034   0.688   0.021  0.00  0.00     0.020 A 
ATOM      3  C2  UNL d   1       0.670   0.267   1.302  0.00  0.00     0.034 A 
ATOM      4  C3  UNL d   1      -0.667  -0.025   1.593  0.00  0.00     0.017 A 
ATOM      5  C4  UNL d   1      -1.640   0.105   0.596  0.00  0.00     0.017 A 
ATOM      6  C5  UNL d   1      -1.270   0.526  -0.685  0.00  0.00     0.034 A 
ATOM      7 Cl   UNL d   1      -3.311  -0.238   0.879  0.00  0.00    -0.070 Cl
ATOM      8 Cl1  UNL d   1      -1.046  -0.540   3.198  0.00  0.00    -0.070 Cl
ENDROOT
TORSDOF 0
ENDMDL
