MODEL 1
REMARK minimizedAffinity 1.26418912
REMARK minimizedRMSD -1
REMARK  0 active torsions:
REMARK  status: ('A' for Active; 'I' for Inactive)
ROOT
ATOM      1  C   UNL d   1      -1.186   0.395  -0.892  0.00  0.00     0.020 A 
ATOM      2  C1  UNL d   1      -2.217   0.505   0.040  0.00  0.00     0.020 A 
ATOM      3  C2  UNL d   1      -1.919   0.694   1.391  0.00  0.00     0.034 A 
ATOM      4  C3  UNL d   1      -0.587   0.773   1.814  0.00  0.00     0.017 A 
ATOM      5  C4  UNL d   1       0.447   0.663   0.878  0.00  0.00     0.017 A 
ATOM      6  C5  UNL d   1       0.143   0.474  -0.474  0.00  0.00     0.034 A 
ATOM      7 Cl   UNL d   1       2.115   0.751   1.324  0.00  0.00    -0.070 Cl
ATOM      8 Cl1  UNL d   1      -0.292   1.008   3.500  0.00  0.00    -0.070 Cl
ENDROOT
TORSDOF 0
ENDMDL
