MODEL 1
REMARK minimizedAffinity -1.19336724
REMARK minimizedRMSD -1
REMARK  0 active torsions:
REMARK  status: ('A' for Active; 'I' for Inactive)
ROOT
ATOM      1  C   UNL d   1      -0.374  -0.237   3.310  0.00  0.00     0.020 A 
ATOM      2  C1  UNL d   1      -0.938  -1.296   2.601  0.00  0.00     0.020 A 
ATOM      3  C2  UNL d   1      -0.721  -1.409   1.226  0.00  0.00     0.034 A 
ATOM      4  C3  UNL d   1       0.063  -0.462   0.556  0.00  0.00     0.017 A 
ATOM      5  C4  UNL d   1       0.629   0.600   1.270  0.00  0.00     0.017 A 
ATOM      6  C5  UNL d   1       0.408   0.709   2.646  0.00  0.00     0.034 A 
ATOM      7 Cl   UNL d   1       1.608   1.807   0.513  0.00  0.00    -0.070 Cl
ATOM      8 Cl1  UNL d   1       0.290  -0.665  -1.145  0.00  0.00    -0.070 Cl
ENDROOT
TORSDOF 0
ENDMDL
