MODEL 1
REMARK minimizedAffinity -3.08112311
REMARK minimizedRMSD -1
REMARK  0 active torsions:
REMARK  status: ('A' for Active; 'I' for Inactive)
ROOT
ATOM      1  C   UNL d   1       1.569   0.389   2.145  0.00  0.00     0.020 A 
ATOM      2  C1  UNL d   1       0.511   0.026   2.978  0.00  0.00     0.020 A 
ATOM      3  C2  UNL d   1      -0.725  -0.317   2.426  0.00  0.00     0.034 A 
ATOM      4  C3  UNL d   1      -0.907  -0.297   1.039  0.00  0.00     0.017 A 
ATOM      5  C4  UNL d   1       0.155   0.068   0.204  0.00  0.00     0.017 A 
ATOM      6  C5  UNL d   1       1.391   0.411   0.761  0.00  0.00     0.034 A 
ATOM      7 Cl   UNL d   1       0.007   0.117  -1.517  0.00  0.00    -0.070 Cl
ATOM      8 Cl1  UNL d   1      -2.463  -0.733   0.426  0.00  0.00    -0.070 Cl
ENDROOT
TORSDOF 0
ENDMDL
