MODEL 1
REMARK minimizedAffinity -2.67864728
REMARK minimizedRMSD -1
REMARK  0 active torsions:
REMARK  status: ('A' for Active; 'I' for Inactive)
ROOT
ATOM      1  C   UNL d   1      -1.968   0.015  -0.288  0.00  0.00     0.020 A 
ATOM      2  C1  UNL d   1      -0.857   0.501  -0.975  0.00  0.00     0.020 A 
ATOM      3  C2  UNL d   1       0.399   0.493  -0.365  0.00  0.00     0.034 A 
ATOM      4  C3  UNL d   1       0.547  -0.002   0.936  0.00  0.00     0.017 A 
ATOM      5  C4  UNL d   1      -0.569  -0.490   1.625  0.00  0.00     0.017 A 
ATOM      6  C5  UNL d   1      -1.825  -0.480   1.009  0.00  0.00     0.034 A 
ATOM      7 Cl   UNL d   1      -0.466  -1.117   3.232  0.00  0.00    -0.070 Cl
ATOM      8 Cl1  UNL d   1       2.130   0.019   1.629  0.00  0.00    -0.070 Cl
ENDROOT
TORSDOF 0
ENDMDL
