MODEL 1
REMARK minimizedAffinity 11.5879183
REMARK minimizedRMSD -1
REMARK  0 active torsions:
REMARK  status: ('A' for Active; 'I' for Inactive)
ROOT
ATOM      1  O1  BZF d   1       2.605  -0.372   0.621  0.00  0.00    -0.204 OA
ATOM      2  C2  BZF d   1       1.829   0.746   0.388  0.00  0.00     0.174 A 
ATOM      3  C3  BZF d   1       2.491   1.869   0.735  0.00  0.00    -0.012 A 
ATOM      4  C3A BZF d   1       3.795   1.430   1.128  0.00  0.00    -0.107 A 
ATOM      5  C4  BZF d   1       4.914   2.083   1.562  0.00  0.00     0.055 A 
ATOM      6  C5  BZF d   1       6.000   1.355   1.934  0.00  0.00    -0.016 A 
ATOM      7  C6  BZF d   1       6.000  -0.024   1.890  0.00  0.00     0.022 A 
ATOM      8  C7  BZF d   1       4.915  -0.715   1.462  0.00  0.00     0.029 A 
ATOM      9  C7A BZF d   1       3.828   0.019   1.054  0.00  0.00     0.058 A 
ENDROOT
TORSDOF 0
ENDMDL
