MODEL 1
REMARK minimizedAffinity 11.1613302
REMARK minimizedRMSD -1
REMARK  0 active torsions:
REMARK  status: ('A' for Active; 'I' for Inactive)
ROOT
ATOM      1  O1  BZF d   1       4.572  -1.121   1.452  0.00  0.00    -0.204 OA
ATOM      2  C2  BZF d   1       5.888  -0.702   1.486  0.00  0.00     0.174 A 
ATOM      3  C3  BZF d   1       6.000   0.563   1.032  0.00  0.00    -0.012 A 
ATOM      4  C3A BZF d   1       4.658   0.992   0.779  0.00  0.00    -0.107 A 
ATOM      5  C4  BZF d   1       4.115   2.161   0.329  0.00  0.00     0.055 A 
ATOM      6  C5  BZF d   1       2.774   2.230   0.123  0.00  0.00    -0.016 A 
ATOM      7  C6  BZF d   1       1.948   1.150   0.351  0.00  0.00     0.022 A 
ATOM      8  C7  BZF d   1       2.439  -0.030   0.803  0.00  0.00     0.029 A 
ATOM      9  C7A BZF d   1       3.790  -0.093   1.044  0.00  0.00     0.058 A 
ENDROOT
TORSDOF 0
ENDMDL
