MODEL 1
REMARK minimizedAffinity 8.41385841
REMARK minimizedRMSD -1
REMARK  0 active torsions:
REMARK  status: ('A' for Active; 'I' for Inactive)
ROOT
ATOM      1  O1  BZF d   1       2.207  -0.275   3.618  0.00  0.00    -0.204 OA
ATOM      2  C2  BZF d   1       1.079   0.446   3.961  0.00  0.00     0.174 A 
ATOM      3  C3  BZF d   1       0.736   1.295   2.971  0.00  0.00    -0.012 A 
ATOM      4  C3A BZF d   1       1.655   1.026   1.908  0.00  0.00    -0.107 A 
ATOM      5  C4  BZF d   1       1.814   1.538   0.652  0.00  0.00     0.055 A 
ATOM      6  C5  BZF d   1       2.856   1.110  -0.108  0.00  0.00    -0.016 A 
ATOM      7  C6  BZF d   1       3.760   0.178   0.357  0.00  0.00     0.022 A 
ATOM      8  C7  BZF d   1       3.640  -0.362   1.594  0.00  0.00     0.029 A 
ATOM      9  C7A BZF d   1       2.570   0.044   2.353  0.00  0.00     0.058 A 
ENDROOT
TORSDOF 0
ENDMDL
