MODEL 1
REMARK minimizedAffinity 22.3819675
REMARK minimizedRMSD -1
REMARK  0 active torsions:
REMARK  status: ('A' for Active; 'I' for Inactive)
ROOT
ATOM      1  O1  BZF d   1      -1.062  -3.466  -3.188  0.00  0.00    -0.204 OA
ATOM      2  C2  BZF d   1      -2.308  -3.061  -3.629  0.00  0.00     0.174 A 
ATOM      3  C3  BZF d   1      -3.070  -2.648  -2.596  0.00  0.00    -0.012 A 
ATOM      4  C3A BZF d   1      -2.218  -2.717  -1.448  0.00  0.00    -0.107 A 
ATOM      5  C4  BZF d   1      -2.397  -2.421  -0.127  0.00  0.00     0.055 A 
ATOM      6  C5  BZF d   1      -1.387  -2.670   0.748  0.00  0.00    -0.016 A 
ATOM      7  C6  BZF d   1      -0.190  -3.219   0.338  0.00  0.00     0.022 A 
ATOM      8  C7  BZF d   1       0.036  -3.525  -0.963  0.00  0.00     0.029 A 
ATOM      9  C7A BZF d   1      -0.970  -3.244  -1.855  0.00  0.00     0.058 A 
ENDROOT
TORSDOF 0
ENDMDL
