MODEL 1
REMARK minimizedAffinity 5.7747016
REMARK minimizedRMSD -1
REMARK  0 active torsions:
REMARK  status: ('A' for Active; 'I' for Inactive)
ROOT
ATOM      1  O1  BZF d   1      -3.436  -3.477  -1.842  0.00  0.00    -0.204 OA
ATOM      2  C2  BZF d   1      -3.168  -2.555  -2.836  0.00  0.00     0.174 A 
ATOM      3  C3  BZF d   1      -2.169  -1.729  -2.465  0.00  0.00    -0.012 A 
ATOM      4  C3A BZF d   1      -1.726  -2.220  -1.196  0.00  0.00    -0.107 A 
ATOM      5  C4  BZF d   1      -0.748  -1.828  -0.327  0.00  0.00     0.055 A 
ATOM      6  C5  BZF d   1      -0.623  -2.475   0.862  0.00  0.00    -0.016 A 
ATOM      7  C6  BZF d   1      -1.460  -3.513   1.215  0.00  0.00     0.022 A 
ATOM      8  C7  BZF d   1      -2.442  -3.940   0.384  0.00  0.00     0.029 A 
ATOM      9  C7A BZF d   1      -2.550  -3.310  -0.831  0.00  0.00     0.058 A 
ENDROOT
TORSDOF 0
ENDMDL
