MODEL 1
REMARK minimizedAffinity 6.33101273
REMARK minimizedRMSD -1
REMARK  0 active torsions:
REMARK  status: ('A' for Active; 'I' for Inactive)
ROOT
ATOM      1  O1  BZF d   1       2.821  -0.541   3.464  0.00  0.00    -0.204 OA
ATOM      2  C2  BZF d   1       1.721   0.100   4.000  0.00  0.00     0.174 A 
ATOM      3  C3  BZF d   1       1.106   0.855   3.067  0.00  0.00    -0.012 A 
ATOM      4  C3A BZF d   1       1.815   0.602   1.850  0.00  0.00    -0.107 A 
ATOM      5  C4  BZF d   1       1.668   1.047   0.568  0.00  0.00     0.055 A 
ATOM      6  C5  BZF d   1       2.572   0.664  -0.372  0.00  0.00    -0.016 A 
ATOM      7  C6  BZF d   1       3.636  -0.158  -0.064  0.00  0.00     0.022 A 
ATOM      8  C7  BZF d   1       3.820  -0.629   1.193  0.00  0.00     0.029 A 
ATOM      9  C7A BZF d   1       2.890  -0.271   2.138  0.00  0.00     0.058 A 
ENDROOT
TORSDOF 0
ENDMDL
