MODEL 1
REMARK minimizedAffinity 1.38738394
REMARK minimizedRMSD -1
REMARK  0 active torsions:
REMARK  status: ('A' for Active; 'I' for Inactive)
ROOT
ATOM      1  O1  BZF d   1       2.347  -0.893   3.425  0.00  0.00    -0.204 OA
ATOM      2  C2  BZF d   1       1.409  -0.047   3.984  0.00  0.00     0.174 A 
ATOM      3  C3  BZF d   1       1.168   1.003   3.172  0.00  0.00    -0.012 A 
ATOM      4  C3A BZF d   1       1.940   0.752   1.993  0.00  0.00    -0.107 A 
ATOM      5  C4  BZF d   1       2.106   1.427   0.818  0.00  0.00     0.055 A 
ATOM      6  C5  BZF d   1       2.987   0.950  -0.099  0.00  0.00    -0.016 A 
ATOM      7  C6  BZF d   1       3.722  -0.195   0.128  0.00  0.00     0.022 A 
ATOM      8  C7  BZF d   1       3.588  -0.902   1.276  0.00  0.00     0.029 A 
ATOM      9  C7A BZF d   1       2.674  -0.440   2.191  0.00  0.00     0.058 A 
ENDROOT
TORSDOF 0
ENDMDL
