MODEL 1
REMARK minimizedAffinity 7.63342524
REMARK minimizedRMSD -1
REMARK  0 active torsions:
REMARK  status: ('A' for Active; 'I' for Inactive)
ROOT
ATOM      1  O1  BZF d   1       4.946  -1.158   2.138  0.00  0.00    -0.204 OA
ATOM      2  C2  BZF d   1       5.999  -1.157   1.244  0.00  0.00     0.174 A 
ATOM      3  C3  BZF d   1       5.640  -0.570   0.083  0.00  0.00    -0.012 A 
ATOM      4  C3A BZF d   1       4.307  -0.098   0.297  0.00  0.00    -0.107 A 
ATOM      5  C4  BZF d   1       3.416   0.583  -0.483  0.00  0.00     0.055 A 
ATOM      6  C5  BZF d   1       2.168   0.826  -0.001  0.00  0.00    -0.016 A 
ATOM      7  C6  BZF d   1       1.777   0.400   1.251  0.00  0.00     0.022 A 
ATOM      8  C7  BZF d   1       2.628  -0.274   2.063  0.00  0.00     0.029 A 
ATOM      9  C7A BZF d   1       3.899  -0.493   1.592  0.00  0.00     0.058 A 
ENDROOT
TORSDOF 0
ENDMDL
