MODEL 1
REMARK minimizedAffinity 0.828594208
REMARK minimizedRMSD -1
REMARK  0 active torsions:
REMARK  status: ('A' for Active; 'I' for Inactive)
ROOT
ATOM      1  O1  BZF d   1       0.833   1.542   3.254  0.00  0.00    -0.204 OA
ATOM      2  C2  BZF d   1       0.886   0.400   4.030  0.00  0.00     0.174 A 
ATOM      3  C3  BZF d   1       1.627  -0.553   3.429  0.00  0.00    -0.012 A 
ATOM      4  C3A BZF d   1       2.142   0.062   2.244  0.00  0.00    -0.107 A 
ATOM      5  C4  BZF d   1       2.959  -0.372   1.240  0.00  0.00     0.055 A 
ATOM      6  C5  BZF d   1       3.210   0.453   0.190  0.00  0.00    -0.016 A 
ATOM      7  C6  BZF d   1       2.657   1.714   0.108  0.00  0.00     0.022 A 
ATOM      8  C7  BZF d   1       1.844   2.190   1.082  0.00  0.00     0.029 A 
ATOM      9  C7A BZF d   1       1.615   1.372   2.161  0.00  0.00     0.058 A 
ENDROOT
TORSDOF 0
ENDMDL
