MODEL 1
REMARK minimizedAffinity 11.2925482
REMARK minimizedRMSD -1
REMARK  0 active torsions:
REMARK  status: ('A' for Active; 'I' for Inactive)
ROOT
ATOM      1  O1  BZF d   1      -4.358   4.388   4.383  0.00  0.00    -0.204 OA
ATOM      2  C2  BZF d   1      -5.154   5.086   5.270  0.00  0.00     0.174 A 
ATOM      3  C3  BZF d   1      -5.911   4.242   6.000  0.00  0.00    -0.012 A 
ATOM      4  C3A BZF d   1      -5.499   2.930   5.604  0.00  0.00    -0.107 A 
ATOM      5  C4  BZF d   1      -5.874   1.673   5.986  0.00  0.00     0.055 A 
ATOM      6  C5  BZF d   1      -5.330   0.601   5.353  0.00  0.00    -0.016 A 
ATOM      7  C6  BZF d   1      -4.414   0.749   4.331  0.00  0.00     0.022 A 
ATOM      8  C7  BZF d   1      -4.008   1.975   3.921  0.00  0.00     0.029 A 
ATOM      9  C7A BZF d   1      -4.531   3.060   4.582  0.00  0.00     0.058 A 
ENDROOT
TORSDOF 0
ENDMDL
