MODEL 1
REMARK minimizedAffinity 5.88499308
REMARK minimizedRMSD -1
REMARK  0 active torsions:
REMARK  status: ('A' for Active; 'I' for Inactive)
ROOT
ATOM      1  O1  BZF d   1      -1.237  -4.139   1.636  0.00  0.00    -0.204 OA
ATOM      2  C2  BZF d   1      -1.863  -5.350   1.860  0.00  0.00     0.174 A 
ATOM      3  C3  BZF d   1      -2.796  -5.588   0.915  0.00  0.00    -0.012 A 
ATOM      4  C3A BZF d   1      -2.685  -4.498  -0.005  0.00  0.00    -0.107 A 
ATOM      5  C4  BZF d   1      -3.335  -4.178  -1.163  0.00  0.00     0.055 A 
ATOM      6  C5  BZF d   1      -3.040  -3.005  -1.783  0.00  0.00    -0.016 A 
ATOM      7  C6  BZF d   1      -2.107  -2.127  -1.271  0.00  0.00     0.022 A 
ATOM      8  C7  BZF d   1      -1.434  -2.404  -0.127  0.00  0.00     0.029 A 
ATOM      9  C7A BZF d   1      -1.706  -3.604   0.483  0.00  0.00     0.058 A 
ENDROOT
TORSDOF 0
ENDMDL
