MODEL 1
REMARK minimizedAffinity 2.96745729
REMARK minimizedRMSD -1
REMARK  0 active torsions:
REMARK  status: ('A' for Active; 'I' for Inactive)
ROOT
ATOM      1  O1  BZF d   1       4.540  -0.947   1.435  0.00  0.00    -0.204 OA
ATOM      2  C2  BZF d   1       4.536  -0.858   0.057  0.00  0.00     0.174 A 
ATOM      3  C3  BZF d   1       3.496  -0.115  -0.372  0.00  0.00    -0.012 A 
ATOM      4  C3A BZF d   1       2.859   0.362   0.817  0.00  0.00    -0.107 A 
ATOM      5  C4  BZF d   1       1.776   1.164   1.046  0.00  0.00     0.055 A 
ATOM      6  C5  BZF d   1       1.371   1.377   2.325  0.00  0.00    -0.016 A 
ATOM      7  C6  BZF d   1       2.020   0.802   3.398  0.00  0.00     0.022 A 
ATOM      8  C7  BZF d   1       3.102   0.004   3.221  0.00  0.00     0.029 A 
ATOM      9  C7A BZF d   1       3.534  -0.187   1.931  0.00  0.00     0.058 A 
ENDROOT
TORSDOF 0
ENDMDL
