MODEL 1
REMARK minimizedAffinity 4.33398247
REMARK minimizedRMSD -1
REMARK  0 active torsions:
REMARK  status: ('A' for Active; 'I' for Inactive)
ROOT
ATOM      1  O1  BZF d   1      -0.529  -4.285  -3.152  0.00  0.00    -0.204 OA
ATOM      2  C2  BZF d   1      -1.479  -4.087  -4.136  0.00  0.00     0.174 A 
ATOM      3  C3  BZF d   1      -2.534  -3.400  -3.651  0.00  0.00    -0.012 A 
ATOM      4  C3A BZF d   1      -2.183  -3.073  -2.303  0.00  0.00    -0.107 A 
ATOM      5  C4  BZF d   1      -2.817  -2.384  -1.309  0.00  0.00     0.055 A 
ATOM      6  C5  BZF d   1      -2.234  -2.307  -0.084  0.00  0.00    -0.016 A 
ATOM      7  C6  BZF d   1      -1.023  -2.910   0.183  0.00  0.00     0.022 A 
ATOM      8  C7  BZF d   1      -0.354  -3.600  -0.773  0.00  0.00     0.029 A 
ATOM      9  C7A BZF d   1      -0.924  -3.652  -2.021  0.00  0.00     0.058 A 
ENDROOT
TORSDOF 0
ENDMDL
