MODEL 1
REMARK minimizedAffinity 10.3908119
REMARK minimizedRMSD -1
REMARK  0 active torsions:
REMARK  status: ('A' for Active; 'I' for Inactive)
ROOT
ATOM      1  O1  BZF d   1      -4.306   2.555   4.820  0.00  0.00    -0.204 OA
ATOM      2  C2  BZF d   1      -4.502   1.754   3.712  0.00  0.00     0.174 A 
ATOM      3  C3  BZF d   1      -5.187   2.416   2.758  0.00  0.00    -0.012 A 
ATOM      4  C3A BZF d   1      -5.355   3.743   3.267  0.00  0.00    -0.107 A 
ATOM      5  C4  BZF d   1      -5.942   4.871   2.771  0.00  0.00     0.055 A 
ATOM      6  C5  BZF d   1      -5.999   5.983   3.551  0.00  0.00    -0.016 A 
ATOM      7  C6  BZF d   1      -5.484   6.000   4.830  0.00  0.00     0.022 A 
ATOM      8  C7  BZF d   1      -4.888   4.906   5.364  0.00  0.00     0.029 A 
ATOM      9  C7A BZF d   1      -4.799   3.791   4.566  0.00  0.00     0.058 A 
ENDROOT
TORSDOF 0
ENDMDL
