MODEL 1
REMARK minimizedAffinity 20.883503
REMARK minimizedRMSD -1
REMARK  0 active torsions:
REMARK  status: ('A' for Active; 'I' for Inactive)
ROOT
ATOM      1  O1  BZF d   1      -0.515  -2.880   0.791  0.00  0.00    -0.204 OA
ATOM      2  C2  BZF d   1      -1.445  -2.155   0.071  0.00  0.00     0.174 A 
ATOM      3  C3  BZF d   1      -2.634  -2.792   0.047  0.00  0.00    -0.012 A 
ATOM      4  C3A BZF d   1      -2.460  -3.944   0.878  0.00  0.00    -0.107 A 
ATOM      5  C4  BZF d   1      -3.289  -4.960   1.260  0.00  0.00     0.055 A 
ATOM      6  C5  BZF d   1      -2.789  -5.971   2.018  0.00  0.00    -0.016 A 
ATOM      7  C6  BZF d   1      -1.466  -6.000   2.408  0.00  0.00     0.022 A 
ATOM      8  C7  BZF d   1      -0.607  -5.012   2.058  0.00  0.00     0.029 A 
ATOM      9  C7A BZF d   1      -1.117  -3.973   1.319  0.00  0.00     0.058 A 
ENDROOT
TORSDOF 0
ENDMDL
