MODEL 1
REMARK minimizedAffinity 12.5910435
REMARK minimizedRMSD -1
REMARK  0 active torsions:
REMARK  status: ('A' for Active; 'I' for Inactive)
ROOT
ATOM      1  O1  BZF d   1      -3.178  -2.590  -3.011  0.00  0.00    -0.204 OA
ATOM      2  C2  BZF d   1      -1.991  -2.823  -2.343  0.00  0.00     0.174 A 
ATOM      3  C3  BZF d   1      -2.046  -3.986  -1.663  0.00  0.00    -0.012 A 
ATOM      4  C3A BZF d   1      -3.314  -4.559  -1.998  0.00  0.00    -0.107 A 
ATOM      5  C4  BZF d   1      -3.941  -5.720  -1.647  0.00  0.00     0.055 A 
ATOM      6  C5  BZF d   1      -5.207  -5.946  -2.089  0.00  0.00    -0.016 A 
ATOM      7  C6  BZF d   1      -5.875  -5.032  -2.877  0.00  0.00     0.022 A 
ATOM      8  C7  BZF d   1      -5.292  -3.868  -3.254  0.00  0.00     0.029 A 
ATOM      9  C7A BZF d   1      -4.001  -3.652  -2.837  0.00  0.00     0.058 A 
ENDROOT
TORSDOF 0
ENDMDL
