MODEL 1
REMARK minimizedAffinity 14.5395336
REMARK minimizedRMSD -1
REMARK  0 active torsions:
REMARK  status: ('A' for Active; 'I' for Inactive)
ROOT
ATOM      1  C   UNL d   1      -4.477  -1.229  -2.951  0.00  0.00     0.124 A 
ATOM      2  C1  UNL d   1      -3.574  -0.594  -2.110  0.00  0.00     0.062 A 
ATOM      3  C2  UNL d   1      -3.301   0.761  -2.273  0.00  0.00     0.162 A 
ATOM      4  C3  UNL d   1      -3.932   1.491  -3.280  0.00  0.00    -0.034 A 
ATOM      5  C4  UNL d   1      -4.839   0.844  -4.123  0.00  0.00     0.162 A 
ATOM      6  C5  UNL d   1      -5.108  -0.510  -3.956  0.00  0.00     0.062 A 
ATOM      7  F   UNL d   1      -5.981  -1.123  -4.769  0.00  0.00    -0.097 F 
ATOM      8  F1  UNL d   1      -5.464   1.515  -5.101  0.00  0.00    -0.096 F 
ATOM      9  I   UNL d   1      -3.527   3.517  -3.527  0.00  0.00    -0.060 I 
ATOM     10  F2  UNL d   1      -2.423   1.350  -1.446  0.00  0.00    -0.096 F 
ATOM     11  F3  UNL d   1      -2.962  -1.286  -1.139  0.00  0.00    -0.097 F 
ATOM     12  F4  UNL d   1      -4.737  -2.534  -2.793  0.00  0.00    -0.092 F 
ENDROOT
TORSDOF 0
ENDMDL
