MODEL 1
REMARK minimizedAffinity 15.7429867
REMARK minimizedRMSD -1
REMARK  0 active torsions:
REMARK  status: ('A' for Active; 'I' for Inactive)
ROOT
ATOM      1  C   UNL d   1       0.410   3.439   1.902  0.00  0.00     0.124 A 
ATOM      2  C1  UNL d   1      -0.882   3.156   2.323  0.00  0.00     0.062 A 
ATOM      3  C2  UNL d   1      -1.292   1.835   2.484  0.00  0.00     0.162 A 
ATOM      4  C3  UNL d   1      -0.409   0.787   2.224  0.00  0.00    -0.034 A 
ATOM      5  C4  UNL d   1       0.889   1.080   1.800  0.00  0.00     0.162 A 
ATOM      6  C5  UNL d   1       1.294   2.402   1.641  0.00  0.00     0.062 A 
ATOM      7  F   UNL d   1       2.542   2.674   1.234  0.00  0.00    -0.097 F 
ATOM      8  F1  UNL d   1       1.764   0.097   1.542  0.00  0.00    -0.096 F 
ATOM      9  I   UNL d   1      -1.018  -1.188   2.463  0.00  0.00    -0.060 I 
ATOM     10  F2  UNL d   1      -2.546   1.591   2.892  0.00  0.00    -0.096 F 
ATOM     11  F3  UNL d   1      -1.739   4.156   2.575  0.00  0.00    -0.097 F 
ATOM     12  F4  UNL d   1       0.801   4.710   1.747  0.00  0.00    -0.092 F 
ENDROOT
TORSDOF 0
ENDMDL
