MODEL 1
REMARK minimizedAffinity 21.1064243
REMARK minimizedRMSD -1
REMARK  0 active torsions:
REMARK  status: ('A' for Active; 'I' for Inactive)
ROOT
ATOM      1  C   UNL d   1       2.436  -2.689   1.124  0.00  0.00     0.124 A 
ATOM      2  C1  UNL d   1       2.155  -3.967   0.659  0.00  0.00     0.062 A 
ATOM      3  C2  UNL d   1       3.170  -4.760   0.134  0.00  0.00     0.162 A 
ATOM      4  C3  UNL d   1       4.478  -4.280   0.071  0.00  0.00    -0.034 A 
ATOM      5  C4  UNL d   1       4.754  -2.994   0.539  0.00  0.00     0.162 A 
ATOM      6  C5  UNL d   1       3.735  -2.204   1.063  0.00  0.00     0.062 A 
ATOM      7  F   UNL d   1       4.009  -0.970   1.512  0.00  0.00    -0.097 F 
ATOM      8  F1  UNL d   1       6.000  -2.500   0.494  0.00  0.00    -0.096 F 
ATOM      9  I   UNL d   1       5.999  -5.463  -0.714  0.00  0.00    -0.060 I 
ATOM     10  F2  UNL d   1       2.869  -5.991  -0.308  0.00  0.00    -0.096 F 
ATOM     11  F3  UNL d   1       0.900  -4.437   0.715  0.00  0.00    -0.097 F 
ATOM     12  F4  UNL d   1       1.457  -1.927   1.628  0.00  0.00    -0.092 F 
ENDROOT
TORSDOF 0
ENDMDL
