MODEL 1
REMARK minimizedAffinity 22.6969604
REMARK minimizedRMSD -1
REMARK  0 active torsions:
REMARK  status: ('A' for Active; 'I' for Inactive)
ROOT
ATOM      1  C   UNL d   1       2.825  -4.346   0.526  0.00  0.00     0.124 A 
ATOM      2  C1  UNL d   1       1.526  -4.097   0.950  0.00  0.00     0.062 A 
ATOM      3  C2  UNL d   1       1.221  -2.912   1.611  0.00  0.00     0.162 A 
ATOM      4  C3  UNL d   1       2.216  -1.964   1.853  0.00  0.00    -0.034 A 
ATOM      5  C4  UNL d   1       3.519  -2.222   1.425  0.00  0.00     0.162 A 
ATOM      6  C5  UNL d   1       3.820  -3.408   0.764  0.00  0.00     0.062 A 
ATOM      7  F   UNL d   1       5.074  -3.647   0.356  0.00  0.00    -0.097 F 
ATOM      8  F1  UNL d   1       4.500  -1.332   1.641  0.00  0.00    -0.096 F 
ATOM      9  I   UNL d   1       1.763  -0.190   2.842  0.00  0.00    -0.060 I 
ATOM     10  F2  UNL d   1      -0.042  -2.698   2.009  0.00  0.00    -0.096 F 
ATOM     11  F3  UNL d   1       0.564  -5.002   0.722  0.00  0.00    -0.097 F 
ATOM     12  F4  UNL d   1       3.116  -5.488  -0.109  0.00  0.00    -0.092 F 
ENDROOT
TORSDOF 0
ENDMDL
