MODEL 1
REMARK minimizedAffinity 20.7441444
REMARK minimizedRMSD -1
REMARK  0 active torsions:
REMARK  status: ('A' for Active; 'I' for Inactive)
ROOT
ATOM      1  C   UNL d   1      -2.499   3.339  -4.114  0.00  0.00     0.124 A 
ATOM      2  C1  UNL d   1      -3.510   3.388  -5.063  0.00  0.00     0.062 A 
ATOM      3  C2  UNL d   1      -4.510   2.420  -5.071  0.00  0.00     0.162 A 
ATOM      4  C3  UNL d   1      -4.505   1.395  -4.125  0.00  0.00    -0.034 A 
ATOM      5  C4  UNL d   1      -3.484   1.352  -3.174  0.00  0.00     0.162 A 
ATOM      6  C5  UNL d   1      -2.487   2.321  -3.170  0.00  0.00     0.062 A 
ATOM      7  F   UNL d   1      -1.510   2.272  -2.252  0.00  0.00    -0.097 F 
ATOM      8  F1  UNL d   1      -3.449   0.380  -2.250  0.00  0.00    -0.096 F 
ATOM      9  I   UNL d   1      -5.999  -0.054  -4.134  0.00  0.00    -0.060 I 
ATOM     10  F2  UNL d   1      -5.475   2.493  -6.000  0.00  0.00    -0.096 F 
ATOM     11  F3  UNL d   1      -3.523   4.370  -5.976  0.00  0.00    -0.097 F 
ATOM     12  F4  UNL d   1      -1.537   4.271  -4.109  0.00  0.00    -0.092 F 
ENDROOT
TORSDOF 0
ENDMDL
