MODEL 1
REMARK minimizedAffinity 10.2112541
REMARK minimizedRMSD -1
REMARK  0 active torsions:
REMARK  status: ('A' for Active; 'I' for Inactive)
ROOT
ATOM      1  C   UNL d   1       4.554  -3.762   1.308  0.00  0.00     0.124 A 
ATOM      2  C1  UNL d   1       4.119  -4.626   2.303  0.00  0.00     0.062 A 
ATOM      3  C2  UNL d   1       4.315  -4.307   3.643  0.00  0.00     0.162 A 
ATOM      4  C3  UNL d   1       4.950  -3.116   3.997  0.00  0.00    -0.034 A 
ATOM      5  C4  UNL d   1       5.386  -2.252   2.991  0.00  0.00     0.162 A 
ATOM      6  C5  UNL d   1       5.187  -2.576   1.653  0.00  0.00     0.062 A 
ATOM      7  F   UNL d   1       5.609  -1.740   0.693  0.00  0.00    -0.097 F 
ATOM      8  F1  UNL d   1       6.000  -1.099   3.296  0.00  0.00    -0.096 F 
ATOM      9  I   UNL d   1       5.245  -2.634   6.000  0.00  0.00    -0.060 I 
ATOM     10  F2  UNL d   1       3.884  -5.160   4.584  0.00  0.00    -0.096 F 
ATOM     11  F3  UNL d   1       3.508  -5.773   1.973  0.00  0.00    -0.097 F 
ATOM     12  F4  UNL d   1       4.365  -4.073   0.019  0.00  0.00    -0.092 F 
ENDROOT
TORSDOF 0
ENDMDL
