MODEL 1
REMARK minimizedAffinity 19.7644215
REMARK minimizedRMSD -1
REMARK  0 active torsions:
REMARK  status: ('A' for Active; 'I' for Inactive)
ROOT
ATOM      1  C   UNL d   1       2.363  -4.333   0.476  0.00  0.00     0.124 A 
ATOM      2  C1  UNL d   1       3.658  -4.723   0.165  0.00  0.00     0.062 A 
ATOM      3  C2  UNL d   1       4.698  -3.799   0.212  0.00  0.00     0.162 A 
ATOM      4  C3  UNL d   1       4.447  -2.475   0.572  0.00  0.00    -0.034 A 
ATOM      5  C4  UNL d   1       3.142  -2.090   0.882  0.00  0.00     0.162 A 
ATOM      6  C5  UNL d   1       2.106  -3.017   0.834  0.00  0.00     0.062 A 
ATOM      7  F   UNL d   1       0.855  -2.638   1.135  0.00  0.00    -0.097 F 
ATOM      8  F1  UNL d   1       2.866  -0.825   1.233  0.00  0.00    -0.096 F 
ATOM      9  I   UNL d   1       6.000  -1.091   0.643  0.00  0.00    -0.060 I 
ATOM     10  F2  UNL d   1       5.940  -4.204  -0.094  0.00  0.00    -0.096 F 
ATOM     11  F3  UNL d   1       3.909  -5.994  -0.183  0.00  0.00    -0.097 F 
ATOM     12  F4  UNL d   1       1.364  -5.224   0.429  0.00  0.00    -0.092 F 
ENDROOT
TORSDOF 0
ENDMDL
