MODEL 1
REMARK minimizedAffinity 11.7090216
REMARK minimizedRMSD -1
REMARK  0 active torsions:
REMARK  status: ('A' for Active; 'I' for Inactive)
ROOT
ATOM      1  C   UNL d   1       3.046  -3.151   0.215  0.00  0.00     0.124 A 
ATOM      2  C1  UNL d   1       2.422  -2.604   1.328  0.00  0.00     0.062 A 
ATOM      3  C2  UNL d   1       3.002  -2.727   2.587  0.00  0.00     0.162 A 
ATOM      4  C3  UNL d   1       4.214  -3.401   2.741  0.00  0.00    -0.034 A 
ATOM      5  C4  UNL d   1       4.834  -3.950   1.617  0.00  0.00     0.162 A 
ATOM      6  C5  UNL d   1       4.251  -3.824   0.361  0.00  0.00     0.062 A 
ATOM      7  F   UNL d   1       4.855  -4.354  -0.713  0.00  0.00    -0.097 F 
ATOM      8  F1  UNL d   1       6.000  -4.604   1.729  0.00  0.00    -0.096 F 
ATOM      9  I   UNL d   1       5.084  -3.588   4.622  0.00  0.00    -0.060 I 
ATOM     10  F2  UNL d   1       2.377  -2.188   3.644  0.00  0.00    -0.096 F 
ATOM     11  F3  UNL d   1       1.257  -1.954   1.190  0.00  0.00    -0.097 F 
ATOM     12  F4  UNL d   1       2.485  -3.032  -0.995  0.00  0.00    -0.092 F 
ENDROOT
TORSDOF 0
ENDMDL
