MODEL 1
REMARK minimizedAffinity -1.5855149
REMARK minimizedRMSD -1
REMARK  1 active torsions:
REMARK  status: ('A' for Active; 'I' for Inactive)
REMARK    1  A    between atoms: C3_4  and  O_7 
ROOT
ATOM      1  C   UNL d   1       0.017   3.385   0.757  0.00  0.00    -0.033 A 
ATOM      2  C1  UNL d   1       1.359   3.639   1.046  0.00  0.00     0.039 A 
ATOM      3  C2  UNL d   1       2.312   2.632   0.886  0.00  0.00    -0.080 A 
ATOM      4  C3  UNL d   1       1.911   1.377   0.436  0.00  0.00     0.150 A 
ATOM      5  C4  UNL d   1       0.577   1.117   0.143  0.00  0.00    -0.007 A 
ATOM      6  C5  UNL d   1      -0.374   2.124   0.304  0.00  0.00     0.039 A 
ENDROOT
BRANCH   4   7
ATOM      7  O   UNL d   1       2.805   0.361   0.269  0.00  0.00    -0.526 OA
ATOM      8  H5  UNL d   1       3.684   0.676   0.537  0.00  0.00     0.418 HD
ENDBRANCH   4   7
TORSDOF 1
ENDMDL
