MODEL 1
REMARK minimizedAffinity 1.01280081
REMARK minimizedRMSD -1
REMARK  1 active torsions:
REMARK  status: ('A' for Active; 'I' for Inactive)
REMARK    1  A    between atoms: C3_4  and  O_7 
ROOT
ATOM      1  C   UNL d   1      -0.650   2.335   0.976  0.00  0.00    -0.033 A 
ATOM      2  C1  UNL d   1      -1.695   2.085   0.085  0.00  0.00     0.039 A 
ATOM      3  C2  UNL d   1      -2.049   0.771  -0.228  0.00  0.00    -0.080 A 
ATOM      4  C3  UNL d   1      -1.352  -0.282   0.357  0.00  0.00     0.150 A 
ATOM      5  C4  UNL d   1      -0.311  -0.040   1.249  0.00  0.00    -0.007 A 
ATOM      6  C5  UNL d   1       0.041   1.273   1.559  0.00  0.00     0.039 A 
ENDROOT
BRANCH   4   7
ATOM      7  O   UNL d   1      -1.657  -1.581   0.079  0.00  0.00    -0.526 OA
ATOM      8  H5  UNL d   1      -2.377  -1.595  -0.574  0.00  0.00     0.418 HD
ENDBRANCH   4   7
TORSDOF 1
ENDMDL
