MODEL 1
REMARK minimizedAffinity -4.19938564
REMARK minimizedRMSD -1
REMARK  1 active torsions:
REMARK  status: ('A' for Active; 'I' for Inactive)
REMARK    1  A    between atoms: C3_4  and  O_7 
ROOT
ATOM      1  C   UNL d   1      -0.844   1.962   0.652  0.00  0.00    -0.033 A 
ATOM      2  C1  UNL d   1      -1.753   1.712  -0.378  0.00  0.00     0.039 A 
ATOM      3  C2  UNL d   1      -1.680   0.521  -1.103  0.00  0.00    -0.080 A 
ATOM      4  C3  UNL d   1      -0.694  -0.411  -0.788  0.00  0.00     0.150 A 
ATOM      5  C4  UNL d   1       0.213  -0.170   0.239  0.00  0.00    -0.007 A 
ATOM      6  C5  UNL d   1       0.138   1.021   0.961  0.00  0.00     0.039 A 
ENDROOT
BRANCH   4   7
ATOM      7  O   UNL d   1      -0.580  -1.585  -1.470  0.00  0.00    -0.526 OA
ATOM      8  H5  UNL d   1      -1.255  -1.602  -2.169  0.00  0.00     0.418 HD
ENDBRANCH   4   7
TORSDOF 1
ENDMDL
