MODEL 1
REMARK minimizedAffinity -3.82907915
REMARK minimizedRMSD -1
REMARK  1 active torsions:
REMARK  status: ('A' for Active; 'I' for Inactive)
REMARK    1  A    between atoms: C3_4  and  O_7 
ROOT
ATOM      1  C   UNL d   1      -0.621  -0.344   0.260  0.00  0.00    -0.033 A 
ATOM      2  C1  UNL d   1      -1.706   0.524   0.398  0.00  0.00     0.039 A 
ATOM      3  C2  UNL d   1      -1.542   1.891   0.165  0.00  0.00    -0.080 A 
ATOM      4  C3  UNL d   1      -0.291   2.376  -0.205  0.00  0.00     0.150 A 
ATOM      5  C4  UNL d   1       0.793   1.516  -0.348  0.00  0.00    -0.007 A 
ATOM      6  C5  UNL d   1       0.628   0.152  -0.115  0.00  0.00     0.039 A 
ENDROOT
BRANCH   4   7
ATOM      7  O   UNL d   1      -0.082   3.703  -0.438  0.00  0.00    -0.526 OA
ATOM      8  H5  UNL d   1      -0.913   4.179  -0.273  0.00  0.00     0.418 HD
ENDBRANCH   4   7
TORSDOF 1
ENDMDL
