MODEL 1
REMARK minimizedAffinity -3.72939491
REMARK minimizedRMSD -1
REMARK  1 active torsions:
REMARK  status: ('A' for Active; 'I' for Inactive)
REMARK    1  A    between atoms: C3_4  and  O_7 
ROOT
ATOM      1  C   UNL d   1       1.231   3.841   1.022  0.00  0.00    -0.033 A 
ATOM      2  C1  UNL d   1       2.008   3.013   0.209  0.00  0.00     0.039 A 
ATOM      3  C2  UNL d   1       1.481   1.814  -0.275  0.00  0.00    -0.080 A 
ATOM      4  C3  UNL d   1       0.178   1.456   0.059  0.00  0.00     0.150 A 
ATOM      5  C4  UNL d   1      -0.603   2.278   0.865  0.00  0.00    -0.007 A 
ATOM      6  C5  UNL d   1      -0.075   3.474   1.348  0.00  0.00     0.039 A 
ENDROOT
BRANCH   4   7
ATOM      7  O   UNL d   1      -0.377   0.293  -0.386  0.00  0.00    -0.526 OA
ATOM      8  H5  UNL d   1       0.288  -0.186  -0.908  0.00  0.00     0.418 HD
ENDBRANCH   4   7
TORSDOF 1
ENDMDL
