MODEL 1
REMARK minimizedAffinity -4.94428349
REMARK minimizedRMSD -1
REMARK  1 active torsions:
REMARK  status: ('A' for Active; 'I' for Inactive)
REMARK    1  A    between atoms: C3_4  and  O_7 
ROOT
ATOM      1  C   UNL d   1      -0.363   2.865  -0.138  0.00  0.00    -0.033 A 
ATOM      2  C1  UNL d   1      -0.574   1.514  -0.419  0.00  0.00     0.039 A 
ATOM      3  C2  UNL d   1       0.444   0.585  -0.195  0.00  0.00    -0.080 A 
ATOM      4  C3  UNL d   1       1.666   1.019   0.312  0.00  0.00     0.150 A 
ATOM      5  C4  UNL d   1       1.882   2.363   0.598  0.00  0.00    -0.007 A 
ATOM      6  C5  UNL d   1       0.865   3.290   0.372  0.00  0.00     0.039 A 
ENDROOT
BRANCH   4   7
ATOM      7  O   UNL d   1       2.690   0.150   0.542  0.00  0.00    -0.526 OA
ATOM      8  H5  UNL d   1       2.407  -0.739   0.272  0.00  0.00     0.418 HD
ENDBRANCH   4   7
TORSDOF 1
ENDMDL
