MODEL 1
REMARK minimizedAffinity -5.56689548
REMARK minimizedRMSD -1
REMARK  1 active torsions:
REMARK  status: ('A' for Active; 'I' for Inactive)
REMARK    1  A    between atoms: C3_4  and  O_7 
ROOT
ATOM      1  C   UNL d   1       0.950   2.942   0.407  0.00  0.00    -0.033 A 
ATOM      2  C1  UNL d   1       1.979   1.999   0.379  0.00  0.00     0.039 A 
ATOM      3  C2  UNL d   1       1.681   0.641   0.248  0.00  0.00    -0.080 A 
ATOM      4  C3  UNL d   1       0.351   0.241   0.143  0.00  0.00     0.150 A 
ATOM      5  C4  UNL d   1      -0.678   1.176   0.165  0.00  0.00    -0.007 A 
ATOM      6  C5  UNL d   1      -0.379   2.531   0.298  0.00  0.00     0.039 A 
ENDROOT
BRANCH   4   7
ATOM      7  O   UNL d   1       0.011  -1.073   0.017  0.00  0.00    -0.526 OA
ATOM      8  H5  UNL d   1       0.823  -1.606   0.046  0.00  0.00     0.418 HD
ENDBRANCH   4   7
TORSDOF 1
ENDMDL
