MODEL 1
REMARK minimizedAffinity -1.77706242
REMARK minimizedRMSD -1
REMARK  1 active torsions:
REMARK  status: ('A' for Active; 'I' for Inactive)
REMARK    1  A    between atoms: C3_4  and  O_7 
ROOT
ATOM      1  C   UNL d   1      -1.629  -0.901   0.149  0.00  0.00    -0.033 A 
ATOM      2  C1  UNL d   1      -0.702  -1.831  -0.326  0.00  0.00     0.039 A 
ATOM      3  C2  UNL d   1       0.666  -1.563  -0.240  0.00  0.00    -0.080 A 
ATOM      4  C3  UNL d   1       1.093  -0.364   0.324  0.00  0.00     0.150 A 
ATOM      5  C4  UNL d   1       0.175   0.565   0.803  0.00  0.00    -0.007 A 
ATOM      6  C5  UNL d   1      -1.190   0.296   0.714  0.00  0.00     0.039 A 
ENDROOT
BRANCH   4   7
ATOM      7  O   UNL d   1       2.417  -0.056   0.426  0.00  0.00    -0.526 OA
ATOM      8  H5  UNL d   1       2.932  -0.778   0.029  0.00  0.00     0.418 HD
ENDBRANCH   4   7
TORSDOF 1
ENDMDL
