MODEL 1
REMARK minimizedAffinity 0.12718235
REMARK minimizedRMSD -1
REMARK  1 active torsions:
REMARK  status: ('A' for Active; 'I' for Inactive)
REMARK    1  A    between atoms: C3_4  and  O_7 
ROOT
ATOM      1  C   UNL d   1       0.753  -0.554  -0.126  0.00  0.00    -0.033 A 
ATOM      2  C1  UNL d   1       1.385  -0.915  -1.318  0.00  0.00     0.039 A 
ATOM      3  C2  UNL d   1       0.892  -1.976  -2.079  0.00  0.00    -0.080 A 
ATOM      4  C3  UNL d   1      -0.233  -2.668  -1.637  0.00  0.00     0.150 A 
ATOM      5  C4  UNL d   1      -0.870  -2.312  -0.453  0.00  0.00    -0.007 A 
ATOM      6  C5  UNL d   1      -0.375  -1.252   0.305  0.00  0.00     0.039 A 
ENDROOT
BRANCH   4   7
ATOM      7  O   UNL d   1      -0.749  -3.714  -2.343  0.00  0.00    -0.526 OA
ATOM      8  H5  UNL d   1      -0.189  -3.865  -3.123  0.00  0.00     0.418 HD
ENDBRANCH   4   7
TORSDOF 1
ENDMDL
