MODEL 1
REMARK minimizedAffinity -2.92453671
REMARK minimizedRMSD -1
REMARK  1 active torsions:
REMARK  status: ('A' for Active; 'I' for Inactive)
REMARK    1  A    between atoms: C3_4  and  O_7 
ROOT
ATOM      1  C   UNL d   1      -0.697   0.340   0.735  0.00  0.00    -0.033 A 
ATOM      2  C1  UNL d   1      -1.276   0.836  -0.434  0.00  0.00     0.039 A 
ATOM      3  C2  UNL d   1      -1.234   0.084  -1.610  0.00  0.00    -0.080 A 
ATOM      4  C3  UNL d   1      -0.612  -1.162  -1.602  0.00  0.00     0.150 A 
ATOM      5  C4  UNL d   1      -0.036  -1.663  -0.439  0.00  0.00    -0.007 A 
ATOM      6  C5  UNL d   1      -0.078  -0.910   0.733  0.00  0.00     0.039 A 
ENDROOT
BRANCH   4   7
ATOM      7  O   UNL d   1      -0.542  -1.930  -2.726  0.00  0.00    -0.526 OA
ATOM      8  H5  UNL d   1      -0.956  -1.444  -3.458  0.00  0.00     0.418 HD
ENDBRANCH   4   7
TORSDOF 1
ENDMDL
