MODEL 1
REMARK minimizedAffinity -2.75920177
REMARK minimizedRMSD -1
REMARK  1 active torsions:
REMARK  status: ('A' for Active; 'I' for Inactive)
REMARK    1  A    between atoms: C3_4  and  O_7 
ROOT
ATOM      1  C   UNL d   1      -0.416  -1.074  -0.593  0.00  0.00    -0.033 A 
ATOM      2  C1  UNL d   1       0.767  -0.693   0.044  0.00  0.00     0.039 A 
ATOM      3  C2  UNL d   1       0.823   0.508   0.754  0.00  0.00    -0.080 A 
ATOM      4  C3  UNL d   1      -0.308   1.317   0.819  0.00  0.00     0.150 A 
ATOM      5  C4  UNL d   1      -1.490   0.942   0.190  0.00  0.00    -0.007 A 
ATOM      6  C5  UNL d   1      -1.544  -0.257  -0.520  0.00  0.00     0.039 A 
ENDROOT
BRANCH   4   7
ATOM      7  O   UNL d   1      -0.300   2.501   1.496  0.00  0.00    -0.526 OA
ATOM      8  H5  UNL d   1       0.592   2.643   1.856  0.00  0.00     0.418 HD
ENDBRANCH   4   7
TORSDOF 1
ENDMDL
