MODEL 1
REMARK minimizedAffinity -4.12986422
REMARK minimizedRMSD -1
REMARK  1 active torsions:
REMARK  status: ('A' for Active; 'I' for Inactive)
REMARK    1  A    between atoms: C3_4  and  O_7 
ROOT
ATOM      1  C   UNL d   1       0.749   3.070  -0.172  0.00  0.00    -0.033 A 
ATOM      2  C1  UNL d   1       0.792   1.743  -0.605  0.00  0.00     0.039 A 
ATOM      3  C2  UNL d   1       1.922   0.962  -0.356  0.00  0.00    -0.080 A 
ATOM      4  C3  UNL d   1       3.000   1.518   0.327  0.00  0.00     0.150 A 
ATOM      5  C4  UNL d   1       2.962   2.838   0.765  0.00  0.00    -0.007 A 
ATOM      6  C5  UNL d   1       1.833   3.617   0.515  0.00  0.00     0.039 A 
ENDROOT
BRANCH   4   7
ATOM      7  O   UNL d   1       4.126   0.796   0.590  0.00  0.00    -0.526 OA
ATOM      8  H5  UNL d   1       4.021  -0.089   0.203  0.00  0.00     0.418 HD
ENDBRANCH   4   7
TORSDOF 1
ENDMDL
