MODEL 1
REMARK minimizedAffinity -5.21979713
REMARK minimizedRMSD -1
REMARK  1 active torsions:
REMARK  status: ('A' for Active; 'I' for Inactive)
REMARK    1  A    between atoms: C3_4  and  O_7 
ROOT
ATOM      1  C   UNL d   1       0.714   3.135   0.293  0.00  0.00    -0.033 A 
ATOM      2  C1  UNL d   1      -0.565   2.766   0.715  0.00  0.00     0.039 A 
ATOM      3  C2  UNL d   1      -1.030   1.469   0.489  0.00  0.00    -0.080 A 
ATOM      4  C3  UNL d   1      -0.207   0.551  -0.158  0.00  0.00     0.150 A 
ATOM      5  C4  UNL d   1       1.069   0.911  -0.578  0.00  0.00    -0.007 A 
ATOM      6  C5  UNL d   1       1.531   2.207  -0.352  0.00  0.00     0.039 A 
ENDROOT
BRANCH   4   7
ATOM      7  O   UNL d   1      -0.619  -0.725  -0.405  0.00  0.00    -0.526 OA
ATOM      8  H5  UNL d   1      -1.531  -0.821  -0.085  0.00  0.00     0.418 HD
ENDBRANCH   4   7
TORSDOF 1
ENDMDL
