MODEL 1
REMARK minimizedAffinity -5.30839443
REMARK minimizedRMSD -1
REMARK  1 active torsions:
REMARK  status: ('A' for Active; 'I' for Inactive)
REMARK    1  A    between atoms: C3_4  and  O_7 
ROOT
ATOM      1  C   UNL d   1       2.292   0.649   0.036  0.00  0.00    -0.033 A 
ATOM      2  C1  UNL d   1       0.987   0.341  -0.350  0.00  0.00     0.039 A 
ATOM      3  C2  UNL d   1      -0.038   1.270  -0.158  0.00  0.00    -0.080 A 
ATOM      4  C3  UNL d   1       0.256   2.502   0.420  0.00  0.00     0.150 A 
ATOM      5  C4  UNL d   1       1.555   2.817   0.804  0.00  0.00    -0.007 A 
ATOM      6  C5  UNL d   1       2.577   1.888   0.612  0.00  0.00     0.039 A 
ENDROOT
BRANCH   4   7
ATOM      7  O   UNL d   1      -0.712   3.438   0.632  0.00  0.00    -0.526 OA
ATOM      8  H5  UNL d   1      -1.564   3.071   0.344  0.00  0.00     0.418 HD
ENDBRANCH   4   7
TORSDOF 1
ENDMDL
