MODEL 1
REMARK minimizedAffinity -3.37478256
REMARK minimizedRMSD -1
REMARK  1 active torsions:
REMARK  status: ('A' for Active; 'I' for Inactive)
REMARK    1  A    between atoms: C3_4  and  O_7 
ROOT
ATOM      1  C   UNL d   1      -0.729  -0.223   0.371  0.00  0.00    -0.033 A 
ATOM      2  C1  UNL d   1      -1.366   0.777   1.108  0.00  0.00     0.039 A 
ATOM      3  C2  UNL d   1      -0.984   2.111   0.955  0.00  0.00    -0.080 A 
ATOM      4  C3  UNL d   1       0.034   2.432   0.062  0.00  0.00     0.150 A 
ATOM      5  C4  UNL d   1       0.671   1.442  -0.679  0.00  0.00    -0.007 A 
ATOM      6  C5  UNL d   1       0.289   0.110  -0.524  0.00  0.00     0.039 A 
ENDROOT
BRANCH   4   7
ATOM      7  O   UNL d   1       0.445   3.720  -0.118  0.00  0.00    -0.526 OA
ATOM      8  H5  UNL d   1      -0.064   4.291   0.481  0.00  0.00     0.418 HD
ENDBRANCH   4   7
TORSDOF 1
ENDMDL
