MODEL 1
REMARK minimizedAffinity -4.16989613
REMARK minimizedRMSD -1
REMARK  1 active torsions:
REMARK  status: ('A' for Active; 'I' for Inactive)
REMARK    1  A    between atoms: C3_4  and  O_7 
ROOT
ATOM      1  C   UNL d   1      -1.181   0.231   0.771  0.00  0.00    -0.033 A 
ATOM      2  C1  UNL d   1      -0.074  -0.620   0.765  0.00  0.00     0.039 A 
ATOM      3  C2  UNL d   1       1.216  -0.090   0.823  0.00  0.00    -0.080 A 
ATOM      4  C3  UNL d   1       1.386   1.291   0.887  0.00  0.00     0.150 A 
ATOM      5  C4  UNL d   1       0.287   2.144   0.897  0.00  0.00    -0.007 A 
ATOM      6  C5  UNL d   1      -1.000   1.613   0.838  0.00  0.00     0.039 A 
ENDROOT
BRANCH   4   7
ATOM      7  O   UNL d   1       2.626   1.854   0.939  0.00  0.00    -0.526 OA
ATOM      8  H5  UNL d   1       3.289   1.145   0.896  0.00  0.00     0.418 HD
ENDBRANCH   4   7
TORSDOF 1
ENDMDL
