MODEL 1
REMARK minimizedAffinity -5.41345263
REMARK minimizedRMSD -1
REMARK  1 active torsions:
REMARK  status: ('A' for Active; 'I' for Inactive)
REMARK    1  A    between atoms: C3_4  and  O_7 
ROOT
ATOM      1  C   UNL d   1       1.246   3.254   0.447  0.00  0.00    -0.033 A 
ATOM      2  C1  UNL d   1       2.208   2.242   0.466  0.00  0.00     0.039 A 
ATOM      3  C2  UNL d   1       1.816   0.903   0.401  0.00  0.00    -0.080 A 
ATOM      4  C3  UNL d   1       0.462   0.591   0.316  0.00  0.00     0.150 A 
ATOM      5  C4  UNL d   1      -0.501   1.594   0.292  0.00  0.00    -0.007 A 
ATOM      6  C5  UNL d   1      -0.108   2.930   0.358  0.00  0.00     0.039 A 
ENDROOT
BRANCH   4   7
ATOM      7  O   UNL d   1       0.032  -0.701   0.255  0.00  0.00    -0.526 OA
ATOM      8  H5  UNL d   1       0.805  -1.286   0.309  0.00  0.00     0.418 HD
ENDBRANCH   4   7
TORSDOF 1
ENDMDL
