MODEL 1
REMARK minimizedAffinity -4.19153786
REMARK minimizedRMSD -1
REMARK  0 active torsions:
REMARK  status: ('A' for Active; 'I' for Inactive)
ROOT
ATOM      1  C1  BNZ d   1      -1.836   3.289  -2.050  0.00  0.00     0.000 A 
ATOM      2  C2  BNZ d   1      -0.667   3.941  -2.338  0.00  0.00     0.000 A 
ATOM      3  C3  BNZ d   1       0.365   3.288  -2.952  0.00  0.00     0.000 A 
ATOM      4  C4  BNZ d   1       0.242   1.976  -3.240  0.00  0.00     0.000 A 
ATOM      5  C5  BNZ d   1      -0.927   1.303  -2.947  0.00  0.00     0.000 A 
ATOM      6  C6  BNZ d   1      -1.978   1.972  -2.365  0.00  0.00     0.000 A 
ENDROOT
TORSDOF 0
ENDMDL
