MODEL 1
REMARK minimizedAffinity -4.24629641
REMARK minimizedRMSD -1
REMARK  0 active torsions:
REMARK  status: ('A' for Active; 'I' for Inactive)
ROOT
ATOM      1  C1  BNZ d   1      -0.203   0.012   0.216  0.00  0.00     0.000 A 
ATOM      2  C2  BNZ d   1      -0.642   0.018   1.513  0.00  0.00     0.000 A 
ATOM      3  C3  BNZ d   1       0.107  -0.546   2.508  0.00  0.00     0.000 A 
ATOM      4  C4  BNZ d   1       1.273  -1.149   2.199  0.00  0.00     0.000 A 
ATOM      5  C5  BNZ d   1       1.725  -1.171   0.895  0.00  0.00     0.000 A 
ATOM      6  C6  BNZ d   1       0.987  -0.569  -0.098  0.00  0.00     0.000 A 
ENDROOT
TORSDOF 0
ENDMDL
