MODEL 1
REMARK minimizedAffinity -3.72203135
REMARK minimizedRMSD -1
REMARK  0 active torsions:
REMARK  status: ('A' for Active; 'I' for Inactive)
ROOT
ATOM      1  C1  BNZ d   1       0.390  -0.633  -0.554  0.00  0.00     0.000 A 
ATOM      2  C2  BNZ d   1       0.974  -1.279   0.503  0.00  0.00     0.000 A 
ATOM      3  C3  BNZ d   1       0.414  -1.230   1.749  0.00  0.00     0.000 A 
ATOM      4  C4  BNZ d   1      -0.706  -0.504   1.944  0.00  0.00     0.000 A 
ATOM      5  C5  BNZ d   1      -1.301   0.160   0.891  0.00  0.00     0.000 A 
ATOM      6  C6  BNZ d   1      -0.756   0.077  -0.370  0.00  0.00     0.000 A 
ENDROOT
TORSDOF 0
ENDMDL
