MODEL 1
REMARK minimizedAffinity -1.34817755
REMARK minimizedRMSD -1
REMARK  0 active torsions:
REMARK  status: ('A' for Active; 'I' for Inactive)
ROOT
ATOM      1  C1  BNZ d   1       1.046  -0.697   1.827  0.00  0.00     0.000 A 
ATOM      2  C2  BNZ d   1       0.945   0.108   0.724  0.00  0.00     0.000 A 
ATOM      3  C3  BNZ d   1      -0.238   0.226   0.049  0.00  0.00     0.000 A 
ATOM      4  C4  BNZ d   1      -1.306  -0.492   0.454  0.00  0.00     0.000 A 
ATOM      5  C5  BNZ d   1      -1.217  -1.315   1.559  0.00  0.00     0.000 A 
ATOM      6  C6  BNZ d   1      -0.036  -1.401   2.258  0.00  0.00     0.000 A 
ENDROOT
TORSDOF 0
ENDMDL
