MODEL 1
REMARK minimizedAffinity -4.27371359
REMARK minimizedRMSD -1
REMARK  0 active torsions:
REMARK  status: ('A' for Active; 'I' for Inactive)
ROOT
ATOM      1  C1  BNZ d   1      -1.389   0.096   0.929  0.00  0.00     0.000 A 
ATOM      2  C2  BNZ d   1      -0.431  -0.145   1.878  0.00  0.00     0.000 A 
ATOM      3  C3  BNZ d   1       0.870  -0.364   1.519  0.00  0.00     0.000 A 
ATOM      4  C4  BNZ d   1       1.203  -0.383   0.213  0.00  0.00     0.000 A 
ATOM      5  C5  BNZ d   1       0.247  -0.152  -0.756  0.00  0.00     0.000 A 
ATOM      6  C6  BNZ d   1      -1.054   0.107  -0.390  0.00  0.00     0.000 A 
ENDROOT
TORSDOF 0
ENDMDL
