MODEL 1
REMARK minimizedAffinity 0.335160702
REMARK minimizedRMSD -1
REMARK  0 active torsions:
REMARK  status: ('A' for Active; 'I' for Inactive)
ROOT
ATOM      1  C1  BNZ d   1      -2.198   1.466  -2.913  0.00  0.00     0.000 A 
ATOM      2  C2  BNZ d   1      -1.700   2.701  -3.233  0.00  0.00     0.000 A 
ATOM      3  C3  BNZ d   1      -0.467   3.094  -2.793  0.00  0.00     0.000 A 
ATOM      4  C4  BNZ d   1       0.248   2.269  -2.002  0.00  0.00     0.000 A 
ATOM      5  C5  BNZ d   1      -0.244   1.024  -1.663  0.00  0.00     0.000 A 
ATOM      6  C6  BNZ d   1      -1.469   0.617  -2.139  0.00  0.00     0.000 A 
ENDROOT
TORSDOF 0
ENDMDL
