MODEL 1
REMARK minimizedAffinity -4.76990318
REMARK minimizedRMSD -1
REMARK  0 active torsions:
REMARK  status: ('A' for Active; 'I' for Inactive)
ROOT
ATOM      1  C1  BNZ d   1      -0.713   0.156   0.377  0.00  0.00     0.000 A 
ATOM      2  C2  BNZ d   1      -1.182  -0.077   1.643  0.00  0.00     0.000 A 
ATOM      3  C3  BNZ d   1      -0.339  -0.484   2.638  0.00  0.00     0.000 A 
ATOM      4  C4  BNZ d   1       0.963  -0.697   2.358  0.00  0.00     0.000 A 
ATOM      5  C5  BNZ d   1       1.450  -0.476   1.085  0.00  0.00     0.000 A 
ATOM      6  C6  BNZ d   1       0.605  -0.028   0.095  0.00  0.00     0.000 A 
ENDROOT
TORSDOF 0
ENDMDL
