MODEL 1
REMARK minimizedAffinity 0.71233207
REMARK minimizedRMSD -1
REMARK  0 active torsions:
REMARK  status: ('A' for Active; 'I' for Inactive)
ROOT
ATOM      1  C1  BNZ d   1       1.889   0.047   3.221  0.00  0.00     0.000 A 
ATOM      2  C2  BNZ d   1       0.996   0.338   2.224  0.00  0.00     0.000 A 
ATOM      3  C3  BNZ d   1      -0.066  -0.485   1.973  0.00  0.00     0.000 A 
ATOM      4  C4  BNZ d   1      -0.212  -1.617   2.692  0.00  0.00     0.000 A 
ATOM      5  C5  BNZ d   1       0.684  -1.929   3.694  0.00  0.00     0.000 A 
ATOM      6  C6  BNZ d   1       1.730  -1.078   3.970  0.00  0.00     0.000 A 
ENDROOT
TORSDOF 0
ENDMDL
