MODEL 1
REMARK minimizedAffinity -4.30859804
REMARK minimizedRMSD -1
REMARK  0 active torsions:
REMARK  status: ('A' for Active; 'I' for Inactive)
ROOT
ATOM      1  C1  BNZ d   1       0.946  -0.665   1.856  0.00  0.00     0.000 A 
ATOM      2  C2  BNZ d   1       0.899  -0.777   0.492  0.00  0.00     0.000 A 
ATOM      3  C3  BNZ d   1      -0.229  -0.432  -0.200  0.00  0.00     0.000 A 
ATOM      4  C4  BNZ d   1      -1.319  -0.015   0.475  0.00  0.00     0.000 A 
ATOM      5  C5  BNZ d   1      -1.291   0.094   1.851  0.00  0.00     0.000 A 
ATOM      6  C6  BNZ d   1      -0.141  -0.217   2.541  0.00  0.00     0.000 A 
ENDROOT
TORSDOF 0
ENDMDL
