MODEL 1
REMARK minimizedAffinity -3.35429716
REMARK minimizedRMSD -1
REMARK  0 active torsions:
REMARK  status: ('A' for Active; 'I' for Inactive)
ROOT
ATOM      1  C1  BNZ d   1       1.002  -1.087   0.281  0.00  0.00     0.000 A 
ATOM      2  C2  BNZ d   1       2.194  -1.714   0.033  0.00  0.00     0.000 A 
ATOM      3  C3  BNZ d   1       3.044  -2.032   1.056  0.00  0.00     0.000 A 
ATOM      4  C4  BNZ d   1       2.720  -1.686   2.318  0.00  0.00     0.000 A 
ATOM      5  C5  BNZ d   1       1.527  -1.044   2.583  0.00  0.00     0.000 A 
ATOM      6  C6  BNZ d   1       0.656  -0.761   1.556  0.00  0.00     0.000 A 
ENDROOT
TORSDOF 0
ENDMDL
