MODEL 1
REMARK minimizedAffinity -2.21296072
REMARK minimizedRMSD -1
REMARK  0 active torsions:
REMARK  status: ('A' for Active; 'I' for Inactive)
ROOT
ATOM      1  C1  BNZ d   1       0.092   0.907   0.534  0.00  0.00     0.000 A 
ATOM      2  C2  BNZ d   1      -0.314   1.448  -0.656  0.00  0.00     0.000 A 
ATOM      3  C3  BNZ d   1      -0.294   0.707  -1.805  0.00  0.00     0.000 A 
ATOM      4  C4  BNZ d   1       0.169  -0.559  -1.769  0.00  0.00     0.000 A 
ATOM      5  C5  BNZ d   1       0.590  -1.116  -0.578  0.00  0.00     0.000 A 
ATOM      6  C6  BNZ d   1       0.532  -0.380   0.583  0.00  0.00     0.000 A 
ENDROOT
TORSDOF 0
ENDMDL
