MODEL 1
REMARK minimizedAffinity 1.16831112
REMARK minimizedRMSD -1
REMARK  0 active torsions:
REMARK  status: ('A' for Active; 'I' for Inactive)
ROOT
ATOM      1  C   UNL d   1       1.395   3.682  -3.000  0.00  0.00     0.078 C 
ATOM      2  C1  UNL d   1       0.436   4.489  -3.824  0.00  0.00    -0.077 A 
ATOM      3  C2  UNL d   1      -0.578   5.243  -3.220  0.00  0.00    -0.001 A 
ATOM      4  C3  UNL d   1      -1.468   5.981  -4.001  0.00  0.00     0.003 A 
ATOM      5  C4  UNL d   1      -1.355   5.973  -5.390  0.00  0.00    -0.005 A 
ATOM      6  C5  UNL d   1      -0.351   5.224  -6.000  0.00  0.00     0.003 A 
ATOM      7  C6  UNL d   1       0.541   4.485  -5.221  0.00  0.00    -0.001 A 
ENDROOT
TORSDOF 0
ENDMDL
