MODEL 1
REMARK minimizedAffinity 2.44175673
REMARK minimizedRMSD -1
REMARK  0 active torsions:
REMARK  status: ('A' for Active; 'I' for Inactive)
ROOT
ATOM      1  C   UNL d   1       2.283   4.423  -3.104  0.00  0.00     0.078 C 
ATOM      2  C1  UNL d   1       1.203   4.712  -4.103  0.00  0.00    -0.077 A 
ATOM      3  C2  UNL d   1       0.009   3.980  -4.107  0.00  0.00    -0.001 A 
ATOM      4  C3  UNL d   1      -0.984   4.254  -5.049  0.00  0.00     0.003 A 
ATOM      5  C4  UNL d   1      -0.793   5.259  -5.994  0.00  0.00    -0.005 A 
ATOM      6  C5  UNL d   1       0.392   5.992  -5.999  0.00  0.00     0.003 A 
ATOM      7  C6  UNL d   1       1.386   5.720  -5.058  0.00  0.00    -0.001 A 
ENDROOT
TORSDOF 0
ENDMDL
