MODEL 1
REMARK minimizedAffinity -1.82088053
REMARK minimizedRMSD -1
REMARK  0 active torsions:
REMARK  status: ('A' for Active; 'I' for Inactive)
ROOT
ATOM      1  C   UNL d   1       1.239   3.481  -2.733  0.00  0.00     0.078 C 
ATOM      2  C1  UNL d   1       0.337   4.085  -3.768  0.00  0.00    -0.077 A 
ATOM      3  C2  UNL d   1      -1.029   4.268  -3.516  0.00  0.00    -0.001 A 
ATOM      4  C3  UNL d   1      -1.858   4.823  -4.492  0.00  0.00     0.003 A 
ATOM      5  C4  UNL d   1      -1.332   5.198  -5.726  0.00  0.00    -0.005 A 
ATOM      6  C5  UNL d   1       0.024   5.018  -5.987  0.00  0.00     0.003 A 
ATOM      7  C6  UNL d   1       0.856   4.463  -5.013  0.00  0.00    -0.001 A 
ENDROOT
TORSDOF 0
ENDMDL
