MODEL 1
REMARK minimizedAffinity -0.52604115
REMARK minimizedRMSD -1
REMARK  0 active torsions:
REMARK  status: ('A' for Active; 'I' for Inactive)
ROOT
ATOM      1  C   UNL d   1      -6.000  -0.964  -2.496  0.00  0.00     0.078 C 
ATOM      2  C1  UNL d   1      -5.991   0.038  -3.612  0.00  0.00    -0.077 A 
ATOM      3  C2  UNL d   1      -5.998   1.413  -3.347  0.00  0.00    -0.001 A 
ATOM      4  C3  UNL d   1      -6.000   2.334  -4.396  0.00  0.00     0.003 A 
ATOM      5  C4  UNL d   1      -5.995   1.890  -5.717  0.00  0.00    -0.005 A 
ATOM      6  C5  UNL d   1      -5.990   0.524  -5.991  0.00  0.00     0.003 A 
ATOM      7  C6  UNL d   1      -5.989  -0.399  -4.943  0.00  0.00    -0.001 A 
ENDROOT
TORSDOF 0
ENDMDL
