MODEL 1
REMARK minimizedAffinity -0.881469786
REMARK minimizedRMSD -1
REMARK  0 active torsions:
REMARK  status: ('A' for Active; 'I' for Inactive)
ROOT
ATOM      1  C   UNL d   1      -3.000   5.479  -0.000  0.00  0.00     0.078 C 
ATOM      2  C1  UNL d   1      -4.052   4.678  -0.706  0.00  0.00    -0.077 A 
ATOM      3  C2  UNL d   1      -4.832   3.743  -0.015  0.00  0.00    -0.001 A 
ATOM      4  C3  UNL d   1      -5.802   2.997  -0.687  0.00  0.00     0.003 A 
ATOM      5  C4  UNL d   1      -6.000   3.179  -2.055  0.00  0.00    -0.005 A 
ATOM      6  C5  UNL d   1      -5.228   4.105  -2.752  0.00  0.00     0.003 A 
ATOM      7  C6  UNL d   1      -4.257   4.852  -2.081  0.00  0.00    -0.001 A 
ENDROOT
TORSDOF 0
ENDMDL
