MODEL 1
REMARK minimizedAffinity 9.6646347
REMARK minimizedRMSD -1
REMARK  0 active torsions:
REMARK  status: ('A' for Active; 'I' for Inactive)
ROOT
ATOM      1  C   UNL d   1       5.583   1.895  -2.622  0.00  0.00     0.078 C 
ATOM      2  C1  UNL d   1       4.213   1.746  -2.030  0.00  0.00    -0.077 A 
ATOM      3  C2  UNL d   1       3.162   2.582  -2.426  0.00  0.00    -0.001 A 
ATOM      4  C3  UNL d   1       1.894   2.438  -1.860  0.00  0.00     0.003 A 
ATOM      5  C4  UNL d   1       1.666   1.460  -0.894  0.00  0.00    -0.005 A 
ATOM      6  C5  UNL d   1       2.707   0.625  -0.492  0.00  0.00     0.003 A 
ATOM      7  C6  UNL d   1       3.975   0.767  -1.057  0.00  0.00    -0.001 A 
ENDROOT
TORSDOF 0
ENDMDL
