MODEL 1
REMARK minimizedAffinity 6.15251923
REMARK minimizedRMSD -1
REMARK  0 active torsions:
REMARK  status: ('A' for Active; 'I' for Inactive)
ROOT
ATOM      1  C   UNL d   1       1.879  -2.192   3.473  0.00  0.00     0.078 C 
ATOM      2  C1  UNL d   1       0.505  -2.117   2.878  0.00  0.00    -0.077 A 
ATOM      3  C2  UNL d   1      -0.413  -1.148   3.302  0.00  0.00    -0.001 A 
ATOM      4  C3  UNL d   1      -1.692  -1.095   2.746  0.00  0.00     0.003 A 
ATOM      5  C4  UNL d   1      -2.066  -2.010   1.764  0.00  0.00    -0.005 A 
ATOM      6  C5  UNL d   1      -1.160  -2.979   1.337  0.00  0.00     0.003 A 
ATOM      7  C6  UNL d   1       0.119  -3.033   1.892  0.00  0.00    -0.001 A 
ENDROOT
TORSDOF 0
ENDMDL
