MODEL 1
REMARK minimizedAffinity 9.1072855
REMARK minimizedRMSD -1
REMARK  0 active torsions:
REMARK  status: ('A' for Active; 'I' for Inactive)
ROOT
ATOM      1  C   UNL d   1       1.078   2.270  -2.383  0.00  0.00     0.078 C 
ATOM      2  C1  UNL d   1       1.734   1.768  -1.131  0.00  0.00    -0.077 A 
ATOM      3  C2  UNL d   1       2.679   0.735  -1.176  0.00  0.00    -0.001 A 
ATOM      4  C3  UNL d   1       3.273   0.271  -0.001  0.00  0.00     0.003 A 
ATOM      5  C4  UNL d   1       2.929   0.833   1.227  0.00  0.00    -0.005 A 
ATOM      6  C5  UNL d   1       1.989   1.859   1.281  0.00  0.00     0.003 A 
ATOM      7  C6  UNL d   1       1.393   2.325   0.108  0.00  0.00    -0.001 A 
ENDROOT
TORSDOF 0
ENDMDL
