MODEL 1
REMARK minimizedAffinity 2.80346847
REMARK minimizedRMSD -1
REMARK  0 active torsions:
REMARK  status: ('A' for Active; 'I' for Inactive)
ROOT
ATOM      1  C   UNL d   1      -6.000  -5.836  -4.591  0.00  0.00     0.078 C 
ATOM      2  C1  UNL d   1      -4.505  -5.786  -4.695  0.00  0.00    -0.077 A 
ATOM      3  C2  UNL d   1      -3.859  -6.000  -5.919  0.00  0.00    -0.001 A 
ATOM      4  C3  UNL d   1      -2.467  -5.960  -5.999  0.00  0.00     0.003 A 
ATOM      5  C4  UNL d   1      -1.707  -5.709  -4.858  0.00  0.00    -0.005 A 
ATOM      6  C5  UNL d   1      -2.340  -5.498  -3.635  0.00  0.00     0.003 A 
ATOM      7  C6  UNL d   1      -3.733  -5.537  -3.553  0.00  0.00    -0.001 A 
ENDROOT
TORSDOF 0
ENDMDL
