MODEL 1
REMARK minimizedAffinity 4.81505919
REMARK minimizedRMSD -1
REMARK  0 active torsions:
REMARK  status: ('A' for Active; 'I' for Inactive)
ROOT
ATOM      1  C   UNL d   1      -2.206  -2.512   1.354  0.00  0.00     0.078 C 
ATOM      2  C1  UNL d   1      -2.295  -1.457   2.415  0.00  0.00    -0.077 A 
ATOM      3  C2  UNL d   1      -3.526  -0.894   2.771  0.00  0.00    -0.001 A 
ATOM      4  C3  UNL d   1      -3.593   0.095   3.754  0.00  0.00     0.003 A 
ATOM      5  C4  UNL d   1      -2.431   0.531   4.388  0.00  0.00    -0.005 A 
ATOM      6  C5  UNL d   1      -1.200  -0.022   4.038  0.00  0.00     0.003 A 
ATOM      7  C6  UNL d   1      -1.132  -1.011   3.056  0.00  0.00    -0.001 A 
ENDROOT
TORSDOF 0
ENDMDL
