MODEL 1
REMARK minimizedAffinity 4.54529905
REMARK minimizedRMSD -1
REMARK  0 active torsions:
REMARK  status: ('A' for Active; 'I' for Inactive)
ROOT
ATOM      1  C   UNL d   1       0.701   2.475  -2.742  0.00  0.00     0.078 C 
ATOM      2  C1  UNL d   1       0.676   3.674  -3.642  0.00  0.00    -0.077 A 
ATOM      3  C2  UNL d   1       0.091   3.610  -4.913  0.00  0.00    -0.001 A 
ATOM      4  C3  UNL d   1       0.083   4.731  -5.744  0.00  0.00     0.003 A 
ATOM      5  C4  UNL d   1       0.660   5.924  -5.314  0.00  0.00    -0.005 A 
ATOM      6  C5  UNL d   1       1.246   5.997  -4.052  0.00  0.00     0.003 A 
ATOM      7  C6  UNL d   1       1.255   4.877  -3.220  0.00  0.00    -0.001 A 
ENDROOT
TORSDOF 0
ENDMDL
