MODEL 1
REMARK minimizedAffinity 5.7690177
REMARK minimizedRMSD -1
REMARK  0 active torsions:
REMARK  status: ('A' for Active; 'I' for Inactive)
ROOT
ATOM      1  C   UNL d   1      -5.996  -1.835  -2.860  0.00  0.00     0.078 C 
ATOM      2  C1  UNL d   1      -5.987  -0.577  -3.675  0.00  0.00    -0.077 A 
ATOM      3  C2  UNL d   1      -5.998   0.681  -3.061  0.00  0.00    -0.001 A 
ATOM      4  C3  UNL d   1      -5.999   1.844  -3.833  0.00  0.00     0.003 A 
ATOM      5  C4  UNL d   1      -5.990   1.760  -5.224  0.00  0.00    -0.005 A 
ATOM      6  C5  UNL d   1      -5.980   0.513  -5.844  0.00  0.00     0.003 A 
ATOM      7  C6  UNL d   1      -5.979  -0.651  -5.074  0.00  0.00    -0.001 A 
ENDROOT
TORSDOF 0
ENDMDL
