MODEL 1
REMARK minimizedAffinity 8.64709282
REMARK minimizedRMSD -1
REMARK  0 active torsions:
REMARK  status: ('A' for Active; 'I' for Inactive)
ROOT
ATOM      1  C   UNL d   1      -2.862   0.428   5.186  0.00  0.00     0.078 C 
ATOM      2  C1  UNL d   1      -2.235   0.326   3.828  0.00  0.00    -0.077 A 
ATOM      3  C2  UNL d   1      -2.324   1.382   2.912  0.00  0.00    -0.001 A 
ATOM      4  C3  UNL d   1      -1.743   1.270   1.648  0.00  0.00     0.003 A 
ATOM      5  C4  UNL d   1      -1.071   0.104   1.287  0.00  0.00    -0.005 A 
ATOM      6  C5  UNL d   1      -0.980  -0.953   2.191  0.00  0.00     0.003 A 
ATOM      7  C6  UNL d   1      -1.560  -0.843   3.456  0.00  0.00    -0.001 A 
ENDROOT
TORSDOF 0
ENDMDL
