MODEL 1
REMARK minimizedAffinity -1.57324195
REMARK minimizedRMSD -1
REMARK  0 active torsions:
REMARK  status: ('A' for Active; 'I' for Inactive)
ROOT
ATOM      1  C   UNL d   1       3.251   2.745  -2.995  0.00  0.00     0.078 C 
ATOM      2  C1  UNL d   1       2.609   2.329  -1.704  0.00  0.00    -0.077 A 
ATOM      3  C2  UNL d   1       1.637   1.322  -1.674  0.00  0.00    -0.001 A 
ATOM      4  C3  UNL d   1       1.042   0.952  -0.467  0.00  0.00     0.003 A 
ATOM      5  C4  UNL d   1       1.411   1.585   0.718  0.00  0.00    -0.005 A 
ATOM      6  C5  UNL d   1       2.376   2.590   0.698  0.00  0.00     0.003 A 
ATOM      7  C6  UNL d   1       2.972   2.961  -0.508  0.00  0.00    -0.001 A 
ENDROOT
TORSDOF 0
ENDMDL
