MODEL 1
REMARK minimizedAffinity -0.114938103
REMARK minimizedRMSD -1
REMARK  0 active torsions:
REMARK  status: ('A' for Active; 'I' for Inactive)
ROOT
ATOM      1  C   UNL d   1       1.349   5.007  -5.378  0.00  0.00     0.078 C 
ATOM      2  C1  UNL d   1       2.016   4.074  -4.413  0.00  0.00    -0.077 A 
ATOM      3  C2  UNL d   1       3.379   3.773  -4.527  0.00  0.00    -0.001 A 
ATOM      4  C3  UNL d   1       3.986   2.895  -3.627  0.00  0.00     0.003 A 
ATOM      5  C4  UNL d   1       3.237   2.310  -2.608  0.00  0.00    -0.005 A 
ATOM      6  C5  UNL d   1       1.879   2.601  -2.489  0.00  0.00     0.003 A 
ATOM      7  C6  UNL d   1       1.271   3.479  -3.387  0.00  0.00    -0.001 A 
ENDROOT
TORSDOF 0
ENDMDL
