MODEL 1
REMARK minimizedAffinity -2.73273349
REMARK minimizedRMSD -1
REMARK  0 active torsions:
REMARK  status: ('A' for Active; 'I' for Inactive)
ROOT
ATOM      1  C   UNL d   1       0.916   1.268  -1.941  0.00  0.00     0.078 C 
ATOM      2  C1  UNL d   1       1.169   2.441  -2.841  0.00  0.00    -0.077 A 
ATOM      3  C2  UNL d   1       0.129   3.023  -3.576  0.00  0.00    -0.001 A 
ATOM      4  C3  UNL d   1       0.381   4.108  -4.417  0.00  0.00     0.003 A 
ATOM      5  C4  UNL d   1       1.672   4.620  -4.532  0.00  0.00    -0.005 A 
ATOM      6  C5  UNL d   1       2.714   4.045  -3.806  0.00  0.00     0.003 A 
ATOM      7  C6  UNL d   1       2.464   2.960  -2.965  0.00  0.00    -0.001 A 
ENDROOT
TORSDOF 0
ENDMDL
