MODEL 1
REMARK minimizedAffinity 0.563541651
REMARK minimizedRMSD -1
REMARK  0 active torsions:
REMARK  status: ('A' for Active; 'I' for Inactive)
ROOT
ATOM      1  C1  DEN d   1      -4.538   1.931   4.205  0.00  0.00     0.130 A 
ATOM      2  C2  DEN d   1      -4.659   2.391   5.586  0.00  0.00    -0.031 A 
ATOM      3  C3  DEN d   1      -5.165   3.778   5.562  0.00  0.00     0.027 A 
ATOM      4  C4  DEN d   1      -5.775   5.248   3.532  0.00  0.00     0.027 A 
ATOM      5  C5  DEN d   1      -5.827   5.297   2.157  0.00  0.00    -0.003 A 
ATOM      6  C6  DEN d   1      -5.425   4.248   1.373  0.00  0.00     0.001 A 
ATOM      7  C7  DEN d   1      -4.994   3.088   1.961  0.00  0.00     0.017 A 
ATOM      8  C8  DEN d   1      -4.931   3.034   3.347  0.00  0.00    -0.094 A 
ATOM      9  C9  DEN d   1      -5.354   4.101   4.122  0.00  0.00    -0.072 A 
ENDROOT
TORSDOF 0
ENDMDL
