MODEL 1
REMARK minimizedAffinity -3.29693413
REMARK minimizedRMSD -1
REMARK  0 active torsions:
REMARK  status: ('A' for Active; 'I' for Inactive)
ROOT
ATOM      1  C1  DEN d   1      -5.423   3.631   2.189  0.00  0.00     0.130 A 
ATOM      2  C2  DEN d   1      -5.452   4.855   1.392  0.00  0.00    -0.031 A 
ATOM      3  C3  DEN d   1      -5.663   5.992   2.309  0.00  0.00     0.027 A 
ATOM      4  C4  DEN d   1      -5.942   5.979   4.873  0.00  0.00     0.027 A 
ATOM      5  C5  DEN d   1      -6.000   5.178   5.992  0.00  0.00    -0.003 A 
ATOM      6  C6  DEN d   1      -5.905   3.813   5.918  0.00  0.00     0.001 A 
ATOM      7  C7  DEN d   1      -5.701   3.211   4.705  0.00  0.00     0.017 A 
ATOM      8  C8  DEN d   1      -5.648   4.012   3.571  0.00  0.00    -0.094 A 
ATOM      9  C9  DEN d   1      -5.734   5.391   3.668  0.00  0.00    -0.072 A 
ENDROOT
TORSDOF 0
ENDMDL
