MODEL 1
REMARK minimizedAffinity 9.14163303
REMARK minimizedRMSD -1
REMARK  0 active torsions:
REMARK  status: ('A' for Active; 'I' for Inactive)
ROOT
ATOM      1  C1  DEN d   1      -3.752   4.584   5.976  0.00  0.00     0.130 A 
ATOM      2  C2  DEN d   1      -2.956   3.360   5.956  0.00  0.00    -0.031 A 
ATOM      3  C3  DEN d   1      -3.216   2.667   4.678  0.00  0.00     0.027 A 
ATOM      4  C4  DEN d   1      -4.763   3.369   2.737  0.00  0.00     0.027 A 
ATOM      5  C5  DEN d   1      -5.653   4.325   2.301  0.00  0.00    -0.003 A 
ATOM      6  C6  DEN d   1      -5.995   5.408   3.067  0.00  0.00     0.001 A 
ATOM      7  C7  DEN d   1      -5.409   5.585   4.292  0.00  0.00     0.017 A 
ATOM      8  C8  DEN d   1      -4.516   4.621   4.742  0.00  0.00    -0.094 A 
ATOM      9  C9  DEN d   1      -4.174   3.540   3.948  0.00  0.00    -0.072 A 
ENDROOT
TORSDOF 0
ENDMDL
