MODEL 1
REMARK minimizedAffinity -3.01084065
REMARK minimizedRMSD -1
REMARK  0 active torsions:
REMARK  status: ('A' for Active; 'I' for Inactive)
ROOT
ATOM      1  C1  DEN d   1      -5.903   5.951   2.314  0.00  0.00     0.130 A 
ATOM      2  C2  DEN d   1      -5.925   4.929   1.272  0.00  0.00    -0.031 A 
ATOM      3  C3  DEN d   1      -5.965   3.607   1.929  0.00  0.00     0.027 A 
ATOM      4  C4  DEN d   1      -6.000   3.048   4.447  0.00  0.00     0.027 A 
ATOM      5  C5  DEN d   1      -5.981   3.583   5.716  0.00  0.00    -0.003 A 
ATOM      6  C6  DEN d   1      -5.902   4.932   5.939  0.00  0.00     0.001 A 
ATOM      7  C7  DEN d   1      -5.884   5.795   4.875  0.00  0.00     0.017 A 
ATOM      8  C8  DEN d   1      -5.894   5.263   3.593  0.00  0.00    -0.094 A 
ATOM      9  C9  DEN d   1      -5.987   3.897   3.388  0.00  0.00    -0.072 A 
ENDROOT
TORSDOF 0
ENDMDL
