MODEL 1
REMARK minimizedAffinity -1.81409729
REMARK minimizedRMSD -1
REMARK  0 active torsions:
REMARK  status: ('A' for Active; 'I' for Inactive)
ROOT
ATOM      1  C1  DEN d   1      -5.943   4.000   3.128  0.00  0.00     0.130 A 
ATOM      2  C2  DEN d   1      -5.178   4.526   2.001  0.00  0.00    -0.031 A 
ATOM      3  C3  DEN d   1      -3.749   4.252   2.250  0.00  0.00     0.027 A 
ATOM      4  C4  DEN d   1      -2.652   3.064   4.260  0.00  0.00     0.027 A 
ATOM      5  C5  DEN d   1      -2.892   2.453   5.471  0.00  0.00    -0.003 A 
ATOM      6  C6  DEN d   1      -4.152   2.346   5.997  0.00  0.00     0.001 A 
ATOM      7  C7  DEN d   1      -5.226   2.817   5.290  0.00  0.00     0.017 A 
ATOM      8  C8  DEN d   1      -4.991   3.441   4.071  0.00  0.00    -0.094 A 
ATOM      9  C9  DEN d   1      -3.711   3.529   3.550  0.00  0.00    -0.072 A 
ENDROOT
TORSDOF 0
ENDMDL
