MODEL 1
REMARK minimizedAffinity 12.2975245
REMARK minimizedRMSD -1
REMARK  0 active torsions:
REMARK  status: ('A' for Active; 'I' for Inactive)
ROOT
ATOM      1  C1  DEN d   1      -3.043  -0.716   0.739  0.00  0.00     0.130 A 
ATOM      2  C2  DEN d   1      -2.967  -1.120  -0.662  0.00  0.00    -0.031 A 
ATOM      3  C3  DEN d   1      -1.544  -1.324  -1.001  0.00  0.00     0.027 A 
ATOM      4  C4  DEN d   1       0.536  -1.057   0.500  0.00  0.00     0.027 A 
ATOM      5  C5  DEN d   1       0.974  -0.719   1.761  0.00  0.00    -0.003 A 
ATOM      6  C6  DEN d   1       0.114  -0.327   2.752  0.00  0.00     0.001 A 
ATOM      7  C7  DEN d   1      -1.234  -0.306   2.512  0.00  0.00     0.017 A 
ATOM      8  C8  DEN d   1      -1.683  -0.638   1.240  0.00  0.00    -0.094 A 
ATOM      9  C9  DEN d   1      -0.799  -1.044   0.255  0.00  0.00    -0.072 A 
ENDROOT
TORSDOF 0
ENDMDL
