MODEL 1
REMARK minimizedAffinity -4.03650856
REMARK minimizedRMSD -1
REMARK  0 active torsions:
REMARK  status: ('A' for Active; 'I' for Inactive)
ROOT
ATOM      1  C1  DEN d   1      -5.875   2.246   4.616  0.00  0.00     0.130 A 
ATOM      2  C2  DEN d   1      -5.628   2.642   6.000  0.00  0.00    -0.031 A 
ATOM      3  C3  DEN d   1      -5.191   4.052   6.000  0.00  0.00     0.027 A 
ATOM      4  C4  DEN d   1      -4.877   5.654   4.003  0.00  0.00     0.027 A 
ATOM      5  C5  DEN d   1      -4.952   5.767   2.632  0.00  0.00    -0.003 A 
ATOM      6  C6  DEN d   1      -5.305   4.713   1.831  0.00  0.00     0.001 A 
ATOM      7  C7  DEN d   1      -5.639   3.512   2.397  0.00  0.00     0.017 A 
ATOM      8  C8  DEN d   1      -5.558   3.388   3.778  0.00  0.00    -0.094 A 
ATOM      9  C9  DEN d   1      -5.212   4.468   4.572  0.00  0.00    -0.072 A 
ENDROOT
TORSDOF 0
ENDMDL
