MODEL 1
REMARK minimizedAffinity -2.68720078
REMARK minimizedRMSD -1
REMARK  0 active torsions:
REMARK  status: ('A' for Active; 'I' for Inactive)
ROOT
ATOM      1  C1  DEN d   1      -4.819   3.714   2.296  0.00  0.00     0.130 A 
ATOM      2  C2  DEN d   1      -5.004   4.900   1.465  0.00  0.00    -0.031 A 
ATOM      3  C3  DEN d   1      -5.501   5.990   2.329  0.00  0.00     0.027 A 
ATOM      4  C4  DEN d   1      -5.994   5.957   4.861  0.00  0.00     0.027 A 
ATOM      5  C5  DEN d   1      -6.000   5.172   5.993  0.00  0.00    -0.003 A 
ATOM      6  C6  DEN d   1      -5.648   3.848   5.966  0.00  0.00     0.001 A 
ATOM      7  C7  DEN d   1      -5.232   3.280   4.791  0.00  0.00     0.017 A 
ATOM      8  C8  DEN d   1      -5.230   4.063   3.644  0.00  0.00    -0.094 A 
ATOM      9  C9  DEN d   1      -5.577   5.402   3.694  0.00  0.00    -0.072 A 
ENDROOT
TORSDOF 0
ENDMDL
