MODEL 1
REMARK minimizedAffinity -3.12166095
REMARK minimizedRMSD -1
REMARK  0 active torsions:
REMARK  status: ('A' for Active; 'I' for Inactive)
ROOT
ATOM      1  C1  DEN d   1      -6.000   3.755   2.289  0.00  0.00     0.130 A 
ATOM      2  C2  DEN d   1      -5.874   5.038   1.603  0.00  0.00    -0.031 A 
ATOM      3  C3  DEN d   1      -5.264   6.000   2.543  0.00  0.00     0.027 A 
ATOM      4  C4  DEN d   1      -4.501   5.628   4.978  0.00  0.00     0.027 A 
ATOM      5  C5  DEN d   1      -4.415   4.708   6.000  0.00  0.00    -0.003 A 
ATOM      6  C6  DEN d   1      -4.878   3.425   5.868  0.00  0.00     0.001 A 
ATOM      7  C7  DEN d   1      -5.408   3.014   4.674  0.00  0.00     0.017 A 
ATOM      8  C8  DEN d   1      -5.505   3.939   3.642  0.00  0.00    -0.094 A 
ATOM      9  C9  DEN d   1      -5.019   5.227   3.790  0.00  0.00    -0.072 A 
ENDROOT
TORSDOF 0
ENDMDL
