MODEL 1
REMARK minimizedAffinity -2.98891068
REMARK minimizedRMSD -1
REMARK  0 active torsions:
REMARK  status: ('A' for Active; 'I' for Inactive)
ROOT
ATOM      1  C1  DEN d   1      -5.250   3.735   1.987  0.00  0.00     0.130 A 
ATOM      2  C2  DEN d   1      -5.660   4.992   1.366  0.00  0.00    -0.031 A 
ATOM      3  C3  DEN d   1      -6.000   5.944   2.442  0.00  0.00     0.027 A 
ATOM      4  C4  DEN d   1      -5.927   5.598   4.997  0.00  0.00     0.027 A 
ATOM      5  C5  DEN d   1      -5.655   4.694   6.000  0.00  0.00    -0.003 A 
ATOM      6  C6  DEN d   1      -5.264   3.408   5.738  0.00  0.00     0.001 A 
ATOM      7  C7  DEN d   1      -5.091   3.002   4.441  0.00  0.00     0.017 A 
ATOM      8  C8  DEN d   1      -5.371   3.906   3.424  0.00  0.00    -0.094 A 
ATOM      9  C9  DEN d   1      -5.753   5.205   3.710  0.00  0.00    -0.072 A 
ENDROOT
TORSDOF 0
ENDMDL
