MODEL 1
REMARK minimizedAffinity -2.34198284
REMARK minimizedRMSD -1
REMARK  0 active torsions:
REMARK  status: ('A' for Active; 'I' for Inactive)
ROOT
ATOM      1  C1  DEN d   1      -5.192   3.624   2.280  0.00  0.00     0.130 A 
ATOM      2  C2  DEN d   1      -5.479   4.845   1.532  0.00  0.00    -0.031 A 
ATOM      3  C3  DEN d   1      -5.281   5.994   2.439  0.00  0.00     0.027 A 
ATOM      4  C4  DEN d   1      -4.557   5.999   4.915  0.00  0.00     0.027 A 
ATOM      5  C5  DEN d   1      -4.212   5.204   5.985  0.00  0.00    -0.003 A 
ATOM      6  C6  DEN d   1      -4.203   3.837   5.906  0.00  0.00     0.001 A 
ATOM      7  C7  DEN d   1      -4.501   3.224   4.718  0.00  0.00     0.017 A 
ATOM      8  C8  DEN d   1      -4.857   4.018   3.636  0.00  0.00    -0.094 A 
ATOM      9  C9  DEN d   1      -4.849   5.400   3.733  0.00  0.00    -0.072 A 
ENDROOT
TORSDOF 0
ENDMDL
