MODEL 1
REMARK minimizedAffinity 8.78145123
REMARK minimizedRMSD -1
REMARK  0 active torsions:
REMARK  status: ('A' for Active; 'I' for Inactive)
ROOT
ATOM      1  C1  DEN d   1      -0.065   0.626  -1.044  0.00  0.00     0.130 A 
ATOM      2  C2  DEN d   1      -0.429  -0.084  -2.267  0.00  0.00    -0.031 A 
ATOM      3  C3  DEN d   1      -1.377  -1.157  -1.908  0.00  0.00     0.027 A 
ATOM      4  C4  DEN d   1      -2.316  -1.784   0.411  0.00  0.00     0.027 A 
ATOM      5  C5  DEN d   1      -2.290  -1.476   1.753  0.00  0.00    -0.003 A 
ATOM      6  C6  DEN d   1      -1.501  -0.476   2.258  0.00  0.00     0.001 A 
ATOM      7  C7  DEN d   1      -0.739   0.282   1.408  0.00  0.00     0.017 A 
ATOM      8  C8  DEN d   1      -0.755  -0.028   0.054  0.00  0.00    -0.094 A 
ATOM      9  C9  DEN d   1      -1.568  -1.034  -0.438  0.00  0.00    -0.072 A 
ENDROOT
TORSDOF 0
ENDMDL
