MODEL 1
REMARK minimizedAffinity 0.202562362
REMARK minimizedRMSD -1
REMARK  0 active torsions:
REMARK  status: ('A' for Active; 'I' for Inactive)
ROOT
ATOM      1  C1  DEN d   1      -5.422   2.582   2.224  0.00  0.00     0.130 A 
ATOM      2  C2  DEN d   1      -5.716   3.740   1.384  0.00  0.00    -0.031 A 
ATOM      3  C3  DEN d   1      -5.997   4.887   2.270  0.00  0.00     0.027 A 
ATOM      4  C4  DEN d   1      -5.999   4.985   4.847  0.00  0.00     0.027 A 
ATOM      5  C5  DEN d   1      -5.819   4.250   5.998  0.00  0.00    -0.003 A 
ATOM      6  C6  DEN d   1      -5.530   2.912   5.973  0.00  0.00     0.001 A 
ATOM      7  C7  DEN d   1      -5.368   2.275   4.771  0.00  0.00     0.017 A 
ATOM      8  C8  DEN d   1      -5.555   3.008   3.606  0.00  0.00    -0.094 A 
ATOM      9  C9  DEN d   1      -5.834   4.363   3.652  0.00  0.00    -0.072 A 
ENDROOT
TORSDOF 0
ENDMDL
