MODEL 1
REMARK minimizedAffinity -0.666310847
REMARK minimizedRMSD -1
REMARK  0 active torsions:
REMARK  status: ('A' for Active; 'I' for Inactive)
ROOT
ATOM      1  C1  DEN d   1      -5.352   3.627   2.208  0.00  0.00     0.130 A 
ATOM      2  C2  DEN d   1      -5.593   4.807   1.382  0.00  0.00    -0.031 A 
ATOM      3  C3  DEN d   1      -5.891   5.940   2.279  0.00  0.00     0.027 A 
ATOM      4  C4  DEN d   1      -5.999   5.985   4.856  0.00  0.00     0.027 A 
ATOM      5  C5  DEN d   1      -5.879   5.224   5.998  0.00  0.00    -0.003 A 
ATOM      6  C6  DEN d   1      -5.611   3.882   5.956  0.00  0.00     0.001 A 
ATOM      7  C7  DEN d   1      -5.409   3.267   4.748  0.00  0.00     0.017 A 
ATOM      8  C8  DEN d   1      -5.536   4.026   3.592  0.00  0.00    -0.094 A 
ATOM      9  C9  DEN d   1      -5.795   5.385   3.656  0.00  0.00    -0.072 A 
ENDROOT
TORSDOF 0
ENDMDL
