MODEL 1
REMARK minimizedAffinity -2.98757315
REMARK minimizedRMSD -1
REMARK  0 active torsions:
REMARK  status: ('A' for Active; 'I' for Inactive)
ROOT
ATOM      1  C1  DEN d   1      -5.397   6.000   2.314  0.00  0.00     0.130 A 
ATOM      2  C2  DEN d   1      -4.645   5.076   1.468  0.00  0.00    -0.031 A 
ATOM      3  C3  DEN d   1      -4.160   3.971   2.319  0.00  0.00     0.027 A 
ATOM      4  C4  DEN d   1      -4.501   3.600   4.848  0.00  0.00     0.027 A 
ATOM      5  C5  DEN d   1      -5.060   4.121   5.994  0.00  0.00    -0.003 A 
ATOM      6  C6  DEN d   1      -5.737   5.312   6.000  0.00  0.00     0.001 A 
ATOM      7  C7  DEN d   1      -5.910   6.000   4.828  0.00  0.00     0.017 A 
ATOM      8  C8  DEN d   1      -5.342   5.485   3.670  0.00  0.00    -0.094 A 
ATOM      9  C9  DEN d   1      -4.672   4.273   3.683  0.00  0.00    -0.072 A 
ENDROOT
TORSDOF 0
ENDMDL
