MODEL 1
REMARK minimizedAffinity -3.29305458
REMARK minimizedRMSD -1
REMARK  0 active torsions:
REMARK  status: ('A' for Active; 'I' for Inactive)
ROOT
ATOM      1  C1  DEN d   1      -5.744   3.932   5.999  0.00  0.00     0.130 A 
ATOM      2  C2  DEN d   1      -5.175   2.587   5.987  0.00  0.00    -0.031 A 
ATOM      3  C3  DEN d   1      -4.667   2.319   4.627  0.00  0.00     0.027 A 
ATOM      4  C4  DEN d   1      -4.700   3.850   2.551  0.00  0.00     0.027 A 
ATOM      5  C5  DEN d   1      -5.090   5.080   2.070  0.00  0.00    -0.003 A 
ATOM      6  C6  DEN d   1      -5.749   5.994   2.849  0.00  0.00     0.001 A 
ATOM      7  C7  DEN d   1      -6.000   5.708   4.165  0.00  0.00     0.017 A 
ATOM      8  C8  DEN d   1      -5.617   4.467   4.655  0.00  0.00    -0.094 A 
ATOM      9  C9  DEN d   1      -4.940   3.562   3.855  0.00  0.00    -0.072 A 
ENDROOT
TORSDOF 0
ENDMDL
