MODEL 1
REMARK minimizedAffinity 9.09556103
REMARK minimizedRMSD -1
REMARK  0 active torsions:
REMARK  status: ('A' for Active; 'I' for Inactive)
ROOT
ATOM      1  C   UNL d   1      -1.717  -4.825   0.364  0.00  0.00     0.077 C 
ATOM      2  C1  UNL d   1      -3.210  -4.819   0.216  0.00  0.00    -0.074 A 
ATOM      3  C2  UNL d   1      -3.949  -6.000   0.341  0.00  0.00    -0.005 A 
ATOM      4  C3  UNL d   1      -5.338  -5.977   0.210  0.00  0.00     0.006 A 
ATOM      5  C4  UNL d   1      -6.000  -4.775  -0.047  0.00  0.00    -0.005 A 
ATOM      6  C5  UNL d   1      -5.277  -3.585  -0.174  0.00  0.00    -0.074 A 
ATOM      7  C6  UNL d   1      -5.974  -2.284  -0.441  0.00  0.00     0.077 C 
ATOM      8  C7  UNL d   1      -3.883  -3.615  -0.035  0.00  0.00    -0.001 A 
ENDROOT
TORSDOF 0
ENDMDL
