MODEL 1
REMARK minimizedAffinity -3.31360197
REMARK minimizedRMSD -1
REMARK  0 active torsions:
REMARK  status: ('A' for Active; 'I' for Inactive)
ROOT
ATOM      1  C   UNL d   1      -5.998  -1.276   0.743  0.00  0.00     0.077 C 
ATOM      2  C1  UNL d   1      -5.338  -2.616   0.875  0.00  0.00    -0.074 A 
ATOM      3  C2  UNL d   1      -4.118  -2.882   0.246  0.00  0.00    -0.005 A 
ATOM      4  C3  UNL d   1      -3.511  -4.130   0.385  0.00  0.00     0.006 A 
ATOM      5  C4  UNL d   1      -4.118  -5.124   1.155  0.00  0.00    -0.005 A 
ATOM      6  C5  UNL d   1      -5.338  -4.876   1.792  0.00  0.00    -0.074 A 
ATOM      7  C6  UNL d   1      -5.998  -5.930   2.631  0.00  0.00     0.077 C 
ATOM      8  C7  UNL d   1      -5.938  -3.617   1.653  0.00  0.00    -0.001 A 
ENDROOT
TORSDOF 0
ENDMDL
