MODEL 1
REMARK minimizedAffinity 0.632694244
REMARK minimizedRMSD -1
REMARK  0 active torsions:
REMARK  status: ('A' for Active; 'I' for Inactive)
ROOT
ATOM      1  C   UNL d   1      -1.271  -0.157   1.015  0.00  0.00     0.077 C 
ATOM      2  C1  UNL d   1      -2.259   0.608   1.845  0.00  0.00    -0.074 A 
ATOM      3  C2  UNL d   1      -2.659   1.897   1.480  0.00  0.00    -0.005 A 
ATOM      4  C3  UNL d   1      -3.586   2.592   2.257  0.00  0.00     0.006 A 
ATOM      5  C4  UNL d   1      -4.122   2.006   3.404  0.00  0.00    -0.005 A 
ATOM      6  C5  UNL d   1      -3.735   0.717   3.784  0.00  0.00    -0.074 A 
ATOM      7  C6  UNL d   1      -4.308   0.068   5.008  0.00  0.00     0.077 C 
ATOM      8  C7  UNL d   1      -2.808   0.022   2.994  0.00  0.00    -0.001 A 
ENDROOT
TORSDOF 0
ENDMDL
