MODEL 1
REMARK minimizedAffinity 6.1309824
REMARK minimizedRMSD -1
REMARK  0 active torsions:
REMARK  status: ('A' for Active; 'I' for Inactive)
ROOT
ATOM      1  C   UNL d   1      -2.121  -5.868   0.365  0.00  0.00     0.077 C 
ATOM      2  C1  UNL d   1      -3.478  -5.253   0.535  0.00  0.00    -0.074 A 
ATOM      3  C2  UNL d   1      -4.547  -5.999   1.043  0.00  0.00    -0.005 A 
ATOM      4  C3  UNL d   1      -5.801  -5.411   1.205  0.00  0.00     0.006 A 
ATOM      5  C4  UNL d   1      -5.999  -4.073   0.862  0.00  0.00    -0.005 A 
ATOM      6  C5  UNL d   1      -4.943  -3.311   0.354  0.00  0.00    -0.074 A 
ATOM      7  C6  UNL d   1      -5.136  -1.869  -0.011  0.00  0.00     0.077 C 
ATOM      8  C7  UNL d   1      -3.683  -3.907   0.200  0.00  0.00    -0.001 A 
ENDROOT
TORSDOF 0
ENDMDL
