MODEL 1
REMARK minimizedAffinity 7.33044291
REMARK minimizedRMSD -1
REMARK  0 active torsions:
REMARK  status: ('A' for Active; 'I' for Inactive)
ROOT
ATOM      1  C   UNL d   1      -3.913  -5.253   1.127  0.00  0.00     0.077 C 
ATOM      2  C1  UNL d   1      -4.492  -3.926   0.734  0.00  0.00    -0.074 A 
ATOM      3  C2  UNL d   1      -5.460  -3.833  -0.271  0.00  0.00    -0.005 A 
ATOM      4  C3  UNL d   1      -5.996  -2.593  -0.618  0.00  0.00     0.006 A 
ATOM      5  C4  UNL d   1      -5.571  -1.435   0.034  0.00  0.00    -0.005 A 
ATOM      6  C5  UNL d   1      -4.604  -1.509   1.043  0.00  0.00    -0.074 A 
ATOM      7  C6  UNL d   1      -4.143  -0.276   1.761  0.00  0.00     0.077 C 
ATOM      8  C7  UNL d   1      -4.075  -2.759   1.391  0.00  0.00    -0.001 A 
ENDROOT
TORSDOF 0
ENDMDL
