MODEL 1
REMARK minimizedAffinity 9.95295811
REMARK minimizedRMSD -1
REMARK  0 active torsions:
REMARK  status: ('A' for Active; 'I' for Inactive)
ROOT
ATOM      1  C   UNL d   1       4.333   0.724  -5.999  0.00  0.00     0.077 C 
ATOM      2  C1  UNL d   1       4.507   2.214  -5.984  0.00  0.00    -0.074 A 
ATOM      3  C2  UNL d   1       5.781   2.790  -5.996  0.00  0.00    -0.005 A 
ATOM      4  C3  UNL d   1       5.926   4.177  -5.991  0.00  0.00     0.006 A 
ATOM      5  C4  UNL d   1       4.800   5.001  -5.973  0.00  0.00    -0.005 A 
ATOM      6  C5  UNL d   1       3.518   4.444  -5.962  0.00  0.00    -0.074 A 
ATOM      7  C6  UNL d   1       2.297   5.315  -5.953  0.00  0.00     0.077 C 
ATOM      8  C7  UNL d   1       3.380   3.049  -5.974  0.00  0.00    -0.001 A 
ENDROOT
TORSDOF 0
ENDMDL
