MODEL 1
REMARK minimizedAffinity 13.7280045
REMARK minimizedRMSD -1
REMARK  0 active torsions:
REMARK  status: ('A' for Active; 'I' for Inactive)
ROOT
ATOM      1  C   UNL d   1      -0.023  -0.852  -5.341  0.00  0.00     0.077 C 
ATOM      2  C1  UNL d   1       1.149  -0.034  -4.887  0.00  0.00    -0.074 A 
ATOM      3  C2  UNL d   1       1.886  -0.399  -3.755  0.00  0.00    -0.005 A 
ATOM      4  C3  UNL d   1       2.979   0.367  -3.351  0.00  0.00     0.006 A 
ATOM      5  C4  UNL d   1       3.347   1.503  -4.072  0.00  0.00    -0.005 A 
ATOM      6  C5  UNL d   1       2.623   1.883  -5.207  0.00  0.00    -0.074 A 
ATOM      7  C6  UNL d   1       3.011   3.096  -6.000  0.00  0.00     0.077 C 
ATOM      8  C7  UNL d   1       1.529   1.105  -5.611  0.00  0.00    -0.001 A 
ENDROOT
TORSDOF 0
ENDMDL
