MODEL 1
REMARK minimizedAffinity 8.43696785
REMARK minimizedRMSD -1
REMARK  0 active torsions:
REMARK  status: ('A' for Active; 'I' for Inactive)
ROOT
ATOM      1  C   UNL d   1       2.331  -0.705  -3.568  0.00  0.00     0.077 C 
ATOM      2  C1  UNL d   1       1.094  -0.805  -4.411  0.00  0.00    -0.074 A 
ATOM      3  C2  UNL d   1       0.455   0.344  -4.888  0.00  0.00    -0.005 A 
ATOM      4  C3  UNL d   1      -0.689   0.235  -5.678  0.00  0.00     0.006 A 
ATOM      5  C4  UNL d   1      -1.205  -1.021  -5.999  0.00  0.00    -0.005 A 
ATOM      6  C5  UNL d   1      -0.579  -2.181  -5.531  0.00  0.00    -0.074 A 
ATOM      7  C6  UNL d   1      -1.115  -3.539  -5.874  0.00  0.00     0.077 C 
ATOM      8  C7  UNL d   1       0.575  -2.063  -4.743  0.00  0.00    -0.001 A 
ENDROOT
TORSDOF 0
ENDMDL
