MODEL 1
REMARK minimizedAffinity 15.4936342
REMARK minimizedRMSD -1
REMARK  0 active torsions:
REMARK  status: ('A' for Active; 'I' for Inactive)
ROOT
ATOM      1  C   UNL d   1      -1.634   0.632   1.740  0.00  0.00     0.077 C 
ATOM      2  C1  UNL d   1      -2.649  -0.395   1.333  0.00  0.00    -0.074 A 
ATOM      3  C2  UNL d   1      -3.984  -0.038   1.114  0.00  0.00    -0.005 A 
ATOM      4  C3  UNL d   1      -4.915  -1.002   0.727  0.00  0.00     0.006 A 
ATOM      5  C4  UNL d   1      -4.521  -2.330   0.556  0.00  0.00    -0.005 A 
ATOM      6  C5  UNL d   1      -3.191  -2.705   0.770  0.00  0.00    -0.074 A 
ATOM      7  C6  UNL d   1      -2.750  -4.126   0.581  0.00  0.00     0.077 C 
ATOM      8  C7  UNL d   1      -2.260  -1.729   1.152  0.00  0.00    -0.001 A 
ENDROOT
TORSDOF 0
ENDMDL
