MODEL 1
REMARK minimizedAffinity 6.5076623
REMARK minimizedRMSD -1
REMARK  0 active torsions:
REMARK  status: ('A' for Active; 'I' for Inactive)
ROOT
ATOM      1  C   UNL d   1      -5.919  -0.822  -3.587  0.00  0.00     0.077 C 
ATOM      2  C1  UNL d   1      -4.918  -1.550  -4.433  0.00  0.00    -0.074 A 
ATOM      3  C2  UNL d   1      -3.731  -0.930  -4.836  0.00  0.00    -0.005 A 
ATOM      4  C3  UNL d   1      -2.805  -1.623  -5.615  0.00  0.00     0.006 A 
ATOM      5  C4  UNL d   1      -3.055  -2.941  -5.999  0.00  0.00    -0.005 A 
ATOM      6  C5  UNL d   1      -4.236  -3.578  -5.605  0.00  0.00    -0.074 A 
ATOM      7  C6  UNL d   1      -4.517  -4.997  -6.000  0.00  0.00     0.077 C 
ATOM      8  C7  UNL d   1      -5.159  -2.877  -4.816  0.00  0.00    -0.001 A 
ENDROOT
TORSDOF 0
ENDMDL
