MODEL 1
REMARK minimizedAffinity 15.0366039
REMARK minimizedRMSD -1
REMARK  0 active torsions:
REMARK  status: ('A' for Active; 'I' for Inactive)
ROOT
ATOM      1  C   UNL d   1       5.141  -1.440   2.337  0.00  0.00     0.077 C 
ATOM      2  C1  UNL d   1       5.447  -2.286   3.537  0.00  0.00    -0.074 A 
ATOM      3  C2  UNL d   1       5.662  -1.704   4.791  0.00  0.00    -0.005 A 
ATOM      4  C3  UNL d   1       5.936  -2.505   5.900  0.00  0.00     0.006 A 
ATOM      5  C4  UNL d   1       5.998  -3.893   5.766  0.00  0.00    -0.005 A 
ATOM      6  C5  UNL d   1       5.786  -4.492   4.521  0.00  0.00    -0.074 A 
ATOM      7  C6  UNL d   1       5.840  -5.982   4.362  0.00  0.00     0.077 C 
ATOM      8  C7  UNL d   1       5.504  -3.681   3.413  0.00  0.00    -0.001 A 
ENDROOT
TORSDOF 0
ENDMDL
