MODEL 1
REMARK minimizedAffinity 4.52802515
REMARK minimizedRMSD -1
REMARK  0 active torsions:
REMARK  status: ('A' for Active; 'I' for Inactive)
ROOT
ATOM      1  C   UNL d   1      -3.452   3.465   2.490  0.00  0.00     0.077 C 
ATOM      2  C1  UNL d   1      -2.766   2.227   1.995  0.00  0.00    -0.074 A 
ATOM      3  C2  UNL d   1      -2.685   1.949   0.626  0.00  0.00    -0.005 A 
ATOM      4  C3  UNL d   1      -2.035   0.799   0.179  0.00  0.00     0.006 A 
ATOM      5  C4  UNL d   1      -1.460  -0.084   1.095  0.00  0.00    -0.005 A 
ATOM      6  C5  UNL d   1      -1.529   0.178   2.467  0.00  0.00    -0.074 A 
ATOM      7  C6  UNL d   1      -0.907  -0.754   3.463  0.00  0.00     0.077 C 
ATOM      8  C7  UNL d   1      -2.178   1.340   2.907  0.00  0.00    -0.001 A 
ENDROOT
TORSDOF 0
ENDMDL
