MODEL 1
REMARK minimizedAffinity 7.28842545
REMARK minimizedRMSD -1
REMARK  0 active torsions:
REMARK  status: ('A' for Active; 'I' for Inactive)
ROOT
ATOM      1  C   UNL d   1       1.771   2.734   2.459  0.00  0.00     0.077 C 
ATOM      2  C1  UNL d   1       0.597   1.807   2.560  0.00  0.00    -0.074 A 
ATOM      3  C2  UNL d   1       0.731   0.538   3.133  0.00  0.00    -0.005 A 
ATOM      4  C3  UNL d   1      -0.373  -0.311   3.228  0.00  0.00     0.006 A 
ATOM      5  C4  UNL d   1      -1.618   0.101   2.752  0.00  0.00    -0.005 A 
ATOM      6  C5  UNL d   1      -1.771   1.366   2.177  0.00  0.00    -0.074 A 
ATOM      7  C6  UNL d   1      -3.105   1.828   1.670  0.00  0.00     0.077 C 
ATOM      8  C7  UNL d   1      -0.660   2.216   2.092  0.00  0.00    -0.001 A 
ENDROOT
TORSDOF 0
ENDMDL
