MODEL 1
REMARK minimizedAffinity 7.46000195
REMARK minimizedRMSD -1
REMARK  0 active torsions:
REMARK  status: ('A' for Active; 'I' for Inactive)
ROOT
ATOM      1  C   UNL d   1       6.000   4.127  -4.496  0.00  0.00     0.077 C 
ATOM      2  C1  UNL d   1       4.537   4.333  -4.235  0.00  0.00    -0.074 A 
ATOM      3  C2  UNL d   1       3.702   4.876  -5.216  0.00  0.00    -0.005 A 
ATOM      4  C3  UNL d   1       2.342   5.053  -4.962  0.00  0.00     0.006 A 
ATOM      5  C4  UNL d   1       1.804   4.688  -3.727  0.00  0.00    -0.005 A 
ATOM      6  C5  UNL d   1       2.624   4.143  -2.734  0.00  0.00    -0.074 A 
ATOM      7  C6  UNL d   1       2.061   3.737  -1.405  0.00  0.00     0.077 C 
ATOM      8  C7  UNL d   1       3.989   3.962  -2.999  0.00  0.00    -0.001 A 
ENDROOT
TORSDOF 0
ENDMDL
