MODEL 1
REMARK minimizedAffinity 5.41845083
REMARK minimizedRMSD -1
REMARK  0 active torsions:
REMARK  status: ('A' for Active; 'I' for Inactive)
ROOT
ATOM      1  C   UNL d   1      -0.745  -2.304  -5.967  0.00  0.00     0.077 C 
ATOM      2  C1  UNL d   1      -1.866  -3.299  -5.979  0.00  0.00    -0.074 A 
ATOM      3  C2  UNL d   1      -1.607  -4.674  -5.999  0.00  0.00    -0.005 A 
ATOM      4  C3  UNL d   1      -2.660  -5.588  -6.000  0.00  0.00     0.006 A 
ATOM      5  C4  UNL d   1      -3.981  -5.138  -5.982  0.00  0.00    -0.005 A 
ATOM      6  C5  UNL d   1      -4.260  -3.768  -5.962  0.00  0.00    -0.074 A 
ATOM      7  C6  UNL d   1      -5.673  -3.268  -5.932  0.00  0.00     0.077 C 
ATOM      8  C7  UNL d   1      -3.196  -2.855  -5.953  0.00  0.00    -0.001 A 
ENDROOT
TORSDOF 0
ENDMDL
