MODEL 1
REMARK minimizedAffinity 5.35569763
REMARK minimizedRMSD -1
REMARK  0 active torsions:
REMARK  status: ('A' for Active; 'I' for Inactive)
ROOT
ATOM      1  N1  IND d   1      -2.786   1.485  -5.119  0.00  0.00    -0.196 N 
ATOM      2  C2  IND d   1      -4.148   1.574  -5.193  0.00  0.00     0.054 A 
ATOM      3  C3  IND d   1      -4.724   0.695  -4.343  0.00  0.00    -0.031 A 
ATOM      4  C4  IND d   1      -3.625  -0.915  -2.662  0.00  0.00     0.051 A 
ATOM      5  C5  IND d   1      -2.406  -1.380  -2.255  0.00  0.00    -0.031 A 
ATOM      6  C6  IND d   1      -1.227  -0.902  -2.791  0.00  0.00     0.015 A 
ATOM      7  C7  IND d   1      -1.224   0.071  -3.750  0.00  0.00    -0.016 A 
ATOM      8  C8  IND d   1      -2.460   0.540  -4.170  0.00  0.00    -0.047 A 
ATOM      9  C9  IND d   1      -3.660   0.029  -3.661  0.00  0.00    -0.096 A 
ATOM     10  HN1 IND d   1      -2.227   1.942  -5.586  0.00  0.00     0.298 HD
ENDROOT
TORSDOF 0
ENDMDL
