MODEL 1
REMARK minimizedAffinity 9.5948
REMARK minimizedRMSD -1
REMARK  0 active torsions:
REMARK  status: ('A' for Active; 'I' for Inactive)
ROOT
ATOM      1  N1  IND d   1       2.480  -0.990  -0.699  0.00  0.00    -0.196 N 
ATOM      2  C2  IND d   1       2.970  -1.503   0.470  0.00  0.00     0.054 A 
ATOM      3  C3  IND d   1       2.249  -2.582   0.849  0.00  0.00    -0.031 A 
ATOM      4  C4  IND d   1       0.288  -3.741  -0.351  0.00  0.00     0.051 A 
ATOM      5  C5  IND d   1      -0.539  -3.617  -1.432  0.00  0.00    -0.031 A 
ATOM      6  C6  IND d   1      -0.397  -2.591  -2.344  0.00  0.00     0.015 A 
ATOM      7  C7  IND d   1       0.589  -1.654  -2.214  0.00  0.00    -0.016 A 
ATOM      8  C8  IND d   1       1.426  -1.773  -1.114  0.00  0.00    -0.047 A 
ATOM      9  C9  IND d   1       1.260  -2.787  -0.162  0.00  0.00    -0.096 A 
ATOM     10  HN1 IND d   1       2.780  -0.294  -1.106  0.00  0.00     0.298 HD
ENDROOT
TORSDOF 0
ENDMDL
