MODEL 1
REMARK minimizedAffinity 4.11913061
REMARK minimizedRMSD -1
REMARK  0 active torsions:
REMARK  status: ('A' for Active; 'I' for Inactive)
ROOT
ATOM      1  N1  IND d   1       2.297   1.885   0.168  0.00  0.00    -0.196 N 
ATOM      2  C2  IND d   1       3.607   1.826   0.555  0.00  0.00     0.054 A 
ATOM      3  C3  IND d   1       4.058   0.553   0.498  0.00  0.00    -0.031 A 
ATOM      4  C4  IND d   1       2.848  -1.575  -0.301  0.00  0.00     0.051 A 
ATOM      5  C5  IND d   1       1.628  -2.029  -0.716  0.00  0.00    -0.031 A 
ATOM      6  C6  IND d   1       0.547  -1.184  -0.864  0.00  0.00     0.015 A 
ATOM      7  C7  IND d   1       0.650   0.155  -0.611  0.00  0.00    -0.016 A 
ATOM      8  C8  IND d   1       1.886   0.618  -0.182  0.00  0.00    -0.047 A 
ATOM      9  C9  IND d   1       2.975  -0.242   0.010  0.00  0.00    -0.096 A 
ATOM     10  HN1 IND d   1       1.812   2.595   0.147  0.00  0.00     0.298 HD
ENDROOT
TORSDOF 0
ENDMDL
