MODEL 1
REMARK minimizedAffinity 11.0570478
REMARK minimizedRMSD -1
REMARK  0 active torsions:
REMARK  status: ('A' for Active; 'I' for Inactive)
ROOT
ATOM      1  N1  IND d   1       0.009  -3.762   0.034  0.00  0.00    -0.196 N 
ATOM      2  C2  IND d   1      -0.819  -3.602  -1.042  0.00  0.00     0.054 A 
ATOM      3  C3  IND d   1      -0.405  -2.565  -1.804  0.00  0.00    -0.031 A 
ATOM      4  C4  IND d   1       1.663  -1.057  -1.530  0.00  0.00     0.051 A 
ATOM      5  C5  IND d   1       2.701  -0.796  -0.680  0.00  0.00    -0.031 A 
ATOM      6  C6  IND d   1       2.900  -1.527   0.474  0.00  0.00     0.015 A 
ATOM      7  C7  IND d   1       2.072  -2.558   0.816  0.00  0.00    -0.016 A 
ATOM      8  C8  IND d   1       1.013  -2.821  -0.042  0.00  0.00    -0.047 A 
ATOM      9  C9  IND d   1       0.781  -2.056  -1.192  0.00  0.00    -0.096 A 
ATOM     10  HN1 IND d   1      -0.081  -4.352   0.653  0.00  0.00     0.298 HD
ENDROOT
TORSDOF 0
ENDMDL
