MODEL 1
REMARK minimizedAffinity 10.8710499
REMARK minimizedRMSD -1
REMARK  0 active torsions:
REMARK  status: ('A' for Active; 'I' for Inactive)
ROOT
ATOM      1  N1  IND d   1       0.969   0.933   0.096  0.00  0.00    -0.196 N 
ATOM      2  C2  IND d   1       1.323   1.910   0.984  0.00  0.00     0.054 A 
ATOM      3  C3  IND d   1       2.355   1.494   1.753  0.00  0.00    -0.031 A 
ATOM      4  C4  IND d   1       3.681  -0.710   1.659  0.00  0.00     0.051 A 
ATOM      5  C5  IND d   1       3.705  -1.927   1.037  0.00  0.00    -0.031 A 
ATOM      6  C6  IND d   1       2.802  -2.259   0.049  0.00  0.00     0.015 A 
ATOM      7  C7  IND d   1       1.843  -1.377  -0.365  0.00  0.00    -0.016 A 
ATOM      8  C8  IND d   1       1.812  -0.143   0.268  0.00  0.00    -0.047 A 
ATOM      9  C9  IND d   1       2.699   0.183   1.302  0.00  0.00    -0.096 A 
ATOM     10  HN1 IND d   1       0.327   0.982  -0.474  0.00  0.00     0.298 HD
ENDROOT
TORSDOF 0
ENDMDL
