MODEL 1
REMARK minimizedAffinity 8.8078928
REMARK minimizedRMSD -1
REMARK  0 active torsions:
REMARK  status: ('A' for Active; 'I' for Inactive)
ROOT
ATOM      1  N1  IND d   1       0.826   2.436  -0.069  0.00  0.00    -0.196 N 
ATOM      2  C2  IND d   1       1.514   1.264  -0.214  0.00  0.00     0.054 A 
ATOM      3  C3  IND d   1       1.362   0.491   0.885  0.00  0.00    -0.031 A 
ATOM      4  C4  IND d   1      -0.051   0.908   2.996  0.00  0.00     0.051 A 
ATOM      5  C5  IND d   1      -0.827   1.855   3.603  0.00  0.00    -0.031 A 
ATOM      6  C6  IND d   1      -1.099   3.068   3.003  0.00  0.00     0.015 A 
ATOM      7  C7  IND d   1      -0.613   3.376   1.764  0.00  0.00    -0.016 A 
ATOM      8  C8  IND d   1       0.181   2.419   1.148  0.00  0.00    -0.047 A 
ATOM      9  C9  IND d   1       0.496   1.203   1.769  0.00  0.00    -0.096 A 
ATOM     10  HN1 IND d   1       0.801   3.077  -0.642  0.00  0.00     0.298 HD
ENDROOT
TORSDOF 0
ENDMDL
