MODEL 1
REMARK minimizedAffinity 7.36631346
REMARK minimizedRMSD -1
REMARK  0 active torsions:
REMARK  status: ('A' for Active; 'I' for Inactive)
ROOT
ATOM      1  N1  IND d   1       1.253   1.738  -0.726  0.00  0.00    -0.196 N 
ATOM      2  C2  IND d   1       1.886   2.154   0.412  0.00  0.00     0.054 A 
ATOM      3  C3  IND d   1       2.450   1.103   1.047  0.00  0.00    -0.031 A 
ATOM      4  C4  IND d   1       2.546  -1.372   0.346  0.00  0.00     0.051 A 
ATOM      5  C5  IND d   1       2.081  -2.243  -0.599  0.00  0.00    -0.031 A 
ATOM      6  C6  IND d   1       1.302  -1.822  -1.657  0.00  0.00     0.015 A 
ATOM      7  C7  IND d   1       0.968  -0.507  -1.817  0.00  0.00    -0.016 A 
ATOM      8  C8  IND d   1       1.433   0.379  -0.856  0.00  0.00    -0.047 A 
ATOM      9  C9  IND d   1       2.188  -0.049   0.244  0.00  0.00    -0.096 A 
ATOM     10  HN1 IND d   1       0.816   2.241  -1.270  0.00  0.00     0.298 HD
ENDROOT
TORSDOF 0
ENDMDL
