MODEL 1
REMARK minimizedAffinity -4.95915031
REMARK minimizedRMSD -1
REMARK  0 active torsions:
REMARK  status: ('A' for Active; 'I' for Inactive)
ROOT
ATOM      1  C   UNL d   1       1.309   2.463   0.369  0.00  0.00     0.124 A 
ATOM      2  C1  UNL d   1       0.156   2.286  -0.383  0.00  0.00     0.062 A 
ATOM      3  C2  UNL d   1      -0.277   1.004  -0.709  0.00  0.00     0.162 A 
ATOM      4  C3  UNL d   1       0.442  -0.112  -0.282  0.00  0.00    -0.034 A 
ATOM      5  C4  UNL d   1       1.601   0.074   0.474  0.00  0.00     0.162 A 
ATOM      6  C5  UNL d   1       2.030   1.357   0.797  0.00  0.00     0.062 A 
ATOM      7  F   UNL d   1       3.144   1.526   1.524  0.00  0.00    -0.097 F 
ATOM      8  F1  UNL d   1       2.316  -0.977   0.901  0.00  0.00    -0.096 F 
ATOM      9  I   UNL d   1      -0.203  -2.030  -0.767  0.00  0.00    -0.060 I 
ATOM     10  F2  UNL d   1      -1.395   0.863  -1.438  0.00  0.00    -0.096 F 
ATOM     11  F3  UNL d   1      -0.542   3.353  -0.799  0.00  0.00    -0.097 F 
ATOM     12  F4  UNL d   1       1.724   3.697   0.681  0.00  0.00    -0.092 F 
ENDROOT
TORSDOF 0
ENDMDL
