MODEL 1
REMARK minimizedAffinity -3.0689919
REMARK minimizedRMSD -1
REMARK  0 active torsions:
REMARK  status: ('A' for Active; 'I' for Inactive)
ROOT
ATOM      1  C   UNL d   1       1.270   2.592   0.145  0.00  0.00     0.124 A 
ATOM      2  C1  UNL d   1       2.162   1.547   0.344  0.00  0.00     0.062 A 
ATOM      3  C2  UNL d   1       1.711   0.231   0.340  0.00  0.00     0.162 A 
ATOM      4  C3  UNL d   1       0.360  -0.049   0.134  0.00  0.00    -0.034 A 
ATOM      5  C4  UNL d   1      -0.532   1.006  -0.064  0.00  0.00     0.162 A 
ATOM      6  C5  UNL d   1      -0.076   2.320  -0.058  0.00  0.00     0.062 A 
ATOM      7  F   UNL d   1      -0.940   3.328  -0.250  0.00  0.00    -0.097 F 
ATOM      8  F1  UNL d   1      -1.837   0.772  -0.264  0.00  0.00    -0.096 F 
ATOM      9  I   UNL d   1      -0.319  -2.017   0.127  0.00  0.00    -0.060 I 
ATOM     10  F2  UNL d   1       2.595  -0.759   0.534  0.00  0.00    -0.096 F 
ATOM     11  F3  UNL d   1       3.462   1.807   0.542  0.00  0.00    -0.097 F 
ATOM     12  F4  UNL d   1       1.706   3.858   0.151  0.00  0.00    -0.092 F 
ENDROOT
TORSDOF 0
ENDMDL
