MODEL 1
REMARK minimizedAffinity -5.48087311
REMARK minimizedRMSD -1
REMARK  0 active torsions:
REMARK  status: ('A' for Active; 'I' for Inactive)
ROOT
ATOM      1  C   UNL d   1       2.350   2.182   0.362  0.00  0.00     0.124 A 
ATOM      2  C1  UNL d   1       2.291   0.805   0.533  0.00  0.00     0.062 A 
ATOM      3  C2  UNL d   1       1.059   0.164   0.626  0.00  0.00     0.162 A 
ATOM      4  C3  UNL d   1      -0.124   0.898   0.549  0.00  0.00    -0.034 A 
ATOM      5  C4  UNL d   1      -0.057   2.282   0.379  0.00  0.00     0.162 A 
ATOM      6  C5  UNL d   1       1.177   2.918   0.286  0.00  0.00     0.062 A 
ATOM      7  F   UNL d   1       1.232   4.248   0.121  0.00  0.00    -0.097 F 
ATOM      8  F1  UNL d   1      -1.175   3.018   0.301  0.00  0.00    -0.096 F 
ATOM      9  I   UNL d   1      -1.968  -0.058   0.689  0.00  0.00    -0.060 I 
ATOM     10  F2  UNL d   1       1.032  -1.167   0.791  0.00  0.00    -0.096 F 
ATOM     11  F3  UNL d   1       3.424   0.091   0.608  0.00  0.00    -0.097 F 
ATOM     12  F4  UNL d   1       3.536   2.796   0.273  0.00  0.00    -0.092 F 
ENDROOT
TORSDOF 0
ENDMDL
