MODEL 1
REMARK minimizedAffinity -0.00114594284
REMARK minimizedRMSD -1
REMARK  0 active torsions:
REMARK  status: ('A' for Active; 'I' for Inactive)
ROOT
ATOM      1  C   UNL d   1       1.350   2.466   0.698  0.00  0.00     0.124 A 
ATOM      2  C1  UNL d   1      -0.004   2.192   0.563  0.00  0.00     0.062 A 
ATOM      3  C2  UNL d   1      -0.438   0.884   0.367  0.00  0.00     0.162 A 
ATOM      4  C3  UNL d   1       0.484  -0.161   0.304  0.00  0.00    -0.034 A 
ATOM      5  C4  UNL d   1       1.845   0.122   0.439  0.00  0.00     0.162 A 
ATOM      6  C5  UNL d   1       2.273   1.431   0.636  0.00  0.00     0.062 A 
ATOM      7  F   UNL d   1       3.581   1.694   0.765  0.00  0.00    -0.097 F 
ATOM      8  F1  UNL d   1       2.758  -0.859   0.384  0.00  0.00    -0.096 F 
ATOM      9  I   UNL d   1      -0.160  -2.118   0.011  0.00  0.00    -0.060 I 
ATOM     10  F2  UNL d   1      -1.752   0.648   0.240  0.00  0.00    -0.096 F 
ATOM     11  F3  UNL d   1      -0.898   3.190   0.622  0.00  0.00    -0.097 F 
ATOM     12  F4  UNL d   1       1.764   3.725   0.886  0.00  0.00    -0.092 F 
ENDROOT
TORSDOF 0
ENDMDL
