MODEL 1
REMARK minimizedAffinity -5.46351147
REMARK minimizedRMSD -1
REMARK  0 active torsions:
REMARK  status: ('A' for Active; 'I' for Inactive)
ROOT
ATOM      1  C   UNL d   1       2.847   1.854   0.834  0.00  0.00     0.124 A 
ATOM      2  C1  UNL d   1       2.879   0.466   0.851  0.00  0.00     0.062 A 
ATOM      3  C2  UNL d   1       1.692  -0.260   0.868  0.00  0.00     0.162 A 
ATOM      4  C3  UNL d   1       0.462   0.399   0.867  0.00  0.00    -0.034 A 
ATOM      5  C4  UNL d   1       0.439   1.795   0.851  0.00  0.00     0.162 A 
ATOM      6  C5  UNL d   1       1.628   2.517   0.834  0.00  0.00     0.062 A 
ATOM      7  F   UNL d   1       1.596   3.857   0.818  0.00  0.00    -0.097 F 
ATOM      8  F1  UNL d   1      -0.725   2.461   0.850  0.00  0.00    -0.096 F 
ATOM      9  I   UNL d   1      -1.315  -0.684   0.892  0.00  0.00    -0.060 I 
ATOM     10  F2  UNL d   1       1.752  -1.600   0.884  0.00  0.00    -0.096 F 
ATOM     11  F3  UNL d   1       4.055  -0.176   0.852  0.00  0.00    -0.097 F 
ATOM     12  F4  UNL d   1       3.991   2.551   0.819  0.00  0.00    -0.092 F 
ENDROOT
TORSDOF 0
ENDMDL
