MODEL 1
REMARK minimizedAffinity -5.83951235
REMARK minimizedRMSD -1
REMARK  0 active torsions:
REMARK  status: ('A' for Active; 'I' for Inactive)
ROOT
ATOM      1  C   UNL d   1       1.072   3.148   0.364  0.00  0.00     0.124 A 
ATOM      2  C1  UNL d   1      -0.235   2.697   0.240  0.00  0.00     0.062 A 
ATOM      3  C2  UNL d   1      -0.503   1.332   0.205  0.00  0.00     0.162 A 
ATOM      4  C3  UNL d   1       0.538   0.407   0.294  0.00  0.00    -0.034 A 
ATOM      5  C4  UNL d   1       1.849   0.869   0.418  0.00  0.00     0.162 A 
ATOM      6  C5  UNL d   1       2.112   2.234   0.452  0.00  0.00     0.062 A 
ATOM      7  F   UNL d   1       3.375   2.669   0.572  0.00  0.00    -0.097 F 
ATOM      8  F1  UNL d   1       2.874   0.008   0.506  0.00  0.00    -0.096 F 
ATOM      9  I   UNL d   1       0.140  -1.635   0.241  0.00  0.00    -0.060 I 
ATOM     10  F2  UNL d   1      -1.775   0.924   0.084  0.00  0.00    -0.096 F 
ATOM     11  F3  UNL d   1      -1.242   3.578   0.153  0.00  0.00    -0.097 F 
ATOM     12  F4  UNL d   1       1.328   4.463   0.397  0.00  0.00    -0.092 F 
ENDROOT
TORSDOF 0
ENDMDL
