MODEL 1
REMARK minimizedAffinity -0.436706096
REMARK minimizedRMSD -1
REMARK  0 active torsions:
REMARK  status: ('A' for Active; 'I' for Inactive)
ROOT
ATOM      1  C   UNL d   1      -1.237   0.729   0.662  0.00  0.00     0.124 A 
ATOM      2  C1  UNL d   1      -0.818   2.049   0.748  0.00  0.00     0.062 A 
ATOM      3  C2  UNL d   1       0.495   2.389   0.434  0.00  0.00     0.162 A 
ATOM      4  C3  UNL d   1       1.399   1.406   0.031  0.00  0.00    -0.034 A 
ATOM      5  C4  UNL d   1       0.970   0.079  -0.051  0.00  0.00     0.162 A 
ATOM      6  C5  UNL d   1      -0.343  -0.255   0.263  0.00  0.00     0.062 A 
ATOM      7  F   UNL d   1      -0.746  -1.531   0.180  0.00  0.00    -0.097 F 
ATOM      8  F1  UNL d   1       1.813  -0.891  -0.435  0.00  0.00    -0.096 F 
ATOM      9  I   UNL d   1       3.363   1.909  -0.438  0.00  0.00    -0.060 I 
ATOM     10  F2  UNL d   1       0.872   3.672   0.525  0.00  0.00    -0.096 F 
ATOM     11  F3  UNL d   1      -1.680   3.001   1.134  0.00  0.00    -0.097 F 
ATOM     12  F4  UNL d   1      -2.501   0.405   0.965  0.00  0.00    -0.092 F 
ENDROOT
TORSDOF 0
ENDMDL
