MODEL 1
REMARK minimizedAffinity -1.50631547
REMARK minimizedRMSD -1
REMARK  0 active torsions:
REMARK  status: ('A' for Active; 'I' for Inactive)
ROOT
ATOM      1  C   UNL d   1      -1.479   1.041  -0.416  0.00  0.00     0.124 A 
ATOM      2  C1  UNL d   1      -2.040   0.330  -1.468  0.00  0.00     0.062 A 
ATOM      3  C2  UNL d   1      -1.493  -0.889  -1.859  0.00  0.00     0.162 A 
ATOM      4  C3  UNL d   1      -0.379  -1.405  -1.197  0.00  0.00    -0.034 A 
ATOM      5  C4  UNL d   1       0.180  -0.684  -0.140  0.00  0.00     0.162 A 
ATOM      6  C5  UNL d   1      -0.371   0.534   0.247  0.00  0.00     0.062 A 
ATOM      7  F   UNL d   1       0.172   1.219   1.264  0.00  0.00    -0.097 F 
ATOM      8  F1  UNL d   1       1.251  -1.152   0.518  0.00  0.00    -0.096 F 
ATOM      9  I   UNL d   1       0.441  -3.227  -1.779  0.00  0.00    -0.060 I 
ATOM     10  F2  UNL d   1      -2.055  -1.554  -2.879  0.00  0.00    -0.096 F 
ATOM     11  F3  UNL d   1      -3.111   0.819  -2.110  0.00  0.00    -0.097 F 
ATOM     12  F4  UNL d   1      -2.007   2.214  -0.042  0.00  0.00    -0.092 F 
ENDROOT
TORSDOF 0
ENDMDL
