MODEL 1
REMARK minimizedAffinity -5.72797966
REMARK minimizedRMSD -1
REMARK  0 active torsions:
REMARK  status: ('A' for Active; 'I' for Inactive)
ROOT
ATOM      1  C   UNL d   1       1.067   2.568   0.470  0.00  0.00     0.124 A 
ATOM      2  C1  UNL d   1       1.994   1.537   0.532  0.00  0.00     0.062 A 
ATOM      3  C2  UNL d   1       1.597   0.223   0.302  0.00  0.00     0.162 A 
ATOM      4  C3  UNL d   1       0.265  -0.067   0.006  0.00  0.00    -0.034 A 
ATOM      5  C4  UNL d   1      -0.662   0.975  -0.053  0.00  0.00     0.162 A 
ATOM      6  C5  UNL d   1      -0.260   2.286   0.178  0.00  0.00     0.062 A 
ATOM      7  F   UNL d   1      -1.157   3.281   0.118  0.00  0.00    -0.097 F 
ATOM      8  F1  UNL d   1      -1.951   0.730  -0.335  0.00  0.00    -0.096 F 
ATOM      9  I   UNL d   1      -0.333  -2.031  -0.339  0.00  0.00    -0.060 I 
ATOM     10  F2  UNL d   1       2.514  -0.753   0.368  0.00  0.00    -0.096 F 
ATOM     11  F3  UNL d   1       3.277   1.807   0.816  0.00  0.00    -0.097 F 
ATOM     12  F4  UNL d   1       1.452   3.831   0.694  0.00  0.00    -0.092 F 
ENDROOT
TORSDOF 0
ENDMDL
