MODEL 1
REMARK minimizedAffinity -0.0600074045
REMARK minimizedRMSD -1
REMARK  0 active torsions:
REMARK  status: ('A' for Active; 'I' for Inactive)
ROOT
ATOM      1  C   UNL d   1       0.595  -1.793   0.881  0.00  0.00     0.124 A 
ATOM      2  C1  UNL d   1      -0.670  -1.227   0.810  0.00  0.00     0.062 A 
ATOM      3  C2  UNL d   1      -0.815   0.130   0.535  0.00  0.00     0.162 A 
ATOM      4  C3  UNL d   1       0.308   0.930   0.329  0.00  0.00    -0.034 A 
ATOM      5  C4  UNL d   1       1.578   0.354   0.403  0.00  0.00     0.162 A 
ATOM      6  C5  UNL d   1       1.718  -1.003   0.678  0.00  0.00     0.062 A 
ATOM      7  F   UNL d   1       2.941  -1.548   0.746  0.00  0.00    -0.097 F 
ATOM      8  F1  UNL d   1       2.679   1.094   0.210  0.00  0.00    -0.096 F 
ATOM      9  I   UNL d   1       0.096   2.959  -0.081  0.00  0.00    -0.060 I 
ATOM     10  F2  UNL d   1      -2.050   0.650   0.472  0.00  0.00    -0.096 F 
ATOM     11  F3  UNL d   1      -1.756  -1.989   1.006  0.00  0.00    -0.097 F 
ATOM     12  F4  UNL d   1       0.732  -3.099   1.146  0.00  0.00    -0.092 F 
ENDROOT
TORSDOF 0
ENDMDL
