MODEL 1
REMARK minimizedAffinity -3.08801436
REMARK minimizedRMSD -1
REMARK  0 active torsions:
REMARK  status: ('A' for Active; 'I' for Inactive)
ROOT
ATOM      1  C   UNL d   1       0.744   3.286   0.217  0.00  0.00     0.124 A 
ATOM      2  C1  UNL d   1      -0.527   2.730   0.220  0.00  0.00     0.062 A 
ATOM      3  C2  UNL d   1      -0.687   1.348   0.231  0.00  0.00     0.162 A 
ATOM      4  C3  UNL d   1       0.429   0.510   0.242  0.00  0.00    -0.034 A 
ATOM      5  C4  UNL d   1       1.705   1.077   0.238  0.00  0.00     0.162 A 
ATOM      6  C5  UNL d   1       1.859   2.459   0.227  0.00  0.00     0.062 A 
ATOM      7  F   UNL d   1       3.089   2.995   0.225  0.00  0.00    -0.097 F 
ATOM      8  F1  UNL d   1       2.799   0.301   0.248  0.00  0.00    -0.096 F 
ATOM      9  I   UNL d   1       0.195  -1.558   0.259  0.00  0.00    -0.060 I 
ATOM     10  F2  UNL d   1      -1.927   0.838   0.233  0.00  0.00    -0.096 F 
ATOM     11  F3  UNL d   1      -1.606   3.527   0.210  0.00  0.00    -0.097 F 
ATOM     12  F4  UNL d   1       0.895   4.617   0.205  0.00  0.00    -0.092 F 
ENDROOT
TORSDOF 0
ENDMDL
