MODEL 1
REMARK minimizedAffinity -3.88792062
REMARK minimizedRMSD -1
REMARK  0 active torsions:
REMARK  status: ('A' for Active; 'I' for Inactive)
ROOT
ATOM      1  C   UNL d   1       1.326   2.890   0.517  0.00  0.00     0.124 A 
ATOM      2  C1  UNL d   1       2.226   1.838   0.619  0.00  0.00     0.062 A 
ATOM      3  C2  UNL d   1       1.777   0.523   0.538  0.00  0.00     0.162 A 
ATOM      4  C3  UNL d   1       0.421   0.253   0.353  0.00  0.00    -0.034 A 
ATOM      5  C4  UNL d   1      -0.478   1.316   0.253  0.00  0.00     0.162 A 
ATOM      6  C5  UNL d   1      -0.024   2.629   0.334  0.00  0.00     0.062 A 
ATOM      7  F   UNL d   1      -0.895   3.644   0.236  0.00  0.00    -0.097 F 
ATOM      8  F1  UNL d   1      -1.788   1.092   0.075  0.00  0.00    -0.096 F 
ATOM      9  I   UNL d   1      -0.255  -1.712   0.232  0.00  0.00    -0.060 I 
ATOM     10  F2  UNL d   1       2.668  -0.474   0.639  0.00  0.00    -0.096 F 
ATOM     11  F3  UNL d   1       3.531   2.088   0.796  0.00  0.00    -0.097 F 
ATOM     12  F4  UNL d   1       1.761   4.155   0.596  0.00  0.00    -0.092 F 
ENDROOT
TORSDOF 0
ENDMDL
