MODEL 1
REMARK minimizedAffinity -1.78051102
REMARK minimizedRMSD -1
REMARK  0 active torsions:
REMARK  status: ('A' for Active; 'I' for Inactive)
ROOT
ATOM      1  C   UNL d   1      -0.750   1.596   0.567  0.00  0.00     0.124 A 
ATOM      2  C1  UNL d   1      -1.446   0.441   0.894  0.00  0.00     0.062 A 
ATOM      3  C2  UNL d   1      -1.145  -0.761   0.260  0.00  0.00     0.162 A 
ATOM      4  C3  UNL d   1      -0.141  -0.815  -0.707  0.00  0.00    -0.034 A 
ATOM      5  C4  UNL d   1       0.555   0.352  -1.031  0.00  0.00     0.162 A 
ATOM      6  C5  UNL d   1       0.250   1.550  -0.394  0.00  0.00     0.062 A 
ATOM      7  F   UNL d   1       0.924   2.666  -0.711  0.00  0.00    -0.097 F 
ATOM      8  F1  UNL d   1       1.526   0.336  -1.955  0.00  0.00    -0.096 F 
ATOM      9  I   UNL d   1       0.313  -2.610  -1.657  0.00  0.00    -0.060 I 
ATOM     10  F2  UNL d   1      -1.834  -1.862   0.595  0.00  0.00    -0.096 F 
ATOM     11  F3  UNL d   1      -2.413   0.482   1.822  0.00  0.00    -0.097 F 
ATOM     12  F4  UNL d   1      -1.043   2.751   1.178  0.00  0.00    -0.092 F 
ENDROOT
TORSDOF 0
ENDMDL
