MODEL 1
REMARK minimizedAffinity -1.82444119
REMARK minimizedRMSD -1
REMARK  0 active torsions:
REMARK  status: ('A' for Active; 'I' for Inactive)
ROOT
ATOM      1  C   UNL d   1       5.991  -0.459   4.136  0.00  0.00     0.077 C 
ATOM      2  C1  UNL d   1       5.984   1.024   4.363  0.00  0.00    -0.074 A 
ATOM      3  C2  UNL d   1       5.987   1.553   5.657  0.00  0.00    -0.005 A 
ATOM      4  C3  UNL d   1       5.990   2.934   5.852  0.00  0.00     0.006 A 
ATOM      5  C4  UNL d   1       5.989   3.799   4.756  0.00  0.00    -0.005 A 
ATOM      6  C5  UNL d   1       5.986   3.287   3.454  0.00  0.00    -0.074 A 
ATOM      7  C6  UNL d   1       5.995   4.202   2.266  0.00  0.00     0.077 C 
ATOM      8  C7  UNL d   1       5.990   1.898   3.267  0.00  0.00    -0.001 A 
ENDROOT
TORSDOF 0
ENDMDL
