MODEL 1
REMARK minimizedAffinity -1.83340979
REMARK minimizedRMSD -1
REMARK  0 active torsions:
REMARK  status: ('A' for Active; 'I' for Inactive)
ROOT
ATOM      1  C   UNL d   1       5.811  -4.027   6.000  0.00  0.00     0.077 C 
ATOM      2  C1  UNL d   1       5.882  -2.739   5.234  0.00  0.00    -0.074 A 
ATOM      3  C2  UNL d   1       5.917  -2.735   3.836  0.00  0.00    -0.005 A 
ATOM      4  C3  UNL d   1       5.973  -1.529   3.138  0.00  0.00     0.006 A 
ATOM      5  C4  UNL d   1       5.995  -0.317   3.829  0.00  0.00    -0.005 A 
ATOM      6  C5  UNL d   1       5.960  -0.301   5.227  0.00  0.00    -0.074 A 
ATOM      7  C6  UNL d   1       5.973   0.993   5.985  0.00  0.00     0.077 C 
ATOM      8  C7  UNL d   1       5.897  -1.517   5.921  0.00  0.00    -0.001 A 
ENDROOT
TORSDOF 0
ENDMDL
