MODEL 1
REMARK minimizedAffinity -2.41686511
REMARK minimizedRMSD -1
REMARK  0 active torsions:
REMARK  status: ('A' for Active; 'I' for Inactive)
ROOT
ATOM      1  C   UNL d   1       6.000  -1.494   3.633  0.00  0.00     0.077 C 
ATOM      2  C1  UNL d   1       5.696  -0.084   4.044  0.00  0.00    -0.074 A 
ATOM      3  C2  UNL d   1       5.155   0.197   5.303  0.00  0.00    -0.005 A 
ATOM      4  C3  UNL d   1       4.886   1.514   5.675  0.00  0.00     0.006 A 
ATOM      5  C4  UNL d   1       5.155   2.562   4.794  0.00  0.00    -0.005 A 
ATOM      6  C5  UNL d   1       5.696   2.301   3.531  0.00  0.00    -0.074 A 
ATOM      7  C6  UNL d   1       6.000   3.416   2.575  0.00  0.00     0.077 C 
ATOM      8  C7  UNL d   1       5.970   0.975   3.167  0.00  0.00    -0.001 A 
ENDROOT
TORSDOF 0
ENDMDL
