MODEL 1
REMARK minimizedAffinity -0.584392071
REMARK minimizedRMSD -1
REMARK  0 active torsions:
REMARK  status: ('A' for Active; 'I' for Inactive)
ROOT
ATOM      1  C   UNL d   1       5.976  -0.138   5.999  0.00  0.00     0.077 C 
ATOM      2  C1  UNL d   1       5.988   0.587   4.686  0.00  0.00    -0.074 A 
ATOM      3  C2  UNL d   1       5.987  -0.116   3.477  0.00  0.00    -0.005 A 
ATOM      4  C3  UNL d   1       5.989   0.572   2.264  0.00  0.00     0.006 A 
ATOM      5  C4  UNL d   1       5.991   1.967   2.248  0.00  0.00    -0.005 A 
ATOM      6  C5  UNL d   1       5.991   2.687   3.447  0.00  0.00    -0.074 A 
ATOM      7  C6  UNL d   1       5.984   4.187   3.447  0.00  0.00     0.077 C 
ATOM      8  C7  UNL d   1       5.983   1.989   4.662  0.00  0.00    -0.001 A 
ENDROOT
TORSDOF 0
ENDMDL
