MODEL 1
REMARK minimizedAffinity -2.2490499
REMARK minimizedRMSD -1
REMARK  0 active torsions:
REMARK  status: ('A' for Active; 'I' for Inactive)
ROOT
ATOM      1  C   UNL d   1       5.997   5.236   4.965  0.00  0.00     0.077 C 
ATOM      2  C1  UNL d   1       5.636   3.835   4.571  0.00  0.00    -0.074 A 
ATOM      3  C2  UNL d   1       4.993   3.572   3.358  0.00  0.00    -0.005 A 
ATOM      4  C3  UNL d   1       4.673   2.262   3.000  0.00  0.00     0.006 A 
ATOM      5  C4  UNL d   1       4.991   1.204   3.852  0.00  0.00    -0.005 A 
ATOM      6  C5  UNL d   1       5.635   1.447   5.070  0.00  0.00    -0.074 A 
ATOM      7  C6  UNL d   1       5.993   0.320   5.992  0.00  0.00     0.077 C 
ATOM      8  C7  UNL d   1       5.960   2.765   5.418  0.00  0.00    -0.001 A 
ENDROOT
TORSDOF 0
ENDMDL
