MODEL 1
REMARK minimizedAffinity 2.5063355
REMARK minimizedRMSD -1
REMARK  0 active torsions:
REMARK  status: ('A' for Active; 'I' for Inactive)
ROOT
ATOM      1  C   UNL d   1       5.996   5.157   3.536  0.00  0.00     0.077 C 
ATOM      2  C1  UNL d   1       5.610   3.709   3.598  0.00  0.00    -0.074 A 
ATOM      3  C2  UNL d   1       4.917   3.105   2.544  0.00  0.00    -0.005 A 
ATOM      4  C3  UNL d   1       4.573   1.754   2.611  0.00  0.00     0.006 A 
ATOM      5  C4  UNL d   1       4.918   0.996   3.731  0.00  0.00    -0.005 A 
ATOM      6  C5  UNL d   1       5.612   1.583   4.794  0.00  0.00    -0.074 A 
ATOM      7  C6  UNL d   1       5.999   0.781   6.000  0.00  0.00     0.077 C 
ATOM      8  C7  UNL d   1       5.960   2.939   4.716  0.00  0.00    -0.001 A 
ENDROOT
TORSDOF 0
ENDMDL
