MODEL 1
REMARK minimizedAffinity -0.443494201
REMARK minimizedRMSD -1
REMARK  0 active torsions:
REMARK  status: ('A' for Active; 'I' for Inactive)
ROOT
ATOM      1  C   UNL d   1       5.993  -1.376   2.689  0.00  0.00     0.077 C 
ATOM      2  C1  UNL d   1       5.948  -0.265   3.695  0.00  0.00    -0.074 A 
ATOM      3  C2  UNL d   1       5.988  -0.535   5.067  0.00  0.00    -0.005 A 
ATOM      4  C3  UNL d   1       5.955   0.509   5.991  0.00  0.00     0.006 A 
ATOM      5  C4  UNL d   1       5.881   1.832   5.553  0.00  0.00    -0.005 A 
ATOM      6  C5  UNL d   1       5.841   2.122   4.186  0.00  0.00    -0.074 A 
ATOM      7  C6  UNL d   1       5.772   3.539   3.698  0.00  0.00     0.077 C 
ATOM      8  C7  UNL d   1       5.882   1.067   3.264  0.00  0.00    -0.001 A 
ENDROOT
TORSDOF 0
ENDMDL
