MODEL 1
REMARK minimizedAffinity -0.113930039
REMARK minimizedRMSD -1
REMARK  0 active torsions:
REMARK  status: ('A' for Active; 'I' for Inactive)
ROOT
ATOM      1  C   UNL d   1       5.970  -0.193   5.503  0.00  0.00     0.077 C 
ATOM      2  C1  UNL d   1       5.987   1.058   4.676  0.00  0.00    -0.074 A 
ATOM      3  C2  UNL d   1       5.987   0.996   3.279  0.00  0.00    -0.005 A 
ATOM      4  C3  UNL d   1       5.993   2.168   2.523  0.00  0.00     0.006 A 
ATOM      5  C4  UNL d   1       6.000   3.412   3.155  0.00  0.00    -0.005 A 
ATOM      6  C5  UNL d   1       6.000   3.494   4.551  0.00  0.00    -0.074 A 
ATOM      7  C6  UNL d   1       5.998   4.822   5.247  0.00  0.00     0.077 C 
ATOM      8  C7  UNL d   1       5.987   2.311   5.304  0.00  0.00    -0.001 A 
ENDROOT
TORSDOF 0
ENDMDL
