MODEL 1
REMARK minimizedAffinity -1.12712538
REMARK minimizedRMSD -1
REMARK  0 active torsions:
REMARK  status: ('A' for Active; 'I' for Inactive)
ROOT
ATOM      1  C   UNL d   1       4.864   3.385   2.543  0.00  0.00     0.077 C 
ATOM      2  C1  UNL d   1       5.268   2.524   3.703  0.00  0.00    -0.074 A 
ATOM      3  C2  UNL d   1       5.635   3.091   4.927  0.00  0.00    -0.005 A 
ATOM      4  C3  UNL d   1       5.999   2.277   5.999  0.00  0.00     0.006 A 
ATOM      5  C4  UNL d   1       6.000   0.889   5.858  0.00  0.00    -0.005 A 
ATOM      6  C5  UNL d   1       5.634   0.303   4.642  0.00  0.00    -0.074 A 
ATOM      7  C6  UNL d   1       5.620  -1.188   4.477  0.00  0.00     0.077 C 
ATOM      8  C7  UNL d   1       5.263   1.128   3.572  0.00  0.00    -0.001 A 
ENDROOT
TORSDOF 0
ENDMDL
