MODEL 1
REMARK minimizedAffinity -0.551019073
REMARK minimizedRMSD -1
REMARK  0 active torsions:
REMARK  status: ('A' for Active; 'I' for Inactive)
ROOT
ATOM      1  C   UNL d   1       5.989  -1.132   5.999  0.00  0.00     0.077 C 
ATOM      2  C1  UNL d   1       6.000  -0.224   4.805  0.00  0.00    -0.074 A 
ATOM      3  C2  UNL d   1       6.000  -0.744   3.506  0.00  0.00    -0.005 A 
ATOM      4  C3  UNL d   1       6.000   0.113   2.406  0.00  0.00     0.006 A 
ATOM      5  C4  UNL d   1       6.000   1.496   2.592  0.00  0.00    -0.005 A 
ATOM      6  C5  UNL d   1       5.999   2.034   3.883  0.00  0.00    -0.074 A 
ATOM      7  C6  UNL d   1       5.989   3.518   4.101  0.00  0.00     0.077 C 
ATOM      8  C7  UNL d   1       5.992   1.166   4.984  0.00  0.00    -0.001 A 
ENDROOT
TORSDOF 0
ENDMDL
