MODEL 1
REMARK minimizedAffinity -3.29773259
REMARK minimizedRMSD -1
REMARK  0 active torsions:
REMARK  status: ('A' for Active; 'I' for Inactive)
ROOT
ATOM      1  C   UNL d   1       5.999   1.129   2.949  0.00  0.00     0.077 C 
ATOM      2  C1  UNL d   1       5.999  -0.101   3.807  0.00  0.00    -0.074 A 
ATOM      3  C2  UNL d   1       5.982  -0.004   5.202  0.00  0.00    -0.005 A 
ATOM      4  C3  UNL d   1       5.973  -1.157   5.987  0.00  0.00     0.006 A 
ATOM      5  C4  UNL d   1       5.981  -2.416   5.387  0.00  0.00    -0.005 A 
ATOM      6  C5  UNL d   1       5.998  -2.533   3.993  0.00  0.00    -0.074 A 
ATOM      7  C6  UNL d   1       5.997  -3.879   3.331  0.00  0.00     0.077 C 
ATOM      8  C7  UNL d   1       6.000  -1.370   3.211  0.00  0.00    -0.001 A 
ENDROOT
TORSDOF 0
ENDMDL
