MODEL 1
REMARK minimizedAffinity -2.97331357
REMARK minimizedRMSD -1
REMARK  0 active torsions:
REMARK  status: ('A' for Active; 'I' for Inactive)
ROOT
ATOM      1  C   UNL d   1       5.987  -0.938   2.818  0.00  0.00     0.077 C 
ATOM      2  C1  UNL d   1       5.862   0.228   3.754  0.00  0.00    -0.074 A 
ATOM      3  C2  UNL d   1       5.646   0.032   5.121  0.00  0.00    -0.005 A 
ATOM      4  C3  UNL d   1       5.541   1.126   5.980  0.00  0.00     0.006 A 
ATOM      5  C4  UNL d   1       5.652   2.424   5.481  0.00  0.00    -0.005 A 
ATOM      6  C5  UNL d   1       5.869   2.639   4.116  0.00  0.00    -0.074 A 
ATOM      7  C6  UNL d   1       6.000   4.028   3.565  0.00  0.00     0.077 C 
ATOM      8  C7  UNL d   1       5.980   1.535   3.261  0.00  0.00    -0.001 A 
ENDROOT
TORSDOF 0
ENDMDL
