MODEL 1
REMARK minimizedAffinity 4.65253305
REMARK minimizedRMSD -1
REMARK  0 active torsions:
REMARK  status: ('A' for Active; 'I' for Inactive)
ROOT
ATOM      1  C   UNL d   1       5.991   1.651   2.238  0.00  0.00     0.077 C 
ATOM      2  C1  UNL d   1       5.997   3.145   2.362  0.00  0.00    -0.074 A 
ATOM      3  C2  UNL d   1       5.990   3.961   1.226  0.00  0.00    -0.005 A 
ATOM      4  C3  UNL d   1       5.986   5.349   1.357  0.00  0.00     0.006 A 
ATOM      5  C4  UNL d   1       5.989   5.936   2.623  0.00  0.00    -0.005 A 
ATOM      6  C5  UNL d   1       5.995   5.137   3.770  0.00  0.00    -0.074 A 
ATOM      7  C6  UNL d   1       5.989   5.751   5.139  0.00  0.00     0.077 C 
ATOM      8  C7  UNL d   1       5.992   3.742   3.631  0.00  0.00    -0.001 A 
ENDROOT
TORSDOF 0
ENDMDL
