MODEL 1
REMARK minimizedAffinity 3.90982866
REMARK minimizedRMSD -1
REMARK  0 active torsions:
REMARK  status: ('A' for Active; 'I' for Inactive)
ROOT
ATOM      1  C   UNL d   1       5.981   0.828   2.814  0.00  0.00     0.077 C 
ATOM      2  C1  UNL d   1       5.980   2.051   3.681  0.00  0.00    -0.074 A 
ATOM      3  C2  UNL d   1       5.991   1.944   5.076  0.00  0.00    -0.005 A 
ATOM      4  C3  UNL d   1       6.000   3.092   5.869  0.00  0.00     0.006 A 
ATOM      5  C4  UNL d   1       5.999   4.355   5.277  0.00  0.00    -0.005 A 
ATOM      6  C5  UNL d   1       5.990   4.482   3.885  0.00  0.00    -0.074 A 
ATOM      7  C6  UNL d   1       5.999   5.832   3.232  0.00  0.00     0.077 C 
ATOM      8  C7  UNL d   1       5.988   3.324   3.094  0.00  0.00    -0.001 A 
ENDROOT
TORSDOF 0
ENDMDL
