MODEL 1
REMARK minimizedAffinity -3.49550486
REMARK minimizedRMSD -1
REMARK  0 active torsions:
REMARK  status: ('A' for Active; 'I' for Inactive)
ROOT
ATOM      1  N1  IND d   1       0.713   1.185   0.165  0.00  0.00    -0.196 N 
ATOM      2  C2  IND d   1       1.808   2.003   0.143  0.00  0.00     0.054 A 
ATOM      3  C3  IND d   1       2.855   1.405   0.753  0.00  0.00    -0.031 A 
ATOM      4  C4  IND d   1       3.026  -0.954   1.770  0.00  0.00     0.051 A 
ATOM      5  C5  IND d   1       2.276  -2.059   2.060  0.00  0.00    -0.031 A 
ATOM      6  C6  IND d   1       0.940  -2.142   1.724  0.00  0.00     0.015 A 
ATOM      7  C7  IND d   1       0.305  -1.123   1.072  0.00  0.00    -0.016 A 
ATOM      8  C8  IND d   1       1.062   0.004   0.782  0.00  0.00    -0.047 A 
ATOM      9  C9  IND d   1       2.407   0.111   1.159  0.00  0.00    -0.096 A 
ATOM     10  HN1 IND d   1      -0.063   1.376  -0.153  0.00  0.00     0.298 HD
ENDROOT
TORSDOF 0
ENDMDL
