MODEL 1
REMARK minimizedAffinity 1.52063024
REMARK minimizedRMSD -1
REMARK  0 active torsions:
REMARK  status: ('A' for Active; 'I' for Inactive)
ROOT
ATOM      1  N1  IND d   1      -1.668  -1.531  -3.085  0.00  0.00    -0.196 N 
ATOM      2  C2  IND d   1      -2.955  -1.315  -2.680  0.00  0.00     0.054 A 
ATOM      3  C3  IND d   1      -3.100  -1.644  -1.377  0.00  0.00    -0.031 A 
ATOM      4  C4  IND d   1      -1.335  -2.460   0.310  0.00  0.00     0.051 A 
ATOM      5  C5  IND d   1      -0.026  -2.844   0.399  0.00  0.00    -0.031 A 
ATOM      6  C6  IND d   1       0.820  -2.806  -0.691  0.00  0.00     0.015 A 
ATOM      7  C7  IND d   1       0.390  -2.371  -1.912  0.00  0.00    -0.016 A 
ATOM      8  C8  IND d   1      -0.940  -1.987  -2.008  0.00  0.00    -0.047 A 
ATOM      9  C9  IND d   1      -1.815  -2.063  -0.916  0.00  0.00    -0.096 A 
ATOM     10  HN1 IND d   1      -1.363  -1.404  -3.879  0.00  0.00     0.298 HD
ENDROOT
TORSDOF 0
ENDMDL
