MODEL 1
REMARK minimizedAffinity 1.20296502
REMARK minimizedRMSD -1
REMARK  0 active torsions:
REMARK  status: ('A' for Active; 'I' for Inactive)
ROOT
ATOM      1  N1  IND d   1       2.977   1.765   1.278  0.00  0.00    -0.196 N 
ATOM      2  C2  IND d   1       2.519   2.481   0.207  0.00  0.00     0.054 A 
ATOM      3  C3  IND d   1       1.417   1.897  -0.313  0.00  0.00    -0.031 A 
ATOM      4  C4  IND d   1       0.132  -0.182   0.496  0.00  0.00     0.051 A 
ATOM      5  C5  IND d   1       0.187  -1.193   1.414  0.00  0.00    -0.031 A 
ATOM      6  C6  IND d   1       1.194  -1.269   2.354  0.00  0.00     0.015 A 
ATOM      7  C7  IND d   1       2.181  -0.327   2.419  0.00  0.00    -0.016 A 
ATOM      8  C8  IND d   1       2.132   0.697   1.484  0.00  0.00    -0.047 A 
ATOM      9  C9  IND d   1       1.137   0.756   0.500  0.00  0.00    -0.096 A 
ATOM     10  HN1 IND d   1       3.675   1.951   1.744  0.00  0.00     0.298 HD
ENDROOT
TORSDOF 0
ENDMDL
