MODEL 1
REMARK minimizedAffinity 1.7017889
REMARK minimizedRMSD -1
REMARK  0 active torsions:
REMARK  status: ('A' for Active; 'I' for Inactive)
ROOT
ATOM      1  N1  IND d   1       0.518  -2.098  -3.305  0.00  0.00    -0.196 N 
ATOM      2  C2  IND d   1       1.836  -1.815  -3.083  0.00  0.00     0.054 A 
ATOM      3  C3  IND d   1       2.024  -1.421  -1.803  0.00  0.00    -0.031 A 
ATOM      4  C4  IND d   1       0.326  -1.267   0.126  0.00  0.00     0.051 A 
ATOM      5  C5  IND d   1      -1.008  -1.388   0.400  0.00  0.00    -0.031 A 
ATOM      6  C6  IND d   1      -1.919  -1.763  -0.567  0.00  0.00     0.015 A 
ATOM      7  C7  IND d   1      -1.527  -2.042  -1.845  0.00  0.00    -0.016 A 
ATOM      8  C8  IND d   1      -0.175  -1.913  -2.128  0.00  0.00    -0.047 A 
ATOM      9  C9  IND d   1       0.749  -1.492  -1.163  0.00  0.00    -0.096 A 
ATOM     10  HN1 IND d   1       0.178  -2.349  -4.054  0.00  0.00     0.298 HD
ENDROOT
TORSDOF 0
ENDMDL
