MODEL 1
REMARK minimizedAffinity 0.911903024
REMARK minimizedRMSD -1
REMARK  0 active torsions:
REMARK  status: ('A' for Active; 'I' for Inactive)
ROOT
ATOM      1  N1  IND d   1       0.509  -1.678   1.825  0.00  0.00    -0.196 N 
ATOM      2  C2  IND d   1      -0.685  -1.585   1.167  0.00  0.00     0.054 A 
ATOM      3  C3  IND d   1      -0.752  -0.425   0.476  0.00  0.00    -0.031 A 
ATOM      4  C4  IND d   1       1.022   1.420   0.202  0.00  0.00     0.051 A 
ATOM      5  C5  IND d   1       2.259   1.799   0.643  0.00  0.00    -0.031 A 
ATOM      6  C6  IND d   1       2.992   1.021   1.515  0.00  0.00     0.015 A 
ATOM      7  C7  IND d   1       2.518  -0.176   1.973  0.00  0.00    -0.016 A 
ATOM      8  C8  IND d   1       1.259  -0.560   1.534  0.00  0.00    -0.047 A 
ATOM      9  C9  IND d   1       0.493   0.245   0.682  0.00  0.00    -0.096 A 
ATOM     10  HN1 IND d   1       0.752  -2.326   2.336  0.00  0.00     0.298 HD
ENDROOT
TORSDOF 0
ENDMDL
