MODEL 1
REMARK minimizedAffinity 14.8029041
REMARK minimizedRMSD -1
REMARK  0 active torsions:
REMARK  status: ('A' for Active; 'I' for Inactive)
ROOT
ATOM      1  N1  IND d   1      -0.517  -2.194   1.378  0.00  0.00    -0.196 N 
ATOM      2  C2  IND d   1      -1.472  -1.474   0.716  0.00  0.00     0.054 A 
ATOM      3  C3  IND d   1      -1.106  -0.175   0.631  0.00  0.00    -0.031 A 
ATOM      4  C4  IND d   1       1.061   0.969   1.418  0.00  0.00     0.051 A 
ATOM      5  C5  IND d   1       2.216   0.729   2.109  0.00  0.00    -0.031 A 
ATOM      6  C6  IND d   1       2.527  -0.523   2.598  0.00  0.00     0.015 A 
ATOM      7  C7  IND d   1       1.695  -1.590   2.405  0.00  0.00    -0.016 A 
ATOM      8  C8  IND d   1       0.518  -1.349   1.711  0.00  0.00    -0.047 A 
ATOM      9  C9  IND d   1       0.178  -0.071   1.248  0.00  0.00    -0.096 A 
ATOM     10  HN1 IND d   1      -0.557  -3.034   1.557  0.00  0.00     0.298 HD
ENDROOT
TORSDOF 0
ENDMDL
