MODEL 1
REMARK minimizedAffinity 3.05355382
REMARK minimizedRMSD -1
REMARK  0 active torsions:
REMARK  status: ('A' for Active; 'I' for Inactive)
ROOT
ATOM      1  N1  IND d   1       0.573  -1.950  -3.066  0.00  0.00    -0.196 N 
ATOM      2  C2  IND d   1       1.721  -1.364  -2.610  0.00  0.00     0.054 A 
ATOM      3  C3  IND d   1       1.689  -1.255  -1.263  0.00  0.00    -0.031 A 
ATOM      4  C4  IND d   1      -0.099  -2.064   0.403  0.00  0.00     0.051 A 
ATOM      5  C5  IND d   1      -1.344  -2.625   0.458  0.00  0.00    -0.031 A 
ATOM      6  C6  IND d   1      -2.026  -3.000  -0.681  0.00  0.00     0.015 A 
ATOM      7  C7  IND d   1      -1.482  -2.837  -1.924  0.00  0.00    -0.016 A 
ATOM      8  C8  IND d   1      -0.220  -2.261  -1.984  0.00  0.00    -0.047 A 
ATOM      9  C9  IND d   1       0.459  -1.840  -0.834  0.00  0.00    -0.096 A 
ATOM     10  HN1 IND d   1       0.379  -2.099  -3.891  0.00  0.00     0.298 HD
ENDROOT
TORSDOF 0
ENDMDL
