MODEL 1
REMARK minimizedAffinity 8.37462711
REMARK minimizedRMSD -1
REMARK  0 active torsions:
REMARK  status: ('A' for Active; 'I' for Inactive)
ROOT
ATOM      1  N1  IND d   1      -0.888  -1.035   1.531  0.00  0.00    -0.196 N 
ATOM      2  C2  IND d   1      -1.889  -0.123   1.344  0.00  0.00     0.054 A 
ATOM      3  C3  IND d   1      -1.374   1.117   1.191  0.00  0.00    -0.031 A 
ATOM      4  C4  IND d   1       1.088   1.865   1.108  0.00  0.00     0.051 A 
ATOM      5  C5  IND d   1       2.362   1.397   1.266  0.00  0.00    -0.031 A 
ATOM      6  C6  IND d   1       2.624   0.066   1.523  0.00  0.00     0.015 A 
ATOM      7  C7  IND d   1       1.616  -0.851   1.620  0.00  0.00    -0.016 A 
ATOM      8  C8  IND d   1       0.321  -0.378   1.467  0.00  0.00    -0.047 A 
ATOM      9  C9  IND d   1       0.047   0.978   1.249  0.00  0.00    -0.096 A 
ATOM     10  HN1 IND d   1      -0.996  -1.878   1.665  0.00  0.00     0.298 HD
ENDROOT
TORSDOF 0
ENDMDL
