MODEL 1
REMARK minimizedAffinity 0.0529324673
REMARK minimizedRMSD -1
REMARK  0 active torsions:
REMARK  status: ('A' for Active; 'I' for Inactive)
ROOT
ATOM      1  N1  IND d   1       0.693   4.837  -1.099  0.00  0.00    -0.196 N 
ATOM      2  C2  IND d   1       1.898   5.251  -1.594  0.00  0.00     0.054 A 
ATOM      3  C3  IND d   1       2.875   4.386  -1.241  0.00  0.00    -0.031 A 
ATOM      4  C4  IND d   1       2.706   2.172   0.062  0.00  0.00     0.051 A 
ATOM      5  C5  IND d   1       1.820   1.393   0.752  0.00  0.00    -0.031 A 
ATOM      6  C6  IND d   1       0.485   1.727   0.859  0.00  0.00     0.015 A 
ATOM      7  C7  IND d   1      -0.017   2.852   0.269  0.00  0.00    -0.016 A 
ATOM      8  C8  IND d   1       0.881   3.650  -0.426  0.00  0.00    -0.047 A 
ATOM      9  C9  IND d   1       2.245   3.338  -0.502  0.00  0.00    -0.096 A 
ATOM     10  HN1 IND d   1      -0.056   5.248  -1.192  0.00  0.00     0.298 HD
ENDROOT
TORSDOF 0
ENDMDL
