MODEL 1
REMARK minimizedAffinity 3.21911502
REMARK minimizedRMSD -1
REMARK  0 active torsions:
REMARK  status: ('A' for Active; 'I' for Inactive)
ROOT
ATOM      1  N1  IND d   1       2.511  -0.706   2.342  0.00  0.00    -0.196 N 
ATOM      2  C2  IND d   1       1.300  -0.414   1.778  0.00  0.00     0.054 A 
ATOM      3  C3  IND d   1       0.392  -1.363   2.096  0.00  0.00    -0.031 A 
ATOM      4  C4  IND d   1       0.647  -3.429   3.612  0.00  0.00     0.051 A 
ATOM      5  C5  IND d   1       1.577  -4.135   4.323  0.00  0.00    -0.031 A 
ATOM      6  C6  IND d   1       2.891  -3.724   4.414  0.00  0.00     0.015 A 
ATOM      7  C7  IND d   1       3.324  -2.581   3.804  0.00  0.00    -0.016 A 
ATOM      8  C8  IND d   1       2.385  -1.865   3.075  0.00  0.00    -0.047 A 
ATOM      9  C9  IND d   1       1.059  -2.300   2.944  0.00  0.00    -0.096 A 
ATOM     10  HN1 IND d   1       3.230  -0.244   2.253  0.00  0.00     0.298 HD
ENDROOT
TORSDOF 0
ENDMDL
