MODEL 1
REMARK minimizedAffinity 1.12076354
REMARK minimizedRMSD -1
REMARK  0 active torsions:
REMARK  status: ('A' for Active; 'I' for Inactive)
ROOT
ATOM      1  N1  IND d   1       1.617   1.268   1.970  0.00  0.00    -0.196 N 
ATOM      2  C2  IND d   1       2.347   1.345   3.124  0.00  0.00     0.054 A 
ATOM      3  C3  IND d   1       2.349   0.151   3.759  0.00  0.00    -0.031 A 
ATOM      4  C4  IND d   1       1.308  -2.089   3.035  0.00  0.00     0.051 A 
ATOM      5  C5  IND d   1       0.512  -2.646   2.074  0.00  0.00    -0.031 A 
ATOM      6  C6  IND d   1       0.038  -1.913   1.005  0.00  0.00     0.015 A 
ATOM      7  C7  IND d   1       0.351  -0.592   0.852  0.00  0.00    -0.016 A 
ATOM      8  C8  IND d   1       1.152  -0.021   1.831  0.00  0.00    -0.047 A 
ATOM      9  C9  IND d   1       1.602  -0.749   2.940  0.00  0.00    -0.096 A 
ATOM     10  HN1 IND d   1       1.472   1.916   1.424  0.00  0.00     0.298 HD
ENDROOT
TORSDOF 0
ENDMDL
