MODEL 1
REMARK minimizedAffinity 19.164259
REMARK minimizedRMSD -1
REMARK  2 active torsions:
REMARK  status: ('A' for Active; 'I' for Inactive)
REMARK    1  A    between atoms: C2'_3  and  C1'_4 
REMARK    2  A    between atoms: C1'_4  and  C1_5 
ROOT
ATOM      1  C1  I4B d   1       4.081  -3.732  -1.521  0.00  0.00    -0.075 A 
ATOM      2  C2  I4B d   1       3.870  -3.763  -2.877  0.00  0.00     0.003 A 
ATOM      3  C3  I4B d   1       4.196  -4.921  -3.623  0.00  0.00     0.002 A 
ATOM      4  C4  I4B d   1       4.774  -6.000  -2.986  0.00  0.00    -0.004 A 
ATOM      5  C5  I4B d   1       4.966  -5.976  -1.608  0.00  0.00     0.002 A 
ATOM      6  C6  I4B d   1       4.606  -4.840  -0.868  0.00  0.00     0.003 A 
ENDROOT
BRANCH   1   7
ATOM      7  C1' I4B d   1       3.756  -2.481  -0.769  0.00  0.00     0.060 C 
BRANCH   7   8
ATOM      8  C2' I4B d   1       2.248  -2.375  -0.669  0.00  0.00    -0.013 C 
ATOM      9  C4' I4B d   1       1.707  -3.286   0.401  0.00  0.00     0.013 C 
ATOM     10  C3' I4B d   1       1.902  -0.943  -0.387  0.00  0.00     0.013 C 
ENDBRANCH   7   8
ENDBRANCH   1   7
TORSDOF 2
ENDMDL
