MODEL 1
REMARK minimizedAffinity 11.034462
REMARK minimizedRMSD -1
REMARK  2 active torsions:
REMARK  status: ('A' for Active; 'I' for Inactive)
REMARK    1  A    between atoms: C2'_3  and  C1'_4 
REMARK    2  A    between atoms: C1'_4  and  C1_5 
ROOT
ATOM      1  C1  I4B d   1       0.325   3.290   0.520  0.00  0.00    -0.075 A 
ATOM      2  C2  I4B d   1       0.885   4.413  -0.036  0.00  0.00     0.003 A 
ATOM      3  C3  I4B d   1       0.601   4.763  -1.378  0.00  0.00     0.002 A 
ATOM      4  C4  I4B d   1      -0.204   3.939  -2.139  0.00  0.00    -0.004 A 
ATOM      5  C5  I4B d   1      -0.790   2.814  -1.567  0.00  0.00     0.002 A 
ATOM      6  C6  I4B d   1      -0.534   2.493  -0.226  0.00  0.00     0.003 A 
ENDROOT
BRANCH   1   7
ATOM      7  C1' I4B d   1       0.673   2.933   1.930  0.00  0.00     0.060 C 
BRANCH   7   8
ATOM      8  C2' I4B d   1      -0.189   1.756   2.339  0.00  0.00    -0.013 C 
ATOM      9  C4' I4B d   1       0.585   0.782   3.188  0.00  0.00     0.013 C 
ATOM     10  C3' I4B d   1      -1.381   2.289   3.077  0.00  0.00     0.013 C 
ENDBRANCH   7   8
ENDBRANCH   1   7
TORSDOF 2
ENDMDL
