MODEL 1
REMARK minimizedAffinity 5.20345688
REMARK minimizedRMSD -1
REMARK  2 active torsions:
REMARK  status: ('A' for Active; 'I' for Inactive)
REMARK    1  A    between atoms: C2'_3  and  C1'_4 
REMARK    2  A    between atoms: C1'_4  and  C1_5 
ROOT
ATOM      1  C1  I4B d   1      -5.410   3.888  -3.616  0.00  0.00    -0.075 A 
ATOM      2  C2  I4B d   1      -5.497   2.521  -3.543  0.00  0.00     0.003 A 
ATOM      3  C3  I4B d   1      -5.751   1.759  -4.709  0.00  0.00     0.002 A 
ATOM      4  C4  I4B d   1      -5.960   2.406  -5.911  0.00  0.00    -0.004 A 
ATOM      5  C5  I4B d   1      -5.848   3.791  -5.987  0.00  0.00     0.002 A 
ATOM      6  C6  I4B d   1      -5.559   4.537  -4.835  0.00  0.00     0.003 A 
ENDROOT
BRANCH   1   7
ATOM      7  C1' I4B d   1      -5.173   4.663  -2.358  0.00  0.00     0.060 C 
BRANCH   7   8
ATOM      8  C2' I4B d   1      -3.762   5.215  -2.408  0.00  0.00    -0.013 C 
ATOM      9  C4' I4B d   1      -2.775   4.239  -1.824  0.00  0.00     0.013 C 
ATOM     10  C3' I4B d   1      -3.436   5.524  -3.839  0.00  0.00     0.013 C 
ENDBRANCH   7   8
ENDBRANCH   1   7
TORSDOF 2
ENDMDL
