MODEL 1
REMARK minimizedAffinity 16.3311348
REMARK minimizedRMSD -1
REMARK  2 active torsions:
REMARK  status: ('A' for Active; 'I' for Inactive)
REMARK    1  A    between atoms: C2'_3  and  C1'_4 
REMARK    2  A    between atoms: C1'_4  and  C1_5 
ROOT
ATOM      1  C1  I4B d   1       4.184  -5.297  -3.134  0.00  0.00    -0.075 A 
ATOM      2  C2  I4B d   1       5.156  -4.560  -3.765  0.00  0.00     0.003 A 
ATOM      3  C3  I4B d   1       5.213  -4.519  -5.179  0.00  0.00     0.002 A 
ATOM      4  C4  I4B d   1       4.317  -5.264  -5.918  0.00  0.00    -0.004 A 
ATOM      5  C5  I4B d   1       3.318  -5.992  -5.277  0.00  0.00     0.002 A 
ATOM      6  C6  I4B d   1       3.243  -5.998  -3.876  0.00  0.00     0.003 A 
ENDROOT
BRANCH   1   7
ATOM      7  C1' I4B d   1       4.173  -5.345  -1.639  0.00  0.00     0.060 C 
BRANCH   7   8
ATOM      8  C2' I4B d   1       5.420  -4.643  -1.140  0.00  0.00    -0.013 C 
ATOM      9  C4' I4B d   1       5.169  -3.174  -0.923  0.00  0.00     0.013 C 
ATOM     10  C3' I4B d   1       5.851  -5.312   0.131  0.00  0.00     0.013 C 
ENDBRANCH   7   8
ENDBRANCH   1   7
TORSDOF 2
ENDMDL
