MODEL 1
REMARK minimizedAffinity 24.4856052
REMARK minimizedRMSD -1
REMARK  2 active torsions:
REMARK  status: ('A' for Active; 'I' for Inactive)
REMARK    1  A    between atoms: C2'_3  and  C1'_4 
REMARK    2  A    between atoms: C1'_4  and  C1_5 
ROOT
ATOM      1  C1  I4B d   1       4.472  -4.776  -2.507  0.00  0.00    -0.075 A 
ATOM      2  C2  I4B d   1       5.282  -3.787  -2.008  0.00  0.00     0.003 A 
ATOM      3  C3  I4B d   1       5.824  -3.899  -0.704  0.00  0.00     0.002 A 
ATOM      4  C4  I4B d   1       5.492  -4.985   0.079  0.00  0.00    -0.004 A 
ATOM      5  C5  I4B d   1       4.689  -5.999  -0.437  0.00  0.00     0.002 A 
ATOM      6  C6  I4B d   1       4.186  -5.900  -1.742  0.00  0.00     0.003 A 
ENDROOT
BRANCH   1   7
ATOM      7  C1' I4B d   1       3.890  -4.610  -3.875  0.00  0.00     0.060 C 
BRANCH   7   8
ATOM      8  C2' I4B d   1       4.604  -5.569  -4.805  0.00  0.00    -0.013 C 
ATOM      9  C4' I4B d   1       3.709  -5.998  -5.938  0.00  0.00     0.013 C 
ATOM     10  C3' I4B d   1       5.837  -4.885  -5.318  0.00  0.00     0.013 C 
ENDBRANCH   7   8
ENDBRANCH   1   7
TORSDOF 2
ENDMDL
