MODEL 1
REMARK minimizedAffinity 9.79001904
REMARK minimizedRMSD -1
REMARK  2 active torsions:
REMARK  status: ('A' for Active; 'I' for Inactive)
REMARK    1  A    between atoms: C2'_3  and  C1'_4 
REMARK    2  A    between atoms: C1'_4  and  C1_5 
ROOT
ATOM      1  C1  I4B d   1      -0.371   1.538   0.277  0.00  0.00    -0.075 A 
ATOM      2  C2  I4B d   1      -0.557   2.284  -0.860  0.00  0.00     0.003 A 
ATOM      3  C3  I4B d   1      -0.293   3.676  -0.851  0.00  0.00     0.002 A 
ATOM      4  C4  I4B d   1       0.104   4.284   0.322  0.00  0.00    -0.004 A 
ATOM      5  C5  I4B d   1       0.315   3.522   1.468  0.00  0.00     0.002 A 
ATOM      6  C6  I4B d   1       0.088   2.139   1.442  0.00  0.00     0.003 A 
ENDROOT
BRANCH   1   7
ATOM      7  C1' I4B d   1      -0.691   0.078   0.241  0.00  0.00     0.060 C 
BRANCH   7   8
ATOM      8  C2' I4B d   1       0.209  -0.572  -0.791  0.00  0.00    -0.013 C 
ATOM      9  C4' I4B d   1       1.606  -0.755  -0.258  0.00  0.00     0.013 C 
ATOM     10  C3' I4B d   1      -0.401  -1.887  -1.174  0.00  0.00     0.013 C 
ENDBRANCH   7   8
ENDBRANCH   1   7
TORSDOF 2
ENDMDL
