MODEL 1
REMARK minimizedAffinity 14.8599949
REMARK minimizedRMSD -1
REMARK  2 active torsions:
REMARK  status: ('A' for Active; 'I' for Inactive)
REMARK    1  A    between atoms: C2'_3  and  C1'_4 
REMARK    2  A    between atoms: C1'_4  and  C1_5 
ROOT
ATOM      1  C1  I4B d   1       0.705  -0.171   3.531  0.00  0.00    -0.075 A 
ATOM      2  C2  I4B d   1       1.340   0.432   2.474  0.00  0.00     0.003 A 
ATOM      3  C3  I4B d   1       0.997   1.753   2.096  0.00  0.00     0.002 A 
ATOM      4  C4  I4B d   1      -0.015   2.410   2.765  0.00  0.00    -0.004 A 
ATOM      5  C5  I4B d   1      -0.642   1.805   3.851  0.00  0.00     0.002 A 
ATOM      6  C6  I4B d   1      -0.272   0.511   4.245  0.00  0.00     0.003 A 
ENDROOT
BRANCH   1   7
ATOM      7  C1' I4B d   1       1.070  -1.579   3.883  0.00  0.00     0.060 C 
BRANCH   7   8
ATOM      8  C2' I4B d   1       1.083  -1.694   5.393  0.00  0.00    -0.013 C 
ATOM      9  C4' I4B d   1      -0.170  -2.357   5.901  0.00  0.00     0.013 C 
ATOM     10  C3' I4B d   1       2.304  -2.471   5.787  0.00  0.00     0.013 C 
ENDBRANCH   7   8
ENDBRANCH   1   7
TORSDOF 2
ENDMDL
