MODEL 1
REMARK minimizedAffinity 14.1535311
REMARK minimizedRMSD -1
REMARK  2 active torsions:
REMARK  status: ('A' for Active; 'I' for Inactive)
REMARK    1  A    between atoms: C2'_3  and  C1'_4 
REMARK    2  A    between atoms: C1'_4  and  C1_5 
ROOT
ATOM      1  C1  I4B d   1       0.030   4.914  -1.905  0.00  0.00    -0.075 A 
ATOM      2  C2  I4B d   1       0.677   5.427  -3.001  0.00  0.00     0.003 A 
ATOM      3  C3  I4B d   1      -0.064   6.000  -4.063  0.00  0.00     0.002 A 
ATOM      4  C4  I4B d   1      -1.443   5.992  -4.011  0.00  0.00    -0.004 A 
ATOM      5  C5  I4B d   1      -2.097   5.492  -2.888  0.00  0.00     0.002 A 
ATOM      6  C6  I4B d   1      -1.356   4.960  -1.823  0.00  0.00     0.003 A 
ENDROOT
BRANCH   1   7
ATOM      7  C1' I4B d   1       0.842   4.287  -0.816  0.00  0.00     0.060 C 
BRANCH   7   8
ATOM      8  C2' I4B d   1      -0.078   3.408   0.006  0.00  0.00    -0.013 C 
ATOM      9  C4' I4B d   1       0.705   2.430   0.841  0.00  0.00     0.013 C 
ATOM     10  C3' I4B d   1      -0.923   4.300   0.867  0.00  0.00     0.013 C 
ENDBRANCH   7   8
ENDBRANCH   1   7
TORSDOF 2
ENDMDL
