MODEL 1
REMARK minimizedAffinity 6.26563311
REMARK minimizedRMSD -1
REMARK  2 active torsions:
REMARK  status: ('A' for Active; 'I' for Inactive)
REMARK    1  A    between atoms: C2'_3  and  C1'_4 
REMARK    2  A    between atoms: C1'_4  and  C1_5 
ROOT
ATOM      1  C1  I4B d   1      -4.319   4.285  -2.840  0.00  0.00    -0.075 A 
ATOM      2  C2  I4B d   1      -5.125   5.311  -2.413  0.00  0.00     0.003 A 
ATOM      3  C3  I4B d   1      -5.998   5.957  -3.322  0.00  0.00     0.002 A 
ATOM      4  C4  I4B d   1      -5.997   5.581  -4.650  0.00  0.00    -0.004 A 
ATOM      5  C5  I4B d   1      -5.196   4.525  -5.076  0.00  0.00     0.002 A 
ATOM      6  C6  I4B d   1      -4.360   3.865  -4.163  0.00  0.00     0.003 A 
ENDROOT
BRANCH   1   7
ATOM      7  C1' I4B d   1      -3.385   3.648  -1.861  0.00  0.00     0.060 C 
BRANCH   7   8
ATOM      8  C2' I4B d   1      -1.998   4.207  -2.107  0.00  0.00    -0.013 C 
ATOM      9  C4' I4B d   1      -1.979   5.705  -1.950  0.00  0.00     0.013 C 
ATOM     10  C3' I4B d   1      -1.056   3.550  -1.143  0.00  0.00     0.013 C 
ENDBRANCH   7   8
ENDBRANCH   1   7
TORSDOF 2
ENDMDL
