MODEL 1
REMARK minimizedAffinity 14.8219204
REMARK minimizedRMSD -1
REMARK  2 active torsions:
REMARK  status: ('A' for Active; 'I' for Inactive)
REMARK    1  A    between atoms: C2'_3  and  C1'_4 
REMARK    2  A    between atoms: C1'_4  and  C1_5 
ROOT
ATOM      1  C1  I4B d   1      -0.985   4.994  -2.449  0.00  0.00    -0.075 A 
ATOM      2  C2  I4B d   1      -1.227   5.335  -1.142  0.00  0.00     0.003 A 
ATOM      3  C3  I4B d   1      -0.765   4.505  -0.091  0.00  0.00     0.002 A 
ATOM      4  C4  I4B d   1      -0.114   3.327  -0.393  0.00  0.00    -0.004 A 
ATOM      5  C5  I4B d   1       0.151   2.994  -1.718  0.00  0.00     0.002 A 
ATOM      6  C6  I4B d   1      -0.277   3.839  -2.753  0.00  0.00     0.003 A 
ENDROOT
BRANCH   1   7
ATOM      7  C1' I4B d   1      -1.516   5.876  -3.534  0.00  0.00     0.060 C 
BRANCH   7   8
ATOM      8  C2' I4B d   1      -0.954   5.385  -4.852  0.00  0.00    -0.013 C 
ATOM      9  C4' I4B d   1      -1.867   5.732  -5.998  0.00  0.00     0.013 C 
ATOM     10  C3' I4B d   1       0.402   5.999  -5.035  0.00  0.00     0.013 C 
ENDBRANCH   7   8
ENDBRANCH   1   7
TORSDOF 2
ENDMDL
