MODEL 1
REMARK minimizedAffinity 7.26117134
REMARK minimizedRMSD -1
REMARK  2 active torsions:
REMARK  status: ('A' for Active; 'I' for Inactive)
REMARK    1  A    between atoms: C2'_3  and  C1'_4 
REMARK    2  A    between atoms: C1'_4  and  C1_5 
ROOT
ATOM      1  C1  I4B d   1       0.147   3.580   0.042  0.00  0.00    -0.075 A 
ATOM      2  C2  I4B d   1      -0.269   3.270  -1.228  0.00  0.00     0.003 A 
ATOM      3  C3  I4B d   1      -0.718   4.291  -2.100  0.00  0.00     0.002 A 
ATOM      4  C4  I4B d   1      -0.782   5.593  -1.646  0.00  0.00    -0.004 A 
ATOM      5  C5  I4B d   1      -0.338   5.908  -0.365  0.00  0.00     0.002 A 
ATOM      6  C6  I4B d   1       0.141   4.897   0.481  0.00  0.00     0.003 A 
ENDROOT
BRANCH   1   7
ATOM      7  C1' I4B d   1       0.583   2.472   0.948  0.00  0.00     0.060 C 
BRANCH   7   8
ATOM      8  C2' I4B d   1       0.457   2.960   2.377  0.00  0.00    -0.013 C 
ATOM      9  C4' I4B d   1      -0.265   1.954   3.234  0.00  0.00     0.013 C 
ATOM     10  C3' I4B d   1       1.837   3.225   2.899  0.00  0.00     0.013 C 
ENDBRANCH   7   8
ENDBRANCH   1   7
TORSDOF 2
ENDMDL
