MODEL 1
REMARK minimizedAffinity 9.48505211
REMARK minimizedRMSD -1
REMARK  2 active torsions:
REMARK  status: ('A' for Active; 'I' for Inactive)
REMARK    1  A    between atoms: C2'_3  and  C1'_4 
REMARK    2  A    between atoms: C1'_4  and  C1_5 
ROOT
ATOM      1  C1  I4B d   1      -1.625   1.295   3.371  0.00  0.00    -0.075 A 
ATOM      2  C2  I4B d   1      -0.970   2.299   2.703  0.00  0.00     0.003 A 
ATOM      3  C3  I4B d   1       0.442   2.390   2.760  0.00  0.00     0.002 A 
ATOM      4  C4  I4B d   1       1.150   1.492   3.532  0.00  0.00    -0.004 A 
ATOM      5  C5  I4B d   1       0.486   0.461   4.191  0.00  0.00     0.002 A 
ATOM      6  C6  I4B d   1      -0.909   0.354   4.100  0.00  0.00     0.003 A 
ENDROOT
BRANCH   1   7
ATOM      7  C1' I4B d   1      -3.119   1.248   3.316  0.00  0.00     0.060 C 
BRANCH   7   8
ATOM      8  C2' I4B d   1      -3.516   0.229   2.267  0.00  0.00    -0.013 C 
ATOM      9  C4' I4B d   1      -4.091  -1.010   2.900  0.00  0.00     0.013 C 
ATOM     10  C3' I4B d   1      -4.506   0.876   1.345  0.00  0.00     0.013 C 
ENDBRANCH   7   8
ENDBRANCH   1   7
TORSDOF 2
ENDMDL
