MODEL 1
REMARK minimizedAffinity 21.2426243
REMARK minimizedRMSD -1
REMARK  0 active torsions:
REMARK  status: ('A' for Active; 'I' for Inactive)
ROOT
ATOM      1  C   UNL d   1       1.174   3.054  -0.374  0.00  0.00     0.124 A 
ATOM      2  C1  UNL d   1       0.780   3.717   0.780  0.00  0.00     0.062 A 
ATOM      3  C2  UNL d   1       1.416   3.454   1.990  0.00  0.00     0.162 A 
ATOM      4  C3  UNL d   1       2.453   2.523   2.052  0.00  0.00    -0.034 A 
ATOM      5  C4  UNL d   1       2.843   1.860   0.887  0.00  0.00     0.162 A 
ATOM      6  C5  UNL d   1       2.204   2.127  -0.320  0.00  0.00     0.062 A 
ATOM      7  F   UNL d   1       2.586   1.485  -1.434  0.00  0.00    -0.097 F 
ATOM      8  F1  UNL d   1       3.836   0.959   0.911  0.00  0.00    -0.096 F 
ATOM      9  I   UNL d   1       3.406   2.127   3.859  0.00  0.00    -0.060 I 
ATOM     10  F2  UNL d   1       1.015   4.109   3.089  0.00  0.00    -0.096 F 
ATOM     11  F3  UNL d   1      -0.216   4.613   0.730  0.00  0.00    -0.097 F 
ATOM     12  F4  UNL d   1       0.560   3.309  -1.537  0.00  0.00    -0.092 F 
ENDROOT
TORSDOF 0
ENDMDL
