MODEL 1
REMARK minimizedAffinity 22.2872143
REMARK minimizedRMSD -1
REMARK  0 active torsions:
REMARK  status: ('A' for Active; 'I' for Inactive)
ROOT
ATOM      1  C   UNL d   1       3.742   1.256   4.744  0.00  0.00     0.124 A 
ATOM      2  C1  UNL d   1       4.448   2.245   4.073  0.00  0.00     0.062 A 
ATOM      3  C2  UNL d   1       4.104   2.587   2.768  0.00  0.00     0.162 A 
ATOM      4  C3  UNL d   1       3.048   1.940   2.126  0.00  0.00    -0.034 A 
ATOM      5  C4  UNL d   1       2.344   0.946   2.807  0.00  0.00     0.162 A 
ATOM      6  C5  UNL d   1       2.691   0.607   4.110  0.00  0.00     0.062 A 
ATOM      7  F   UNL d   1       2.008  -0.349   4.757  0.00  0.00    -0.097 F 
ATOM      8  F1  UNL d   1       1.323   0.304   2.219  0.00  0.00    -0.096 F 
ATOM      9  I   UNL d   1       2.531   2.449   0.175  0.00  0.00    -0.060 I 
ATOM     10  F2  UNL d   1       4.803   3.547   2.144  0.00  0.00    -0.096 F 
ATOM     11  F3  UNL d   1       5.464   2.872   4.682  0.00  0.00    -0.097 F 
ATOM     12  F4  UNL d   1       4.075   0.927   5.999  0.00  0.00    -0.092 F 
ENDROOT
TORSDOF 0
ENDMDL
