MODEL 1
REMARK minimizedAffinity 29.1599045
REMARK minimizedRMSD -1
REMARK  0 active torsions:
REMARK  status: ('A' for Active; 'I' for Inactive)
ROOT
ATOM      1  C   UNL d   1      -4.658   2.501  -3.095  0.00  0.00     0.124 A 
ATOM      2  C1  UNL d   1      -4.456   1.536  -4.073  0.00  0.00     0.062 A 
ATOM      3  C2  UNL d   1      -3.468   0.570  -3.909  0.00  0.00     0.162 A 
ATOM      4  C3  UNL d   1      -2.673   0.563  -2.763  0.00  0.00    -0.034 A 
ATOM      5  C4  UNL d   1      -2.882   1.537  -1.784  0.00  0.00     0.162 A 
ATOM      6  C5  UNL d   1      -3.871   2.500  -1.952  0.00  0.00     0.062 A 
ATOM      7  F   UNL d   1      -4.064   3.432  -1.007  0.00  0.00    -0.097 F 
ATOM      8  F1  UNL d   1      -2.136   1.559  -0.670  0.00  0.00    -0.096 F 
ATOM      9  I   UNL d   1      -1.194  -0.880  -2.515  0.00  0.00    -0.060 I 
ATOM     10  F2  UNL d   1      -3.295  -0.350  -4.870  0.00  0.00    -0.096 F 
ATOM     11  F3  UNL d   1      -5.215   1.535  -5.178  0.00  0.00    -0.097 F 
ATOM     12  F4  UNL d   1      -5.610   3.430  -3.256  0.00  0.00    -0.092 F 
ENDROOT
TORSDOF 0
ENDMDL
