MODEL 1
REMARK minimizedAffinity 11.2204561
REMARK minimizedRMSD -1
REMARK  0 active torsions:
REMARK  status: ('A' for Active; 'I' for Inactive)
ROOT
ATOM      1  C   UNL d   1       0.933  -0.237  -0.480  0.00  0.00     0.124 A 
ATOM      2  C1  UNL d   1       0.272   0.979  -0.373  0.00  0.00     0.062 A 
ATOM      3  C2  UNL d   1       0.715   1.939   0.532  0.00  0.00     0.162 A 
ATOM      4  C3  UNL d   1       1.825   1.688   1.338  0.00  0.00    -0.034 A 
ATOM      5  C4  UNL d   1       2.484   0.463   1.226  0.00  0.00     0.162 A 
ATOM      6  C5  UNL d   1       2.038  -0.494   0.320  0.00  0.00     0.062 A 
ATOM      7  F   UNL d   1       2.678  -1.668   0.219  0.00  0.00    -0.097 F 
ATOM      8  F1  UNL d   1       3.555   0.189   1.986  0.00  0.00    -0.096 F 
ATOM      9  I   UNL d   1       2.490   3.122   2.692  0.00  0.00    -0.060 I 
ATOM     10  F2  UNL d   1       0.057   3.106   0.613  0.00  0.00    -0.096 F 
ATOM     11  F3  UNL d   1      -0.796   1.229  -1.144  0.00  0.00    -0.097 F 
ATOM     12  F4  UNL d   1       0.505  -1.160  -1.351  0.00  0.00    -0.092 F 
ENDROOT
TORSDOF 0
ENDMDL
