MODEL 1
REMARK minimizedAffinity 23.27491
REMARK minimizedRMSD -1
REMARK  0 active torsions:
REMARK  status: ('A' for Active; 'I' for Inactive)
ROOT
ATOM      1  C   UNL d   1       0.417   0.985  -0.304  0.00  0.00     0.124 A 
ATOM      2  C1  UNL d   1      -0.079   2.104   0.350  0.00  0.00     0.062 A 
ATOM      3  C2  UNL d   1       0.609   2.645   1.432  0.00  0.00     0.162 A 
ATOM      4  C3  UNL d   1       1.802   2.069   1.867  0.00  0.00    -0.034 A 
ATOM      5  C4  UNL d   1       2.295   0.943   1.205  0.00  0.00     0.162 A 
ATOM      6  C5  UNL d   1       1.604   0.406   0.124  0.00  0.00     0.062 A 
ATOM      7  F   UNL d   1       2.085  -0.676  -0.506  0.00  0.00    -0.097 F 
ATOM      8  F1  UNL d   1       3.440   0.364   1.597  0.00  0.00    -0.096 F 
ATOM      9  I   UNL d   1       2.834   2.876   3.484  0.00  0.00    -0.060 I 
ATOM     10  F2  UNL d   1       0.105   3.727   2.045  0.00  0.00    -0.096 F 
ATOM     11  F3  UNL d   1      -1.226   2.665  -0.061  0.00  0.00    -0.097 F 
ATOM     12  F4  UNL d   1      -0.247   0.465  -1.344  0.00  0.00    -0.092 F 
ENDROOT
TORSDOF 0
ENDMDL
