MODEL 1
REMARK minimizedAffinity 22.4028912
REMARK minimizedRMSD -1
REMARK  0 active torsions:
REMARK  status: ('A' for Active; 'I' for Inactive)
ROOT
ATOM      1  C   UNL d   1       2.077  -0.359   3.520  0.00  0.00     0.124 A 
ATOM      2  C1  UNL d   1       1.758  -0.958   4.730  0.00  0.00     0.062 A 
ATOM      3  C2  UNL d   1       1.629  -2.342   4.814  0.00  0.00     0.162 A 
ATOM      4  C3  UNL d   1       1.821  -3.136   3.684  0.00  0.00    -0.034 A 
ATOM      5  C4  UNL d   1       2.140  -2.527   2.470  0.00  0.00     0.162 A 
ATOM      6  C5  UNL d   1       2.268  -1.144   2.391  0.00  0.00     0.062 A 
ATOM      7  F   UNL d   1       2.576  -0.566   1.220  0.00  0.00    -0.097 F 
ATOM      8  F1  UNL d   1       2.331  -3.261   1.363  0.00  0.00    -0.096 F 
ATOM      9  I   UNL d   1       1.630  -5.205   3.805  0.00  0.00    -0.060 I 
ATOM     10  F2  UNL d   1       1.320  -2.894   5.997  0.00  0.00    -0.096 F 
ATOM     11  F3  UNL d   1       1.572  -0.203   5.822  0.00  0.00    -0.097 F 
ATOM     12  F4  UNL d   1       2.199   0.972   3.441  0.00  0.00    -0.092 F 
ENDROOT
TORSDOF 0
ENDMDL
