MODEL 1
REMARK minimizedAffinity 17.5734615
REMARK minimizedRMSD -1
REMARK  0 active torsions:
REMARK  status: ('A' for Active; 'I' for Inactive)
ROOT
ATOM      1  C   UNL d   1       1.428  -1.654   3.103  0.00  0.00     0.124 A 
ATOM      2  C1  UNL d   1       1.646  -2.685   4.005  0.00  0.00     0.062 A 
ATOM      3  C2  UNL d   1       2.924  -2.923   4.503  0.00  0.00     0.162 A 
ATOM      4  C3  UNL d   1       3.995  -2.126   4.099  0.00  0.00    -0.034 A 
ATOM      5  C4  UNL d   1       3.769  -1.091   3.190  0.00  0.00     0.162 A 
ATOM      6  C5  UNL d   1       2.490  -0.858   2.696  0.00  0.00     0.062 A 
ATOM      7  F   UNL d   1       2.282   0.140   1.824  0.00  0.00    -0.097 F 
ATOM      8  F1  UNL d   1       4.777  -0.305   2.781  0.00  0.00    -0.096 F 
ATOM      9  I   UNL d   1       5.908  -2.477   4.840  0.00  0.00    -0.060 I 
ATOM     10  F2  UNL d   1       3.105  -3.926   5.374  0.00  0.00    -0.096 F 
ATOM     11  F3  UNL d   1       0.622  -3.457   4.399  0.00  0.00    -0.097 F 
ATOM     12  F4  UNL d   1       0.198  -1.428   2.625  0.00  0.00    -0.092 F 
ENDROOT
TORSDOF 0
ENDMDL
