MODEL 1
REMARK minimizedAffinity 19.8776321
REMARK minimizedRMSD -1
REMARK  0 active torsions:
REMARK  status: ('A' for Active; 'I' for Inactive)
ROOT
ATOM      1  C   UNL d   1      -0.063  -1.519   0.021  0.00  0.00     0.124 A 
ATOM      2  C1  UNL d   1       0.716  -2.658  -0.124  0.00  0.00     0.062 A 
ATOM      3  C2  UNL d   1       1.724  -2.938   0.794  0.00  0.00     0.162 A 
ATOM      4  C3  UNL d   1       1.957  -2.078   1.867  0.00  0.00    -0.034 A 
ATOM      5  C4  UNL d   1       1.170  -0.934   2.006  0.00  0.00     0.162 A 
ATOM      6  C5  UNL d   1       0.164  -0.658   1.085  0.00  0.00     0.062 A 
ATOM      7  F   UNL d   1      -0.588   0.443   1.227  0.00  0.00    -0.097 F 
ATOM      8  F1  UNL d   1       1.367  -0.086   3.026  0.00  0.00    -0.096 F 
ATOM      9  I   UNL d   1       3.463  -2.494   3.243  0.00  0.00    -0.060 I 
ATOM     10  F2  UNL d   1       2.462  -4.046   0.630  0.00  0.00    -0.096 F 
ATOM     11  F3  UNL d   1       0.500  -3.491  -1.152  0.00  0.00    -0.097 F 
ATOM     12  F4  UNL d   1      -1.031  -1.252  -0.865  0.00  0.00    -0.092 F 
ENDROOT
TORSDOF 0
ENDMDL
