MODEL 1
REMARK minimizedAffinity 14.7044706
REMARK minimizedRMSD -1
REMARK  0 active torsions:
REMARK  status: ('A' for Active; 'I' for Inactive)
ROOT
ATOM      1  C   UNL d   1       2.402  -1.141   3.044  0.00  0.00     0.124 A 
ATOM      2  C1  UNL d   1       2.124  -1.968   4.124  0.00  0.00     0.062 A 
ATOM      3  C2  UNL d   1       3.149  -2.391   4.964  0.00  0.00     0.162 A 
ATOM      4  C3  UNL d   1       4.463  -1.986   4.730  0.00  0.00    -0.034 A 
ATOM      5  C4  UNL d   1       4.735  -1.155   3.642  0.00  0.00     0.162 A 
ATOM      6  C5  UNL d   1       3.707  -0.735   2.804  0.00  0.00     0.062 A 
ATOM      7  F   UNL d   1       3.978   0.064   1.762  0.00  0.00    -0.097 F 
ATOM      8  F1  UNL d   1       5.988  -0.747   3.387  0.00  0.00    -0.096 F 
ATOM      9  I   UNL d   1       6.000  -2.615   5.985  0.00  0.00    -0.060 I 
ATOM     10  F2  UNL d   1       2.851  -3.190   6.000  0.00  0.00    -0.096 F 
ATOM     11  F3  UNL d   1       0.863  -2.363   4.357  0.00  0.00    -0.097 F 
ATOM     12  F4  UNL d   1       1.413  -0.737   2.236  0.00  0.00    -0.092 F 
ENDROOT
TORSDOF 0
ENDMDL
