MODEL 1
REMARK minimizedAffinity 7.53457308
REMARK minimizedRMSD -1
REMARK  0 active torsions:
REMARK  status: ('A' for Active; 'I' for Inactive)
ROOT
ATOM      1  C   UNL d   1       2.403  -0.893   2.824  0.00  0.00     0.124 A 
ATOM      2  C1  UNL d   1       3.710  -0.479   2.611  0.00  0.00     0.062 A 
ATOM      3  C2  UNL d   1       4.738  -0.964   3.414  0.00  0.00     0.162 A 
ATOM      4  C3  UNL d   1       4.463  -1.870   4.438  0.00  0.00    -0.034 A 
ATOM      5  C4  UNL d   1       3.145  -2.282   4.646  0.00  0.00     0.162 A 
ATOM      6  C5  UNL d   1       2.122  -1.795   3.841  0.00  0.00     0.062 A 
ATOM      7  F   UNL d   1       0.859  -2.196   4.048  0.00  0.00    -0.097 F 
ATOM      8  F1  UNL d   1       2.846  -3.153   5.622  0.00  0.00    -0.096 F 
ATOM      9  I   UNL d   1       5.997  -2.598   5.641  0.00  0.00    -0.060 I 
ATOM     10  F2  UNL d   1       5.992  -0.545   3.186  0.00  0.00    -0.096 F 
ATOM     11  F3  UNL d   1       3.984   0.393   1.629  0.00  0.00    -0.097 F 
ATOM     12  F4  UNL d   1       1.415  -0.424   2.050  0.00  0.00    -0.092 F 
ENDROOT
TORSDOF 0
ENDMDL
