MODEL 1
REMARK minimizedAffinity 20.6980152
REMARK minimizedRMSD -1
REMARK  0 active torsions:
REMARK  status: ('A' for Active; 'I' for Inactive)
ROOT
ATOM      1  C   UNL d   1       2.690  -2.747   3.839  0.00  0.00     0.124 A 
ATOM      2  C1  UNL d   1       2.954  -3.719   2.883  0.00  0.00     0.062 A 
ATOM      3  C2  UNL d   1       2.726  -3.455   1.536  0.00  0.00     0.162 A 
ATOM      4  C3  UNL d   1       2.232  -2.214   1.135  0.00  0.00    -0.034 A 
ATOM      5  C4  UNL d   1       1.968  -1.242   2.102  0.00  0.00     0.162 A 
ATOM      6  C5  UNL d   1       2.197  -1.510   3.447  0.00  0.00     0.062 A 
ATOM      7  F   UNL d   1       1.941  -0.570   4.369  0.00  0.00    -0.097 F 
ATOM      8  F1  UNL d   1       1.492  -0.038   1.751  0.00  0.00    -0.096 F 
ATOM      9  I   UNL d   1       1.890  -1.816  -0.879  0.00  0.00    -0.060 I 
ATOM     10  F2  UNL d   1       2.990  -4.413   0.634  0.00  0.00    -0.096 F 
ATOM     11  F3  UNL d   1       3.429  -4.915   3.259  0.00  0.00    -0.097 F 
ATOM     12  F4  UNL d   1       2.909  -3.003   5.135  0.00  0.00    -0.092 F 
ENDROOT
TORSDOF 0
ENDMDL
