MODEL 1
REMARK minimizedAffinity -4.7943387
REMARK minimizedRMSD -1
REMARK  1 active torsions:
REMARK  status: ('A' for Active; 'I' for Inactive)
REMARK    1  A    between atoms: C1_2  and  C2_3 
ROOT
ATOM      1  C2  UNL d   1       0.102  -0.294  -0.266  0.00  0.00    -0.076 A 
ATOM      2  C3  UNL d   1       0.955  -1.204  -0.915  0.00  0.00     0.004 A 
ATOM      3  C4  UNL d   1       1.080  -2.516  -0.463  0.00  0.00    -0.003 A 
ATOM      4  C5  UNL d   1       0.354  -2.941   0.644  0.00  0.00     0.000 A 
ATOM      5  C6  UNL d   1      -0.510  -2.057   1.289  0.00  0.00     0.000 A 
ATOM      6  C7  UNL d   1      -0.661  -0.735   0.837  0.00  0.00    -0.073 A 
ATOM      7  C8  UNL d   1      -1.602   0.177   1.574  0.00  0.00     0.078 C 
ENDROOT
BRANCH   1   8
ATOM      8  C1  UNL d   1       0.027   1.124  -0.785  0.00  0.00     0.053 C 
ATOM      9  C   UNL d   1       0.968   2.065  -0.048  0.00  0.00     0.018 C 
ENDBRANCH   1   8
TORSDOF 1
ENDMDL
