MODEL 1
REMARK minimizedAffinity -3.75596547
REMARK minimizedRMSD -1
REMARK  1 active torsions:
REMARK  status: ('A' for Active; 'I' for Inactive)
REMARK    1  A    between atoms: C1_2  and  C2_3 
ROOT
ATOM      1  C2  UNL d   1      -0.006  -0.244  -0.751  0.00  0.00    -0.076 A 
ATOM      2  C3  UNL d   1      -0.469  -0.377   0.569  0.00  0.00     0.004 A 
ATOM      3  C4  UNL d   1      -0.529  -1.626   1.186  0.00  0.00    -0.003 A 
ATOM      4  C5  UNL d   1      -0.126  -2.762   0.493  0.00  0.00     0.000 A 
ATOM      5  C6  UNL d   1       0.353  -2.646  -0.812  0.00  0.00     0.000 A 
ATOM      6  C7  UNL d   1       0.435  -1.393  -1.443  0.00  0.00    -0.073 A 
ATOM      7  C8  UNL d   1       0.954  -1.327  -2.853  0.00  0.00     0.078 C 
ENDROOT
BRANCH   1   8
ATOM      8  C1  UNL d   1       0.011   1.132  -1.378  0.00  0.00     0.053 C 
ATOM      9  C   UNL d   1      -1.031   2.060  -0.773  0.00  0.00     0.018 C 
ENDBRANCH   1   8
TORSDOF 1
ENDMDL
