MODEL 1
REMARK minimizedAffinity -2.10047221
REMARK minimizedRMSD -1
REMARK  1 active torsions:
REMARK  status: ('A' for Active; 'I' for Inactive)
REMARK    1  A    between atoms: C1_2  and  C2_3 
ROOT
ATOM      1  C2  UNL d   1      -0.283  -1.112   0.227  0.00  0.00    -0.076 A 
ATOM      2  C3  UNL d   1       0.375  -0.903  -0.997  0.00  0.00     0.004 A 
ATOM      3  C4  UNL d   1       0.498   0.376  -1.537  0.00  0.00    -0.003 A 
ATOM      4  C5  UNL d   1      -0.035   1.467  -0.860  0.00  0.00     0.000 A 
ATOM      5  C6  UNL d   1      -0.676   1.281   0.364  0.00  0.00     0.000 A 
ATOM      6  C7  UNL d   1      -0.794   0.000   0.930  0.00  0.00    -0.073 A 
ATOM      7  C8  UNL d   1      -1.500  -0.144   2.250  0.00  0.00     0.078 C 
ENDROOT
BRANCH   1   8
ATOM      8  C1  UNL d   1      -0.409  -2.525   0.750  0.00  0.00     0.053 C 
ATOM      9  C   UNL d   1      -1.458  -3.332   0.000  0.00  0.00     0.018 C 
ENDBRANCH   1   8
TORSDOF 1
ENDMDL
