MODEL 1
REMARK minimizedAffinity -5.06182861
REMARK minimizedRMSD -1
REMARK  1 active torsions:
REMARK  status: ('A' for Active; 'I' for Inactive)
REMARK    1  A    between atoms: C1_2  and  C2_3 
ROOT
ATOM      1  C2  UNL d   1      -0.156  -0.225  -0.099  0.00  0.00    -0.076 A 
ATOM      2  C3  UNL d   1       0.412  -0.987  -1.135  0.00  0.00     0.004 A 
ATOM      3  C4  UNL d   1       0.362  -2.379  -1.111  0.00  0.00    -0.003 A 
ATOM      4  C5  UNL d   1      -0.259  -3.033  -0.053  0.00  0.00     0.000 A 
ATOM      5  C6  UNL d   1      -0.844  -2.292   0.974  0.00  0.00     0.000 A 
ATOM      6  C7  UNL d   1      -0.816  -0.887   0.958  0.00  0.00    -0.073 A 
ATOM      7  C8  UNL d   1      -1.458  -0.139   2.094  0.00  0.00     0.078 C 
ENDROOT
BRANCH   1   8
ATOM      8  C1  UNL d   1      -0.047   1.282  -0.165  0.00  0.00     0.053 C 
ATOM      9  C   UNL d   1       1.289   1.792   0.352  0.00  0.00     0.018 C 
ENDBRANCH   1   8
TORSDOF 1
ENDMDL
