MODEL 1
REMARK minimizedAffinity -4.50689507
REMARK minimizedRMSD -1
REMARK  1 active torsions:
REMARK  status: ('A' for Active; 'I' for Inactive)
REMARK    1  A    between atoms: C1_2  and  C2_3 
ROOT
ATOM      1  C2  UNL d   1      -0.321  -1.389   0.471  0.00  0.00    -0.076 A 
ATOM      2  C3  UNL d   1      -0.413  -2.792   0.482  0.00  0.00     0.004 A 
ATOM      3  C4  UNL d   1      -0.028  -3.545  -0.626  0.00  0.00    -0.003 A 
ATOM      4  C5  UNL d   1       0.456  -2.907  -1.763  0.00  0.00     0.000 A 
ATOM      5  C6  UNL d   1       0.571  -1.518  -1.785  0.00  0.00     0.000 A 
ATOM      6  C7  UNL d   1       0.202  -0.745  -0.671  0.00  0.00    -0.073 A 
ATOM      7  C8  UNL d   1       0.341   0.751  -0.752  0.00  0.00     0.078 C 
ENDROOT
BRANCH   1   8
ATOM      8  C1  UNL d   1      -0.779  -0.623   1.691  0.00  0.00     0.053 C 
ATOM      9  C   UNL d   1      -2.247  -0.231   1.616  0.00  0.00     0.018 C 
ENDBRANCH   1   8
TORSDOF 1
ENDMDL
