MODEL 1
REMARK minimizedAffinity -2.92821765
REMARK minimizedRMSD -1
REMARK  1 active torsions:
REMARK  status: ('A' for Active; 'I' for Inactive)
REMARK    1  A    between atoms: C1_2  and  C2_3 
ROOT
ATOM      1  C2  UNL d   1       0.868   1.579   0.555  0.00  0.00    -0.076 A 
ATOM      2  C3  UNL d   1       0.865   0.974   1.824  0.00  0.00     0.004 A 
ATOM      3  C4  UNL d   1       0.356  -0.311   2.005  0.00  0.00    -0.003 A 
ATOM      4  C5  UNL d   1      -0.159  -1.011   0.920  0.00  0.00     0.000 A 
ATOM      5  C6  UNL d   1      -0.149  -0.433  -0.349  0.00  0.00     0.000 A 
ATOM      6  C7  UNL d   1       0.376   0.855  -0.552  0.00  0.00    -0.073 A 
ATOM      7  C8  UNL d   1       0.356   1.432  -1.941  0.00  0.00     0.078 C 
ENDROOT
BRANCH   1   8
ATOM      8  C1  UNL d   1       1.408   2.985   0.424  0.00  0.00     0.053 C 
ATOM      9  C   UNL d   1       0.355   4.044   0.713  0.00  0.00     0.018 C 
ENDBRANCH   1   8
TORSDOF 1
ENDMDL
