MODEL 1
REMARK minimizedAffinity -3.89652133
REMARK minimizedRMSD -1
REMARK  1 active torsions:
REMARK  status: ('A' for Active; 'I' for Inactive)
REMARK    1  A    between atoms: C1_2  and  C2_3 
ROOT
ATOM      1  C2  UNL d   1      -0.069  -0.218  -0.195  0.00  0.00    -0.076 A 
ATOM      2  C3  UNL d   1       0.690  -1.035  -1.052  0.00  0.00     0.004 A 
ATOM      3  C4  UNL d   1       0.794  -2.407  -0.830  0.00  0.00    -0.003 A 
ATOM      4  C5  UNL d   1       0.139  -2.985   0.252  0.00  0.00     0.000 A 
ATOM      5  C6  UNL d   1      -0.633  -2.194   1.101  0.00  0.00     0.000 A 
ATOM      6  C7  UNL d   1      -0.761  -0.811   0.883  0.00  0.00    -0.073 A 
ATOM      7  C8  UNL d   1      -1.601  -0.004   1.834  0.00  0.00     0.078 C 
ENDROOT
BRANCH   1   8
ATOM      8  C1  UNL d   1      -0.122   1.268  -0.470  0.00  0.00     0.053 C 
ATOM      9  C   UNL d   1       1.044   2.018   0.156  0.00  0.00     0.018 C 
ENDBRANCH   1   8
TORSDOF 1
ENDMDL
