MODEL 1
REMARK minimizedAffinity -2.08820748
REMARK minimizedRMSD -1
REMARK  1 active torsions:
REMARK  status: ('A' for Active; 'I' for Inactive)
REMARK    1  A    between atoms: C1_2  and  C2_3 
ROOT
ATOM      1  C2  UNL d   1       0.041   0.107   0.282  0.00  0.00    -0.076 A 
ATOM      2  C3  UNL d   1       0.890  -0.712  -0.483  0.00  0.00     0.004 A 
ATOM      3  C4  UNL d   1       0.946  -2.088  -0.265  0.00  0.00    -0.003 A 
ATOM      4  C5  UNL d   1       0.154  -2.667   0.720  0.00  0.00     0.000 A 
ATOM      5  C6  UNL d   1      -0.706  -1.872   1.476  0.00  0.00     0.000 A 
ATOM      6  C7  UNL d   1      -0.787  -0.485   1.259  0.00  0.00    -0.073 A 
ATOM      7  C8  UNL d   1      -1.728   0.325   2.108  0.00  0.00     0.078 C 
ENDROOT
BRANCH   1   8
ATOM      8  C1  UNL d   1       0.043   1.596   0.020  0.00  0.00     0.053 C 
ATOM      9  C   UNL d   1       1.437   2.200   0.096  0.00  0.00     0.018 C 
ENDBRANCH   1   8
TORSDOF 1
ENDMDL
