MODEL 1
REMARK minimizedAffinity -0.38430506
REMARK minimizedRMSD -1
REMARK  1 active torsions:
REMARK  status: ('A' for Active; 'I' for Inactive)
REMARK    1  A    between atoms: C1_2  and  C2_3 
ROOT
ATOM      1  C2  UNL d   1      -0.519   0.512   0.030  0.00  0.00    -0.076 A 
ATOM      2  C3  UNL d   1      -1.013   0.187   1.305  0.00  0.00     0.004 A 
ATOM      3  C4  UNL d   1      -1.218  -1.140   1.679  0.00  0.00    -0.003 A 
ATOM      4  C5  UNL d   1      -0.931  -2.164   0.783  0.00  0.00     0.000 A 
ATOM      5  C6  UNL d   1      -0.423  -1.861  -0.480  0.00  0.00     0.000 A 
ATOM      6  C7  UNL d   1      -0.196  -0.529  -0.867  0.00  0.00    -0.073 A 
ATOM      7  C8  UNL d   1       0.348  -0.260  -2.243  0.00  0.00     0.078 C 
ENDROOT
BRANCH   1   8
ATOM      8  C1  UNL d   1      -0.343   1.970  -0.329  0.00  0.00     0.053 C 
ATOM      9  C   UNL d   1       0.823   2.614   0.405  0.00  0.00     0.018 C 
ENDBRANCH   1   8
TORSDOF 1
ENDMDL
