MODEL 1
REMARK minimizedAffinity -3.1965034
REMARK minimizedRMSD -1
REMARK  1 active torsions:
REMARK  status: ('A' for Active; 'I' for Inactive)
REMARK    1  A    between atoms: C1_2  and  C2_3 
ROOT
ATOM      1  C2  UNL d   1       0.052  -1.496  -0.179  0.00  0.00    -0.076 A 
ATOM      2  C3  UNL d   1      -0.541  -0.774   0.872  0.00  0.00     0.004 A 
ATOM      3  C4  UNL d   1      -0.716   0.606   0.785  0.00  0.00    -0.003 A 
ATOM      4  C5  UNL d   1      -0.303   1.287  -0.355  0.00  0.00     0.000 A 
ATOM      5  C6  UNL d   1       0.270   0.584  -1.414  0.00  0.00     0.000 A 
ATOM      6  C7  UNL d   1       0.440  -0.809  -1.349  0.00  0.00    -0.073 A 
ATOM      7  C8  UNL d   1       1.070  -1.516  -2.518  0.00  0.00     0.078 C 
ENDROOT
BRANCH   1   8
ATOM      8  C1  UNL d   1       0.241  -2.987  -0.016  0.00  0.00     0.053 C 
ATOM      9  C   UNL d   1      -1.079  -3.738   0.052  0.00  0.00     0.018 C 
ENDBRANCH   1   8
TORSDOF 1
ENDMDL
