MODEL 1
REMARK minimizedAffinity -4.8744235
REMARK minimizedRMSD -1
REMARK  1 active torsions:
REMARK  status: ('A' for Active; 'I' for Inactive)
REMARK    1  A    between atoms: C1_2  and  C2_3 
ROOT
ATOM      1  C2  UNL d   1       0.062  -0.619   0.736  0.00  0.00    -0.076 A 
ATOM      2  C3  UNL d   1       0.839  -1.640   0.162  0.00  0.00     0.004 A 
ATOM      3  C4  UNL d   1       0.345  -2.938   0.046  0.00  0.00    -0.003 A 
ATOM      4  C5  UNL d   1      -0.934  -3.236   0.501  0.00  0.00     0.000 A 
ATOM      5  C6  UNL d   1      -1.726  -2.232   1.057  0.00  0.00     0.000 A 
ATOM      6  C7  UNL d   1      -1.249  -0.914   1.166  0.00  0.00    -0.073 A 
ATOM      7  C8  UNL d   1      -2.143   0.129   1.779  0.00  0.00     0.078 C 
ENDROOT
BRANCH   1   8
ATOM      8  C1  UNL d   1       0.661   0.764   0.860  0.00  0.00     0.053 C 
ATOM      9  C   UNL d   1       1.070   1.345  -0.484  0.00  0.00     0.018 C 
ENDBRANCH   1   8
TORSDOF 1
ENDMDL
