MODEL 1
REMARK minimizedAffinity 12.3653679
REMARK minimizedRMSD -1
REMARK  2 active torsions:
REMARK  status: ('A' for Active; 'I' for Inactive)
REMARK    1  A    between atoms: C2'_3  and  C1'_4 
REMARK    2  A    between atoms: C1'_4  and  C1_5 
ROOT
ATOM      1  C1  I4B d   1      -2.893  -2.862  -5.810  0.00  0.00    -0.075 A 
ATOM      2  C2  I4B d   1      -1.574  -3.167  -5.583  0.00  0.00     0.003 A 
ATOM      3  C3  I4B d   1      -0.612  -2.133  -5.475  0.00  0.00     0.002 A 
ATOM      4  C4  I4B d   1      -1.002  -0.821  -5.652  0.00  0.00    -0.004 A 
ATOM      5  C5  I4B d   1      -2.343  -0.513  -5.860  0.00  0.00     0.002 A 
ATOM      6  C6  I4B d   1      -3.297  -1.539  -5.927  0.00  0.00     0.003 A 
ENDROOT
BRANCH   1   7
ATOM      7  C1' I4B d   1      -3.876  -3.981  -5.951  0.00  0.00     0.060 C 
BRANCH   7   8
ATOM      8  C2' I4B d   1      -3.400  -5.132  -5.089  0.00  0.00    -0.013 C 
ATOM      9  C4' I4B d   1      -4.561  -5.924  -4.547  0.00  0.00     0.013 C 
ATOM     10  C3' I4B d   1      -2.499  -5.993  -5.923  0.00  0.00     0.013 C 
ENDBRANCH   7   8
ENDBRANCH   1   7
TORSDOF 2
ENDMDL
