MODEL 1
REMARK minimizedAffinity 6.01643419
REMARK minimizedRMSD -1
REMARK  2 active torsions:
REMARK  status: ('A' for Active; 'I' for Inactive)
REMARK    1  A    between atoms: C2'_3  and  C1'_4 
REMARK    2  A    between atoms: C1'_4  and  C1_5 
ROOT
ATOM      1  C1  I4B d   1      -1.032   1.659  -1.158  0.00  0.00    -0.075 A 
ATOM      2  C2  I4B d   1      -0.258   1.445  -2.271  0.00  0.00     0.003 A 
ATOM      3  C3  I4B d   1      -0.595   0.419  -3.187  0.00  0.00     0.002 A 
ATOM      4  C4  I4B d   1      -1.677  -0.396  -2.927  0.00  0.00    -0.004 A 
ATOM      5  C5  I4B d   1      -2.474  -0.163  -1.810  0.00  0.00     0.002 A 
ATOM      6  C6  I4B d   1      -2.157   0.879  -0.926  0.00  0.00     0.003 A 
ENDROOT
BRANCH   1   7
ATOM      7  C1' I4B d   1      -0.629   2.730  -0.195  0.00  0.00     0.060 C 
BRANCH   7   8
ATOM      8  C2' I4B d   1      -1.189   2.369   1.166  0.00  0.00    -0.013 C 
ATOM      9  C4' I4B d   1      -0.103   2.323   2.208  0.00  0.00     0.013 C 
ATOM     10  C3' I4B d   1      -2.236   3.383   1.519  0.00  0.00     0.013 C 
ENDBRANCH   7   8
ENDBRANCH   1   7
TORSDOF 2
ENDMDL
