MODEL 1
REMARK minimizedAffinity 0.559986889
REMARK minimizedRMSD -1
REMARK  2 active torsions:
REMARK  status: ('A' for Active; 'I' for Inactive)
REMARK    1  A    between atoms: C2'_3  and  C1'_4 
REMARK    2  A    between atoms: C1'_4  and  C1_5 
ROOT
ATOM      1  C1  I4B d   1      -1.399   2.620  -0.008  0.00  0.00    -0.075 A 
ATOM      2  C2  I4B d   1      -1.229   3.680  -0.864  0.00  0.00     0.003 A 
ATOM      3  C3  I4B d   1      -0.611   3.487  -2.123  0.00  0.00     0.002 A 
ATOM      4  C4  I4B d   1      -0.136   2.237  -2.463  0.00  0.00    -0.004 A 
ATOM      5  C5  I4B d   1      -0.330   1.159  -1.605  0.00  0.00     0.002 A 
ATOM      6  C6  I4B d   1      -0.976   1.348  -0.374  0.00  0.00     0.003 A 
ENDROOT
BRANCH   1   7
ATOM      7  C1' I4B d   1      -2.026   2.865   1.327  0.00  0.00     0.060 C 
BRANCH   7   8
ATOM      8  C2' I4B d   1      -1.010   2.507   2.393  0.00  0.00    -0.013 C 
ATOM      9  C4' I4B d   1      -1.031   1.031   2.692  0.00  0.00     0.013 C 
ATOM     10  C3' I4B d   1       0.341   2.942   1.909  0.00  0.00     0.013 C 
ENDBRANCH   7   8
ENDBRANCH   1   7
TORSDOF 2
ENDMDL
