MODEL 1
REMARK minimizedAffinity 7.99624443
REMARK minimizedRMSD -1
REMARK  2 active torsions:
REMARK  status: ('A' for Active; 'I' for Inactive)
REMARK    1  A    between atoms: C2'_3  and  C1'_4 
REMARK    2  A    between atoms: C1'_4  and  C1_5 
ROOT
ATOM      1  C1  I4B d   1      -0.165   1.401   1.356  0.00  0.00    -0.075 A 
ATOM      2  C2  I4B d   1      -1.067   1.695   2.348  0.00  0.00     0.003 A 
ATOM      3  C3  I4B d   1      -1.097   0.925   3.535  0.00  0.00     0.002 A 
ATOM      4  C4  I4B d   1      -0.247  -0.155   3.666  0.00  0.00    -0.004 A 
ATOM      5  C5  I4B d   1       0.682  -0.437   2.669  0.00  0.00     0.002 A 
ATOM      6  C6  I4B d   1       0.733   0.353   1.512  0.00  0.00     0.003 A 
ENDROOT
BRANCH   1   7
ATOM      7  C1' I4B d   1      -0.183   2.215   0.101  0.00  0.00     0.060 C 
BRANCH   7   8
ATOM      8  C2' I4B d   1      -0.942   1.433  -0.952  0.00  0.00    -0.013 C 
ATOM      9  C4' I4B d   1      -2.301   2.033  -1.201  0.00  0.00     0.013 C 
ATOM     10  C3' I4B d   1      -0.118   1.421  -2.204  0.00  0.00     0.013 C 
ENDBRANCH   7   8
ENDBRANCH   1   7
TORSDOF 2
ENDMDL
