MODEL 1
REMARK minimizedAffinity 14.8042088
REMARK minimizedRMSD -1
REMARK  2 active torsions:
REMARK  status: ('A' for Active; 'I' for Inactive)
REMARK    1  A    between atoms: C2'_3  and  C1'_4 
REMARK    2  A    between atoms: C1'_4  and  C1_5 
ROOT
ATOM      1  C1  I4B d   1      -1.521   3.071  -1.893  0.00  0.00    -0.075 A 
ATOM      2  C2  I4B d   1      -0.451   2.265  -2.190  0.00  0.00     0.003 A 
ATOM      3  C3  I4B d   1       0.503   1.950  -1.192  0.00  0.00     0.002 A 
ATOM      4  C4  I4B d   1       0.377   2.501   0.067  0.00  0.00    -0.004 A 
ATOM      5  C5  I4B d   1      -0.721   3.300   0.372  0.00  0.00     0.002 A 
ATOM      6  C6  I4B d   1      -1.683   3.578  -0.610  0.00  0.00     0.003 A 
ENDROOT
BRANCH   1   7
ATOM      7  C1' I4B d   1      -2.491   3.410  -2.980  0.00  0.00     0.060 C 
BRANCH   7   8
ATOM      8  C2' I4B d   1      -2.640   2.192  -3.869  0.00  0.00    -0.013 C 
ATOM      9  C4' I4B d   1      -4.089   1.886  -4.138  0.00  0.00     0.013 C 
ATOM     10  C3' I4B d   1      -1.897   2.458  -5.145  0.00  0.00     0.013 C 
ENDBRANCH   7   8
ENDBRANCH   1   7
TORSDOF 2
ENDMDL
