MODEL 1
REMARK minimizedAffinity 7.60184908
REMARK minimizedRMSD -1
REMARK  2 active torsions:
REMARK  status: ('A' for Active; 'I' for Inactive)
REMARK    1  A    between atoms: C2'_3  and  C1'_4 
REMARK    2  A    between atoms: C1'_4  and  C1_5 
ROOT
ATOM      1  C1  I4B d   1      -1.621   1.527  -1.029  0.00  0.00    -0.075 A 
ATOM      2  C2  I4B d   1      -0.448   1.241  -1.683  0.00  0.00     0.003 A 
ATOM      3  C3  I4B d   1      -0.231  -0.050  -2.223  0.00  0.00     0.002 A 
ATOM      4  C4  I4B d   1      -1.185  -1.031  -2.045  0.00  0.00    -0.004 A 
ATOM      5  C5  I4B d   1      -2.383  -0.732  -1.403  0.00  0.00     0.002 A 
ATOM      6  C6  I4B d   1      -2.608   0.559  -0.902  0.00  0.00     0.003 A 
ENDROOT
BRANCH   1   7
ATOM      7  C1' I4B d   1      -1.804   2.891  -0.442  0.00  0.00     0.060 C 
BRANCH   7   8
ATOM      8  C2' I4B d   1      -1.845   2.747   1.066  0.00  0.00    -0.013 C 
ATOM      9  C4' I4B d   1      -0.464   2.549   1.633  0.00  0.00     0.013 C 
ATOM     10  C3' I4B d   1      -2.490   3.978   1.631  0.00  0.00     0.013 C 
ENDBRANCH   7   8
ENDBRANCH   1   7
TORSDOF 2
ENDMDL
