MODEL 1
REMARK minimizedAffinity 3.64218736
REMARK minimizedRMSD -1
REMARK  2 active torsions:
REMARK  status: ('A' for Active; 'I' for Inactive)
REMARK    1  A    between atoms: C2'_3  and  C1'_4 
REMARK    2  A    between atoms: C1'_4  and  C1_5 
ROOT
ATOM      1  C1  I4B d   1      -0.241   1.915   1.115  0.00  0.00    -0.075 A 
ATOM      2  C2  I4B d   1       0.891   1.138   1.115  0.00  0.00     0.003 A 
ATOM      3  C3  I4B d   1       1.117   0.208   2.158  0.00  0.00     0.002 A 
ATOM      4  C4  I4B d   1       0.217   0.124   3.201  0.00  0.00    -0.004 A 
ATOM      5  C5  I4B d   1      -0.941   0.896   3.187  0.00  0.00     0.002 A 
ATOM      6  C6  I4B d   1      -1.178   1.788   2.132  0.00  0.00     0.003 A 
ENDROOT
BRANCH   1   7
ATOM      7  C1' I4B d   1      -0.432   2.910   0.015  0.00  0.00     0.060 C 
BRANCH   7   8
ATOM      8  C2' I4B d   1      -1.042   2.187  -1.169  0.00  0.00    -0.013 C 
ATOM      9  C4' I4B d   1      -1.089   3.073  -2.385  0.00  0.00     0.013 C 
ATOM     10  C3' I4B d   1      -0.228   0.954  -1.428  0.00  0.00     0.013 C 
ENDBRANCH   7   8
ENDBRANCH   1   7
TORSDOF 2
ENDMDL
