MODEL 1
REMARK minimizedAffinity -0.0816522688
REMARK minimizedRMSD -1
REMARK  2 active torsions:
REMARK  status: ('A' for Active; 'I' for Inactive)
REMARK    1  A    between atoms: C2'_3  and  C1'_4 
REMARK    2  A    between atoms: C1'_4  and  C1_5 
ROOT
ATOM      1  C1  I4B d   1      -0.326   1.579   0.778  0.00  0.00    -0.075 A 
ATOM      2  C2  I4B d   1      -1.196   1.761   1.824  0.00  0.00     0.003 A 
ATOM      3  C3  I4B d   1      -1.001   1.066   3.042  0.00  0.00     0.002 A 
ATOM      4  C4  I4B d   1       0.041   0.167   3.153  0.00  0.00    -0.004 A 
ATOM      5  C5  I4B d   1       0.935   0.002   2.099  0.00  0.00     0.002 A 
ATOM      6  C6  I4B d   1       0.759   0.721   0.909  0.00  0.00     0.003 A 
ENDROOT
BRANCH   1   7
ATOM      7  C1' I4B d   1      -0.580   2.304  -0.506  0.00  0.00     0.060 C 
BRANCH   7   8
ATOM      8  C2' I4B d   1      -0.020   1.464  -1.635  0.00  0.00    -0.013 C 
ATOM      9  C4' I4B d   1      -0.735   0.142  -1.737  0.00  0.00     0.013 C 
ATOM     10  C3' I4B d   1      -0.152   2.250  -2.906  0.00  0.00     0.013 C 
ENDBRANCH   7   8
ENDBRANCH   1   7
TORSDOF 2
ENDMDL
