MODEL 1
REMARK minimizedAffinity 7.21448946
REMARK minimizedRMSD -1
REMARK  0 active torsions:
REMARK  status: ('A' for Active; 'I' for Inactive)
ROOT
ATOM      1  C   UNL d   1      -0.915   2.714   1.435  0.00  0.00     0.124 A 
ATOM      2  C1  UNL d   1      -2.010   2.046   1.967  0.00  0.00     0.062 A 
ATOM      3  C2  UNL d   1      -1.902   0.708   2.333  0.00  0.00     0.162 A 
ATOM      4  C3  UNL d   1      -0.695   0.028   2.171  0.00  0.00    -0.034 A 
ATOM      5  C4  UNL d   1       0.401   0.707   1.634  0.00  0.00     0.162 A 
ATOM      6  C5  UNL d   1       0.289   2.045   1.270  0.00  0.00     0.062 A 
ATOM      7  F   UNL d   1       1.347   2.689   0.756  0.00  0.00    -0.097 F 
ATOM      8  F1  UNL d   1       1.577   0.084   1.465  0.00  0.00    -0.096 F 
ATOM      9  I   UNL d   1      -0.530  -1.973   2.717  0.00  0.00    -0.060 I 
ATOM     10  F2  UNL d   1      -2.976   0.087   2.844  0.00  0.00    -0.096 F 
ATOM     11  F3  UNL d   1      -3.174   2.691   2.127  0.00  0.00    -0.097 F 
ATOM     12  F4  UNL d   1      -1.022   4.002   1.082  0.00  0.00    -0.092 F 
ENDROOT
TORSDOF 0
ENDMDL
