MODEL 1
REMARK minimizedAffinity 0.131618202
REMARK minimizedRMSD -1
REMARK  0 active torsions:
REMARK  status: ('A' for Active; 'I' for Inactive)
ROOT
ATOM      1  C   UNL d   1       0.218   0.365   1.589  0.00  0.00     0.124 A 
ATOM      2  C1  UNL d   1      -0.575  -0.458   2.376  0.00  0.00     0.062 A 
ATOM      3  C2  UNL d   1      -1.775   0.017   2.897  0.00  0.00     0.162 A 
ATOM      4  C3  UNL d   1      -2.191   1.322   2.631  0.00  0.00    -0.034 A 
ATOM      5  C4  UNL d   1      -1.387   2.144   1.839  0.00  0.00     0.162 A 
ATOM      6  C5  UNL d   1      -0.189   1.665   1.321  0.00  0.00     0.062 A 
ATOM      7  F   UNL d   1       0.576   2.461   0.560  0.00  0.00    -0.097 F 
ATOM      8  F1  UNL d   1      -1.757   3.403   1.563  0.00  0.00    -0.096 F 
ATOM      9  I   UNL d   1      -3.985   2.035   3.408  0.00  0.00    -0.060 I 
ATOM     10  F2  UNL d   1      -2.522  -0.800   3.655  0.00  0.00    -0.096 F 
ATOM     11  F3  UNL d   1      -0.184  -1.713   2.637  0.00  0.00    -0.097 F 
ATOM     12  F4  UNL d   1       1.373  -0.094   1.090  0.00  0.00    -0.092 F 
ENDROOT
TORSDOF 0
ENDMDL
