MODEL 1
REMARK minimizedAffinity 9.71460915
REMARK minimizedRMSD -1
REMARK  0 active torsions:
REMARK  status: ('A' for Active; 'I' for Inactive)
ROOT
ATOM      1  C   UNL d   1      -3.177  -2.816  -1.278  0.00  0.00     0.124 A 
ATOM      2  C1  UNL d   1      -2.111  -3.704  -1.339  0.00  0.00     0.062 A 
ATOM      3  C2  UNL d   1      -1.443  -3.913  -2.542  0.00  0.00     0.162 A 
ATOM      4  C3  UNL d   1      -1.838  -3.233  -3.694  0.00  0.00    -0.034 A 
ATOM      5  C4  UNL d   1      -2.911  -2.343  -3.625  0.00  0.00     0.162 A 
ATOM      6  C5  UNL d   1      -3.576  -2.137  -2.420  0.00  0.00     0.062 A 
ATOM      7  F   UNL d   1      -4.605  -1.280  -2.363  0.00  0.00    -0.097 F 
ATOM      8  F1  UNL d   1      -3.317  -1.673  -4.713  0.00  0.00    -0.096 F 
ATOM      9  I   UNL d   1      -0.842  -3.544  -5.495  0.00  0.00    -0.060 I 
ATOM     10  F2  UNL d   1      -0.417  -4.776  -2.572  0.00  0.00    -0.096 F 
ATOM     11  F3  UNL d   1      -1.724  -4.362  -0.237  0.00  0.00    -0.097 F 
ATOM     12  F4  UNL d   1      -3.818  -2.617  -0.119  0.00  0.00    -0.092 F 
ENDROOT
TORSDOF 0
ENDMDL
