MODEL 1
REMARK minimizedAffinity 14.458684
REMARK minimizedRMSD -1
REMARK  0 active torsions:
REMARK  status: ('A' for Active; 'I' for Inactive)
ROOT
ATOM      1  C   UNL d   1      -0.594   2.561   1.681  0.00  0.00     0.124 A 
ATOM      2  C1  UNL d   1      -1.643   2.018   2.409  0.00  0.00     0.062 A 
ATOM      3  C2  UNL d   1      -1.679   0.652   2.674  0.00  0.00     0.162 A 
ATOM      4  C3  UNL d   1      -0.661  -0.181   2.210  0.00  0.00    -0.034 A 
ATOM      5  C4  UNL d   1       0.391   0.372   1.477  0.00  0.00     0.162 A 
ATOM      6  C5  UNL d   1       0.422   1.738   1.215  0.00  0.00     0.062 A 
ATOM      7  F   UNL d   1       1.436   2.260   0.511  0.00  0.00    -0.097 F 
ATOM      8  F1  UNL d   1       1.385  -0.401   1.016  0.00  0.00    -0.096 F 
ATOM      9  I   UNL d   1      -0.711  -2.224   2.603  0.00  0.00    -0.060 I 
ATOM     10  F2  UNL d   1      -2.705   0.155   3.380  0.00  0.00    -0.096 F 
ATOM     11  F3  UNL d   1      -2.626   2.812   2.859  0.00  0.00    -0.097 F 
ATOM     12  F4  UNL d   1      -0.562   3.876   1.427  0.00  0.00    -0.092 F 
ENDROOT
TORSDOF 0
ENDMDL
