MODEL 1
REMARK minimizedAffinity 16.1772079
REMARK minimizedRMSD -1
REMARK  0 active torsions:
REMARK  status: ('A' for Active; 'I' for Inactive)
ROOT
ATOM      1  C   UNL d   1      -2.037   1.798   1.484  0.00  0.00     0.124 A 
ATOM      2  C1  UNL d   1      -1.897   0.464   1.840  0.00  0.00     0.062 A 
ATOM      3  C2  UNL d   1      -0.650  -0.150   1.778  0.00  0.00     0.162 A 
ATOM      4  C3  UNL d   1       0.469   0.570   1.359  0.00  0.00    -0.034 A 
ATOM      5  C4  UNL d   1       0.321   1.911   1.002  0.00  0.00     0.162 A 
ATOM      6  C5  UNL d   1      -0.928   2.521   1.065  0.00  0.00     0.062 A 
ATOM      7  F   UNL d   1      -1.061   3.810   0.721  0.00  0.00    -0.097 F 
ATOM      8  F1  UNL d   1       1.376   2.633   0.595  0.00  0.00    -0.096 F 
ATOM      9  I   UNL d   1       2.336  -0.344   1.266  0.00  0.00    -0.060 I 
ATOM     10  F2  UNL d   1      -0.544  -1.440   2.128  0.00  0.00    -0.096 F 
ATOM     11  F3  UNL d   1      -2.967  -0.236   2.243  0.00  0.00    -0.097 F 
ATOM     12  F4  UNL d   1      -3.239   2.386   1.543  0.00  0.00    -0.092 F 
ENDROOT
TORSDOF 0
ENDMDL
