MODEL 1
REMARK minimizedAffinity 12.4082088
REMARK minimizedRMSD -1
REMARK  0 active torsions:
REMARK  status: ('A' for Active; 'I' for Inactive)
ROOT
ATOM      1  C   UNL d   1      -2.662  -3.333  -1.060  0.00  0.00     0.124 A 
ATOM      2  C1  UNL d   1      -2.982  -2.166  -0.380  0.00  0.00     0.062 A 
ATOM      3  C2  UNL d   1      -2.191  -1.735   0.682  0.00  0.00     0.162 A 
ATOM      4  C3  UNL d   1      -1.071  -2.472   1.069  0.00  0.00    -0.034 A 
ATOM      5  C4  UNL d   1      -0.757  -3.645   0.381  0.00  0.00     0.162 A 
ATOM      6  C5  UNL d   1      -1.551  -4.071  -0.679  0.00  0.00     0.062 A 
ATOM      7  F   UNL d   1      -1.241  -5.199  -1.335  0.00  0.00    -0.097 F 
ATOM      8  F1  UNL d   1       0.312  -4.377   0.727  0.00  0.00    -0.096 F 
ATOM      9  I   UNL d   1       0.114  -1.831   2.655  0.00  0.00    -0.060 I 
ATOM     10  F2  UNL d   1      -2.523  -0.604   1.321  0.00  0.00    -0.096 F 
ATOM     11  F3  UNL d   1      -4.056  -1.451  -0.745  0.00  0.00    -0.097 F 
ATOM     12  F4  UNL d   1      -3.426  -3.745  -2.080  0.00  0.00    -0.092 F 
ENDROOT
TORSDOF 0
ENDMDL
