MODEL 1
REMARK minimizedAffinity 12.9617014
REMARK minimizedRMSD -1
REMARK  0 active torsions:
REMARK  status: ('A' for Active; 'I' for Inactive)
ROOT
ATOM      1  C   UNL d   1      -4.024  -2.629  -1.442  0.00  0.00     0.124 A 
ATOM      2  C1  UNL d   1      -3.829  -3.722  -0.607  0.00  0.00     0.062 A 
ATOM      3  C2  UNL d   1      -2.593  -4.360  -0.566  0.00  0.00     0.162 A 
ATOM      4  C3  UNL d   1      -1.540  -3.906  -1.361  0.00  0.00    -0.034 A 
ATOM      5  C4  UNL d   1      -1.743  -2.808  -2.198  0.00  0.00     0.162 A 
ATOM      6  C5  UNL d   1      -2.981  -2.174  -2.236  0.00  0.00     0.062 A 
ATOM      7  F   UNL d   1      -3.167  -1.119  -3.043  0.00  0.00    -0.097 F 
ATOM      8  F1  UNL d   1      -0.753  -2.346  -2.975  0.00  0.00    -0.096 F 
ATOM      9  I   UNL d   1       0.310  -4.857  -1.301  0.00  0.00    -0.060 I 
ATOM     10  F2  UNL d   1      -2.434  -5.412   0.250  0.00  0.00    -0.096 F 
ATOM     11  F3  UNL d   1      -4.836  -4.164   0.160  0.00  0.00    -0.097 F 
ATOM     12  F4  UNL d   1      -5.215  -2.018  -1.480  0.00  0.00    -0.092 F 
ENDROOT
TORSDOF 0
ENDMDL
