MODEL 1
REMARK minimizedAffinity 12.3274012
REMARK minimizedRMSD -1
REMARK  0 active torsions:
REMARK  status: ('A' for Active; 'I' for Inactive)
ROOT
ATOM      1  C   UNL d   1      -2.093  -0.698   2.874  0.00  0.00     0.124 A 
ATOM      2  C1  UNL d   1      -2.714   0.533   2.718  0.00  0.00     0.062 A 
ATOM      3  C2  UNL d   1      -2.029   1.594   2.132  0.00  0.00     0.162 A 
ATOM      4  C3  UNL d   1      -0.714   1.428   1.697  0.00  0.00    -0.034 A 
ATOM      5  C4  UNL d   1      -0.095   0.187   1.858  0.00  0.00     0.162 A 
ATOM      6  C5  UNL d   1      -0.784  -0.870   2.444  0.00  0.00     0.062 A 
ATOM      7  F   UNL d   1      -0.183  -2.059   2.594  0.00  0.00    -0.097 F 
ATOM      8  F1  UNL d   1       1.168  -0.008   1.451  0.00  0.00    -0.096 F 
ATOM      9  I   UNL d   1       0.314   3.011   0.821  0.00  0.00    -0.060 I 
ATOM     10  F2  UNL d   1      -2.654   2.773   1.994  0.00  0.00    -0.096 F 
ATOM     11  F3  UNL d   1      -3.977   0.702   3.133  0.00  0.00    -0.097 F 
ATOM     12  F4  UNL d   1      -2.754  -1.717   3.438  0.00  0.00    -0.092 F 
ENDROOT
TORSDOF 0
ENDMDL
