MODEL 1
REMARK minimizedAffinity 12.0489817
REMARK minimizedRMSD -1
REMARK  0 active torsions:
REMARK  status: ('A' for Active; 'I' for Inactive)
ROOT
ATOM      1  C   UNL d   1      -1.622   2.031   1.989  0.00  0.00     0.124 A 
ATOM      2  C1  UNL d   1      -1.556   0.654   2.154  0.00  0.00     0.062 A 
ATOM      3  C2  UNL d   1      -0.367  -0.025   1.904  0.00  0.00     0.162 A 
ATOM      4  C3  UNL d   1       0.767   0.672   1.487  0.00  0.00    -0.034 A 
ATOM      5  C4  UNL d   1       0.693   2.056   1.322  0.00  0.00     0.162 A 
ATOM      6  C5  UNL d   1      -0.498   2.730   1.573  0.00  0.00     0.062 A 
ATOM      7  F   UNL d   1      -0.560   4.060   1.413  0.00  0.00    -0.097 F 
ATOM      8  F1  UNL d   1       1.764   2.757   0.922  0.00  0.00    -0.096 F 
ATOM      9  I   UNL d   1       2.547  -0.340   1.112  0.00  0.00    -0.060 I 
ATOM     10  F2  UNL d   1      -0.332  -1.355   2.072  0.00  0.00    -0.096 F 
ATOM     11  F3  UNL d   1      -2.641  -0.024   2.555  0.00  0.00    -0.097 F 
ATOM     12  F4  UNL d   1      -2.767   2.681   2.229  0.00  0.00    -0.092 F 
ENDROOT
TORSDOF 0
ENDMDL
