MODEL 1
REMARK minimizedAffinity 10.7212381
REMARK minimizedRMSD -1
REMARK  0 active torsions:
REMARK  status: ('A' for Active; 'I' for Inactive)
ROOT
ATOM      1  C   UNL d   1      -2.178   0.412   2.718  0.00  0.00     0.124 A 
ATOM      2  C1  UNL d   1      -0.905  -0.098   2.509  0.00  0.00     0.062 A 
ATOM      3  C2  UNL d   1       0.080   0.693   1.925  0.00  0.00     0.162 A 
ATOM      4  C3  UNL d   1      -0.205   2.004   1.545  0.00  0.00    -0.034 A 
ATOM      5  C4  UNL d   1      -1.489   2.511   1.756  0.00  0.00     0.162 A 
ATOM      6  C5  UNL d   1      -2.469   1.716   2.341  0.00  0.00     0.062 A 
ATOM      7  F   UNL d   1      -3.699   2.211   2.541  0.00  0.00    -0.097 F 
ATOM      8  F1  UNL d   1      -1.797   3.767   1.403  0.00  0.00    -0.096 F 
ATOM      9  I   UNL d   1       1.264   3.191   0.670  0.00  0.00    -0.060 I 
ATOM     10  F2  UNL d   1       1.302   0.173   1.736  0.00  0.00    -0.096 F 
ATOM     11  F3  UNL d   1      -0.621  -1.358   2.872  0.00  0.00    -0.097 F 
ATOM     12  F4  UNL d   1      -3.124  -0.352   3.280  0.00  0.00    -0.092 F 
ENDROOT
TORSDOF 0
ENDMDL
