MODEL 1
REMARK minimizedAffinity 15.474678
REMARK minimizedRMSD -1
REMARK  0 active torsions:
REMARK  status: ('A' for Active; 'I' for Inactive)
ROOT
ATOM      1  C   UNL d   1       0.448  -4.197  -0.344  0.00  0.00     0.124 A 
ATOM      2  C1  UNL d   1      -0.581  -3.707   0.448  0.00  0.00     0.062 A 
ATOM      3  C2  UNL d   1      -1.607  -2.958  -0.121  0.00  0.00     0.162 A 
ATOM      4  C3  UNL d   1      -1.609  -2.695  -1.491  0.00  0.00    -0.034 A 
ATOM      5  C4  UNL d   1      -0.570  -3.190  -2.281  0.00  0.00     0.162 A 
ATOM      6  C5  UNL d   1       0.453  -3.938  -1.707  0.00  0.00     0.062 A 
ATOM      7  F   UNL d   1       1.446  -4.410  -2.474  0.00  0.00    -0.097 F 
ATOM      8  F1  UNL d   1      -0.542  -2.955  -3.601  0.00  0.00    -0.096 F 
ATOM      9  I   UNL d   1      -3.141  -1.575  -2.346  0.00  0.00    -0.060 I 
ATOM     10  F2  UNL d   1      -2.589  -2.497   0.668  0.00  0.00    -0.096 F 
ATOM     11  F3  UNL d   1      -0.587  -3.955   1.766  0.00  0.00    -0.097 F 
ATOM     12  F4  UNL d   1       1.434  -4.916   0.207  0.00  0.00    -0.092 F 
ENDROOT
TORSDOF 0
ENDMDL
