MODEL 1
REMARK minimizedAffinity 15.2299633
REMARK minimizedRMSD -1
REMARK  0 active torsions:
REMARK  status: ('A' for Active; 'I' for Inactive)
ROOT
ATOM      1  C   UNL d   1      -3.233  -3.198  -2.706  0.00  0.00     0.124 A 
ATOM      2  C1  UNL d   1      -2.953  -4.156  -1.741  0.00  0.00     0.062 A 
ATOM      3  C2  UNL d   1      -2.748  -3.777  -0.417  0.00  0.00     0.162 A 
ATOM      4  C3  UNL d   1      -2.824  -2.433  -0.050  0.00  0.00    -0.034 A 
ATOM      5  C4  UNL d   1      -3.105  -1.476  -1.027  0.00  0.00     0.162 A 
ATOM      6  C5  UNL d   1      -3.309  -1.860  -2.348  0.00  0.00     0.062 A 
ATOM      7  F   UNL d   1      -3.579  -0.933  -3.279  0.00  0.00    -0.097 F 
ATOM      8  F1  UNL d   1      -3.185  -0.175  -0.708  0.00  0.00    -0.096 F 
ATOM      9  I   UNL d   1      -2.519  -1.862   1.928  0.00  0.00    -0.060 I 
ATOM     10  F2  UNL d   1      -2.479  -4.723   0.494  0.00  0.00    -0.096 F 
ATOM     11  F3  UNL d   1      -2.878  -5.450  -2.084  0.00  0.00    -0.097 F 
ATOM     12  F4  UNL d   1      -3.428  -3.566  -3.979  0.00  0.00    -0.092 F 
ENDROOT
TORSDOF 0
ENDMDL
