MODEL 1
REMARK minimizedAffinity 4.81751204
REMARK minimizedRMSD -1
REMARK  0 active torsions:
REMARK  status: ('A' for Active; 'I' for Inactive)
ROOT
ATOM      1  C   UNL d   1      -1.482   0.256   1.760  0.00  0.00     0.124 A 
ATOM      2  C1  UNL d   1      -1.733   1.619   1.685  0.00  0.00     0.062 A 
ATOM      3  C2  UNL d   1      -0.719   2.498   1.315  0.00  0.00     0.162 A 
ATOM      4  C3  UNL d   1       0.556   2.017   1.015  0.00  0.00    -0.034 A 
ATOM      5  C4  UNL d   1       0.800   0.644   1.094  0.00  0.00     0.162 A 
ATOM      6  C5  UNL d   1      -0.216  -0.230   1.464  0.00  0.00     0.062 A 
ATOM      7  F   UNL d   1       0.028  -1.547   1.536  0.00  0.00    -0.097 F 
ATOM      8  F1  UNL d   1       2.014   0.148   0.813  0.00  0.00    -0.096 F 
ATOM      9  I   UNL d   1       2.074   3.327   0.462  0.00  0.00    -0.060 I 
ATOM     10  F2  UNL d   1      -0.990   3.810   1.250  0.00  0.00    -0.096 F 
ATOM     11  F3  UNL d   1      -2.955   2.091   1.970  0.00  0.00    -0.097 F 
ATOM     12  F4  UNL d   1      -2.459  -0.587   2.117  0.00  0.00    -0.092 F 
ENDROOT
TORSDOF 0
ENDMDL
