MODEL 1
REMARK minimizedAffinity -5.12639141
REMARK minimizedRMSD -1
REMARK  2 active torsions:
REMARK  status: ('A' for Active; 'I' for Inactive)
REMARK    1  A    between atoms: C1_2  and  C2_3 
REMARK    2  A    between atoms: C2_3  and  C3_4 
ROOT
ATOM      1  C3  UNL d   1       0.049   0.466   0.015  0.00  0.00    -0.075 A 
ATOM      2  C4  UNL d   1      -1.184   1.073   0.296  0.00  0.00     0.002 A 
ATOM      3  C5  UNL d   1      -1.329   2.458   0.206  0.00  0.00     0.002 A 
ATOM      4  C6  UNL d   1      -0.243   3.253  -0.155  0.00  0.00    -0.004 A 
ATOM      5  C7  UNL d   1       0.991   2.662  -0.420  0.00  0.00     0.002 A 
ATOM      6  C8  UNL d   1       1.137   1.276  -0.335  0.00  0.00     0.002 A 
ENDROOT
BRANCH   1   7
ATOM      7  C2  UNL d   1       0.204  -1.034   0.082  0.00  0.00     0.056 C 
BRANCH   7   8
ATOM      8  C1  UNL d   1      -0.603  -1.793  -0.977  0.00  0.00     0.007 C 
ATOM      9  C   UNL d   1      -0.383  -3.299  -0.935  0.00  0.00     0.009 C 
ENDBRANCH   7   8
ENDBRANCH   1   7
TORSDOF 2
ENDMDL
