MODEL 1
REMARK minimizedAffinity -4.95900249
REMARK minimizedRMSD -1
REMARK  2 active torsions:
REMARK  status: ('A' for Active; 'I' for Inactive)
REMARK    1  A    between atoms: C1_2  and  C2_3 
REMARK    2  A    between atoms: C2_3  and  C3_4 
ROOT
ATOM      1  C3  UNL d   1       0.271  -0.039   0.177  0.00  0.00    -0.075 A 
ATOM      2  C4  UNL d   1      -0.793   0.860   0.341  0.00  0.00     0.002 A 
ATOM      3  C5  UNL d   1      -0.550   2.225   0.498  0.00  0.00     0.002 A 
ATOM      4  C6  UNL d   1       0.757   2.706   0.503  0.00  0.00    -0.004 A 
ATOM      5  C7  UNL d   1       1.823   1.821   0.358  0.00  0.00     0.002 A 
ATOM      6  C8  UNL d   1       1.582   0.455   0.196  0.00  0.00     0.002 A 
ENDROOT
BRANCH   1   7
ATOM      7  C2  UNL d   1       0.014  -1.513  -0.022  0.00  0.00     0.056 C 
BRANCH   7   8
ATOM      8  C1  UNL d   1      -0.058  -1.941  -1.492  0.00  0.00     0.007 C 
ATOM      9  C   UNL d   1      -0.805  -3.251  -1.700  0.00  0.00     0.009 C 
ENDBRANCH   7   8
ENDBRANCH   1   7
TORSDOF 2
ENDMDL
