MODEL 1
REMARK minimizedAffinity -4.50448418
REMARK minimizedRMSD -1
REMARK  2 active torsions:
REMARK  status: ('A' for Active; 'I' for Inactive)
REMARK    1  A    between atoms: C1_2  and  C2_3 
REMARK    2  A    between atoms: C2_3  and  C3_4 
ROOT
ATOM      1  C3  UNL d   1      -0.313   1.310   0.509  0.00  0.00    -0.075 A 
ATOM      2  C4  UNL d   1       0.882   0.590   0.649  0.00  0.00     0.002 A 
ATOM      3  C5  UNL d   1       0.881  -0.804   0.586  0.00  0.00     0.002 A 
ATOM      4  C6  UNL d   1      -0.313  -1.495   0.393  0.00  0.00    -0.004 A 
ATOM      5  C7  UNL d   1      -1.509  -0.790   0.269  0.00  0.00     0.002 A 
ATOM      6  C8  UNL d   1      -1.510   0.604   0.327  0.00  0.00     0.002 A 
ENDROOT
BRANCH   1   7
ATOM      7  C2  UNL d   1      -0.315   2.819   0.546  0.00  0.00     0.056 C 
BRANCH   7   8
ATOM      8  C1  UNL d   1       0.421   3.473  -0.628  0.00  0.00     0.007 C 
ATOM      9  C   UNL d   1       0.075   2.852  -1.974  0.00  0.00     0.009 C 
ENDBRANCH   7   8
ENDBRANCH   1   7
TORSDOF 2
ENDMDL
