MODEL 1
REMARK minimizedAffinity -3.34710479
REMARK minimizedRMSD -1
REMARK  2 active torsions:
REMARK  status: ('A' for Active; 'I' for Inactive)
REMARK    1  A    between atoms: C1_2  and  C2_3 
REMARK    2  A    between atoms: C2_3  and  C3_4 
ROOT
ATOM      1  C3  UNL d   1      -0.325  -0.002  -0.480  0.00  0.00    -0.075 A 
ATOM      2  C4  UNL d   1      -1.236   0.748   0.277  0.00  0.00     0.002 A 
ATOM      3  C5  UNL d   1      -1.043   2.117   0.464  0.00  0.00     0.002 A 
ATOM      4  C6  UNL d   1       0.066   2.750  -0.092  0.00  0.00    -0.004 A 
ATOM      5  C7  UNL d   1       0.987   2.011  -0.832  0.00  0.00     0.002 A 
ATOM      6  C8  UNL d   1       0.794   0.642  -1.025  0.00  0.00     0.002 A 
ENDROOT
BRANCH   1   7
ATOM      7  C2  UNL d   1      -0.544  -1.478  -0.712  0.00  0.00     0.056 C 
BRANCH   7   8
ATOM      8  C1  UNL d   1      -0.140  -1.957  -2.110  0.00  0.00     0.007 C 
ATOM      9  C   UNL d   1      -1.083  -3.008  -2.680  0.00  0.00     0.009 C 
ENDBRANCH   7   8
ENDBRANCH   1   7
TORSDOF 2
ENDMDL
