MODEL 1
REMARK minimizedAffinity -3.78570151
REMARK minimizedRMSD -1
REMARK  2 active torsions:
REMARK  status: ('A' for Active; 'I' for Inactive)
REMARK    1  A    between atoms: C1_2  and  C2_3 
REMARK    2  A    between atoms: C2_3  and  C3_4 
ROOT
ATOM      1  C3  UNL d   1      -0.770  -0.792  -0.734  0.00  0.00    -0.075 A 
ATOM      2  C4  UNL d   1       0.238  -1.741  -0.512  0.00  0.00     0.002 A 
ATOM      3  C5  UNL d   1       0.177  -2.995  -1.121  0.00  0.00     0.002 A 
ATOM      4  C6  UNL d   1      -0.896  -3.319  -1.949  0.00  0.00    -0.004 A 
ATOM      5  C7  UNL d   1      -1.911  -2.389  -2.163  0.00  0.00     0.002 A 
ATOM      6  C8  UNL d   1      -1.850  -1.132  -1.559  0.00  0.00     0.002 A 
ENDROOT
BRANCH   1   7
ATOM      7  C2  UNL d   1      -0.694   0.577  -0.101  0.00  0.00     0.056 C 
BRANCH   7   8
ATOM      8  C1  UNL d   1       0.603   1.335  -0.406  0.00  0.00     0.007 C 
ATOM      9  C   UNL d   1       0.424   2.847  -0.428  0.00  0.00     0.009 C 
ENDBRANCH   7   8
ENDBRANCH   1   7
TORSDOF 2
ENDMDL
