MODEL 1
REMARK minimizedAffinity -6.12188339
REMARK minimizedRMSD -1
REMARK  2 active torsions:
REMARK  status: ('A' for Active; 'I' for Inactive)
REMARK    1  A    between atoms: C1_2  and  C2_3 
REMARK    2  A    between atoms: C2_3  and  C3_4 
ROOT
ATOM      1  C3  UNL d   1       0.162   0.438  -0.153  0.00  0.00    -0.075 A 
ATOM      2  C4  UNL d   1       1.350   1.037  -0.598  0.00  0.00     0.002 A 
ATOM      3  C5  UNL d   1       1.480   2.426  -0.613  0.00  0.00     0.002 A 
ATOM      4  C6  UNL d   1       0.424   3.232  -0.195  0.00  0.00    -0.004 A 
ATOM      5  C7  UNL d   1      -0.767   2.648   0.233  0.00  0.00     0.002 A 
ATOM      6  C8  UNL d   1      -0.898   1.259   0.253  0.00  0.00     0.002 A 
ENDROOT
BRANCH   1   7
ATOM      7  C2  UNL d   1       0.025  -1.065  -0.107  0.00  0.00     0.056 C 
BRANCH   7   8
ATOM      8  C1  UNL d   1      -0.429  -1.692  -1.429  0.00  0.00     0.007 C 
ATOM      9  C   UNL d   1      -0.095  -3.173  -1.538  0.00  0.00     0.009 C 
ENDBRANCH   7   8
ENDBRANCH   1   7
TORSDOF 2
ENDMDL
