MODEL 1
REMARK minimizedAffinity -4.86249065
REMARK minimizedRMSD -1
REMARK  2 active torsions:
REMARK  status: ('A' for Active; 'I' for Inactive)
REMARK    1  A    between atoms: C1_2  and  C2_3 
REMARK    2  A    between atoms: C2_3  and  C3_4 
ROOT
ATOM      1  C3  UNL d   1      -0.196   0.188   0.020  0.00  0.00    -0.075 A 
ATOM      2  C4  UNL d   1      -1.447   0.755   0.302  0.00  0.00     0.002 A 
ATOM      3  C5  UNL d   1      -1.664   2.121   0.114  0.00  0.00     0.002 A 
ATOM      4  C6  UNL d   1      -0.633   2.936  -0.349  0.00  0.00    -0.004 A 
ATOM      5  C7  UNL d   1       0.619   2.385  -0.617  0.00  0.00     0.002 A 
ATOM      6  C8  UNL d   1       0.837   1.019  -0.434  0.00  0.00     0.002 A 
ENDROOT
BRANCH   1   7
ATOM      7  C2  UNL d   1       0.037  -1.294   0.194  0.00  0.00     0.056 C 
BRANCH   7   8
ATOM      8  C1  UNL d   1      -0.557  -2.155  -0.926  0.00  0.00     0.007 C 
ATOM      9  C   UNL d   1      -1.546  -3.197  -0.422  0.00  0.00     0.009 C 
ENDBRANCH   7   8
ENDBRANCH   1   7
TORSDOF 2
ENDMDL
