MODEL 1
REMARK minimizedAffinity -4.91100454
REMARK minimizedRMSD -1
REMARK  2 active torsions:
REMARK  status: ('A' for Active; 'I' for Inactive)
REMARK    1  A    between atoms: C1_2  and  C2_3 
REMARK    2  A    between atoms: C2_3  and  C3_4 
ROOT
ATOM      1  C3  UNL d   1       0.065   0.001  -0.053  0.00  0.00    -0.075 A 
ATOM      2  C4  UNL d   1      -1.312   0.263  -0.026  0.00  0.00     0.002 A 
ATOM      3  C5  UNL d   1      -1.784   1.538   0.291  0.00  0.00     0.002 A 
ATOM      4  C6  UNL d   1      -0.888   2.561   0.593  0.00  0.00    -0.004 A 
ATOM      5  C7  UNL d   1       0.482   2.307   0.585  0.00  0.00     0.002 A 
ATOM      6  C8  UNL d   1       0.957   1.034   0.265  0.00  0.00     0.002 A 
ENDROOT
BRANCH   1   7
ATOM      7  C2  UNL d   1       0.583  -1.368  -0.424  0.00  0.00     0.056 C 
BRANCH   7   8
ATOM      8  C1  UNL d   1      -0.517  -2.390  -0.730  0.00  0.00     0.007 C 
ATOM      9  C   UNL d   1      -0.134  -3.374  -1.827  0.00  0.00     0.009 C 
ENDBRANCH   7   8
ENDBRANCH   1   7
TORSDOF 2
ENDMDL
