MODEL 1
REMARK minimizedAffinity 7.01858807
REMARK minimizedRMSD -1
REMARK  2 active torsions:
REMARK  status: ('A' for Active; 'I' for Inactive)
REMARK    1  A    between atoms: C1_2  and  C2_3 
REMARK    2  A    between atoms: C2_3  and  C3_4 
ROOT
ATOM      1  C3  UNL d   1       0.026  -0.301   0.287  0.00  0.00    -0.075 A 
ATOM      2  C4  UNL d   1      -0.730  -0.008  -0.858  0.00  0.00     0.002 A 
ATOM      3  C5  UNL d   1      -1.969   0.623  -0.746  0.00  0.00     0.002 A 
ATOM      4  C6  UNL d   1      -2.473   0.960   0.508  0.00  0.00    -0.004 A 
ATOM      5  C7  UNL d   1      -1.738   0.659   1.653  0.00  0.00     0.002 A 
ATOM      6  C8  UNL d   1      -0.496   0.031   1.545  0.00  0.00     0.002 A 
ENDROOT
BRANCH   1   7
ATOM      7  C2  UNL d   1       1.381  -0.957   0.172  0.00  0.00     0.056 C 
BRANCH   7   8
ATOM      8  C1  UNL d   1       2.558   0.003   0.371  0.00  0.00     0.007 C 
ATOM      9  C   UNL d   1       3.764  -0.337  -0.495  0.00  0.00     0.009 C 
ENDBRANCH   7   8
ENDBRANCH   1   7
TORSDOF 2
ENDMDL
