MODEL 1
REMARK minimizedAffinity 16.7519836
REMARK minimizedRMSD -1
REMARK  0 active torsions:
REMARK  status: ('A' for Active; 'I' for Inactive)
ROOT
ATOM      1  C   UNL d   1      -5.126   1.630   6.000  0.00  0.00     0.023 A 
ATOM      2  C1  UNL d   1      -3.738   1.716   5.887  0.00  0.00     0.003 A 
ATOM      3  C2  UNL d   1      -3.023   0.696   5.256  0.00  0.00     0.048 A 
ATOM      4  C3  UNL d   1      -3.702  -0.407   4.740  0.00  0.00     0.023 A 
ATOM      5  C4  UNL d   1      -5.091  -0.498   4.851  0.00  0.00     0.048 A 
ATOM      6  C5  UNL d   1      -5.801   0.524   5.483  0.00  0.00     0.003 A 
ATOM      7  I   UNL d   1      -2.640  -1.927   3.801  0.00  0.00    -0.146 I 
ENDROOT
TORSDOF 0
ENDMDL
