MODEL 1
REMARK minimizedAffinity 2.05709291
REMARK minimizedRMSD -1
REMARK  0 active torsions:
REMARK  status: ('A' for Active; 'I' for Inactive)
ROOT
ATOM      1  C   UNL d   1      -1.127  -3.114   0.751  0.00  0.00     0.023 A 
ATOM      2  C1  UNL d   1      -0.622  -4.414   0.718  0.00  0.00     0.003 A 
ATOM      3  C2  UNL d   1      -0.744  -5.241   1.836  0.00  0.00     0.048 A 
ATOM      4  C3  UNL d   1      -1.373  -4.763   2.984  0.00  0.00     0.023 A 
ATOM      5  C4  UNL d   1      -1.881  -3.463   3.022  0.00  0.00     0.048 A 
ATOM      6  C5  UNL d   1      -1.756  -2.639   1.902  0.00  0.00     0.003 A 
ATOM      7  I   UNL d   1      -1.556  -5.992   4.650  0.00  0.00    -0.146 I 
ENDROOT
TORSDOF 0
ENDMDL
