MODEL 1
REMARK minimizedAffinity 10.6032877
REMARK minimizedRMSD -1
REMARK  0 active torsions:
REMARK  status: ('A' for Active; 'I' for Inactive)
ROOT
ATOM      1  C   UNL d   1      -1.772   2.766  -4.451  0.00  0.00     0.023 A 
ATOM      2  C1  UNL d   1      -0.418   2.450  -4.563  0.00  0.00     0.003 A 
ATOM      3  C2  UNL d   1       0.059   1.231  -4.074  0.00  0.00     0.048 A 
ATOM      4  C3  UNL d   1      -0.825   0.333  -3.477  0.00  0.00     0.023 A 
ATOM      5  C4  UNL d   1      -2.181   0.645  -3.364  0.00  0.00     0.048 A 
ATOM      6  C5  UNL d   1      -2.652   1.865  -3.853  0.00  0.00     0.003 A 
ATOM      7  I   UNL d   1      -0.119  -1.481  -2.750  0.00  0.00    -0.146 I 
ENDROOT
TORSDOF 0
ENDMDL
