MODEL 1
REMARK minimizedAffinity 16.2727203
REMARK minimizedRMSD -1
REMARK  0 active torsions:
REMARK  status: ('A' for Active; 'I' for Inactive)
ROOT
ATOM      1  C   UNL d   1      -0.255  -4.073  -0.191  0.00  0.00     0.023 A 
ATOM      2  C1  UNL d   1      -0.475  -2.744   0.174  0.00  0.00     0.003 A 
ATOM      3  C2  UNL d   1      -0.966  -1.833  -0.763  0.00  0.00     0.048 A 
ATOM      4  C3  UNL d   1      -1.237  -2.258  -2.064  0.00  0.00     0.023 A 
ATOM      5  C4  UNL d   1      -1.020  -3.586  -2.433  0.00  0.00     0.048 A 
ATOM      6  C5  UNL d   1      -0.528  -4.493  -1.493  0.00  0.00     0.003 A 
ATOM      7  I   UNL d   1      -1.969  -0.904  -3.460  0.00  0.00    -0.146 I 
ENDROOT
TORSDOF 0
ENDMDL
