MODEL 1
REMARK minimizedAffinity 17.246563
REMARK minimizedRMSD -1
REMARK  0 active torsions:
REMARK  status: ('A' for Active; 'I' for Inactive)
ROOT
ATOM      1  C   UNL d   1      -4.378   3.224  -5.260  0.00  0.00     0.023 A 
ATOM      2  C1  UNL d   1      -3.622   4.139  -4.526  0.00  0.00     0.003 A 
ATOM      3  C2  UNL d   1      -2.228   4.054  -4.525  0.00  0.00     0.048 A 
ATOM      4  C3  UNL d   1      -1.597   3.052  -5.262  0.00  0.00     0.023 A 
ATOM      5  C4  UNL d   1      -2.349   2.136  -5.999  0.00  0.00     0.048 A 
ATOM      6  C5  UNL d   1      -3.742   2.224  -5.995  0.00  0.00     0.003 A 
ATOM      7  I   UNL d   1       0.478   2.924  -5.264  0.00  0.00    -0.146 I 
ENDROOT
TORSDOF 0
ENDMDL
