MODEL 1
REMARK minimizedAffinity 13.1109514
REMARK minimizedRMSD -1
REMARK  0 active torsions:
REMARK  status: ('A' for Active; 'I' for Inactive)
ROOT
ATOM      1  C   UNL d   1      -2.148  -2.940   0.980  0.00  0.00     0.023 A 
ATOM      2  C1  UNL d   1      -2.690  -1.740   0.518  0.00  0.00     0.003 A 
ATOM      3  C2  UNL d   1      -2.033  -1.013  -0.476  0.00  0.00     0.048 A 
ATOM      4  C3  UNL d   1      -0.835  -1.490  -1.005  0.00  0.00     0.023 A 
ATOM      5  C4  UNL d   1      -0.289  -2.690  -0.547  0.00  0.00     0.048 A 
ATOM      6  C5  UNL d   1      -0.948  -3.414   0.448  0.00  0.00     0.003 A 
ATOM      7  I   UNL d   1       0.144  -0.409  -2.486  0.00  0.00    -0.146 I 
ENDROOT
TORSDOF 0
ENDMDL
