MODEL 1
REMARK minimizedAffinity 16.6777439
REMARK minimizedRMSD -1
REMARK  0 active torsions:
REMARK  status: ('A' for Active; 'I' for Inactive)
ROOT
ATOM      1  C   UNL d   1      -0.784  -3.650  -0.084  0.00  0.00     0.023 A 
ATOM      2  C1  UNL d   1      -1.406  -2.493   0.383  0.00  0.00     0.003 A 
ATOM      3  C2  UNL d   1      -1.907  -1.553  -0.521  0.00  0.00     0.048 A 
ATOM      4  C3  UNL d   1      -1.783  -1.779  -1.892  0.00  0.00     0.023 A 
ATOM      5  C4  UNL d   1      -1.162  -2.937  -2.364  0.00  0.00     0.048 A 
ATOM      6  C5  UNL d   1      -0.663  -3.872  -1.456  0.00  0.00     0.003 A 
ATOM      7  I   UNL d   1      -2.527  -0.383  -3.239  0.00  0.00    -0.146 I 
ENDROOT
TORSDOF 0
ENDMDL
