MODEL 1
REMARK minimizedAffinity 15.834734
REMARK minimizedRMSD -1
REMARK  0 active torsions:
REMARK  status: ('A' for Active; 'I' for Inactive)
ROOT
ATOM      1  C   UNL d   1       0.242  -5.490   1.223  0.00  0.00     0.023 A 
ATOM      2  C1  UNL d   1       0.341  -4.210   1.769  0.00  0.00     0.003 A 
ATOM      3  C2  UNL d   1      -0.114  -3.105   1.046  0.00  0.00     0.048 A 
ATOM      4  C3  UNL d   1      -0.667  -3.288  -0.221  0.00  0.00     0.023 A 
ATOM      5  C4  UNL d   1      -0.768  -4.567  -0.770  0.00  0.00     0.048 A 
ATOM      6  C5  UNL d   1      -0.311  -5.669  -0.045  0.00  0.00     0.003 A 
ATOM      7  I   UNL d   1      -1.344  -1.645  -1.299  0.00  0.00    -0.146 I 
ENDROOT
TORSDOF 0
ENDMDL
