MODEL 1
REMARK minimizedAffinity 18.2946186
REMARK minimizedRMSD -1
REMARK  0 active torsions:
REMARK  status: ('A' for Active; 'I' for Inactive)
ROOT
ATOM      1  C   UNL d   1      -5.730   5.814  -5.242  0.00  0.00     0.023 A 
ATOM      2  C1  UNL d   1      -4.646   5.880  -4.366  0.00  0.00     0.003 A 
ATOM      3  C2  UNL d   1      -3.776   4.794  -4.247  0.00  0.00     0.048 A 
ATOM      4  C3  UNL d   1      -3.996   3.646  -5.006  0.00  0.00     0.023 A 
ATOM      5  C4  UNL d   1      -5.079   3.575  -5.884  0.00  0.00     0.048 A 
ATOM      6  C5  UNL d   1      -5.946   4.663  -6.000  0.00  0.00     0.003 A 
ATOM      7  I   UNL d   1      -2.703   2.028  -4.830  0.00  0.00    -0.146 I 
ENDROOT
TORSDOF 0
ENDMDL
