MODEL 1
REMARK minimizedAffinity 8.61302471
REMARK minimizedRMSD -1
REMARK  0 active torsions:
REMARK  status: ('A' for Active; 'I' for Inactive)
ROOT
ATOM      1  C   UNL d   1      -5.295   4.534   1.762  0.00  0.00     0.023 A 
ATOM      2  C1  UNL d   1      -5.955   5.578   1.113  0.00  0.00     0.003 A 
ATOM      3  C2  UNL d   1      -5.527   6.000  -0.148  0.00  0.00     0.048 A 
ATOM      4  C3  UNL d   1      -4.439   5.373  -0.754  0.00  0.00     0.023 A 
ATOM      5  C4  UNL d   1      -3.776   4.327  -0.109  0.00  0.00     0.048 A 
ATOM      6  C5  UNL d   1      -4.207   3.909   1.152  0.00  0.00     0.003 A 
ATOM      7  I   UNL d   1      -3.800   5.999  -2.630  0.00  0.00    -0.146 I 
ENDROOT
TORSDOF 0
ENDMDL
