MODEL 1
REMARK minimizedAffinity 13.4981298
REMARK minimizedRMSD -1
REMARK  0 active torsions:
REMARK  status: ('A' for Active; 'I' for Inactive)
ROOT
ATOM      1  C   UNL d   1      -2.265  -0.488   4.509  0.00  0.00     0.023 A 
ATOM      2  C1  UNL d   1      -3.503  -0.592   3.874  0.00  0.00     0.003 A 
ATOM      3  C2  UNL d   1      -4.576   0.193   4.300  0.00  0.00     0.048 A 
ATOM      4  C3  UNL d   1      -4.404   1.082   5.361  0.00  0.00     0.023 A 
ATOM      5  C4  UNL d   1      -3.167   1.189   5.999  0.00  0.00     0.048 A 
ATOM      6  C5  UNL d   1      -2.098   0.401   5.571  0.00  0.00     0.003 A 
ATOM      7  I   UNL d   1      -5.999   2.252   5.997  0.00  0.00    -0.146 I 
ENDROOT
TORSDOF 0
ENDMDL
