MODEL 1
REMARK minimizedAffinity 15.2119761
REMARK minimizedRMSD -1
REMARK  0 active torsions:
REMARK  status: ('A' for Active; 'I' for Inactive)
ROOT
ATOM      1  C   UNL d   1      -1.121  -2.089   4.347  0.00  0.00     0.023 A 
ATOM      2  C1  UNL d   1      -0.749  -1.441   5.525  0.00  0.00     0.003 A 
ATOM      3  C2  UNL d   1      -1.503  -0.365   6.000  0.00  0.00     0.048 A 
ATOM      4  C3  UNL d   1      -2.628   0.056   5.292  0.00  0.00     0.023 A 
ATOM      5  C4  UNL d   1      -3.005  -0.591   4.114  0.00  0.00     0.048 A 
ATOM      6  C5  UNL d   1      -2.248  -1.665   3.643  0.00  0.00     0.003 A 
ATOM      7  I   UNL d   1      -3.752   1.656   5.997  0.00  0.00    -0.146 I 
ENDROOT
TORSDOF 0
ENDMDL
