MODEL 1
REMARK minimizedAffinity 19.8753929
REMARK minimizedRMSD -1
REMARK  0 active torsions:
REMARK  status: ('A' for Active; 'I' for Inactive)
ROOT
ATOM      1  C   UNL d   1      -1.831   3.390  -5.990  0.00  0.00     0.023 A 
ATOM      2  C1  UNL d   1      -0.840   2.893  -5.144  0.00  0.00     0.003 A 
ATOM      3  C2  UNL d   1      -1.116   1.814  -4.301  0.00  0.00     0.048 A 
ATOM      4  C3  UNL d   1      -2.385   1.237  -4.310  0.00  0.00     0.023 A 
ATOM      5  C4  UNL d   1      -3.380   1.730  -5.156  0.00  0.00     0.048 A 
ATOM      6  C5  UNL d   1      -3.099   2.809  -5.996  0.00  0.00     0.003 A 
ATOM      7  I   UNL d   1      -2.799  -0.369  -3.057  0.00  0.00    -0.146 I 
ENDROOT
TORSDOF 0
ENDMDL
