MODEL 1
REMARK minimizedAffinity 11.4589605
REMARK minimizedRMSD -1
REMARK  0 active torsions:
REMARK  status: ('A' for Active; 'I' for Inactive)
ROOT
ATOM      1  C   UNL d   1       5.625   2.266   5.429  0.00  0.00     0.023 A 
ATOM      2  C1  UNL d   1       4.498   3.073   5.269  0.00  0.00     0.003 A 
ATOM      3  C2  UNL d   1       3.744   2.997   4.096  0.00  0.00     0.048 A 
ATOM      4  C3  UNL d   1       4.122   2.110   3.088  0.00  0.00     0.023 A 
ATOM      5  C4  UNL d   1       5.248   1.300   3.244  0.00  0.00     0.048 A 
ATOM      6  C5  UNL d   1       5.999   1.381   4.418  0.00  0.00     0.003 A 
ATOM      7  I   UNL d   1       3.002   1.995   1.341  0.00  0.00    -0.146 I 
ENDROOT
TORSDOF 0
ENDMDL
