MODEL 1
REMARK minimizedAffinity 2.36486173
REMARK minimizedRMSD -1
REMARK  0 active torsions:
REMARK  status: ('A' for Active; 'I' for Inactive)
ROOT
ATOM      1  O1  BZF d   1       5.312   1.879  -6.000  0.00  0.00    -0.204 OA
ATOM      2  C2  BZF d   1       4.619   0.746  -5.620  0.00  0.00     0.174 A 
ATOM      3  C3  BZF d   1       3.410   1.071  -5.117  0.00  0.00    -0.012 A 
ATOM      4  C3A BZF d   1       3.307   2.489  -5.272  0.00  0.00    -0.107 A 
ATOM      5  C4  BZF d   1       2.331   3.398  -4.974  0.00  0.00     0.055 A 
ATOM      6  C5  BZF d   1       2.573   4.718  -5.184  0.00  0.00    -0.016 A 
ATOM      7  C6  BZF d   1       3.778   5.166  -5.684  0.00  0.00     0.022 A 
ATOM      8  C7  BZF d   1       4.774   4.302  -5.999  0.00  0.00     0.029 A 
ATOM      9  C7A BZF d   1       4.521   2.964  -5.819  0.00  0.00     0.058 A 
ENDROOT
TORSDOF 0
ENDMDL
