MODEL 1
REMARK minimizedAffinity 2.14337349
REMARK minimizedRMSD -1
REMARK  0 active torsions:
REMARK  status: ('A' for Active; 'I' for Inactive)
ROOT
ATOM      1  O1  BZF d   1       1.658   2.888  -4.712  0.00  0.00    -0.204 OA
ATOM      2  C2  BZF d   1       1.032   3.890  -5.429  0.00  0.00     0.174 A 
ATOM      3  C3  BZF d   1       1.940   4.708  -6.000  0.00  0.00    -0.012 A 
ATOM      4  C3A BZF d   1       3.212   4.131  -5.692  0.00  0.00    -0.107 A 
ATOM      5  C4  BZF d   1       4.498   4.477  -5.996  0.00  0.00     0.055 A 
ATOM      6  C5  BZF d   1       5.519   3.743  -5.481  0.00  0.00    -0.016 A 
ATOM      7  C6  BZF d   1       5.291   2.662  -4.655  0.00  0.00     0.022 A 
ATOM      8  C7  BZF d   1       4.033   2.277  -4.330  0.00  0.00     0.029 A 
ATOM      9  C7A BZF d   1       2.999   2.997  -4.875  0.00  0.00     0.058 A 
ENDROOT
TORSDOF 0
ENDMDL
