MODEL 1
REMARK minimizedAffinity -2.64124823
REMARK minimizedRMSD -1
REMARK  0 active torsions:
REMARK  status: ('A' for Active; 'I' for Inactive)
ROOT
ATOM      1  O1  BZF d   1       1.072   3.802  -5.954  0.00  0.00    -0.204 OA
ATOM      2  C2  BZF d   1       0.569   5.089  -5.948  0.00  0.00     0.174 A 
ATOM      3  C3  BZF d   1       1.568   5.994  -5.906  0.00  0.00    -0.012 A 
ATOM      4  C3A BZF d   1       2.773   5.227  -5.979  0.00  0.00    -0.107 A 
ATOM      5  C4  BZF d   1       4.098   5.559  -5.997  0.00  0.00     0.055 A 
ATOM      6  C5  BZF d   1       5.027   4.568  -6.000  0.00  0.00    -0.016 A 
ATOM      7  C6  BZF d   1       4.669   3.236  -5.980  0.00  0.00     0.022 A 
ATOM      8  C7  BZF d   1       3.367   2.857  -5.968  0.00  0.00     0.029 A 
ATOM      9  C7A BZF d   1       2.425   3.856  -5.998  0.00  0.00     0.058 A 
ENDROOT
TORSDOF 0
ENDMDL
