MODEL 1
REMARK minimizedAffinity -2.15404105
REMARK minimizedRMSD -1
REMARK  0 active torsions:
REMARK  status: ('A' for Active; 'I' for Inactive)
ROOT
ATOM      1  O1  BZF d   1       2.969   6.000  -5.960  0.00  0.00    -0.204 OA
ATOM      2  C2  BZF d   1       1.730   5.407  -5.810  0.00  0.00     0.174 A 
ATOM      3  C3  BZF d   1       1.851   4.068  -5.698  0.00  0.00    -0.012 A 
ATOM      4  C3A BZF d   1       3.259   3.817  -5.690  0.00  0.00    -0.107 A 
ATOM      5  C4  BZF d   1       4.009   2.680  -5.586  0.00  0.00     0.055 A 
ATOM      6  C5  BZF d   1       5.361   2.770  -5.686  0.00  0.00    -0.016 A 
ATOM      7  C6  BZF d   1       5.995   3.977  -5.895  0.00  0.00     0.022 A 
ATOM      8  C7  BZF d   1       5.294   5.132  -6.000  0.00  0.00     0.029 A 
ATOM      9  C7A BZF d   1       3.930   5.049  -5.866  0.00  0.00     0.058 A 
ENDROOT
TORSDOF 0
ENDMDL
