MODEL 1
REMARK minimizedAffinity -2.84864235
REMARK minimizedRMSD -1
REMARK  0 active torsions:
REMARK  status: ('A' for Active; 'I' for Inactive)
ROOT
ATOM      1  O1  BZF d   1       1.883   5.383  -6.000  0.00  0.00    -0.204 OA
ATOM      2  C2  BZF d   1       0.747   4.644  -5.735  0.00  0.00     0.174 A 
ATOM      3  C3  BZF d   1       1.066   3.375  -5.410  0.00  0.00    -0.012 A 
ATOM      4  C3A BZF d   1       2.496   3.341  -5.386  0.00  0.00    -0.107 A 
ATOM      5  C4  BZF d   1       3.408   2.362  -5.112  0.00  0.00     0.055 A 
ATOM      6  C5  BZF d   1       4.732   2.636  -5.249  0.00  0.00    -0.016 A 
ATOM      7  C6  BZF d   1       5.179   3.874  -5.661  0.00  0.00     0.022 A 
ATOM      8  C7  BZF d   1       4.313   4.878  -5.939  0.00  0.00     0.029 A 
ATOM      9  C7A BZF d   1       2.975   4.615  -5.770  0.00  0.00     0.058 A 
ENDROOT
TORSDOF 0
ENDMDL
