MODEL 1
REMARK minimizedAffinity -4.97847271
REMARK minimizedRMSD -1
REMARK  0 active torsions:
REMARK  status: ('A' for Active; 'I' for Inactive)
ROOT
ATOM      1  O1  BZF d   1       1.822   5.995  -5.997  0.00  0.00    -0.204 OA
ATOM      2  C2  BZF d   1       0.621   5.523  -5.503  0.00  0.00     0.174 A 
ATOM      3  C3  BZF d   1       0.781   4.309  -4.937  0.00  0.00    -0.012 A 
ATOM      4  C3A BZF d   1       2.185   4.044  -5.006  0.00  0.00    -0.107 A 
ATOM      5  C4  BZF d   1       2.965   3.001  -4.594  0.00  0.00     0.055 A 
ATOM      6  C5  BZF d   1       4.294   3.018  -4.877  0.00  0.00    -0.016 A 
ATOM      7  C6  BZF d   1       4.875   4.057  -5.575  0.00  0.00     0.022 A 
ATOM      8  C7  BZF d   1       4.143   5.115  -6.000  0.00  0.00     0.029 A 
ATOM      9  C7A BZF d   1       2.806   5.117  -5.686  0.00  0.00     0.058 A 
ENDROOT
TORSDOF 0
ENDMDL
