MODEL 1
REMARK minimizedAffinity -2.81884956
REMARK minimizedRMSD -1
REMARK  0 active torsions:
REMARK  status: ('A' for Active; 'I' for Inactive)
ROOT
ATOM      1  O1  BZF d   1       2.104   6.000  -6.000  0.00  0.00    -0.204 OA
ATOM      2  C2  BZF d   1       0.903   5.345  -5.811  0.00  0.00     0.174 A 
ATOM      3  C3  BZF d   1       1.101   4.025  -5.623  0.00  0.00    -0.012 A 
ATOM      4  C3A BZF d   1       2.522   3.857  -5.607  0.00  0.00    -0.107 A 
ATOM      5  C4  BZF d   1       3.338   2.774  -5.441  0.00  0.00     0.055 A 
ATOM      6  C5  BZF d   1       4.682   2.937  -5.552  0.00  0.00    -0.016 A 
ATOM      7  C6  BZF d   1       5.244   4.165  -5.832  0.00  0.00     0.022 A 
ATOM      8  C7  BZF d   1       4.476   5.269  -6.000  0.00  0.00     0.029 A 
ATOM      9  C7A BZF d   1       3.119   5.114  -5.856  0.00  0.00     0.058 A 
ENDROOT
TORSDOF 0
ENDMDL
