MODEL 1
REMARK minimizedAffinity 0.349656671
REMARK minimizedRMSD -1
REMARK  0 active torsions:
REMARK  status: ('A' for Active; 'I' for Inactive)
ROOT
ATOM      1  O1  BZF d   1       1.603   5.297  -5.983  0.00  0.00    -0.204 OA
ATOM      2  C2  BZF d   1       0.603   4.344  -5.966  0.00  0.00     0.174 A 
ATOM      3  C3  BZF d   1       1.126   3.101  -5.999  0.00  0.00    -0.012 A 
ATOM      4  C3A BZF d   1       2.544   3.288  -5.946  0.00  0.00    -0.107 A 
ATOM      5  C4  BZF d   1       3.604   2.428  -5.932  0.00  0.00     0.055 A 
ATOM      6  C5  BZF d   1       4.865   2.934  -5.951  0.00  0.00    -0.016 A 
ATOM      7  C6  BZF d   1       5.102   4.293  -5.990  0.00  0.00     0.022 A 
ATOM      8  C7  BZF d   1       4.082   5.185  -6.000  0.00  0.00     0.029 A 
ATOM      9  C7A BZF d   1       2.807   4.678  -5.947  0.00  0.00     0.058 A 
ENDROOT
TORSDOF 0
ENDMDL
