MODEL 1
REMARK minimizedAffinity -1.39323652
REMARK minimizedRMSD -1
REMARK  0 active torsions:
REMARK  status: ('A' for Active; 'I' for Inactive)
ROOT
ATOM      1  O1  BZF d   1       4.850   4.889  -4.819  0.00  0.00    -0.204 OA
ATOM      2  C2  BZF d   1       5.431   3.806  -5.450  0.00  0.00     0.174 A 
ATOM      3  C3  BZF d   1       4.489   2.988  -5.962  0.00  0.00    -0.012 A 
ATOM      4  C3A BZF d   1       3.243   3.646  -5.711  0.00  0.00    -0.107 A 
ATOM      5  C4  BZF d   1       1.944   3.338  -5.997  0.00  0.00     0.055 A 
ATOM      6  C5  BZF d   1       0.957   4.157  -5.549  0.00  0.00    -0.016 A 
ATOM      7  C6  BZF d   1       1.232   5.288  -4.809  0.00  0.00     0.022 A 
ATOM      8  C7  BZF d   1       2.505   5.638  -4.504  0.00  0.00     0.029 A 
ATOM      9  C7A BZF d   1       3.507   4.830  -4.984  0.00  0.00     0.058 A 
ENDROOT
TORSDOF 0
ENDMDL
