MODEL 1
REMARK minimizedAffinity -3.16735554
REMARK minimizedRMSD -1
REMARK  0 active torsions:
REMARK  status: ('A' for Active; 'I' for Inactive)
ROOT
ATOM      1  O1  BZF d   1       2.336   5.999  -5.999  0.00  0.00    -0.204 OA
ATOM      2  C2  BZF d   1       1.073   5.585  -5.624  0.00  0.00     0.174 A 
ATOM      3  C3  BZF d   1       1.095   4.303  -5.206  0.00  0.00    -0.012 A 
ATOM      4  C3A BZF d   1       2.473   3.919  -5.240  0.00  0.00    -0.107 A 
ATOM      5  C4  BZF d   1       3.135   2.768  -4.924  0.00  0.00     0.055 A 
ATOM      6  C5  BZF d   1       4.475   2.696  -5.140  0.00  0.00    -0.016 A 
ATOM      7  C6  BZF d   1       5.182   3.752  -5.675  0.00  0.00     0.022 A 
ATOM      8  C7  BZF d   1       4.569   4.917  -6.000  0.00  0.00     0.029 A 
ATOM      9  C7A BZF d   1       3.221   5.004  -5.752  0.00  0.00     0.058 A 
ENDROOT
TORSDOF 0
ENDMDL
