MODEL 1
REMARK minimizedAffinity -3.68106365
REMARK minimizedRMSD -1
REMARK  0 active torsions:
REMARK  status: ('A' for Active; 'I' for Inactive)
ROOT
ATOM      1  O1  BZF d   1       2.085   5.633  -5.977  0.00  0.00    -0.204 OA
ATOM      2  C2  BZF d   1       0.888   5.037  -5.629  0.00  0.00     0.174 A 
ATOM      3  C3  BZF d   1       1.082   3.754  -5.261  0.00  0.00    -0.012 A 
ATOM      4  C3A BZF d   1       2.499   3.562  -5.298  0.00  0.00    -0.107 A 
ATOM      5  C4  BZF d   1       3.310   2.499  -5.020  0.00  0.00     0.055 A 
ATOM      6  C5  BZF d   1       4.648   2.617  -5.227  0.00  0.00    -0.016 A 
ATOM      7  C6  BZF d   1       5.208   3.780  -5.714  0.00  0.00     0.022 A 
ATOM      8  C7  BZF d   1       4.444   4.863  -6.000  0.00  0.00     0.029 A 
ATOM      9  C7A BZF d   1       3.096   4.758  -5.760  0.00  0.00     0.058 A 
ENDROOT
TORSDOF 0
ENDMDL
