MODEL 1
REMARK minimizedAffinity -3.77922368
REMARK minimizedRMSD -1
REMARK  0 active torsions:
REMARK  status: ('A' for Active; 'I' for Inactive)
ROOT
ATOM      1  O1  BZF d   1       2.421   5.258  -4.736  0.00  0.00    -0.204 OA
ATOM      2  C2  BZF d   1       1.314   4.720  -5.364  0.00  0.00     0.174 A 
ATOM      3  C3  BZF d   1       1.633   3.575  -6.000  0.00  0.00    -0.012 A 
ATOM      4  C3A BZF d   1       3.006   3.336  -5.678  0.00  0.00    -0.107 A 
ATOM      5  C4  BZF d   1       3.887   2.343  -6.000  0.00  0.00     0.055 A 
ATOM      6  C5  BZF d   1       5.177   2.444  -5.584  0.00  0.00    -0.016 A 
ATOM      7  C6  BZF d   1       5.621   3.525  -4.850  0.00  0.00     0.022 A 
ATOM      8  C7  BZF d   1       4.783   4.531  -4.501  0.00  0.00     0.029 A 
ATOM      9  C7A BZF d   1       3.471   4.416  -4.892  0.00  0.00     0.058 A 
ENDROOT
TORSDOF 0
ENDMDL
