MODEL 1
REMARK minimizedAffinity -2.20459318
REMARK minimizedRMSD -1
REMARK  0 active torsions:
REMARK  status: ('A' for Active; 'I' for Inactive)
ROOT
ATOM      1  O1  BZF d   1       3.095   5.654  -5.959  0.00  0.00    -0.204 OA
ATOM      2  C2  BZF d   1       1.788   5.209  -5.948  0.00  0.00     0.174 A 
ATOM      3  C3  BZF d   1       1.740   3.862  -6.000  0.00  0.00    -0.012 A 
ATOM      4  C3A BZF d   1       3.105   3.435  -5.953  0.00  0.00    -0.107 A 
ATOM      5  C4  BZF d   1       3.706   2.209  -5.956  0.00  0.00     0.055 A 
ATOM      6  C5  BZF d   1       5.063   2.138  -5.976  0.00  0.00    -0.016 A 
ATOM      7  C6  BZF d   1       5.849   3.272  -5.999  0.00  0.00     0.022 A 
ATOM      8  C7  BZF d   1       5.298   4.511  -5.992  0.00  0.00     0.029 A 
ATOM      9  C7A BZF d   1       3.928   4.585  -5.938  0.00  0.00     0.058 A 
ENDROOT
TORSDOF 0
ENDMDL
