MODEL 1
REMARK minimizedAffinity 10.9564066
REMARK minimizedRMSD -1
REMARK  0 active torsions:
REMARK  status: ('A' for Active; 'I' for Inactive)
ROOT
ATOM      1  O1  BZF d   1       0.914  -4.043  -5.892  0.00  0.00    -0.204 OA
ATOM      2  C2  BZF d   1       0.606  -5.386  -5.994  0.00  0.00     0.174 A 
ATOM      3  C3  BZF d   1      -0.730  -5.571  -6.000  0.00  0.00    -0.012 A 
ATOM      4  C3A BZF d   1      -1.292  -4.255  -5.987  0.00  0.00    -0.107 A 
ATOM      5  C4  BZF d   1      -2.573  -3.781  -6.000  0.00  0.00     0.055 A 
ATOM      6  C5  BZF d   1      -2.783  -2.442  -5.906  0.00  0.00    -0.016 A 
ATOM      7  C6  BZF d   1      -1.737  -1.549  -5.793  0.00  0.00     0.022 A 
ATOM      8  C7  BZF d   1      -0.449  -1.972  -5.781  0.00  0.00     0.029 A 
ATOM      9  C7A BZF d   1      -0.233  -3.322  -5.909  0.00  0.00     0.058 A 
ENDROOT
TORSDOF 0
ENDMDL
