MODEL 1
REMARK minimizedAffinity -3.49092722
REMARK minimizedRMSD -1
REMARK  0 active torsions:
REMARK  status: ('A' for Active; 'I' for Inactive)
ROOT
ATOM      1  O1  BZF d   1       3.506   2.151  -6.000  0.00  0.00    -0.204 OA
ATOM      2  C2  BZF d   1       4.872   2.292  -5.849  0.00  0.00     0.174 A 
ATOM      3  C3  BZF d   1       5.207   3.590  -5.708  0.00  0.00    -0.012 A 
ATOM      4  C3A BZF d   1       3.964   4.299  -5.681  0.00  0.00    -0.107 A 
ATOM      5  C4  BZF d   1       3.638   5.618  -5.546  0.00  0.00     0.055 A 
ATOM      6  C5  BZF d   1       2.334   5.988  -5.636  0.00  0.00    -0.016 A 
ATOM      7  C6  BZF d   1       1.332   5.068  -5.864  0.00  0.00     0.022 A 
ATOM      8  C7  BZF d   1       1.606   3.748  -6.000  0.00  0.00     0.029 A 
ATOM      9  C7A BZF d   1       2.919   3.366  -5.877  0.00  0.00     0.058 A 
ENDROOT
TORSDOF 0
ENDMDL
