MODEL 1
REMARK minimizedAffinity 0.978894889
REMARK minimizedRMSD -1
REMARK  0 active torsions:
REMARK  status: ('A' for Active; 'I' for Inactive)
ROOT
ATOM      1  O1  BZF d   1       3.410   3.247   0.897  0.00  0.00    -0.204 OA
ATOM      2  C2  BZF d   1       4.545   4.033   0.860  0.00  0.00     0.174 A 
ATOM      3  C3  BZF d   1       5.630   3.325   1.231  0.00  0.00    -0.012 A 
ATOM      4  C3A BZF d   1       5.158   1.989   1.429  0.00  0.00    -0.107 A 
ATOM      5  C4  BZF d   1       5.768   0.821   1.791  0.00  0.00     0.055 A 
ATOM      6  C5  BZF d   1       5.009  -0.293   1.967  0.00  0.00    -0.016 A 
ATOM      7  C6  BZF d   1       3.641  -0.274   1.795  0.00  0.00     0.022 A 
ATOM      8  C7  BZF d   1       2.992   0.859   1.432  0.00  0.00     0.029 A 
ATOM      9  C7A BZF d   1       3.759   1.979   1.221  0.00  0.00     0.058 A 
ENDROOT
TORSDOF 0
ENDMDL
