MODEL 1
REMARK minimizedAffinity -2.32709742
REMARK minimizedRMSD -1
REMARK  0 active torsions:
REMARK  status: ('A' for Active; 'I' for Inactive)
ROOT
ATOM      1  O1  BZF d   1       5.908   4.077  -5.923  0.00  0.00    -0.204 OA
ATOM      2  C2  BZF d   1       5.978   5.457  -5.919  0.00  0.00     0.174 A 
ATOM      3  C3  BZF d   1       4.744   5.998  -5.988  0.00  0.00    -0.012 A 
ATOM      4  C3A BZF d   1       3.843   4.888  -5.945  0.00  0.00    -0.107 A 
ATOM      5  C4  BZF d   1       2.482   4.783  -5.963  0.00  0.00     0.055 A 
ATOM      6  C5  BZF d   1       1.915   3.548  -5.983  0.00  0.00    -0.016 A 
ATOM      7  C6  BZF d   1       2.678   2.399  -5.990  0.00  0.00     0.022 A 
ATOM      8  C7  BZF d   1       4.032   2.453  -5.968  0.00  0.00     0.029 A 
ATOM      9  C7A BZF d   1       4.607   3.699  -5.915  0.00  0.00     0.058 A 
ENDROOT
TORSDOF 0
ENDMDL
