MODEL 1
REMARK minimizedAffinity 7.09436321
REMARK minimizedRMSD -1
REMARK  0 active torsions:
REMARK  status: ('A' for Active; 'I' for Inactive)
ROOT
ATOM      1  C2' OXE d   1       3.386  -3.694   2.429  0.00  0.00     0.078 C 
ATOM      2  C1' OXE d   1       4.874  -6.000   3.020  0.00  0.00     0.078 C 
ATOM      3  C1  OXE d   1       4.960  -4.842   3.982  0.00  0.00    -0.078 A 
ATOM      4  C2  OXE d   1       4.266  -3.700   3.661  0.00  0.00    -0.078 A 
ATOM      5  C3  OXE d   1       4.267  -2.622   4.541  0.00  0.00     0.003 A 
ATOM      6  C4  OXE d   1       5.092  -2.632   5.673  0.00  0.00    -0.002 A 
ATOM      7  C5  OXE d   1       5.838  -3.770   5.998  0.00  0.00    -0.002 A 
ATOM      8  C6  OXE d   1       5.750  -4.896   5.187  0.00  0.00     0.003 A 
ENDROOT
TORSDOF 0
ENDMDL
