MODEL 1
REMARK minimizedAffinity 3.85475087
REMARK minimizedRMSD -1
REMARK  0 active torsions:
REMARK  status: ('A' for Active; 'I' for Inactive)
ROOT
ATOM      1  C2' OXE d   1       0.982  -3.814   0.771  0.00  0.00     0.078 C 
ATOM      2  C1' OXE d   1      -1.264  -3.448   2.414  0.00  0.00     0.078 C 
ATOM      3  C1  OXE d   1      -0.191  -2.389   2.444  0.00  0.00    -0.078 A 
ATOM      4  C2  OXE d   1       0.927  -2.599   1.672  0.00  0.00    -0.078 A 
ATOM      5  C3  OXE d   1       1.922  -1.628   1.621  0.00  0.00     0.003 A 
ATOM      6  C4  OXE d   1       1.868  -0.512   2.465  0.00  0.00    -0.002 A 
ATOM      7  C5  OXE d   1       0.757  -0.299   3.289  0.00  0.00    -0.002 A 
ATOM      8  C6  OXE d   1      -0.298  -1.204   3.258  0.00  0.00     0.003 A 
ENDROOT
TORSDOF 0
ENDMDL
