MODEL 1
REMARK minimizedAffinity 9.34949875
REMARK minimizedRMSD -1
REMARK  0 active torsions:
REMARK  status: ('A' for Active; 'I' for Inactive)
ROOT
ATOM      1  C2' OXE d   1       0.442   0.112  -2.891  0.00  0.00     0.078 C 
ATOM      2  C1' OXE d   1      -1.656  -1.263  -1.631  0.00  0.00     0.078 C 
ATOM      3  C1  OXE d   1      -0.287  -1.340  -1.003  0.00  0.00    -0.078 A 
ATOM      4  C2  OXE d   1       0.743  -0.703  -1.652  0.00  0.00    -0.078 A 
ATOM      5  C3  OXE d   1       2.015  -0.697  -1.087  0.00  0.00     0.003 A 
ATOM      6  C4  OXE d   1       2.287  -1.461   0.054  0.00  0.00    -0.002 A 
ATOM      7  C5  OXE d   1       1.261  -2.150   0.709  0.00  0.00    -0.002 A 
ATOM      8  C6  OXE d   1      -0.037  -2.065   0.219  0.00  0.00     0.003 A 
ENDROOT
TORSDOF 0
ENDMDL
