MODEL 1
REMARK minimizedAffinity 4.04736948
REMARK minimizedRMSD -1
REMARK  0 active torsions:
REMARK  status: ('A' for Active; 'I' for Inactive)
ROOT
ATOM      1  C2' OXE d   1      -4.728   5.125  -4.043  0.00  0.00     0.078 C 
ATOM      2  C1' OXE d   1      -2.481   6.000  -5.479  0.00  0.00     0.078 C 
ATOM      3  C1  OXE d   1      -2.388   4.673  -4.769  0.00  0.00    -0.078 A 
ATOM      4  C2  OXE d   1      -3.476   4.274  -4.030  0.00  0.00    -0.078 A 
ATOM      5  C3  OXE d   1      -3.464   3.033  -3.399  0.00  0.00     0.003 A 
ATOM      6  C4  OXE d   1      -2.299   2.258  -3.384  0.00  0.00    -0.002 A 
ATOM      7  C5  OXE d   1      -1.166   2.664  -4.097  0.00  0.00    -0.002 A 
ATOM      8  C6  OXE d   1      -1.209   3.846  -4.828  0.00  0.00     0.003 A 
ENDROOT
TORSDOF 0
ENDMDL
