MODEL 1
REMARK minimizedAffinity 5.22081661
REMARK minimizedRMSD -1
REMARK  0 active torsions:
REMARK  status: ('A' for Active; 'I' for Inactive)
ROOT
ATOM      1  C2' OXE d   1      -4.875   1.373  -5.938  0.00  0.00     0.078 C 
ATOM      2  C1' OXE d   1      -5.622   3.864  -4.879  0.00  0.00     0.078 C 
ATOM      3  C1  OXE d   1      -4.291   3.291  -4.459  0.00  0.00    -0.078 A 
ATOM      4  C2  OXE d   1      -3.955   2.050  -4.945  0.00  0.00    -0.078 A 
ATOM      5  C3  OXE d   1      -2.715   1.500  -4.632  0.00  0.00     0.003 A 
ATOM      6  C4  OXE d   1      -1.875   2.128  -3.705  0.00  0.00    -0.002 A 
ATOM      7  C5  OXE d   1      -2.216   3.374  -3.167  0.00  0.00    -0.002 A 
ATOM      8  C6  OXE d   1      -3.399   3.987  -3.566  0.00  0.00     0.003 A 
ENDROOT
TORSDOF 0
ENDMDL
