MODEL 1
REMARK minimizedAffinity 12.8150482
REMARK minimizedRMSD -1
REMARK  0 active torsions:
REMARK  status: ('A' for Active; 'I' for Inactive)
ROOT
ATOM      1  C2' OXE d   1      -2.172  -1.978   1.434  0.00  0.00     0.078 C 
ATOM      2  C1' OXE d   1      -1.723   0.082   3.287  0.00  0.00     0.078 C 
ATOM      3  C1  OXE d   1      -0.519  -0.584   2.670  0.00  0.00    -0.078 A 
ATOM      4  C2  OXE d   1      -0.747  -1.622   1.800  0.00  0.00    -0.078 A 
ATOM      5  C3  OXE d   1       0.327  -2.235   1.161  0.00  0.00     0.003 A 
ATOM      6  C4  OXE d   1       1.642  -1.906   1.512  0.00  0.00    -0.002 A 
ATOM      7  C5  OXE d   1       1.897  -0.878   2.426  0.00  0.00    -0.002 A 
ATOM      8  C6  OXE d   1       0.830  -0.180   2.981  0.00  0.00     0.003 A 
ENDROOT
TORSDOF 0
ENDMDL
