MODEL 1
REMARK minimizedAffinity 8.2875576
REMARK minimizedRMSD -1
REMARK  0 active torsions:
REMARK  status: ('A' for Active; 'I' for Inactive)
ROOT
ATOM      1  C2' OXE d   1      -0.842  -0.492   3.083  0.00  0.00     0.078 C 
ATOM      2  C1' OXE d   1       1.913  -0.087   3.440  0.00  0.00     0.078 C 
ATOM      3  C1  OXE d   1       1.472  -0.930   2.271  0.00  0.00    -0.078 A 
ATOM      4  C2  OXE d   1       0.125  -1.162   2.130  0.00  0.00    -0.078 A 
ATOM      5  C3  OXE d   1      -0.340  -1.888   1.037  0.00  0.00     0.003 A 
ATOM      6  C4  OXE d   1       0.562  -2.513   0.167  0.00  0.00    -0.002 A 
ATOM      7  C5  OXE d   1       1.940  -2.323   0.315  0.00  0.00    -0.002 A 
ATOM      8  C6  OXE d   1       2.408  -1.501   1.334  0.00  0.00     0.003 A 
ENDROOT
TORSDOF 0
ENDMDL
