MODEL 1
REMARK minimizedAffinity 10.8477974
REMARK minimizedRMSD -1
REMARK  0 active torsions:
REMARK  status: ('A' for Active; 'I' for Inactive)
ROOT
ATOM      1  C2' OXE d   1       0.441  -4.813   0.680  0.00  0.00     0.078 C 
ATOM      2  C1' OXE d   1      -1.736  -4.000   2.255  0.00  0.00     0.078 C 
ATOM      3  C1  OXE d   1      -0.606  -3.021   2.058  0.00  0.00    -0.078 A 
ATOM      4  C2  OXE d   1       0.476  -3.444   1.325  0.00  0.00    -0.078 A 
ATOM      5  C3  OXE d   1       1.521  -2.561   1.066  0.00  0.00     0.003 A 
ATOM      6  C4  OXE d   1       1.551  -1.300   1.674  0.00  0.00    -0.002 A 
ATOM      7  C5  OXE d   1       0.477  -0.864   2.458  0.00  0.00    -0.002 A 
ATOM      8  C6  OXE d   1      -0.626  -1.694   2.624  0.00  0.00     0.003 A 
ENDROOT
TORSDOF 0
ENDMDL
