MODEL 1
REMARK minimizedAffinity 8.37297058
REMARK minimizedRMSD -1
REMARK  0 active torsions:
REMARK  status: ('A' for Active; 'I' for Inactive)
ROOT
ATOM      1  C2' OXE d   1       1.895  -3.409  -0.022  0.00  0.00     0.078 C 
ATOM      2  C1' OXE d   1      -0.191  -1.616   0.539  0.00  0.00     0.078 C 
ATOM      3  C1  OXE d   1       1.063  -1.520   1.373  0.00  0.00    -0.078 A 
ATOM      4  C2  OXE d   1       2.060  -2.432   1.122  0.00  0.00    -0.078 A 
ATOM      5  C3  OXE d   1       3.259  -2.353   1.825  0.00  0.00     0.003 A 
ATOM      6  C4  OXE d   1       3.399  -1.454   2.888  0.00  0.00    -0.002 A 
ATOM      7  C5  OXE d   1       2.380  -0.542   3.186  0.00  0.00    -0.002 A 
ATOM      8  C6  OXE d   1       1.225  -0.534   2.412  0.00  0.00     0.003 A 
ENDROOT
TORSDOF 0
ENDMDL
