MODEL 1
REMARK minimizedAffinity 3.67622209
REMARK minimizedRMSD -1
REMARK  0 active torsions:
REMARK  status: ('A' for Active; 'I' for Inactive)
ROOT
ATOM      1  O1  BZF d   1      -0.528  -2.054   1.420  0.00  0.00    -0.204 OA
ATOM      2  C2  BZF d   1       0.666  -2.528   1.928  0.00  0.00     0.174 A 
ATOM      3  C3  BZF d   1       1.543  -2.779   0.934  0.00  0.00    -0.012 A 
ATOM      4  C3A BZF d   1       0.886  -2.353  -0.264  0.00  0.00    -0.107 A 
ATOM      5  C4  BZF d   1       1.253  -2.332  -1.579  0.00  0.00     0.055 A 
ATOM      6  C5  BZF d   1       0.352  -1.922  -2.510  0.00  0.00    -0.016 A 
ATOM      7  C6  BZF d   1      -0.925  -1.533  -2.162  0.00  0.00     0.022 A 
ATOM      8  C7  BZF d   1      -1.334  -1.532  -0.869  0.00  0.00     0.029 A 
ATOM      9  C7A BZF d   1      -0.414  -1.914   0.077  0.00  0.00     0.058 A 
ENDROOT
TORSDOF 0
ENDMDL
