MODEL 1
REMARK minimizedAffinity -1.44382989
REMARK minimizedRMSD -1
REMARK  0 active torsions:
REMARK  status: ('A' for Active; 'I' for Inactive)
ROOT
ATOM      1  O1  BZF d   1      -0.217  -2.380   1.713  0.00  0.00    -0.204 OA
ATOM      2  C2  BZF d   1       1.103  -2.587   2.065  0.00  0.00     0.174 A 
ATOM      3  C3  BZF d   1       1.865  -2.784   0.971  0.00  0.00    -0.012 A 
ATOM      4  C3A BZF d   1       0.982  -2.603  -0.140  0.00  0.00    -0.107 A 
ATOM      5  C4  BZF d   1       1.153  -2.655  -1.494  0.00  0.00     0.055 A 
ATOM      6  C5  BZF d   1       0.072  -2.504  -2.303  0.00  0.00    -0.016 A 
ATOM      7  C6  BZF d   1      -1.195  -2.307  -1.793  0.00  0.00     0.022 A 
ATOM      8  C7  BZF d   1      -1.414  -2.243  -0.457  0.00  0.00     0.029 A 
ATOM      9  C7A BZF d   1      -0.318  -2.362   0.362  0.00  0.00     0.058 A 
ENDROOT
TORSDOF 0
ENDMDL
