MODEL 1
REMARK minimizedAffinity 1.80614853
REMARK minimizedRMSD -1
REMARK  0 active torsions:
REMARK  status: ('A' for Active; 'I' for Inactive)
ROOT
ATOM      1  O1  BZF d   1       0.814   1.304   0.761  0.00  0.00    -0.204 OA
ATOM      2  C2  BZF d   1       2.178   1.435   0.943  0.00  0.00     0.174 A 
ATOM      3  C3  BZF d   1       2.710   0.289   1.414  0.00  0.00    -0.012 A 
ATOM      4  C3A BZF d   1       1.626  -0.644   1.446  0.00  0.00    -0.107 A 
ATOM      5  C4  BZF d   1       1.528  -1.958   1.806  0.00  0.00     0.055 A 
ATOM      6  C5  BZF d   1       0.309  -2.558   1.790  0.00  0.00    -0.016 A 
ATOM      7  C6  BZF d   1      -0.832  -1.874   1.427  0.00  0.00     0.022 A 
ATOM      8  C7  BZF d   1      -0.785  -0.571   1.057  0.00  0.00     0.029 A 
ATOM      9  C7A BZF d   1       0.451   0.029   1.040  0.00  0.00     0.058 A 
ENDROOT
TORSDOF 0
ENDMDL
