MODEL 1
REMARK minimizedAffinity 1.82660973
REMARK minimizedRMSD -1
REMARK  0 active torsions:
REMARK  status: ('A' for Active; 'I' for Inactive)
ROOT
ATOM      1  O1  BZF d   1       2.451  -0.882   1.630  0.00  0.00    -0.204 OA
ATOM      2  C2  BZF d   1       2.677   0.473   1.487  0.00  0.00     0.174 A 
ATOM      3  C3  BZF d   1       1.550   1.110   1.108  0.00  0.00    -0.012 A 
ATOM      4  C3A BZF d   1       0.535   0.102   1.097  0.00  0.00    -0.107 A 
ATOM      5  C4  BZF d   1      -0.802   0.119   0.817  0.00  0.00     0.055 A 
ATOM      6  C5  BZF d   1      -1.494  -1.051   0.827  0.00  0.00    -0.016 A 
ATOM      7  C6  BZF d   1      -0.881  -2.254   1.108  0.00  0.00     0.022 A 
ATOM      8  C7  BZF d   1       0.442  -2.321   1.396  0.00  0.00     0.029 A 
ATOM      9  C7A BZF d   1       1.137  -1.136   1.419  0.00  0.00     0.058 A 
ENDROOT
TORSDOF 0
ENDMDL
