MODEL 1
REMARK minimizedAffinity 14.7928562
REMARK minimizedRMSD -1
REMARK  0 active torsions:
REMARK  status: ('A' for Active; 'I' for Inactive)
ROOT
ATOM      1  O1  BZF d   1       3.354   3.057  -0.090  0.00  0.00    -0.204 OA
ATOM      2  C2  BZF d   1       2.579   4.153  -0.417  0.00  0.00     0.174 A 
ATOM      3  C3  BZF d   1       1.363   4.068   0.160  0.00  0.00    -0.012 A 
ATOM      4  C3A BZF d   1       1.412   2.889   0.969  0.00  0.00    -0.107 A 
ATOM      5  C4  BZF d   1       0.512   2.281   1.798  0.00  0.00     0.055 A 
ATOM      6  C5  BZF d   1       0.846   1.101   2.382  0.00  0.00    -0.016 A 
ATOM      7  C6  BZF d   1       2.066   0.498   2.156  0.00  0.00     0.022 A 
ATOM      8  C7  BZF d   1       2.993   1.065   1.346  0.00  0.00     0.029 A 
ATOM      9  C7A BZF d   1       2.671   2.274   0.780  0.00  0.00     0.058 A 
ENDROOT
TORSDOF 0
ENDMDL
