MODEL 1
REMARK minimizedAffinity 13.3865957
REMARK minimizedRMSD -1
REMARK  0 active torsions:
REMARK  status: ('A' for Active; 'I' for Inactive)
ROOT
ATOM      1  O1  BZF d   1      -5.119   3.293  -1.518  0.00  0.00    -0.204 OA
ATOM      2  C2  BZF d   1      -3.984   2.875  -2.186  0.00  0.00     0.174 A 
ATOM      3  C3  BZF d   1      -3.179   2.168  -1.367  0.00  0.00    -0.012 A 
ATOM      4  C3A BZF d   1      -3.896   2.065  -0.133  0.00  0.00    -0.107 A 
ATOM      5  C4  BZF d   1      -3.624   1.466   1.064  0.00  0.00     0.055 A 
ATOM      6  C5  BZF d   1      -4.501   1.614   2.091  0.00  0.00    -0.016 A 
ATOM      7  C6  BZF d   1      -5.656   2.357   1.959  0.00  0.00     0.022 A 
ATOM      8  C7  BZF d   1      -5.972   2.966   0.790  0.00  0.00     0.029 A 
ATOM      9  C7A BZF d   1      -5.103   2.791  -0.260  0.00  0.00     0.058 A 
ENDROOT
TORSDOF 0
ENDMDL
