MODEL 1
REMARK minimizedAffinity 9.22911644
REMARK minimizedRMSD -1
REMARK  0 active torsions:
REMARK  status: ('A' for Active; 'I' for Inactive)
ROOT
ATOM      1  O1  BZF d   1       1.062   1.500   1.118  0.00  0.00    -0.204 OA
ATOM      2  C2  BZF d   1       1.528   2.583   0.398  0.00  0.00     0.174 A 
ATOM      3  C3  BZF d   1       2.763   2.341  -0.085  0.00  0.00    -0.012 A 
ATOM      4  C3A BZF d   1       3.053   0.989   0.282  0.00  0.00    -0.107 A 
ATOM      5  C4  BZF d   1       4.124   0.168   0.073  0.00  0.00     0.055 A 
ATOM      6  C5  BZF d   1       4.123  -1.073   0.626  0.00  0.00    -0.016 A 
ATOM      7  C6  BZF d   1       3.072  -1.523   1.397  0.00  0.00     0.022 A 
ATOM      8  C7  BZF d   1       1.985  -0.747   1.629  0.00  0.00     0.029 A 
ATOM      9  C7A BZF d   1       1.969   0.496   1.044  0.00  0.00     0.058 A 
ENDROOT
TORSDOF 0
ENDMDL
