MODEL 1
REMARK minimizedAffinity 4.38388443
REMARK minimizedRMSD -1
REMARK  0 active torsions:
REMARK  status: ('A' for Active; 'I' for Inactive)
ROOT
ATOM      1  O1  BZF d   1      -0.742  -0.005   1.778  0.00  0.00    -0.204 OA
ATOM      2  C2  BZF d   1      -1.010  -1.338   1.531  0.00  0.00     0.174 A 
ATOM      3  C3  BZF d   1       0.107  -1.987   1.146  0.00  0.00    -0.012 A 
ATOM      4  C3A BZF d   1       1.157  -1.020   1.242  0.00  0.00    -0.107 A 
ATOM      5  C4  BZF d   1       2.501  -1.067   1.007  0.00  0.00     0.055 A 
ATOM      6  C5  BZF d   1       3.233   0.073   1.125  0.00  0.00    -0.016 A 
ATOM      7  C6  BZF d   1       2.652   1.276   1.470  0.00  0.00     0.022 A 
ATOM      8  C7  BZF d   1       1.323   1.371   1.718  0.00  0.00     0.029 A 
ATOM      9  C7A BZF d   1       0.587   0.214   1.632  0.00  0.00     0.058 A 
ENDROOT
TORSDOF 0
ENDMDL
