MODEL 1
REMARK minimizedAffinity 17.3925819
REMARK minimizedRMSD -1
REMARK  0 active torsions:
REMARK  status: ('A' for Active; 'I' for Inactive)
ROOT
ATOM      1  O1  BZF d   1      -0.051  -1.060   1.455  0.00  0.00    -0.204 OA
ATOM      2  C2  BZF d   1       0.048  -2.385   1.078  0.00  0.00     0.174 A 
ATOM      3  C3  BZF d   1       1.318  -2.695   0.747  0.00  0.00    -0.012 A 
ATOM      4  C3A BZF d   1       2.076  -1.512   1.017  0.00  0.00    -0.107 A 
ATOM      5  C4  BZF d   1       3.401  -1.200   0.904  0.00  0.00     0.055 A 
ATOM      6  C5  BZF d   1       3.807   0.067   1.179  0.00  0.00    -0.016 A 
ATOM      7  C6  BZF d   1       2.916   1.047   1.564  0.00  0.00     0.022 A 
ATOM      8  C7  BZF d   1       1.593   0.785   1.694  0.00  0.00     0.029 A 
ATOM      9  C7A BZF d   1       1.184  -0.504   1.449  0.00  0.00     0.058 A 
ENDROOT
TORSDOF 0
ENDMDL
