MODEL 1
REMARK minimizedAffinity -5.17671394
REMARK minimizedRMSD -1
REMARK  0 active torsions:
REMARK  status: ('A' for Active; 'I' for Inactive)
ROOT
ATOM      1  O1  BZF d   1       0.387   0.861  -0.036  0.00  0.00    -0.204 OA
ATOM      2  C2  BZF d   1      -0.782   0.157  -0.256  0.00  0.00     0.174 A 
ATOM      3  C3  BZF d   1      -0.637  -1.135   0.103  0.00  0.00    -0.012 A 
ATOM      4  C3A BZF d   1       0.676  -1.225   0.663  0.00  0.00    -0.107 A 
ATOM      5  C4  BZF d   1       1.394  -2.249   1.212  0.00  0.00     0.055 A 
ATOM      6  C5  BZF d   1       2.677  -2.023   1.599  0.00  0.00    -0.016 A 
ATOM      7  C6  BZF d   1       3.274  -0.789   1.447  0.00  0.00     0.022 A 
ATOM      8  C7  BZF d   1       2.601   0.259   0.912  0.00  0.00     0.029 A 
ATOM      9  C7A BZF d   1       1.293   0.042   0.551  0.00  0.00     0.058 A 
ENDROOT
TORSDOF 0
ENDMDL
