MODEL 1
REMARK minimizedAffinity -3.08219266
REMARK minimizedRMSD -1
REMARK  1 active torsions:
REMARK  status: ('A' for Active; 'I' for Inactive)
REMARK    1  A    between atoms: C3_4  and  O_7 
ROOT
ATOM      1  C   UNL d   1       4.654  -3.691  -5.937  0.00  0.00    -0.033 A 
ATOM      2  C1  UNL d   1       3.756  -3.607  -4.872  0.00  0.00     0.039 A 
ATOM      3  C2  UNL d   1       3.950  -2.660  -3.865  0.00  0.00    -0.080 A 
ATOM      4  C3  UNL d   1       5.045  -1.803  -3.935  0.00  0.00     0.150 A 
ATOM      5  C4  UNL d   1       5.942  -1.878  -4.996  0.00  0.00    -0.007 A 
ATOM      6  C5  UNL d   1       5.746  -2.825  -6.000  0.00  0.00     0.039 A 
ENDROOT
BRANCH   4   7
ATOM      7  O   UNL d   1       5.279  -0.865  -2.973  0.00  0.00    -0.526 OA
ATOM      8  H5  UNL d   1       4.594  -0.949  -2.289  0.00  0.00     0.418 HD
ENDBRANCH   4   7
TORSDOF 1
ENDMDL
