MODEL 1
REMARK minimizedAffinity -1.38550079
REMARK minimizedRMSD -1
REMARK  1 active torsions:
REMARK  status: ('A' for Active; 'I' for Inactive)
REMARK    1  A    between atoms: C3_4  and  O_7 
ROOT
ATOM      1  C   UNL d   1      -5.242   4.244  -3.000  0.00  0.00    -0.033 A 
ATOM      2  C1  UNL d   1      -5.539   3.062  -2.319  0.00  0.00     0.039 A 
ATOM      3  C2  UNL d   1      -4.737   1.933  -2.495  0.00  0.00    -0.080 A 
ATOM      4  C3  UNL d   1      -3.642   1.999  -3.353  0.00  0.00     0.150 A 
ATOM      5  C4  UNL d   1      -3.339   3.175  -4.032  0.00  0.00    -0.007 A 
ATOM      6  C5  UNL d   1      -4.141   4.301  -3.855  0.00  0.00     0.039 A 
ENDROOT
BRANCH   4   7
ATOM      7  O   UNL d   1      -2.834   0.921  -3.561  0.00  0.00    -0.526 OA
ATOM      8  H5  UNL d   1      -3.182   0.172  -3.049  0.00  0.00     0.418 HD
ENDBRANCH   4   7
TORSDOF 1
ENDMDL
