MODEL 1
REMARK minimizedAffinity -3.58272028
REMARK minimizedRMSD -1
REMARK  1 active torsions:
REMARK  status: ('A' for Active; 'I' for Inactive)
REMARK    1  A    between atoms: C3_4  and  O_7 
ROOT
ATOM      1  C   UNL d   1       5.247  -3.342  -5.631  0.00  0.00    -0.033 A 
ATOM      2  C1  UNL d   1       4.546  -4.492  -6.000  0.00  0.00     0.039 A 
ATOM      3  C2  UNL d   1       3.150  -4.503  -5.959  0.00  0.00    -0.080 A 
ATOM      4  C3  UNL d   1       2.469  -3.360  -5.550  0.00  0.00     0.150 A 
ATOM      5  C4  UNL d   1       3.162  -2.211  -5.185  0.00  0.00    -0.007 A 
ATOM      6  C5  UNL d   1       4.555  -2.201  -5.225  0.00  0.00     0.039 A 
ENDROOT
BRANCH   4   7
ATOM      7  O   UNL d   1       1.108  -3.325  -5.490  0.00  0.00    -0.526 OA
ATOM      8  H5  UNL d   1       0.766  -4.199  -5.743  0.00  0.00     0.418 HD
ENDBRANCH   4   7
TORSDOF 1
ENDMDL
