MODEL 1
REMARK minimizedAffinity 10.4951
REMARK minimizedRMSD -1
REMARK  1 active torsions:
REMARK  status: ('A' for Active; 'I' for Inactive)
REMARK    1  A    between atoms: C3_4  and  O_7 
ROOT
ATOM      1  C   UNL d   1      -2.444   0.622  -2.877  0.00  0.00    -0.033 A 
ATOM      2  C1  UNL d   1      -3.411   1.047  -1.964  0.00  0.00     0.039 A 
ATOM      3  C2  UNL d   1      -4.138   2.214  -2.206  0.00  0.00    -0.080 A 
ATOM      4  C3  UNL d   1      -3.891   2.945  -3.365  0.00  0.00     0.150 A 
ATOM      5  C4  UNL d   1      -2.932   2.525  -4.282  0.00  0.00    -0.007 A 
ATOM      6  C5  UNL d   1      -2.206   1.360  -4.037  0.00  0.00     0.039 A 
ENDROOT
BRANCH   4   7
ATOM      7  O   UNL d   1      -4.572   4.092  -3.643  0.00  0.00    -0.526 OA
ATOM      8  H5  UNL d   1      -5.181   4.274  -2.908  0.00  0.00     0.418 HD
ENDBRANCH   4   7
TORSDOF 1
ENDMDL
