MODEL 1
REMARK minimizedAffinity 1.76279879
REMARK minimizedRMSD -1
REMARK  1 active torsions:
REMARK  status: ('A' for Active; 'I' for Inactive)
REMARK    1  A    between atoms: C3_4  and  O_7 
ROOT
ATOM      1  C   UNL d   1      -2.554   0.794  -2.662  0.00  0.00    -0.033 A 
ATOM      2  C1  UNL d   1      -3.098   1.104  -3.911  0.00  0.00     0.039 A 
ATOM      3  C2  UNL d   1      -3.878   2.250  -4.069  0.00  0.00    -0.080 A 
ATOM      4  C3  UNL d   1      -4.107   3.078  -2.974  0.00  0.00     0.150 A 
ATOM      5  C4  UNL d   1      -3.566   2.777  -1.728  0.00  0.00    -0.007 A 
ATOM      6  C5  UNL d   1      -2.787   1.632  -1.571  0.00  0.00     0.039 A 
ENDROOT
BRANCH   4   7
ATOM      7  O   UNL d   1      -4.867   4.205  -3.079  0.00  0.00    -0.526 OA
ATOM      8  H5  UNL d   1      -5.198   4.269  -3.990  0.00  0.00     0.418 HD
ENDBRANCH   4   7
TORSDOF 1
ENDMDL
