MODEL 1
REMARK minimizedAffinity 1.24331892
REMARK minimizedRMSD -1
REMARK  1 active torsions:
REMARK  status: ('A' for Active; 'I' for Inactive)
REMARK    1  A    between atoms: C3_4  and  O_7 
ROOT
ATOM      1  C   UNL d   1      -3.259   0.815  -3.361  0.00  0.00    -0.033 A 
ATOM      2  C1  UNL d   1      -3.436   1.375  -2.094  0.00  0.00     0.039 A 
ATOM      3  C2  UNL d   1      -4.206   2.529  -1.940  0.00  0.00    -0.080 A 
ATOM      4  C3  UNL d   1      -4.793   3.113  -3.059  0.00  0.00     0.150 A 
ATOM      5  C4  UNL d   1      -4.625   2.559  -4.324  0.00  0.00    -0.007 A 
ATOM      6  C5  UNL d   1      -3.855   1.407  -4.476  0.00  0.00     0.039 A 
ENDROOT
BRANCH   4   7
ATOM      7  O   UNL d   1      -5.549   4.243  -2.959  0.00  0.00    -0.526 OA
ATOM      8  H5  UNL d   1      -5.554   4.529  -2.030  0.00  0.00     0.418 HD
ENDBRANCH   4   7
TORSDOF 1
ENDMDL
