MODEL 1
REMARK minimizedAffinity 4.52485037
REMARK minimizedRMSD -1
REMARK  1 active torsions:
REMARK  status: ('A' for Active; 'I' for Inactive)
REMARK    1  A    between atoms: C3_4  and  O_7 
ROOT
ATOM      1  C   UNL d   1      -4.595   3.683  -2.947  0.00  0.00    -0.033 A 
ATOM      2  C1  UNL d   1      -4.560   2.845  -1.831  0.00  0.00     0.039 A 
ATOM      3  C2  UNL d   1      -3.751   1.707  -1.835  0.00  0.00    -0.080 A 
ATOM      4  C3  UNL d   1      -2.982   1.419  -2.960  0.00  0.00     0.150 A 
ATOM      5  C4  UNL d   1      -3.010   2.251  -4.074  0.00  0.00    -0.007 A 
ATOM      6  C5  UNL d   1      -3.820   3.387  -4.068  0.00  0.00     0.039 A 
ENDROOT
BRANCH   4   7
ATOM      7  O   UNL d   1      -2.181   0.317  -3.012  0.00  0.00    -0.526 OA
ATOM      8  H5  UNL d   1      -2.285  -0.179  -2.184  0.00  0.00     0.418 HD
ENDBRANCH   4   7
TORSDOF 1
ENDMDL
