MODEL 1
REMARK minimizedAffinity -0.400918782
REMARK minimizedRMSD -1
REMARK  1 active torsions:
REMARK  status: ('A' for Active; 'I' for Inactive)
REMARK    1  A    between atoms: C3_4  and  O_7 
ROOT
ATOM      1  C   UNL d   1       5.522  -5.885  -5.363  0.00  0.00    -0.033 A 
ATOM      2  C1  UNL d   1       5.824  -4.679  -5.998  0.00  0.00     0.039 A 
ATOM      3  C2  UNL d   1       4.964  -3.586  -5.871  0.00  0.00    -0.080 A 
ATOM      4  C3  UNL d   1       3.808  -3.712  -5.105  0.00  0.00     0.150 A 
ATOM      5  C4  UNL d   1       3.503  -4.909  -4.466  0.00  0.00    -0.007 A 
ATOM      6  C5  UNL d   1       4.362  -5.999  -4.596  0.00  0.00     0.039 A 
ENDROOT
BRANCH   4   7
ATOM      7  O   UNL d   1       2.936  -2.674  -4.956  0.00  0.00    -0.526 OA
ATOM      8  H5  UNL d   1       3.262  -1.921  -5.476  0.00  0.00     0.418 HD
ENDBRANCH   4   7
TORSDOF 1
ENDMDL
