MODEL 1
REMARK minimizedAffinity -6.06382275
REMARK minimizedRMSD -1
REMARK  0 active torsions:
REMARK  status: ('A' for Active; 'I' for Inactive)
ROOT
ATOM      1  C1  DEN d   1      -1.682   2.926   1.303  0.00  0.00     0.130 A 
ATOM      2  C2  DEN d   1      -1.217   3.603   0.096  0.00  0.00    -0.031 A 
ATOM      3  C3  DEN d   1      -0.447   2.631  -0.705  0.00  0.00     0.027 A 
ATOM      4  C4  DEN d   1       0.063   0.154  -0.199  0.00  0.00     0.027 A 
ATOM      5  C5  DEN d   1      -0.110  -0.865   0.711  0.00  0.00    -0.003 A 
ATOM      6  C6  DEN d   1      -0.786  -0.684   1.889  0.00  0.00     0.001 A 
ATOM      7  C7  DEN d   1      -1.352   0.533   2.167  0.00  0.00     0.017 A 
ATOM      8  C8  DEN d   1      -1.174   1.566   1.257  0.00  0.00    -0.094 A 
ATOM      9  C9  DEN d   1      -0.499   1.360   0.067  0.00  0.00    -0.072 A 
ENDROOT
TORSDOF 0
ENDMDL
