MODEL 1
REMARK minimizedAffinity -5.34277439
REMARK minimizedRMSD -1
REMARK  0 active torsions:
REMARK  status: ('A' for Active; 'I' for Inactive)
ROOT
ATOM      1  C1  DEN d   1      -0.035  -0.406  -0.489  0.00  0.00     0.130 A 
ATOM      2  C2  DEN d   1      -0.326  -1.390   0.550  0.00  0.00    -0.031 A 
ATOM      3  C3  DEN d   1      -0.855  -0.669   1.726  0.00  0.00     0.027 A 
ATOM      4  C4  DEN d   1      -1.255   1.860   2.034  0.00  0.00     0.027 A 
ATOM      5  C5  DEN d   1      -1.148   3.095   1.433  0.00  0.00    -0.003 A 
ATOM      6  C6  DEN d   1      -0.635   3.252   0.173  0.00  0.00     0.001 A 
ATOM      7  C7  DEN d   1      -0.251   2.150  -0.546  0.00  0.00     0.017 A 
ATOM      8  C8  DEN d   1      -0.349   0.903   0.056  0.00  0.00    -0.094 A 
ATOM      9  C9  DEN d   1      -0.882   0.764   1.326  0.00  0.00    -0.072 A 
ENDROOT
TORSDOF 0
ENDMDL
