MODEL 1
REMARK minimizedAffinity -0.834990442
REMARK minimizedRMSD -1
REMARK  0 active torsions:
REMARK  status: ('A' for Active; 'I' for Inactive)
ROOT
ATOM      1  C1  DEN d   1      -1.578   1.338   1.962  0.00  0.00     0.130 A 
ATOM      2  C2  DEN d   1      -2.149   2.442   1.195  0.00  0.00    -0.031 A 
ATOM      3  C3  DEN d   1      -1.469   2.488  -0.115  0.00  0.00     0.027 A 
ATOM      4  C4  DEN d   1       0.400   0.963  -1.027  0.00  0.00     0.027 A 
ATOM      5  C5  DEN d   1       1.219  -0.106  -0.736  0.00  0.00    -0.003 A 
ATOM      6  C6  DEN d   1       1.186  -0.743   0.477  0.00  0.00     0.001 A 
ATOM      7  C7  DEN d   1       0.285  -0.343   1.428  0.00  0.00     0.017 A 
ATOM      8  C8  DEN d   1      -0.538   0.739   1.145  0.00  0.00    -0.094 A 
ATOM      9  C9  DEN d   1      -0.498   1.361  -0.091  0.00  0.00    -0.072 A 
ENDROOT
TORSDOF 0
ENDMDL
