MODEL 1
REMARK minimizedAffinity -4.68418694
REMARK minimizedRMSD -1
REMARK  0 active torsions:
REMARK  status: ('A' for Active; 'I' for Inactive)
ROOT
ATOM      1  C1  DEN d   1       0.630   0.580  -0.998  0.00  0.00     0.130 A 
ATOM      2  C2  DEN d   1       0.611  -0.880  -1.044  0.00  0.00    -0.031 A 
ATOM      3  C3  DEN d   1      -0.501  -1.349  -0.193  0.00  0.00     0.027 A 
ATOM      4  C4  DEN d   1      -2.189   0.035   1.181  0.00  0.00     0.027 A 
ATOM      5  C5  DEN d   1      -2.564   1.311   1.542  0.00  0.00    -0.003 A 
ATOM      6  C6  DEN d   1      -1.886   2.421   1.113  0.00  0.00     0.001 A 
ATOM      7  C7  DEN d   1      -0.823   2.279   0.260  0.00  0.00     0.017 A 
ATOM      8  C8  DEN d   1      -0.434   0.996  -0.102  0.00  0.00    -0.094 A 
ATOM      9  C9  DEN d   1      -1.140  -0.112   0.332  0.00  0.00    -0.072 A 
ENDROOT
TORSDOF 0
ENDMDL
