MODEL 1
REMARK minimizedAffinity -4.12751055
REMARK minimizedRMSD -1
REMARK  0 active torsions:
REMARK  status: ('A' for Active; 'I' for Inactive)
ROOT
ATOM      1  C1  DEN d   1      -2.123   1.866   0.126  0.00  0.00     0.130 A 
ATOM      2  C2  DEN d   1      -2.193   2.230   1.539  0.00  0.00    -0.031 A 
ATOM      3  C3  DEN d   1      -1.239   1.378   2.278  0.00  0.00     0.027 A 
ATOM      4  C4  DEN d   1       0.335  -0.455   1.376  0.00  0.00     0.027 A 
ATOM      5  C5  DEN d   1       0.741  -1.130   0.246  0.00  0.00    -0.003 A 
ATOM      6  C6  DEN d   1       0.201  -0.880  -0.987  0.00  0.00     0.001 A 
ATOM      7  C7  DEN d   1      -0.744   0.102  -1.128  0.00  0.00     0.017 A 
ATOM      8  C8  DEN d   1      -1.164   0.782   0.008  0.00  0.00    -0.094 A 
ATOM      9  C9  DEN d   1      -0.597   0.522   1.244  0.00  0.00    -0.072 A 
ENDROOT
TORSDOF 0
ENDMDL
