MODEL 1
REMARK minimizedAffinity -2.37326431
REMARK minimizedRMSD -1
REMARK  0 active torsions:
REMARK  status: ('A' for Active; 'I' for Inactive)
ROOT
ATOM      1  C1  DEN d   1      -0.746  -0.289  -0.818  0.00  0.00     0.130 A 
ATOM      2  C2  DEN d   1      -0.282  -0.026   0.542  0.00  0.00    -0.031 A 
ATOM      3  C3  DEN d   1       0.731  -1.045   0.883  0.00  0.00     0.027 A 
ATOM      4  C4  DEN d   1       1.626  -2.989  -0.557  0.00  0.00     0.027 A 
ATOM      5  C5  DEN d   1       1.524  -3.622  -1.776  0.00  0.00    -0.003 A 
ATOM      6  C6  DEN d   1       0.642  -3.213  -2.740  0.00  0.00     0.001 A 
ATOM      7  C7  DEN d   1      -0.143  -2.112  -2.519  0.00  0.00     0.017 A 
ATOM      8  C8  DEN d   1      -0.051  -1.473  -1.289  0.00  0.00    -0.094 A 
ATOM      9  C9  DEN d   1       0.856  -1.894  -0.332  0.00  0.00    -0.072 A 
ENDROOT
TORSDOF 0
ENDMDL
