MODEL 1
REMARK minimizedAffinity -6.03923368
REMARK minimizedRMSD -1
REMARK  0 active torsions:
REMARK  status: ('A' for Active; 'I' for Inactive)
ROOT
ATOM      1  C1  DEN d   1      -1.124  -0.032   1.888  0.00  0.00     0.130 A 
ATOM      2  C2  DEN d   1      -1.976   1.153   1.932  0.00  0.00    -0.031 A 
ATOM      3  C3  DEN d   1      -1.431   2.143   0.981  0.00  0.00     0.027 A 
ATOM      4  C4  DEN d   1       0.634   1.954  -0.552  0.00  0.00     0.027 A 
ATOM      5  C5  DEN d   1       1.680   1.142  -0.931  0.00  0.00    -0.003 A 
ATOM      6  C6  DEN d   1       1.883  -0.094  -0.378  0.00  0.00     0.001 A 
ATOM      7  C7  DEN d   1       1.001  -0.573   0.554  0.00  0.00     0.017 A 
ATOM      8  C8  DEN d   1      -0.052   0.243   0.947  0.00  0.00    -0.094 A 
ATOM      9  C9  DEN d   1      -0.247   1.484   0.367  0.00  0.00    -0.072 A 
ENDROOT
TORSDOF 0
ENDMDL
