MODEL 1
REMARK minimizedAffinity -0.238741487
REMARK minimizedRMSD -1
REMARK  0 active torsions:
REMARK  status: ('A' for Active; 'I' for Inactive)
ROOT
ATOM      1  C1  DEN d   1      -1.368   0.415   2.270  0.00  0.00     0.130 A 
ATOM      2  C2  DEN d   1      -1.180   1.859   2.157  0.00  0.00    -0.031 A 
ATOM      3  C3  DEN d   1      -0.256   2.113   1.033  0.00  0.00     0.027 A 
ATOM      4  C4  DEN d   1       0.892   0.420  -0.537  0.00  0.00     0.027 A 
ATOM      5  C5  DEN d   1       1.049  -0.918  -0.824  0.00  0.00    -0.003 A 
ATOM      6  C6  DEN d   1       0.443  -1.899  -0.084  0.00  0.00     0.001 A 
ATOM      7  C7  DEN d   1      -0.385  -1.554   0.952  0.00  0.00     0.017 A 
ATOM      8  C8  DEN d   1      -0.542  -0.207   1.251  0.00  0.00    -0.094 A 
ATOM      9  C9  DEN d   1       0.070   0.769   0.484  0.00  0.00    -0.072 A 
ENDROOT
TORSDOF 0
ENDMDL
