MODEL 1
REMARK minimizedAffinity -6.55455494
REMARK minimizedRMSD -1
REMARK  0 active torsions:
REMARK  status: ('A' for Active; 'I' for Inactive)
ROOT
ATOM      1  C1  DEN d   1       0.656   0.406  -1.108  0.00  0.00     0.130 A 
ATOM      2  C2  DEN d   1       0.258  -0.847  -0.473  0.00  0.00    -0.031 A 
ATOM      3  C3  DEN d   1      -0.723  -0.532   0.585  0.00  0.00     0.027 A 
ATOM      4  C4  DEN d   1      -1.664   1.762   1.293  0.00  0.00     0.027 A 
ATOM      5  C5  DEN d   1      -1.617   3.118   1.054  0.00  0.00    -0.003 A 
ATOM      6  C6  DEN d   1      -0.790   3.663   0.108  0.00  0.00     0.001 A 
ATOM      7  C7  DEN d   1      -0.010   2.844  -0.665  0.00  0.00     0.017 A 
ATOM      8  C8  DEN d   1      -0.047   1.477  -0.424  0.00  0.00    -0.094 A 
ATOM      9  C9  DEN d   1      -0.898   0.944   0.528  0.00  0.00    -0.072 A 
ENDROOT
TORSDOF 0
ENDMDL
