MODEL 1
REMARK minimizedAffinity -4.37352371
REMARK minimizedRMSD -1
REMARK  0 active torsions:
REMARK  status: ('A' for Active; 'I' for Inactive)
ROOT
ATOM      1  C1  DEN d   1       0.105  -0.372   1.226  0.00  0.00     0.130 A 
ATOM      2  C2  DEN d   1       0.966  -0.785   0.121  0.00  0.00    -0.031 A 
ATOM      3  C3  DEN d   1       1.152   0.377  -0.772  0.00  0.00     0.027 A 
ATOM      4  C4  DEN d   1       0.199   2.763  -0.549  0.00  0.00     0.027 A 
ATOM      5  C5  DEN d   1      -0.595   3.588   0.217  0.00  0.00    -0.003 A 
ATOM      6  C6  DEN d   1      -1.234   3.145   1.345  0.00  0.00     0.001 A 
ATOM      7  C7  DEN d   1      -1.053   1.853   1.764  0.00  0.00     0.017 A 
ATOM      8  C8  DEN d   1      -0.259   1.014   0.993  0.00  0.00    -0.094 A 
ATOM      9  C9  DEN d   1       0.387   1.484  -0.137  0.00  0.00    -0.072 A 
ENDROOT
TORSDOF 0
ENDMDL
