MODEL 1
REMARK minimizedAffinity -6.98867655
REMARK minimizedRMSD -1
REMARK  0 active torsions:
REMARK  status: ('A' for Active; 'I' for Inactive)
ROOT
ATOM      1  C1  DEN d   1       0.362   0.338  -1.482  0.00  0.00     0.130 A 
ATOM      2  C2  DEN d   1       0.161  -0.690  -0.465  0.00  0.00    -0.031 A 
ATOM      3  C3  DEN d   1      -0.564  -0.078   0.667  0.00  0.00     0.027 A 
ATOM      4  C4  DEN d   1      -1.395   2.348   0.939  0.00  0.00     0.027 A 
ATOM      5  C5  DEN d   1      -1.448   3.590   0.345  0.00  0.00    -0.003 A 
ATOM      6  C6  DEN d   1      -0.877   3.841  -0.874  0.00  0.00     0.001 A 
ATOM      7  C7  DEN d   1      -0.266   2.825  -1.560  0.00  0.00     0.017 A 
ATOM      8  C8  DEN d   1      -0.202   1.572  -0.964  0.00  0.00    -0.094 A 
ATOM      9  C9  DEN d   1      -0.796   1.335   0.264  0.00  0.00    -0.072 A 
ENDROOT
TORSDOF 0
ENDMDL
