MODEL 1
REMARK minimizedAffinity -1.6269449
REMARK minimizedRMSD -1
REMARK  0 active torsions:
REMARK  status: ('A' for Active; 'I' for Inactive)
ROOT
ATOM      1  C1  DEN d   1       0.865   0.187  -1.009  0.00  0.00     0.130 A 
ATOM      2  C2  DEN d   1       0.818   1.527  -1.588  0.00  0.00    -0.031 A 
ATOM      3  C3  DEN d   1      -0.061   2.359  -0.741  0.00  0.00     0.027 A 
ATOM      4  C4  DEN d   1      -1.343   1.707   1.400  0.00  0.00     0.027 A 
ATOM      5  C5  DEN d   1      -1.622   0.677   2.272  0.00  0.00    -0.003 A 
ATOM      6  C6  DEN d   1      -1.123  -0.586   2.093  0.00  0.00     0.001 A 
ATOM      7  C7  DEN d   1      -0.281  -0.841   1.043  0.00  0.00     0.017 A 
ATOM      8  C8  DEN d   1      -0.002   0.190   0.156  0.00  0.00    -0.094 A 
ATOM      9  C9  DEN d   1      -0.506   1.463   0.360  0.00  0.00    -0.072 A 
ENDROOT
TORSDOF 0
ENDMDL
