MODEL 1
REMARK minimizedAffinity 0.20300743
REMARK minimizedRMSD -1
REMARK  0 active torsions:
REMARK  status: ('A' for Active; 'I' for Inactive)
ROOT
ATOM      1  C   UNL d   1      -5.209   6.000   2.302  0.00  0.00     0.078 C 
ATOM      2  C1  UNL d   1      -4.419   5.993   3.576  0.00  0.00    -0.077 A 
ATOM      3  C2  UNL d   1      -5.059   5.995   4.822  0.00  0.00    -0.001 A 
ATOM      4  C3  UNL d   1      -4.311   5.998   6.000  0.00  0.00     0.003 A 
ATOM      5  C4  UNL d   1      -2.918   6.000   5.945  0.00  0.00    -0.005 A 
ATOM      6  C5  UNL d   1      -2.272   6.000   4.710  0.00  0.00     0.003 A 
ATOM      7  C6  UNL d   1      -3.019   5.997   3.531  0.00  0.00    -0.001 A 
ENDROOT
TORSDOF 0
ENDMDL
