MODEL 1
REMARK minimizedAffinity -2.86140919
REMARK minimizedRMSD -1
REMARK  0 active torsions:
REMARK  status: ('A' for Active; 'I' for Inactive)
ROOT
ATOM      1  C   UNL d   1      -3.838   5.951   2.290  0.00  0.00     0.078 C 
ATOM      2  C1  UNL d   1      -3.058   5.963   3.571  0.00  0.00    -0.077 A 
ATOM      3  C2  UNL d   1      -1.658   5.997   3.563  0.00  0.00    -0.001 A 
ATOM      4  C3  UNL d   1      -0.945   5.998   4.763  0.00  0.00     0.003 A 
ATOM      5  C4  UNL d   1      -1.624   5.964   5.980  0.00  0.00    -0.005 A 
ATOM      6  C5  UNL d   1      -3.016   5.927   5.997  0.00  0.00     0.003 A 
ATOM      7  C6  UNL d   1      -3.731   5.926   4.799  0.00  0.00    -0.001 A 
ENDROOT
TORSDOF 0
ENDMDL
