MODEL 1
REMARK minimizedAffinity -3.76994109
REMARK minimizedRMSD -1
REMARK  0 active torsions:
REMARK  status: ('A' for Active; 'I' for Inactive)
ROOT
ATOM      1  C   UNL d   1       1.329   1.389  -2.970  0.00  0.00     0.078 C 
ATOM      2  C1  UNL d   1       1.369  -0.108  -3.044  0.00  0.00    -0.077 A 
ATOM      3  C2  UNL d   1       0.987  -0.783  -4.210  0.00  0.00    -0.001 A 
ATOM      4  C3  UNL d   1       1.020  -2.177  -4.262  0.00  0.00     0.003 A 
ATOM      5  C4  UNL d   1       1.434  -2.909  -3.151  0.00  0.00    -0.005 A 
ATOM      6  C5  UNL d   1       1.814  -2.246  -1.985  0.00  0.00     0.003 A 
ATOM      7  C6  UNL d   1       1.782  -0.852  -1.932  0.00  0.00    -0.001 A 
ENDROOT
TORSDOF 0
ENDMDL
