MODEL 1
REMARK minimizedAffinity -3.02626133
REMARK minimizedRMSD -1
REMARK  0 active torsions:
REMARK  status: ('A' for Active; 'I' for Inactive)
ROOT
ATOM      1  C   UNL d   1       4.853  -1.209   5.668  0.00  0.00     0.078 C 
ATOM      2  C1  UNL d   1       4.836  -2.708   5.664  0.00  0.00    -0.077 A 
ATOM      3  C2  UNL d   1       3.669  -3.415   5.352  0.00  0.00    -0.001 A 
ATOM      4  C3  UNL d   1       3.665  -4.811   5.361  0.00  0.00     0.003 A 
ATOM      5  C4  UNL d   1       4.826  -5.512   5.683  0.00  0.00    -0.005 A 
ATOM      6  C5  UNL d   1       5.992  -4.817   5.997  0.00  0.00     0.003 A 
ATOM      7  C6  UNL d   1       5.997  -3.421   5.988  0.00  0.00    -0.001 A 
ENDROOT
TORSDOF 0
ENDMDL
