MODEL 1
REMARK minimizedAffinity -1.26505375
REMARK minimizedRMSD -1
REMARK  0 active torsions:
REMARK  status: ('A' for Active; 'I' for Inactive)
ROOT
ATOM      1  C   UNL d   1      -2.625   5.997   1.809  0.00  0.00     0.078 C 
ATOM      2  C1  UNL d   1      -3.045   5.907   3.245  0.00  0.00    -0.077 A 
ATOM      3  C2  UNL d   1      -4.391   5.745   3.594  0.00  0.00    -0.001 A 
ATOM      4  C3  UNL d   1      -4.769   5.674   4.936  0.00  0.00     0.003 A 
ATOM      5  C4  UNL d   1      -3.807   5.764   5.940  0.00  0.00    -0.005 A 
ATOM      6  C5  UNL d   1      -2.465   5.927   5.602  0.00  0.00     0.003 A 
ATOM      7  C6  UNL d   1      -2.085   5.999   4.261  0.00  0.00    -0.001 A 
ENDROOT
TORSDOF 0
ENDMDL
