MODEL 1
REMARK minimizedAffinity 3.62940121
REMARK minimizedRMSD -1
REMARK  0 active torsions:
REMARK  status: ('A' for Active; 'I' for Inactive)
ROOT
ATOM      1  C   UNL d   1       1.503   1.940  -2.587  0.00  0.00     0.078 C 
ATOM      2  C1  UNL d   1       2.413   2.043  -3.775  0.00  0.00    -0.077 A 
ATOM      3  C2  UNL d   1       3.662   1.410  -3.783  0.00  0.00    -0.001 A 
ATOM      4  C3  UNL d   1       4.503   1.523  -4.892  0.00  0.00     0.003 A 
ATOM      5  C4  UNL d   1       4.104   2.267  -6.000  0.00  0.00    -0.005 A 
ATOM      6  C5  UNL d   1       2.864   2.902  -6.000  0.00  0.00     0.003 A 
ATOM      7  C6  UNL d   1       2.022   2.791  -4.892  0.00  0.00    -0.001 A 
ENDROOT
TORSDOF 0
ENDMDL
