MODEL 1
REMARK minimizedAffinity -1.35350657
REMARK minimizedRMSD -1
REMARK  0 active torsions:
REMARK  status: ('A' for Active; 'I' for Inactive)
ROOT
ATOM      1  C   UNL d   1       4.085   1.931  -5.434  0.00  0.00     0.078 C 
ATOM      2  C1  UNL d   1       3.085   1.765  -4.329  0.00  0.00    -0.077 A 
ATOM      3  C2  UNL d   1       2.131   2.755  -4.066  0.00  0.00    -0.001 A 
ATOM      4  C3  UNL d   1       1.211   2.592  -3.028  0.00  0.00     0.003 A 
ATOM      5  C4  UNL d   1       1.238   1.439  -2.245  0.00  0.00    -0.005 A 
ATOM      6  C5  UNL d   1       2.185   0.449  -2.499  0.00  0.00     0.003 A 
ATOM      7  C6  UNL d   1       3.105   0.611  -3.536  0.00  0.00    -0.001 A 
ENDROOT
TORSDOF 0
ENDMDL
