MODEL 1
REMARK minimizedAffinity 2.27318859
REMARK minimizedRMSD -1
REMARK  0 active torsions:
REMARK  status: ('A' for Active; 'I' for Inactive)
ROOT
ATOM      1  C   UNL d   1       1.248  -0.052  -1.938  0.00  0.00     0.078 C 
ATOM      2  C1  UNL d   1       1.805   1.113  -2.700  0.00  0.00    -0.077 A 
ATOM      3  C2  UNL d   1       1.186   2.368  -2.654  0.00  0.00    -0.001 A 
ATOM      4  C3  UNL d   1       1.710   3.441  -3.376  0.00  0.00     0.003 A 
ATOM      5  C4  UNL d   1       2.855   3.269  -4.151  0.00  0.00    -0.005 A 
ATOM      6  C5  UNL d   1       3.477   2.024  -4.205  0.00  0.00     0.003 A 
ATOM      7  C6  UNL d   1       2.954   0.950  -3.484  0.00  0.00    -0.001 A 
ENDROOT
TORSDOF 0
ENDMDL
