MODEL 1
REMARK minimizedAffinity -2.14905548
REMARK minimizedRMSD -1
REMARK  0 active torsions:
REMARK  status: ('A' for Active; 'I' for Inactive)
ROOT
ATOM      1  C   UNL d   1      -5.929   5.994   3.077  0.00  0.00     0.078 C 
ATOM      2  C1  UNL d   1      -4.646   6.000   3.853  0.00  0.00    -0.077 A 
ATOM      3  C2  UNL d   1      -3.408   5.997   3.199  0.00  0.00    -0.001 A 
ATOM      4  C3  UNL d   1      -2.222   5.992   3.934  0.00  0.00     0.003 A 
ATOM      5  C4  UNL d   1      -2.262   5.990   5.327  0.00  0.00    -0.005 A 
ATOM      6  C5  UNL d   1      -3.489   5.991   5.986  0.00  0.00     0.003 A 
ATOM      7  C6  UNL d   1      -4.677   5.995   5.253  0.00  0.00    -0.001 A 
ENDROOT
TORSDOF 0
ENDMDL
