MODEL 1
REMARK minimizedAffinity 0.282021791
REMARK minimizedRMSD -1
REMARK  0 active torsions:
REMARK  status: ('A' for Active; 'I' for Inactive)
ROOT
ATOM      1  C   UNL d   1      -4.876   4.834   2.270  0.00  0.00     0.078 C 
ATOM      2  C1  UNL d   1      -4.219   5.212   3.565  0.00  0.00    -0.077 A 
ATOM      3  C2  UNL d   1      -2.893   5.661   3.597  0.00  0.00    -0.001 A 
ATOM      4  C3  UNL d   1      -2.292   6.000   4.810  0.00  0.00     0.003 A 
ATOM      5  C4  UNL d   1      -3.008   5.892   6.000  0.00  0.00    -0.005 A 
ATOM      6  C5  UNL d   1      -4.327   5.443   5.978  0.00  0.00     0.003 A 
ATOM      7  C6  UNL d   1      -4.930   5.104   4.766  0.00  0.00    -0.001 A 
ENDROOT
TORSDOF 0
ENDMDL
