MODEL 1
REMARK minimizedAffinity 2.51560354
REMARK minimizedRMSD -1
REMARK  0 active torsions:
REMARK  status: ('A' for Active; 'I' for Inactive)
ROOT
ATOM      1  C   UNL d   1      -5.429   5.460   1.980  0.00  0.00     0.078 C 
ATOM      2  C1  UNL d   1      -4.836   5.470   3.357  0.00  0.00    -0.077 A 
ATOM      3  C2  UNL d   1      -3.560   6.000   3.588  0.00  0.00    -0.001 A 
ATOM      4  C3  UNL d   1      -3.016   5.993   4.874  0.00  0.00     0.003 A 
ATOM      5  C4  UNL d   1      -3.739   5.457   5.937  0.00  0.00    -0.005 A 
ATOM      6  C5  UNL d   1      -5.008   4.925   5.716  0.00  0.00     0.003 A 
ATOM      7  C6  UNL d   1      -5.554   4.931   4.431  0.00  0.00    -0.001 A 
ENDROOT
TORSDOF 0
ENDMDL
