MODEL 1
REMARK minimizedAffinity -1.15028894
REMARK minimizedRMSD -1
REMARK  0 active torsions:
REMARK  status: ('A' for Active; 'I' for Inactive)
ROOT
ATOM      1  C   UNL d   1       1.574   4.014  -0.781  0.00  0.00     0.078 C 
ATOM      2  C1  UNL d   1       1.675   2.710  -1.514  0.00  0.00    -0.077 A 
ATOM      3  C2  UNL d   1       1.524   1.491  -0.841  0.00  0.00    -0.001 A 
ATOM      4  C3  UNL d   1       1.630   0.284  -1.534  0.00  0.00     0.003 A 
ATOM      5  C4  UNL d   1       1.889   0.284  -2.903  0.00  0.00    -0.005 A 
ATOM      6  C5  UNL d   1       2.043   1.492  -3.581  0.00  0.00     0.003 A 
ATOM      7  C6  UNL d   1       1.937   2.700  -2.889  0.00  0.00    -0.001 A 
ENDROOT
TORSDOF 0
ENDMDL
