MODEL 1
REMARK minimizedAffinity -1.72962248
REMARK minimizedRMSD -1
REMARK  0 active torsions:
REMARK  status: ('A' for Active; 'I' for Inactive)
ROOT
ATOM      1  C   UNL d   1       4.862  -5.992   6.000  0.00  0.00     0.078 C 
ATOM      2  C1  UNL d   1       4.846  -4.514   5.748  0.00  0.00    -0.077 A 
ATOM      3  C2  UNL d   1       3.693  -3.876   5.273  0.00  0.00    -0.001 A 
ATOM      4  C3  UNL d   1       3.695  -2.501   5.034  0.00  0.00     0.003 A 
ATOM      5  C4  UNL d   1       4.847  -1.752   5.266  0.00  0.00    -0.005 A 
ATOM      6  C5  UNL d   1       6.000  -2.379   5.737  0.00  0.00     0.003 A 
ATOM      7  C6  UNL d   1       5.999  -3.754   5.977  0.00  0.00    -0.001 A 
ENDROOT
TORSDOF 0
ENDMDL
