MODEL 1
REMARK minimizedAffinity 0.0416673198
REMARK minimizedRMSD -1
REMARK  0 active torsions:
REMARK  status: ('A' for Active; 'I' for Inactive)
ROOT
ATOM      1  C   UNL d   1       5.971  -1.247   5.543  0.00  0.00     0.078 C 
ATOM      2  C1  UNL d   1       5.286  -2.579   5.616  0.00  0.00    -0.077 A 
ATOM      3  C2  UNL d   1       5.998  -3.739   5.945  0.00  0.00    -0.001 A 
ATOM      4  C3  UNL d   1       5.349  -4.974   6.000  0.00  0.00     0.003 A 
ATOM      5  C4  UNL d   1       3.986  -5.061   5.725  0.00  0.00    -0.005 A 
ATOM      6  C5  UNL d   1       3.270  -3.912   5.394  0.00  0.00     0.003 A 
ATOM      7  C6  UNL d   1       3.917  -2.677   5.339  0.00  0.00    -0.001 A 
ENDROOT
TORSDOF 0
ENDMDL
