MODEL 1
REMARK minimizedAffinity -2.59971833
REMARK minimizedRMSD -1
REMARK  0 active torsions:
REMARK  status: ('A' for Active; 'I' for Inactive)
ROOT
ATOM      1  C   UNL d   1      -5.351   5.947   2.267  0.00  0.00     0.078 C 
ATOM      2  C1  UNL d   1      -4.549   5.953   3.534  0.00  0.00    -0.077 A 
ATOM      3  C2  UNL d   1      -5.177   5.970   4.785  0.00  0.00    -0.001 A 
ATOM      4  C3  UNL d   1      -4.417   5.985   5.956  0.00  0.00     0.003 A 
ATOM      5  C4  UNL d   1      -3.026   5.984   5.887  0.00  0.00    -0.005 A 
ATOM      6  C5  UNL d   1      -2.392   5.969   4.647  0.00  0.00     0.003 A 
ATOM      7  C6  UNL d   1      -3.149   5.954   3.475  0.00  0.00    -0.001 A 
ENDROOT
TORSDOF 0
ENDMDL
