MODEL 1
REMARK minimizedAffinity -0.183808938
REMARK minimizedRMSD -1
REMARK  0 active torsions:
REMARK  status: ('A' for Active; 'I' for Inactive)
ROOT
ATOM      1  C   UNL d   1       2.893   4.910  -3.648  0.00  0.00     0.078 C 
ATOM      2  C1  UNL d   1       2.162   3.605  -3.751  0.00  0.00    -0.077 A 
ATOM      3  C2  UNL d   1       1.678   2.957  -2.608  0.00  0.00    -0.001 A 
ATOM      4  C3  UNL d   1       1.008   1.738  -2.718  0.00  0.00     0.003 A 
ATOM      5  C4  UNL d   1       0.815   1.156  -3.969  0.00  0.00    -0.005 A 
ATOM      6  C5  UNL d   1       1.295   1.792  -5.112  0.00  0.00     0.003 A 
ATOM      7  C6  UNL d   1       1.966   3.011  -5.004  0.00  0.00    -0.001 A 
ENDROOT
TORSDOF 0
ENDMDL
