MODEL 1
REMARK minimizedAffinity -1.09405184
REMARK minimizedRMSD -1
REMARK  0 active torsions:
REMARK  status: ('A' for Active; 'I' for Inactive)
ROOT
ATOM      1  C   UNL d   1       5.074  -0.700   4.864  0.00  0.00     0.078 C 
ATOM      2  C1  UNL d   1       4.891  -2.138   5.250  0.00  0.00    -0.077 A 
ATOM      3  C2  UNL d   1       3.621  -2.728   5.253  0.00  0.00    -0.001 A 
ATOM      4  C3  UNL d   1       3.465  -4.064   5.625  0.00  0.00     0.003 A 
ATOM      5  C4  UNL d   1       4.574  -4.821   5.997  0.00  0.00    -0.005 A 
ATOM      6  C5  UNL d   1       5.841  -4.242   5.999  0.00  0.00     0.003 A 
ATOM      7  C6  UNL d   1       6.000  -2.906   5.628  0.00  0.00    -0.001 A 
ENDROOT
TORSDOF 0
ENDMDL
