MODEL 1
REMARK minimizedAffinity 0.888230681
REMARK minimizedRMSD -1
REMARK  0 active torsions:
REMARK  status: ('A' for Active; 'I' for Inactive)
ROOT
ATOM      1  C   UNL d   1      -3.732   6.000   6.000  0.00  0.00     0.078 C 
ATOM      2  C1  UNL d   1      -3.778   5.890   4.505  0.00  0.00    -0.077 A 
ATOM      3  C2  UNL d   1      -2.603   5.895   3.745  0.00  0.00    -0.001 A 
ATOM      4  C3  UNL d   1      -2.662   5.802   2.353  0.00  0.00     0.003 A 
ATOM      5  C4  UNL d   1      -3.894   5.705   1.710  0.00  0.00    -0.005 A 
ATOM      6  C5  UNL d   1      -5.069   5.701   2.458  0.00  0.00     0.003 A 
ATOM      7  C6  UNL d   1      -5.012   5.794   3.850  0.00  0.00    -0.001 A 
ENDROOT
TORSDOF 0
ENDMDL
