MODEL 1
REMARK minimizedAffinity -1.71515143
REMARK minimizedRMSD -1
REMARK  1 active torsions:
REMARK  status: ('A' for Active; 'I' for Inactive)
REMARK    1  A    between atoms: C1_2  and  C2_3 
ROOT
ATOM      1  C2  UNL d   1       3.934   5.252   0.519  0.00  0.00    -0.077 A 
ATOM      2  C3  UNL d   1       2.645   4.954   0.056  0.00  0.00     0.002 A 
ATOM      3  C4  UNL d   1       2.321   5.126  -1.292  0.00  0.00     0.002 A 
ATOM      4  C5  UNL d   1       3.282   5.593  -2.187  0.00  0.00    -0.004 A 
ATOM      5  C6  UNL d   1       4.566   5.894  -1.735  0.00  0.00     0.002 A 
ATOM      6  C7  UNL d   1       4.891   5.724  -0.389  0.00  0.00     0.002 A 
ENDROOT
BRANCH   1   7
ATOM      7  C1  UNL d   1       4.299   5.021   1.962  0.00  0.00     0.055 C 
ATOM      8  C   UNL d   1       5.501   5.861   2.371  0.00  0.00     0.019 C 
ENDBRANCH   1   7
TORSDOF 1
ENDMDL
