MODEL 1
REMARK minimizedAffinity 8.1403923
REMARK minimizedRMSD -1
REMARK  1 active torsions:
REMARK  status: ('A' for Active; 'I' for Inactive)
REMARK    1  A    between atoms: C1_2  and  C2_3 
ROOT
ATOM      1  C2  UNL d   1       3.585  -5.820   3.806  0.00  0.00    -0.077 A 
ATOM      2  C3  UNL d   1       4.848  -5.912   3.205  0.00  0.00     0.002 A 
ATOM      3  C4  UNL d   1       5.999  -5.999   3.990  0.00  0.00     0.002 A 
ATOM      4  C5  UNL d   1       5.899  -5.998   5.380  0.00  0.00    -0.004 A 
ATOM      5  C6  UNL d   1       4.647  -5.905   5.987  0.00  0.00     0.002 A 
ATOM      6  C7  UNL d   1       3.495  -5.817   5.204  0.00  0.00     0.002 A 
ENDROOT
BRANCH   1   7
ATOM      7  C1  UNL d   1       2.339  -5.776   2.961  0.00  0.00     0.055 C 
ATOM      8  C   UNL d   1       2.649  -5.329   1.540  0.00  0.00     0.019 C 
ENDBRANCH   1   7
TORSDOF 1
ENDMDL
