MODEL 1
REMARK minimizedAffinity -0.845899165
REMARK minimizedRMSD -1
REMARK  1 active torsions:
REMARK  status: ('A' for Active; 'I' for Inactive)
REMARK    1  A    between atoms: C1_2  and  C2_3 
ROOT
ATOM      1  C2  UNL d   1       3.265   2.013  -3.856  0.00  0.00    -0.077 A 
ATOM      2  C3  UNL d   1       3.968   3.223  -3.926  0.00  0.00     0.002 A 
ATOM      3  C4  UNL d   1       5.282   3.250  -4.398  0.00  0.00     0.002 A 
ATOM      4  C5  UNL d   1       5.901   2.071  -4.807  0.00  0.00    -0.004 A 
ATOM      5  C6  UNL d   1       5.211   0.862  -4.740  0.00  0.00     0.002 A 
ATOM      6  C7  UNL d   1       3.898   0.833  -4.267  0.00  0.00     0.002 A 
ENDROOT
BRANCH   1   7
ATOM      7  C1  UNL d   1       1.831   1.989  -3.393  0.00  0.00     0.055 C 
ATOM      8  C   UNL d   1       1.310   0.563  -3.281  0.00  0.00     0.019 C 
ENDBRANCH   1   7
TORSDOF 1
ENDMDL
