MODEL 1
REMARK minimizedAffinity 8.03368187
REMARK minimizedRMSD -1
REMARK  1 active torsions:
REMARK  status: ('A' for Active; 'I' for Inactive)
REMARK    1  A    between atoms: C1_2  and  C2_3 
ROOT
ATOM      1  C2  UNL d   1       1.567   1.192  -0.778  0.00  0.00    -0.077 A 
ATOM      2  C3  UNL d   1       1.932   1.505   0.539  0.00  0.00     0.002 A 
ATOM      3  C4  UNL d   1       0.986   2.009   1.433  0.00  0.00     0.002 A 
ATOM      4  C5  UNL d   1      -0.331   2.200   1.022  0.00  0.00    -0.004 A 
ATOM      5  C6  UNL d   1      -0.704   1.894  -0.286  0.00  0.00     0.002 A 
ATOM      6  C7  UNL d   1       0.241   1.392  -1.182  0.00  0.00     0.002 A 
ENDROOT
BRANCH   1   7
ATOM      7  C1  UNL d   1       2.575   0.602  -1.730  0.00  0.00     0.055 C 
ATOM      8  C   UNL d   1       3.090  -0.739  -1.229  0.00  0.00     0.019 C 
ENDBRANCH   1   7
TORSDOF 1
ENDMDL
