MODEL 1
REMARK minimizedAffinity 7.3894639
REMARK minimizedRMSD -1
REMARK  1 active torsions:
REMARK  status: ('A' for Active; 'I' for Inactive)
REMARK    1  A    between atoms: C1_2  and  C2_3 
ROOT
ATOM      1  C2  UNL d   1       0.107  -0.096  -1.079  0.00  0.00    -0.077 A 
ATOM      2  C3  UNL d   1       0.191  -1.488  -0.937  0.00  0.00     0.002 A 
ATOM      3  C4  UNL d   1       1.413  -2.143  -1.098  0.00  0.00     0.002 A 
ATOM      4  C5  UNL d   1       2.562  -1.413  -1.396  0.00  0.00    -0.004 A 
ATOM      5  C6  UNL d   1       2.489  -0.028  -1.541  0.00  0.00     0.002 A 
ATOM      6  C7  UNL d   1       1.268   0.628  -1.382  0.00  0.00     0.002 A 
ENDROOT
BRANCH   1   7
ATOM      7  C1  UNL d   1      -1.201   0.617  -0.858  0.00  0.00     0.055 C 
ATOM      8  C   UNL d   1      -2.365  -0.363  -0.811  0.00  0.00     0.019 C 
ENDBRANCH   1   7
TORSDOF 1
ENDMDL
