MODEL 1
REMARK minimizedAffinity 8.40391827
REMARK minimizedRMSD -1
REMARK  1 active torsions:
REMARK  status: ('A' for Active; 'I' for Inactive)
REMARK    1  A    between atoms: C1_2  and  C2_3 
ROOT
ATOM      1  C2  UNL d   1       0.077  -0.274  -0.974  0.00  0.00    -0.077 A 
ATOM      2  C3  UNL d   1       0.334  -1.568  -0.501  0.00  0.00     0.002 A 
ATOM      3  C4  UNL d   1       1.570  -2.173  -0.734  0.00  0.00     0.002 A 
ATOM      4  C5  UNL d   1       2.560  -1.490  -1.437  0.00  0.00    -0.004 A 
ATOM      5  C6  UNL d   1       2.314  -0.203  -1.914  0.00  0.00     0.002 A 
ATOM      6  C7  UNL d   1       1.078   0.403  -1.682  0.00  0.00     0.002 A 
ENDROOT
BRANCH   1   7
ATOM      7  C1  UNL d   1      -1.238   0.399  -0.680  0.00  0.00     0.055 C 
ATOM      8  C   UNL d   1      -2.388  -0.597  -0.708  0.00  0.00     0.019 C 
ENDBRANCH   1   7
TORSDOF 1
ENDMDL
