MODEL 1
REMARK minimizedAffinity 9.90373707
REMARK minimizedRMSD -1
REMARK  1 active torsions:
REMARK  status: ('A' for Active; 'I' for Inactive)
REMARK    1  A    between atoms: C1_2  and  C2_3 
ROOT
ATOM      1  C2  UNL d   1       3.045  -2.906  -0.318  0.00  0.00    -0.077 A 
ATOM      2  C3  UNL d   1       2.656  -4.249  -0.433  0.00  0.00     0.002 A 
ATOM      3  C4  UNL d   1       2.489  -5.035   0.709  0.00  0.00     0.002 A 
ATOM      4  C5  UNL d   1       2.703  -4.488   1.972  0.00  0.00    -0.004 A 
ATOM      5  C6  UNL d   1       3.091  -3.155   2.096  0.00  0.00     0.002 A 
ATOM      6  C7  UNL d   1       3.261  -2.367   0.957  0.00  0.00     0.002 A 
ENDROOT
BRANCH   1   7
ATOM      7  C1  UNL d   1       3.179  -2.043  -1.545  0.00  0.00     0.055 C 
ATOM      8  C   UNL d   1       1.851  -1.396  -1.914  0.00  0.00     0.019 C 
ENDBRANCH   1   7
TORSDOF 1
ENDMDL
