MODEL 1
REMARK minimizedAffinity 3.06210518
REMARK minimizedRMSD -1
REMARK  1 active torsions:
REMARK  status: ('A' for Active; 'I' for Inactive)
REMARK    1  A    between atoms: C1_2  and  C2_3 
ROOT
ATOM      1  C2  UNL d   1       1.796  -3.118  -0.415  0.00  0.00    -0.077 A 
ATOM      2  C3  UNL d   1       3.042  -2.521  -0.650  0.00  0.00     0.002 A 
ATOM      3  C4  UNL d   1       3.181  -1.540  -1.634  0.00  0.00     0.002 A 
ATOM      4  C5  UNL d   1       2.077  -1.145  -2.387  0.00  0.00    -0.004 A 
ATOM      5  C6  UNL d   1       0.834  -1.734  -2.162  0.00  0.00     0.002 A 
ATOM      6  C7  UNL d   1       0.694  -2.716  -1.180  0.00  0.00     0.002 A 
ENDROOT
BRANCH   1   7
ATOM      7  C1  UNL d   1       1.633  -4.140   0.679  0.00  0.00     0.055 C 
ATOM      8  C   UNL d   1       2.189  -5.494   0.259  0.00  0.00     0.019 C 
ENDBRANCH   1   7
TORSDOF 1
ENDMDL
