MODEL 1
REMARK minimizedAffinity 3.28593135
REMARK minimizedRMSD -1
REMARK  1 active torsions:
REMARK  status: ('A' for Active; 'I' for Inactive)
REMARK    1  A    between atoms: C1_2  and  C2_3 
ROOT
ATOM      1  C2  UNL d   1       0.893  -0.287  -0.982  0.00  0.00    -0.077 A 
ATOM      2  C3  UNL d   1       1.446  -0.855  -2.138  0.00  0.00     0.002 A 
ATOM      3  C4  UNL d   1       2.203  -2.025  -2.058  0.00  0.00     0.002 A 
ATOM      4  C5  UNL d   1       2.410  -2.640  -0.824  0.00  0.00    -0.004 A 
ATOM      5  C6  UNL d   1       1.865  -2.082   0.331  0.00  0.00     0.002 A 
ATOM      6  C7  UNL d   1       1.110  -0.911   0.253  0.00  0.00     0.002 A 
ENDROOT
BRANCH   1   7
ATOM      7  C1  UNL d   1       0.036   0.948  -1.073  0.00  0.00     0.055 C 
ATOM      8  C   UNL d   1       0.817   2.194  -0.681  0.00  0.00     0.019 C 
ENDBRANCH   1   7
TORSDOF 1
ENDMDL
