MODEL 1
REMARK minimizedAffinity 3.3906064
REMARK minimizedRMSD -1
REMARK  1 active torsions:
REMARK  status: ('A' for Active; 'I' for Inactive)
REMARK    1  A    between atoms: C1_2  and  C2_3 
ROOT
ATOM      1  C2  UNL d   1       2.373  -1.017  -1.727  0.00  0.00    -0.077 A 
ATOM      2  C3  UNL d   1       3.022  -0.518  -2.865  0.00  0.00     0.002 A 
ATOM      3  C4  UNL d   1       2.774   0.783  -3.306  0.00  0.00     0.002 A 
ATOM      4  C5  UNL d   1       1.881   1.597  -2.613  0.00  0.00    -0.004 A 
ATOM      5  C6  UNL d   1       1.229   1.109  -1.481  0.00  0.00     0.002 A 
ATOM      6  C7  UNL d   1       1.475  -0.191  -1.040  0.00  0.00     0.002 A 
ENDROOT
BRANCH   1   7
ATOM      7  C1  UNL d   1       2.677  -2.403  -1.221  0.00  0.00     0.055 C 
ATOM      8  C   UNL d   1       1.561  -2.922  -0.325  0.00  0.00     0.019 C 
ENDBRANCH   1   7
TORSDOF 1
ENDMDL
