MODEL 1
REMARK minimizedAffinity 8.96180058
REMARK minimizedRMSD -1
REMARK  1 active torsions:
REMARK  status: ('A' for Active; 'I' for Inactive)
REMARK    1  A    between atoms: C1_2  and  C2_3 
ROOT
ATOM      1  C2  UNL d   1      -4.575  -1.428   0.914  0.00  0.00    -0.077 A 
ATOM      2  C3  UNL d   1      -4.211  -1.070  -0.392  0.00  0.00     0.002 A 
ATOM      3  C4  UNL d   1      -2.896  -0.700  -0.682  0.00  0.00     0.002 A 
ATOM      4  C5  UNL d   1      -1.935  -0.688   0.327  0.00  0.00    -0.004 A 
ATOM      5  C6  UNL d   1      -2.288  -1.041   1.629  0.00  0.00     0.002 A 
ATOM      6  C7  UNL d   1      -3.602  -1.410   1.921  0.00  0.00     0.002 A 
ENDROOT
BRANCH   1   7
ATOM      7  C1  UNL d   1      -5.981  -1.874   1.218  0.00  0.00     0.055 C 
ATOM      8  C   UNL d   1      -5.998  -2.966   2.279  0.00  0.00     0.019 C 
ENDBRANCH   1   7
TORSDOF 1
ENDMDL
