MODEL 1
REMARK minimizedAffinity -2.88524294
REMARK minimizedRMSD -1
REMARK  1 active torsions:
REMARK  status: ('A' for Active; 'I' for Inactive)
REMARK    1  A    between atoms: C1_2  and  C2_3 
ROOT
ATOM      1  C2  UNL d   1       0.977   0.055  -1.566  0.00  0.00    -0.077 A 
ATOM      2  C3  UNL d   1       0.068  -0.605  -0.727  0.00  0.00     0.002 A 
ATOM      3  C4  UNL d   1       0.331  -1.903  -0.284  0.00  0.00     0.002 A 
ATOM      4  C5  UNL d   1       1.503  -2.549  -0.670  0.00  0.00    -0.004 A 
ATOM      5  C6  UNL d   1       2.412  -1.902  -1.505  0.00  0.00     0.002 A 
ATOM      6  C7  UNL d   1       2.151  -0.605  -1.951  0.00  0.00     0.002 A 
ENDROOT
BRANCH   1   7
ATOM      7  C1  UNL d   1       0.720   1.473  -2.005  0.00  0.00     0.055 C 
ATOM      8  C   UNL d   1      -0.463   2.077  -1.262  0.00  0.00     0.019 C 
ENDBRANCH   1   7
TORSDOF 1
ENDMDL
