MODEL 1
REMARK minimizedAffinity 0.247770965
REMARK minimizedRMSD -1
REMARK  1 active torsions:
REMARK  status: ('A' for Active; 'I' for Inactive)
REMARK    1  A    between atoms: C1_2  and  C2_3 
ROOT
ATOM      1  C2  UNL d   1       2.984   0.467  -1.955  0.00  0.00    -0.077 A 
ATOM      2  C3  UNL d   1       1.936  -0.456  -2.077  0.00  0.00     0.002 A 
ATOM      3  C4  UNL d   1       2.089  -1.764  -1.614  0.00  0.00     0.002 A 
ATOM      4  C5  UNL d   1       3.287  -2.160  -1.023  0.00  0.00    -0.004 A 
ATOM      5  C6  UNL d   1       4.337  -1.250  -0.899  0.00  0.00     0.002 A 
ATOM      6  C7  UNL d   1       4.186   0.057  -1.363  0.00  0.00     0.002 A 
ENDROOT
BRANCH   1   7
ATOM      7  C1  UNL d   1       2.804   1.892  -2.409  0.00  0.00     0.055 C 
ATOM      8  C   UNL d   1       1.338   2.211  -2.662  0.00  0.00     0.019 C 
ENDBRANCH   1   7
TORSDOF 1
ENDMDL
