MODEL 1
REMARK minimizedAffinity 1.1245364
REMARK minimizedRMSD -1
REMARK  1 active torsions:
REMARK  status: ('A' for Active; 'I' for Inactive)
REMARK    1  A    between atoms: C1_2  and  C2_3 
ROOT
ATOM      1  C2  UNL d   1       1.466  -2.749  -0.783  0.00  0.00    -0.077 A 
ATOM      2  C3  UNL d   1       2.535  -3.422  -1.389  0.00  0.00     0.002 A 
ATOM      3  C4  UNL d   1       3.258  -4.383  -0.679  0.00  0.00     0.002 A 
ATOM      4  C5  UNL d   1       2.916  -4.682   0.639  0.00  0.00    -0.004 A 
ATOM      5  C6  UNL d   1       1.855  -4.016   1.251  0.00  0.00     0.002 A 
ATOM      6  C7  UNL d   1       1.133  -3.054   0.543  0.00  0.00     0.002 A 
ENDROOT
BRANCH   1   7
ATOM      7  C1  UNL d   1       0.654  -1.747  -1.562  0.00  0.00     0.055 C 
ATOM      8  C   UNL d   1       1.548  -0.728  -2.253  0.00  0.00     0.019 C 
ENDBRANCH   1   7
TORSDOF 1
ENDMDL
