MODEL 1
REMARK minimizedAffinity -3.12866545
REMARK minimizedRMSD -1
REMARK  0 active torsions:
REMARK  status: ('A' for Active; 'I' for Inactive)
ROOT
ATOM      1  C   UNL d   1      -0.987   0.750  -0.503  0.00  0.00     0.020 A 
ATOM      2  C1  UNL d   1      -0.019   1.752  -0.436  0.00  0.00     0.020 A 
ATOM      3  C2  UNL d   1       1.213   1.494   0.169  0.00  0.00     0.034 A 
ATOM      4  C3  UNL d   1       1.481   0.231   0.710  0.00  0.00     0.017 A 
ATOM      5  C4  UNL d   1       0.509  -0.774   0.643  0.00  0.00     0.017 A 
ATOM      6  C5  UNL d   1      -0.723  -0.510   0.036  0.00  0.00     0.034 A 
ATOM      7 Cl   UNL d   1       0.767  -2.356   1.288  0.00  0.00    -0.070 Cl
ATOM      8 Cl1  UNL d   1       3.025  -0.017   1.443  0.00  0.00    -0.070 Cl
ENDROOT
TORSDOF 0
ENDMDL
