MODEL 1
REMARK minimizedAffinity -2.48070407
REMARK minimizedRMSD -1
REMARK  0 active torsions:
REMARK  status: ('A' for Active; 'I' for Inactive)
ROOT
ATOM      1  C   UNL d   1       1.519   1.658  -0.409  0.00  0.00     0.020 A 
ATOM      2  C1  UNL d   1       2.602   1.098   0.267  0.00  0.00     0.020 A 
ATOM      3  C2  UNL d   1       2.408   0.003   1.112  0.00  0.00     0.034 A 
ATOM      4  C3  UNL d   1       1.127  -0.535   1.283  0.00  0.00     0.017 A 
ATOM      5  C4  UNL d   1       0.040   0.028   0.605  0.00  0.00     0.017 A 
ATOM      6  C5  UNL d   1       0.241   1.124  -0.240  0.00  0.00     0.034 A 
ATOM      7 Cl   UNL d   1      -1.569  -0.581   0.766  0.00  0.00    -0.070 Cl
ATOM      8 Cl1  UNL d   1       0.960  -1.889   2.343  0.00  0.00    -0.070 Cl
ENDROOT
TORSDOF 0
ENDMDL
