MODEL 1
REMARK minimizedAffinity -2.20134425
REMARK minimizedRMSD -1
REMARK  0 active torsions:
REMARK  status: ('A' for Active; 'I' for Inactive)
ROOT
ATOM      1  C   UNL d   1       0.221  -0.805   0.279  0.00  0.00     0.020 A 
ATOM      2  C1  UNL d   1      -0.077   0.532   0.534  0.00  0.00     0.020 A 
ATOM      3  C2  UNL d   1      -1.106   1.164  -0.168  0.00  0.00     0.034 A 
ATOM      4  C3  UNL d   1      -1.840   0.458  -1.129  0.00  0.00     0.017 A 
ATOM      5  C4  UNL d   1      -1.539  -0.885  -1.384  0.00  0.00     0.017 A 
ATOM      6  C5  UNL d   1      -0.508  -1.512  -0.678  0.00  0.00     0.034 A 
ATOM      7 Cl   UNL d   1      -2.400  -1.821  -2.554  0.00  0.00    -0.070 Cl
ATOM      8 Cl1  UNL d   1      -3.098   1.303  -1.959  0.00  0.00    -0.070 Cl
ENDROOT
TORSDOF 0
ENDMDL
