MODEL 1
REMARK minimizedAffinity -4.06509829
REMARK minimizedRMSD -1
REMARK  0 active torsions:
REMARK  status: ('A' for Active; 'I' for Inactive)
ROOT
ATOM      1  C   UNL d   1      -0.282  -1.682   0.989  0.00  0.00     0.020 A 
ATOM      2  C1  UNL d   1      -1.272  -0.848   0.472  0.00  0.00     0.020 A 
ATOM      3  C2  UNL d   1      -0.971   0.477   0.151  0.00  0.00     0.034 A 
ATOM      4  C3  UNL d   1       0.324   0.972   0.346  0.00  0.00     0.017 A 
ATOM      5  C4  UNL d   1       1.317   0.134   0.865  0.00  0.00     0.017 A 
ATOM      6  C5  UNL d   1       1.010  -1.192   1.185  0.00  0.00     0.034 A 
ATOM      7 Cl   UNL d   1       2.937   0.673   1.135  0.00  0.00    -0.070 Cl
ATOM      8 Cl1  UNL d   1       0.625   2.621  -0.073  0.00  0.00    -0.070 Cl
ENDROOT
TORSDOF 0
ENDMDL
