MODEL 1
REMARK minimizedAffinity -2.64372873
REMARK minimizedRMSD -1
REMARK  0 active torsions:
REMARK  status: ('A' for Active; 'I' for Inactive)
ROOT
ATOM      1  C   UNL d   1       1.649   1.062   0.421  0.00  0.00     0.020 A 
ATOM      2  C1  UNL d   1       0.475   0.719  -0.248  0.00  0.00     0.020 A 
ATOM      3  C2  UNL d   1      -0.217  -0.442   0.106  0.00  0.00     0.034 A 
ATOM      4  C3  UNL d   1       0.265  -1.263   1.132  0.00  0.00     0.017 A 
ATOM      5  C4  UNL d   1       1.444  -0.918   1.802  0.00  0.00     0.017 A 
ATOM      6  C5  UNL d   1       2.132   0.245   1.444  0.00  0.00     0.034 A 
ATOM      7 Cl   UNL d   1       2.100  -1.881   3.078  0.00  0.00    -0.070 Cl
ATOM      8 Cl1  UNL d   1      -0.641  -2.683   1.517  0.00  0.00    -0.070 Cl
ENDROOT
TORSDOF 0
ENDMDL
