MODEL 1
REMARK minimizedAffinity -3.0813992
REMARK minimizedRMSD -1
REMARK  0 active torsions:
REMARK  status: ('A' for Active; 'I' for Inactive)
ROOT
ATOM      1  C   UNL d   1       1.331   1.955  -0.069  0.00  0.00     0.020 A 
ATOM      2  C1  UNL d   1       1.793   0.988   0.823  0.00  0.00     0.020 A 
ATOM      3  C2  UNL d   1       0.992  -0.112   1.138  0.00  0.00     0.034 A 
ATOM      4  C3  UNL d   1      -0.275  -0.248   0.559  0.00  0.00     0.017 A 
ATOM      5  C4  UNL d   1      -0.738   0.723  -0.337  0.00  0.00     0.017 A 
ATOM      6  C5  UNL d   1       0.069   1.822  -0.648  0.00  0.00     0.034 A 
ATOM      7 Cl   UNL d   1      -2.290   0.624  -1.091  0.00  0.00    -0.070 Cl
ATOM      8 Cl1  UNL d   1      -1.212  -1.633   0.993  0.00  0.00    -0.070 Cl
ENDROOT
TORSDOF 0
ENDMDL
