MODEL 1
REMARK minimizedAffinity -5.27871084
REMARK minimizedRMSD -1
REMARK  0 active torsions:
REMARK  status: ('A' for Active; 'I' for Inactive)
ROOT
ATOM      1  C   UNL d   1       3.363  -0.649   1.694  0.00  0.00     0.020 A 
ATOM      2  C1  UNL d   1       2.403  -1.660   1.658  0.00  0.00     0.020 A 
ATOM      3  C2  UNL d   1       1.186  -1.445   1.008  0.00  0.00     0.034 A 
ATOM      4  C3  UNL d   1       0.925  -0.216   0.391  0.00  0.00     0.017 A 
ATOM      5  C4  UNL d   1       1.889   0.798   0.427  0.00  0.00     0.017 A 
ATOM      6  C5  UNL d   1       3.106   0.577   1.080  0.00  0.00     0.034 A 
ATOM      7 Cl   UNL d   1       1.640   2.341  -0.311  0.00  0.00    -0.070 Cl
ATOM      8 Cl1  UNL d   1      -0.601  -0.019  -0.395  0.00  0.00    -0.070 Cl
ENDROOT
TORSDOF 0
ENDMDL
