MODEL 1
REMARK minimizedAffinity 24.3412991
REMARK minimizedRMSD -1
REMARK  0 active torsions:
REMARK  status: ('A' for Active; 'I' for Inactive)
ROOT
ATOM      1  C   UNL d   1      -4.025  -3.370  -3.564  0.00  0.00     0.124 A 
ATOM      2  C1  UNL d   1      -2.980  -3.163  -2.675  0.00  0.00     0.062 A 
ATOM      3  C2  UNL d   1      -2.897  -3.912  -1.505  0.00  0.00     0.162 A 
ATOM      4  C3  UNL d   1      -3.862  -4.877  -1.217  0.00  0.00    -0.034 A 
ATOM      5  C4  UNL d   1      -4.910  -5.080  -2.116  0.00  0.00     0.162 A 
ATOM      6  C5  UNL d   1      -4.989  -4.328  -3.284  0.00  0.00     0.062 A 
ATOM      7  F   UNL d   1      -6.000  -4.531  -4.142  0.00  0.00    -0.097 F 
ATOM      8  F1  UNL d   1      -5.855  -6.000  -1.871  0.00  0.00    -0.096 F 
ATOM      9  I   UNL d   1      -3.741  -6.000   0.531  0.00  0.00    -0.060 I 
ATOM     10  F2  UNL d   1      -1.876  -3.690  -0.664  0.00  0.00    -0.096 F 
ATOM     11  F3  UNL d   1      -2.048  -2.237  -2.943  0.00  0.00    -0.097 F 
ATOM     12  F4  UNL d   1      -4.103  -2.647  -4.689  0.00  0.00    -0.092 F 
ENDROOT
TORSDOF 0
ENDMDL
