MODEL 1
REMARK minimizedAffinity 19.7695084
REMARK minimizedRMSD -1
REMARK  0 active torsions:
REMARK  status: ('A' for Active; 'I' for Inactive)
ROOT
ATOM      1  C   UNL d   1       4.323   1.871  -2.767  0.00  0.00     0.124 A 
ATOM      2  C1  UNL d   1       3.788   1.366  -3.943  0.00  0.00     0.062 A 
ATOM      3  C2  UNL d   1       3.196   2.221  -4.868  0.00  0.00     0.162 A 
ATOM      4  C3  UNL d   1       3.136   3.593  -4.620  0.00  0.00    -0.034 A 
ATOM      5  C4  UNL d   1       3.676   4.094  -3.434  0.00  0.00     0.162 A 
ATOM      6  C5  UNL d   1       4.266   3.234  -2.513  0.00  0.00     0.062 A 
ATOM      7  F   UNL d   1       4.782   3.725  -1.376  0.00  0.00    -0.097 F 
ATOM      8  F1  UNL d   1       3.635   5.407  -3.163  0.00  0.00    -0.096 F 
ATOM      9  I   UNL d   1       2.252   4.876  -6.000  0.00  0.00    -0.060 I 
ATOM     10  F2  UNL d   1       2.688   1.705  -5.997  0.00  0.00    -0.096 F 
ATOM     11  F3  UNL d   1       3.841   0.049  -4.191  0.00  0.00    -0.097 F 
ATOM     12  F4  UNL d   1       4.891   1.045  -1.878  0.00  0.00    -0.092 F 
ENDROOT
TORSDOF 0
ENDMDL
