MODEL 1
REMARK minimizedAffinity 17.4319897
REMARK minimizedRMSD -1
REMARK  0 active torsions:
REMARK  status: ('A' for Active; 'I' for Inactive)
ROOT
ATOM      1  C   UNL d   1      -2.732  -2.495  -2.330  0.00  0.00     0.124 A 
ATOM      2  C1  UNL d   1      -2.730  -3.873  -2.164  0.00  0.00     0.062 A 
ATOM      3  C2  UNL d   1      -1.902  -4.671  -2.948  0.00  0.00     0.162 A 
ATOM      4  C3  UNL d   1      -1.069  -4.094  -3.906  0.00  0.00    -0.034 A 
ATOM      5  C4  UNL d   1      -1.077  -2.707  -4.068  0.00  0.00     0.162 A 
ATOM      6  C5  UNL d   1      -1.906  -1.913  -3.282  0.00  0.00     0.062 A 
ATOM      7  F   UNL d   1      -1.907  -0.582  -3.444  0.00  0.00    -0.097 F 
ATOM      8  F1  UNL d   1      -0.289  -2.119  -4.980  0.00  0.00    -0.096 F 
ATOM      9  I   UNL d   1       0.170  -5.284  -5.080  0.00  0.00    -0.060 I 
ATOM     10  F2  UNL d   1      -1.920  -6.000  -2.765  0.00  0.00    -0.096 F 
ATOM     11  F3  UNL d   1      -3.527  -4.437  -1.246  0.00  0.00    -0.097 F 
ATOM     12  F4  UNL d   1      -3.530  -1.729  -1.575  0.00  0.00    -0.092 F 
ENDROOT
TORSDOF 0
ENDMDL
