MODEL 1
REMARK minimizedAffinity 20.5898533
REMARK minimizedRMSD -1
REMARK  0 active torsions:
REMARK  status: ('A' for Active; 'I' for Inactive)
ROOT
ATOM      1  C   UNL d   1       3.967  -0.421   1.732  0.00  0.00     0.124 A 
ATOM      2  C1  UNL d   1       3.583  -0.396   3.065  0.00  0.00     0.062 A 
ATOM      3  C2  UNL d   1       2.398   0.231   3.441  0.00  0.00     0.162 A 
ATOM      4  C3  UNL d   1       1.588   0.837   2.481  0.00  0.00    -0.034 A 
ATOM      5  C4  UNL d   1       1.982   0.809   1.142  0.00  0.00     0.162 A 
ATOM      6  C5  UNL d   1       3.167   0.182   0.772  0.00  0.00     0.062 A 
ATOM      7  F   UNL d   1       3.536   0.159  -0.517  0.00  0.00    -0.097 F 
ATOM      8  F1  UNL d   1       1.226   1.382   0.193  0.00  0.00    -0.096 F 
ATOM      9  I   UNL d   1      -0.184   1.775   3.038  0.00  0.00    -0.060 I 
ATOM     10  F2  UNL d   1       2.052   0.239   4.736  0.00  0.00    -0.096 F 
ATOM     11  F3  UNL d   1       4.355  -0.976   3.995  0.00  0.00    -0.097 F 
ATOM     12  F4  UNL d   1       5.108  -1.023   1.373  0.00  0.00    -0.092 F 
ENDROOT
TORSDOF 0
ENDMDL
