MODEL 1
REMARK minimizedAffinity 25.9901352
REMARK minimizedRMSD -1
REMARK  0 active torsions:
REMARK  status: ('A' for Active; 'I' for Inactive)
ROOT
ATOM      1  C   UNL d   1      -2.023  -2.242  -2.176  0.00  0.00     0.124 A 
ATOM      2  C1  UNL d   1      -1.883  -2.048  -0.809  0.00  0.00     0.062 A 
ATOM      3  C2  UNL d   1      -2.350  -3.005   0.086  0.00  0.00     0.162 A 
ATOM      4  C3  UNL d   1      -2.962  -4.168  -0.383  0.00  0.00    -0.034 A 
ATOM      5  C4  UNL d   1      -3.101  -4.356  -1.759  0.00  0.00     0.162 A 
ATOM      6  C5  UNL d   1      -2.631  -3.396  -2.650  0.00  0.00     0.062 A 
ATOM      7  F   UNL d   1      -2.768  -3.586  -3.970  0.00  0.00    -0.097 F 
ATOM      8  F1  UNL d   1      -3.684  -5.462  -2.245  0.00  0.00    -0.096 F 
ATOM      9  I   UNL d   1      -3.663  -5.602   0.952  0.00  0.00    -0.060 I 
ATOM     10  F2  UNL d   1      -2.202  -2.791   1.402  0.00  0.00    -0.096 F 
ATOM     11  F3  UNL d   1      -1.296  -0.933  -0.349  0.00  0.00    -0.097 F 
ATOM     12  F4  UNL d   1      -1.573  -1.319  -3.035  0.00  0.00    -0.092 F 
ENDROOT
TORSDOF 0
ENDMDL
