MODEL 1
REMARK minimizedAffinity 20.5055923
REMARK minimizedRMSD -1
REMARK  0 active torsions:
REMARK  status: ('A' for Active; 'I' for Inactive)
ROOT
ATOM      1  C   UNL d   1       4.985   0.910  -0.398  0.00  0.00     0.124 A 
ATOM      2  C1  UNL d   1       4.984  -0.210   0.421  0.00  0.00     0.062 A 
ATOM      3  C2  UNL d   1       3.931  -0.429   1.305  0.00  0.00     0.162 A 
ATOM      4  C3  UNL d   1       2.869   0.473   1.373  0.00  0.00    -0.034 A 
ATOM      5  C4  UNL d   1       2.878   1.598   0.546  0.00  0.00     0.162 A 
ATOM      6  C5  UNL d   1       3.933   1.813  -0.336  0.00  0.00     0.062 A 
ATOM      7  F   UNL d   1       3.932   2.895  -1.127  0.00  0.00    -0.097 F 
ATOM      8  F1  UNL d   1       1.873   2.485   0.585  0.00  0.00    -0.096 F 
ATOM      9  I   UNL d   1       1.293   0.148   2.692  0.00  0.00    -0.060 I 
ATOM     10  F2  UNL d   1       3.956  -1.520   2.085  0.00  0.00    -0.096 F 
ATOM     11  F3  UNL d   1       6.000  -1.083   0.363  0.00  0.00    -0.097 F 
ATOM     12  F4  UNL d   1       6.000   1.120  -1.247  0.00  0.00    -0.092 F 
ENDROOT
TORSDOF 0
ENDMDL
