MODEL 1
REMARK minimizedAffinity 19.3212738
REMARK minimizedRMSD -1
REMARK  0 active torsions:
REMARK  status: ('A' for Active; 'I' for Inactive)
ROOT
ATOM      1  C   UNL d   1      -1.411  -3.836   1.375  0.00  0.00     0.124 A 
ATOM      2  C1  UNL d   1      -1.428  -2.733   0.533  0.00  0.00     0.062 A 
ATOM      3  C2  UNL d   1      -2.248  -2.724  -0.592  0.00  0.00     0.162 A 
ATOM      4  C3  UNL d   1      -3.060  -3.821  -0.880  0.00  0.00    -0.034 A 
ATOM      5  C4  UNL d   1      -3.036  -4.927  -0.028  0.00  0.00     0.162 A 
ATOM      6  C5  UNL d   1      -2.215  -4.932   1.094  0.00  0.00     0.062 A 
ATOM      7  F   UNL d   1      -2.199  -5.998   1.907  0.00  0.00    -0.097 F 
ATOM      8  F1  UNL d   1      -3.804  -5.999  -0.276  0.00  0.00    -0.096 F 
ATOM      9  I   UNL d   1      -4.288  -3.811  -2.560  0.00  0.00    -0.060 I 
ATOM     10  F2  UNL d   1      -2.245  -1.645  -1.388  0.00  0.00    -0.096 F 
ATOM     11  F3  UNL d   1      -0.652  -1.674   0.802  0.00  0.00    -0.097 F 
ATOM     12  F4  UNL d   1      -0.620  -3.843   2.456  0.00  0.00    -0.092 F 
ENDROOT
TORSDOF 0
ENDMDL
