MODEL 1
REMARK minimizedAffinity 26.5091553
REMARK minimizedRMSD -1
REMARK  0 active torsions:
REMARK  status: ('A' for Active; 'I' for Inactive)
ROOT
ATOM      1  C   UNL d   1      -1.933  -2.509  -2.289  0.00  0.00     0.124 A 
ATOM      2  C1  UNL d   1      -2.312  -2.880  -3.572  0.00  0.00     0.062 A 
ATOM      3  C2  UNL d   1      -3.382  -3.750  -3.761  0.00  0.00     0.162 A 
ATOM      4  C3  UNL d   1      -4.081  -4.255  -2.665  0.00  0.00    -0.034 A 
ATOM      5  C4  UNL d   1      -3.693  -3.878  -1.378  0.00  0.00     0.162 A 
ATOM      6  C5  UNL d   1      -2.623  -3.008  -1.194  0.00  0.00     0.062 A 
ATOM      7  F   UNL d   1      -2.258  -2.651   0.046  0.00  0.00    -0.097 F 
ATOM      8  F1  UNL d   1      -4.343  -4.345  -0.302  0.00  0.00    -0.096 F 
ATOM      9  I   UNL d   1      -5.681  -5.556  -2.944  0.00  0.00    -0.060 I 
ATOM     10  F2  UNL d   1      -3.726  -4.091  -5.012  0.00  0.00    -0.096 F 
ATOM     11  F3  UNL d   1      -1.646  -2.399  -4.632  0.00  0.00    -0.097 F 
ATOM     12  F4  UNL d   1      -0.902  -1.672  -2.110  0.00  0.00    -0.092 F 
ENDROOT
TORSDOF 0
ENDMDL
