MODEL 1
REMARK minimizedAffinity 23.4715176
REMARK minimizedRMSD -1
REMARK  0 active torsions:
REMARK  status: ('A' for Active; 'I' for Inactive)
ROOT
ATOM      1  C   UNL d   1      -0.199  -3.843  -5.094  0.00  0.00     0.124 A 
ATOM      2  C1  UNL d   1      -1.230  -2.914  -5.076  0.00  0.00     0.062 A 
ATOM      3  C2  UNL d   1      -2.251  -3.020  -4.136  0.00  0.00     0.162 A 
ATOM      4  C3  UNL d   1      -2.246  -4.058  -3.205  0.00  0.00    -0.034 A 
ATOM      5  C4  UNL d   1      -1.206  -4.989  -3.230  0.00  0.00     0.162 A 
ATOM      6  C5  UNL d   1      -0.188  -4.879  -4.171  0.00  0.00     0.062 A 
ATOM      7  F   UNL d   1       0.808  -5.777  -4.187  0.00  0.00    -0.097 F 
ATOM      8  F1  UNL d   1      -1.170  -6.000  -2.349  0.00  0.00    -0.096 F 
ATOM      9  I   UNL d   1      -3.771  -4.220  -1.798  0.00  0.00    -0.060 I 
ATOM     10  F2  UNL d   1      -3.235  -2.108  -4.143  0.00  0.00    -0.096 F 
ATOM     11  F3  UNL d   1      -1.244  -1.912  -5.967  0.00  0.00    -0.097 F 
ATOM     12  F4  UNL d   1       0.782  -3.739  -6.000  0.00  0.00    -0.092 F 
ENDROOT
TORSDOF 0
ENDMDL
