MODEL 1
REMARK minimizedAffinity 15.1269388
REMARK minimizedRMSD -1
REMARK  0 active torsions:
REMARK  status: ('A' for Active; 'I' for Inactive)
ROOT
ATOM      1  C   UNL d   1      -1.339  -3.804   2.721  0.00  0.00     0.124 A 
ATOM      2  C1  UNL d   1      -2.043  -4.916   2.282  0.00  0.00     0.062 A 
ATOM      3  C2  UNL d   1      -2.651  -4.911   1.030  0.00  0.00     0.162 A 
ATOM      4  C3  UNL d   1      -2.557  -3.788   0.207  0.00  0.00    -0.034 A 
ATOM      5  C4  UNL d   1      -1.848  -2.673   0.656  0.00  0.00     0.162 A 
ATOM      6  C5  UNL d   1      -1.242  -2.683   1.908  0.00  0.00     0.062 A 
ATOM      7  F   UNL d   1      -0.563  -1.607   2.331  0.00  0.00    -0.097 F 
ATOM      8  F1  UNL d   1      -1.737  -1.577  -0.110  0.00  0.00    -0.096 F 
ATOM      9  I   UNL d   1      -3.464  -3.776  -1.666  0.00  0.00    -0.060 I 
ATOM     10  F2  UNL d   1      -3.325  -6.000   0.631  0.00  0.00    -0.096 F 
ATOM     11  F3  UNL d   1      -2.139  -6.000   3.066  0.00  0.00    -0.097 F 
ATOM     12  F4  UNL d   1      -0.756  -3.812   3.927  0.00  0.00    -0.092 F 
ENDROOT
TORSDOF 0
ENDMDL
