MODEL 1
REMARK minimizedAffinity 15.6409311
REMARK minimizedRMSD -1
REMARK  0 active torsions:
REMARK  status: ('A' for Active; 'I' for Inactive)
ROOT
ATOM      1  C   UNL d   1      -0.736  -2.024   0.348  0.00  0.00     0.124 A 
ATOM      2  C1  UNL d   1      -0.768  -1.757  -1.014  0.00  0.00     0.062 A 
ATOM      3  C2  UNL d   1      -1.607  -2.487  -1.851  0.00  0.00     0.162 A 
ATOM      4  C3  UNL d   1      -2.422  -3.491  -1.329  0.00  0.00    -0.034 A 
ATOM      5  C4  UNL d   1      -2.384  -3.755   0.041  0.00  0.00     0.162 A 
ATOM      6  C5  UNL d   1      -1.544  -3.023   0.874  0.00  0.00     0.062 A 
ATOM      7  F   UNL d   1      -1.514  -3.282   2.189  0.00  0.00    -0.097 F 
ATOM      8  F1  UNL d   1      -3.154  -4.713   0.577  0.00  0.00    -0.096 F 
ATOM      9  I   UNL d   1      -3.677  -4.585  -2.578  0.00  0.00    -0.060 I 
ATOM     10  F2  UNL d   1      -1.617  -2.207  -3.163  0.00  0.00    -0.096 F 
ATOM     11  F3  UNL d   1       0.012  -0.793  -1.525  0.00  0.00    -0.097 F 
ATOM     12  F4  UNL d   1       0.073  -1.321   1.151  0.00  0.00    -0.092 F 
ENDROOT
TORSDOF 0
ENDMDL
