MODEL 1
REMARK minimizedAffinity 6.69784689
REMARK minimizedRMSD -1
REMARK  0 active torsions:
REMARK  status: ('A' for Active; 'I' for Inactive)
ROOT
ATOM      1  C   UNL d   1      -1.271  -3.456  -3.218  0.00  0.00     0.124 A 
ATOM      2  C1  UNL d   1      -2.055  -2.577  -2.484  0.00  0.00     0.062 A 
ATOM      3  C2  UNL d   1      -3.405  -2.846  -2.279  0.00  0.00     0.162 A 
ATOM      4  C3  UNL d   1      -3.980  -4.001  -2.809  0.00  0.00    -0.034 A 
ATOM      5  C4  UNL d   1      -3.186  -4.880  -3.547  0.00  0.00     0.162 A 
ATOM      6  C5  UNL d   1      -1.837  -4.606  -3.749  0.00  0.00     0.062 A 
ATOM      7  F   UNL d   1      -1.081  -5.457  -4.458  0.00  0.00    -0.097 F 
ATOM      8  F1  UNL d   1      -3.707  -6.000  -4.071  0.00  0.00    -0.096 F 
ATOM      9  I   UNL d   1      -5.999  -4.407  -2.505  0.00  0.00    -0.060 I 
ATOM     10  F2  UNL d   1      -4.138  -1.979  -1.566  0.00  0.00    -0.096 F 
ATOM     11  F3  UNL d   1      -1.511  -1.464  -1.971  0.00  0.00    -0.097 F 
ATOM     12  F4  UNL d   1       0.028  -3.194  -3.414  0.00  0.00    -0.092 F 
ENDROOT
TORSDOF 0
ENDMDL
