MODEL 1
REMARK minimizedAffinity 20.3770466
REMARK minimizedRMSD -1
REMARK  0 active torsions:
REMARK  status: ('A' for Active; 'I' for Inactive)
ROOT
ATOM      1  C   UNL d   1      -0.714  -2.974   1.039  0.00  0.00     0.124 A 
ATOM      2  C1  UNL d   1      -1.511  -2.923  -0.096  0.00  0.00     0.062 A 
ATOM      3  C2  UNL d   1      -2.595  -3.786  -0.228  0.00  0.00     0.162 A 
ATOM      4  C3  UNL d   1      -2.889  -4.707   0.778  0.00  0.00    -0.034 A 
ATOM      5  C4  UNL d   1      -2.082  -4.752   1.916  0.00  0.00     0.162 A 
ATOM      6  C5  UNL d   1      -1.000  -3.888   2.043  0.00  0.00     0.062 A 
ATOM      7  F   UNL d   1      -0.230  -3.938   3.141  0.00  0.00    -0.097 F 
ATOM      8  F1  UNL d   1      -2.336  -5.625   2.902  0.00  0.00    -0.096 F 
ATOM      9  I   UNL d   1      -4.509  -5.998   0.583  0.00  0.00    -0.060 I 
ATOM     10  F2  UNL d   1      -3.349  -3.715  -1.336  0.00  0.00    -0.096 F 
ATOM     11  F3  UNL d   1      -1.236  -2.042  -1.068  0.00  0.00    -0.097 F 
ATOM     12  F4  UNL d   1       0.330  -2.143   1.164  0.00  0.00    -0.092 F 
ENDROOT
TORSDOF 0
ENDMDL
