MODEL 1
REMARK minimizedAffinity 35.2118111
REMARK minimizedRMSD -1
REMARK  0 active torsions:
REMARK  status: ('A' for Active; 'I' for Inactive)
ROOT
ATOM      1  C   UNL d   1      -1.088  -3.708  -3.384  0.00  0.00     0.124 A 
ATOM      2  C1  UNL d   1       0.103  -3.968  -2.722  0.00  0.00     0.062 A 
ATOM      3  C2  UNL d   1       0.247  -3.629  -1.380  0.00  0.00     0.162 A 
ATOM      4  C3  UNL d   1      -0.805  -3.026  -0.690  0.00  0.00    -0.034 A 
ATOM      5  C4  UNL d   1      -2.000  -2.766  -1.363  0.00  0.00     0.162 A 
ATOM      6  C5  UNL d   1      -2.139  -3.107  -2.705  0.00  0.00     0.062 A 
ATOM      7  F   UNL d   1      -3.290  -2.854  -3.343  0.00  0.00    -0.097 F 
ATOM      8  F1  UNL d   1      -3.032  -2.187  -0.731  0.00  0.00    -0.096 F 
ATOM      9  I   UNL d   1      -0.595  -2.517   1.317  0.00  0.00    -0.060 I 
ATOM     10  F2  UNL d   1       1.409  -3.892  -0.765  0.00  0.00    -0.096 F 
ATOM     11  F3  UNL d   1       1.120  -4.548  -3.377  0.00  0.00    -0.097 F 
ATOM     12  F4  UNL d   1      -1.223  -4.034  -4.676  0.00  0.00    -0.092 F 
ENDROOT
TORSDOF 0
ENDMDL
