MODEL 1
REMARK minimizedAffinity 24.4595737
REMARK minimizedRMSD -1
REMARK  0 active torsions:
REMARK  status: ('A' for Active; 'I' for Inactive)
ROOT
ATOM      1  C   UNL d   1      -4.084  -3.289  -2.399  0.00  0.00     0.124 A 
ATOM      2  C1  UNL d   1      -3.109  -3.087  -1.432  0.00  0.00     0.062 A 
ATOM      3  C2  UNL d   1      -3.103  -3.858  -0.273  0.00  0.00     0.162 A 
ATOM      4  C3  UNL d   1      -4.073  -4.840  -0.075  0.00  0.00    -0.034 A 
ATOM      5  C4  UNL d   1      -5.051  -5.037  -1.053  0.00  0.00     0.162 A 
ATOM      6  C5  UNL d   1      -5.053  -4.264  -2.209  0.00  0.00     0.062 A 
ATOM      7  F   UNL d   1      -5.996  -4.461  -3.142  0.00  0.00    -0.097 F 
ATOM      8  F1  UNL d   1      -5.999  -5.973  -0.895  0.00  0.00    -0.096 F 
ATOM      9  I   UNL d   1      -4.067  -5.995   1.656  0.00  0.00    -0.060 I 
ATOM     10  F2  UNL d   1      -2.149  -3.641   0.645  0.00  0.00    -0.096 F 
ATOM     11  F3  UNL d   1      -2.172  -2.146  -1.613  0.00  0.00    -0.097 F 
ATOM     12  F4  UNL d   1      -4.089  -2.545  -3.513  0.00  0.00    -0.092 F 
ENDROOT
TORSDOF 0
ENDMDL
