MODEL 1
REMARK minimizedAffinity 29.8661098
REMARK minimizedRMSD -1
REMARK  0 active torsions:
REMARK  status: ('A' for Active; 'I' for Inactive)
ROOT
ATOM      1  C   UNL d   1      -1.319  -3.949   2.409  0.00  0.00     0.124 A 
ATOM      2  C1  UNL d   1      -1.248  -2.905   1.497  0.00  0.00     0.062 A 
ATOM      3  C2  UNL d   1      -2.073  -2.897   0.376  0.00  0.00     0.162 A 
ATOM      4  C3  UNL d   1      -2.977  -3.937   0.161  0.00  0.00    -0.034 A 
ATOM      5  C4  UNL d   1      -3.042  -4.984   1.082  0.00  0.00     0.162 A 
ATOM      6  C5  UNL d   1      -2.215  -4.987   2.201  0.00  0.00     0.062 A 
ATOM      7  F   UNL d   1      -2.285  -5.996   3.081  0.00  0.00    -0.097 F 
ATOM      8  F1  UNL d   1      -3.900  -6.000   0.906  0.00  0.00    -0.096 F 
ATOM      9  I   UNL d   1      -4.212  -3.930  -1.514  0.00  0.00    -0.060 I 
ATOM     10  F2  UNL d   1      -1.983  -1.876  -0.489  0.00  0.00    -0.096 F 
ATOM     11  F3  UNL d   1      -0.382  -1.901   1.695  0.00  0.00    -0.097 F 
ATOM     12  F4  UNL d   1      -0.523  -3.954   3.486  0.00  0.00    -0.092 F 
ENDROOT
TORSDOF 0
ENDMDL
