MODEL 1
REMARK minimizedAffinity -5.14818001
REMARK minimizedRMSD -1
REMARK  1 active torsions:
REMARK  status: ('A' for Active; 'I' for Inactive)
REMARK    1  A    between atoms: N_2  and  C1_3 
ROOT
ATOM      1  C1  UNL d   1      -0.464  -0.814   0.777  0.00  0.00     0.143 A 
ATOM      2  C2  UNL d   1      -1.074  -1.478   1.847  0.00  0.00    -0.057 A 
ATOM      3  C3  UNL d   1      -2.455  -1.704   1.869  0.00  0.00     0.033 A 
ATOM      4  C4  UNL d   1      -3.258  -1.243   0.830  0.00  0.00    -0.042 A 
ATOM      5  C5  UNL d   1      -2.677  -0.559  -0.232  0.00  0.00     0.033 A 
ATOM      6  C6  UNL d   1      -1.296  -0.342  -0.251  0.00  0.00    -0.057 A 
ENDROOT
BRANCH   1   7
ATOM      7  N   UNL d   1       0.890  -0.473   0.744  0.00  0.00    -0.732 N 
ATOM      8  C   UNL d   1       1.304   0.868   0.386  0.00  0.00     0.284 C 
ATOM      9  H3  UNL d   1       1.412  -0.876   1.519  0.00  0.00     0.395 HD
ENDBRANCH   1   7
TORSDOF 1
ENDMDL
