MODEL 1
REMARK minimizedAffinity -4.78882122
REMARK minimizedRMSD -1
REMARK  1 active torsions:
REMARK  status: ('A' for Active; 'I' for Inactive)
REMARK    1  A    between atoms: N_2  and  C1_3 
ROOT
ATOM      1  C1  UNL d   1      -0.295  -0.731   0.403  0.00  0.00     0.143 A 
ATOM      2  C2  UNL d   1      -1.097  -0.126  -0.571  0.00  0.00    -0.057 A 
ATOM      3  C3  UNL d   1      -2.452  -0.455  -0.703  0.00  0.00     0.033 A 
ATOM      4  C4  UNL d   1      -3.023  -1.420   0.120  0.00  0.00    -0.042 A 
ATOM      5  C5  UNL d   1      -2.239  -2.052   1.079  0.00  0.00     0.033 A 
ATOM      6  C6  UNL d   1      -0.888  -1.715   1.210  0.00  0.00    -0.057 A 
ENDROOT
BRANCH   1   7
ATOM      7  N   UNL d   1       1.081  -0.519   0.519  0.00  0.00    -0.732 N 
ATOM      8  C   UNL d   1       1.684   0.695   0.014  0.00  0.00     0.284 C 
ATOM      9  H3  UNL d   1       1.445  -0.822   1.419  0.00  0.00     0.395 HD
ENDBRANCH   1   7
TORSDOF 1
ENDMDL
