MODEL 1
REMARK minimizedAffinity -0.55052799
REMARK minimizedRMSD -1
REMARK  1 active torsions:
REMARK  status: ('A' for Active; 'I' for Inactive)
REMARK    1  A    between atoms: N_2  and  C1_3 
ROOT
ATOM      1  C1  UNL d   1       0.374  -0.986  -0.208  0.00  0.00     0.143 A 
ATOM      2  C2  UNL d   1       0.907   0.298  -0.050  0.00  0.00    -0.057 A 
ATOM      3  C3  UNL d   1       0.569   1.337  -0.926  0.00  0.00     0.033 A 
ATOM      4  C4  UNL d   1      -0.289   1.102  -1.995  0.00  0.00    -0.042 A 
ATOM      5  C5  UNL d   1      -0.812  -0.172  -2.185  0.00  0.00     0.033 A 
ATOM      6  C6  UNL d   1      -0.475  -1.204  -1.304  0.00  0.00    -0.057 A 
ENDROOT
BRANCH   1   7
ATOM      7  N   UNL d   1       0.748  -2.084   0.570  0.00  0.00    -0.732 N 
ATOM      8  C   UNL d   1       0.467  -2.112   1.990  0.00  0.00     0.284 C 
ATOM      9  H3  UNL d   1       0.584  -2.970   0.097  0.00  0.00     0.395 HD
ENDBRANCH   1   7
TORSDOF 1
ENDMDL
