MODEL 1
REMARK minimizedAffinity -2.82476234
REMARK minimizedRMSD -1
REMARK  1 active torsions:
REMARK  status: ('A' for Active; 'I' for Inactive)
REMARK    1  A    between atoms: N_2  and  C1_3 
ROOT
ATOM      1  C1  UNL d   1       0.389  -0.140  -0.625  0.00  0.00     0.143 A 
ATOM      2  C2  UNL d   1      -0.959  -0.428  -0.384  0.00  0.00    -0.057 A 
ATOM      3  C3  UNL d   1      -1.882  -0.515  -1.432  0.00  0.00     0.033 A 
ATOM      4  C4  UNL d   1      -1.478  -0.288  -2.744  0.00  0.00    -0.042 A 
ATOM      5  C5  UNL d   1      -0.149   0.024  -3.005  0.00  0.00     0.033 A 
ATOM      6  C6  UNL d   1       0.770   0.104  -1.954  0.00  0.00    -0.057 A 
ENDROOT
BRANCH   1   7
ATOM      7  N   UNL d   1       1.335   0.058   0.383  0.00  0.00    -0.732 N 
ATOM      8  C   UNL d   1       1.536   1.370   0.958  0.00  0.00     0.284 C 
ATOM      9  H3  UNL d   1       1.343  -0.699   1.063  0.00  0.00     0.395 HD
ENDBRANCH   1   7
TORSDOF 1
ENDMDL
