MODEL 1
REMARK minimizedAffinity -5.35532475
REMARK minimizedRMSD -1
REMARK  1 active torsions:
REMARK  status: ('A' for Active; 'I' for Inactive)
REMARK    1  A    between atoms: N_2  and  C1_3 
ROOT
ATOM      1  C1  UNL d   1      -0.867  -0.366   0.030  0.00  0.00     0.143 A 
ATOM      2  C2  UNL d   1      -1.496  -1.436   0.676  0.00  0.00    -0.057 A 
ATOM      3  C3  UNL d   1      -2.753  -1.895   0.263  0.00  0.00     0.033 A 
ATOM      4  C4  UNL d   1      -3.418  -1.270  -0.787  0.00  0.00    -0.042 A 
ATOM      5  C5  UNL d   1      -2.822  -0.189  -1.427  0.00  0.00     0.033 A 
ATOM      6  C6  UNL d   1      -1.564   0.260  -1.015  0.00  0.00    -0.057 A 
ENDROOT
BRANCH   1   7
ATOM      7  N   UNL d   1       0.338   0.199   0.456  0.00  0.00    -0.732 N 
ATOM      8  C   UNL d   1       1.554  -0.584   0.474  0.00  0.00     0.284 C 
ATOM      9  H3  UNL d   1       0.462   1.151   0.117  0.00  0.00     0.395 HD
ENDBRANCH   1   7
TORSDOF 1
ENDMDL
