MODEL 1
REMARK minimizedAffinity -4.59587002
REMARK minimizedRMSD -1
REMARK  1 active torsions:
REMARK  status: ('A' for Active; 'I' for Inactive)
REMARK    1  A    between atoms: N_2  and  C1_3 
ROOT
ATOM      1  C1  UNL d   1      -0.750  -0.472   0.472  0.00  0.00     0.143 A 
ATOM      2  C2  UNL d   1      -1.719  -0.093  -0.463  0.00  0.00    -0.057 A 
ATOM      3  C3  UNL d   1      -2.919  -0.803  -0.594  0.00  0.00     0.033 A 
ATOM      4  C4  UNL d   1      -3.158  -1.927   0.190  0.00  0.00    -0.042 A 
ATOM      5  C5  UNL d   1      -2.198  -2.337   1.108  0.00  0.00     0.033 A 
ATOM      6  C6  UNL d   1      -1.005  -1.620   1.239  0.00  0.00    -0.057 A 
ENDROOT
BRANCH   1   7
ATOM      7  N   UNL d   1       0.504   0.134   0.582  0.00  0.00    -0.732 N 
ATOM      8  C   UNL d   1       1.376   0.236  -0.568  0.00  0.00     0.284 C 
ATOM      9  H3  UNL d   1       0.482   0.969   1.162  0.00  0.00     0.395 HD
ENDBRANCH   1   7
TORSDOF 1
ENDMDL
