MODEL 1
REMARK minimizedAffinity -2.19016242
REMARK minimizedRMSD -1
REMARK  1 active torsions:
REMARK  status: ('A' for Active; 'I' for Inactive)
REMARK    1  A    between atoms: N_2  and  C1_3 
ROOT
ATOM      1  C1  UNL d   1      -1.351  -0.515  -0.059  0.00  0.00     0.143 A 
ATOM      2  C2  UNL d   1      -0.549  -0.763   1.060  0.00  0.00    -0.057 A 
ATOM      3  C3  UNL d   1       0.769  -0.295   1.127  0.00  0.00     0.033 A 
ATOM      4  C4  UNL d   1       1.319   0.407   0.060  0.00  0.00    -0.042 A 
ATOM      5  C5  UNL d   1       0.549   0.644  -1.073  0.00  0.00     0.033 A 
ATOM      6  C6  UNL d   1      -0.769   0.180  -1.131  0.00  0.00    -0.057 A 
ENDROOT
BRANCH   1   7
ATOM      7  N   UNL d   1      -2.635  -1.038  -0.228  0.00  0.00    -0.732 N 
ATOM      8  C   UNL d   1      -2.873  -2.124  -1.154  0.00  0.00     0.284 C 
ATOM      9  H3  UNL d   1      -3.138  -1.125   0.653  0.00  0.00     0.395 HD
ENDBRANCH   1   7
TORSDOF 1
ENDMDL
