MODEL 1
REMARK minimizedAffinity -2.45893836
REMARK minimizedRMSD -1
REMARK  1 active torsions:
REMARK  status: ('A' for Active; 'I' for Inactive)
REMARK    1  A    between atoms: C3_4  and  O_7 
ROOT
ATOM      1  C   UNL d   1       1.295   1.503  -0.402  0.00  0.00    -0.033 A 
ATOM      2  C1  UNL d   1       0.528   1.268   0.741  0.00  0.00     0.039 A 
ATOM      3  C2  UNL d   1       0.081  -0.022   1.032  0.00  0.00    -0.080 A 
ATOM      4  C3  UNL d   1       0.408  -1.068   0.173  0.00  0.00     0.150 A 
ATOM      5  C4  UNL d   1       1.175  -0.842  -0.966  0.00  0.00    -0.007 A 
ATOM      6  C5  UNL d   1       1.619   0.447  -1.255  0.00  0.00     0.039 A 
ENDROOT
BRANCH   4   7
ATOM      7  O   UNL d   1      -0.009  -2.344   0.412  0.00  0.00    -0.526 OA
ATOM      8  H5  UNL d   1      -0.553  -2.344   1.218  0.00  0.00     0.418 HD
ENDBRANCH   4   7
TORSDOF 1
ENDMDL
