MODEL 1
REMARK minimizedAffinity -4.68283987
REMARK minimizedRMSD -1
REMARK  1 active torsions:
REMARK  status: ('A' for Active; 'I' for Inactive)
REMARK    1  A    between atoms: C3_4  and  O_7 
ROOT
ATOM      1  C   UNL d   1       0.400  -0.298   0.596  0.00  0.00    -0.033 A 
ATOM      2  C1  UNL d   1       0.948   0.921   0.193  0.00  0.00     0.039 A 
ATOM      3  C2  UNL d   1       1.517   1.048  -1.076  0.00  0.00    -0.080 A 
ATOM      4  C3  UNL d   1       1.530  -0.050  -1.932  0.00  0.00     0.150 A 
ATOM      5  C4  UNL d   1       0.982  -1.266  -1.539  0.00  0.00    -0.007 A 
ATOM      6  C5  UNL d   1       0.416  -1.392  -0.271  0.00  0.00     0.039 A 
ENDROOT
BRANCH   4   7
ATOM      7  O   UNL d   1       2.078   0.025  -3.178  0.00  0.00    -0.526 OA
ATOM      8  H5  UNL d   1       2.443   0.917  -3.300  0.00  0.00     0.418 HD
ENDBRANCH   4   7
TORSDOF 1
ENDMDL
