MODEL 1
REMARK minimizedAffinity -1.62029397
REMARK minimizedRMSD -1
REMARK  1 active torsions:
REMARK  status: ('A' for Active; 'I' for Inactive)
REMARK    1  A    between atoms: C3_4  and  O_7 
ROOT
ATOM      1  C   UNL d   1      -0.659   0.286   1.450  0.00  0.00    -0.033 A 
ATOM      2  C1  UNL d   1      -0.442  -0.681   0.467  0.00  0.00     0.039 A 
ATOM      3  C2  UNL d   1       0.560  -0.495  -0.488  0.00  0.00    -0.080 A 
ATOM      4  C3  UNL d   1       1.335   0.660  -0.449  0.00  0.00     0.150 A 
ATOM      5  C4  UNL d   1       1.127   1.626   0.530  0.00  0.00    -0.007 A 
ATOM      6  C5  UNL d   1       0.126   1.439   1.482  0.00  0.00     0.039 A 
ENDROOT
BRANCH   4   7
ATOM      7  O   UNL d   1       2.321   0.888  -1.363  0.00  0.00    -0.526 OA
ATOM      8  H5  UNL d   1       2.331   0.150  -1.995  0.00  0.00     0.418 HD
ENDBRANCH   4   7
TORSDOF 1
ENDMDL
