MODEL 1
REMARK minimizedAffinity -2.87607384
REMARK minimizedRMSD -1
REMARK  1 active torsions:
REMARK  status: ('A' for Active; 'I' for Inactive)
REMARK    1  A    between atoms: C3_4  and  O_7 
ROOT
ATOM      1  C   UNL d   1       1.960   0.618  -1.021  0.00  0.00    -0.033 A 
ATOM      2  C1  UNL d   1       1.181  -0.475  -1.404  0.00  0.00     0.039 A 
ATOM      3  C2  UNL d   1      -0.203  -0.445  -1.228  0.00  0.00    -0.080 A 
ATOM      4  C3  UNL d   1      -0.796   0.683  -0.669  0.00  0.00     0.150 A 
ATOM      5  C4  UNL d   1      -0.027   1.778  -0.288  0.00  0.00    -0.007 A 
ATOM      6  C5  UNL d   1       1.355   1.746  -0.464  0.00  0.00     0.039 A 
ENDROOT
BRANCH   4   7
ATOM      7  O   UNL d   1      -2.143   0.757  -0.473  0.00  0.00    -0.526 OA
ATOM      8  H5  UNL d   1      -2.542  -0.083  -0.756  0.00  0.00     0.418 HD
ENDBRANCH   4   7
TORSDOF 1
ENDMDL
