MODEL 1
REMARK minimizedAffinity 0.470108151
REMARK minimizedRMSD -1
REMARK  1 active torsions:
REMARK  status: ('A' for Active; 'I' for Inactive)
REMARK    1  A    between atoms: C3_4  and  O_7 
ROOT
ATOM      1  C   UNL d   1      -4.992   2.030  -5.981  0.00  0.00    -0.033 A 
ATOM      2  C1  UNL d   1      -3.998   1.050  -5.998  0.00  0.00     0.039 A 
ATOM      3  C2  UNL d   1      -2.651   1.419  -6.000  0.00  0.00    -0.080 A 
ATOM      4  C3  UNL d   1      -2.313   2.769  -5.983  0.00  0.00     0.150 A 
ATOM      5  C4  UNL d   1      -3.298   3.751  -5.963  0.00  0.00    -0.007 A 
ATOM      6  C5  UNL d   1      -4.642   3.381  -5.962  0.00  0.00     0.039 A 
ENDROOT
BRANCH   4   7
ATOM      7  O   UNL d   1      -1.012   3.178  -5.989  0.00  0.00    -0.526 OA
ATOM      8  H5  UNL d   1      -0.443   2.392  -6.033  0.00  0.00     0.418 HD
ENDBRANCH   4   7
TORSDOF 1
ENDMDL
