MODEL 1
REMARK minimizedAffinity -2.95845628
REMARK minimizedRMSD -1
REMARK  1 active torsions:
REMARK  status: ('A' for Active; 'I' for Inactive)
REMARK    1  A    between atoms: C3_4  and  O_7 
ROOT
ATOM      1  C   UNL d   1      -3.858  -0.750  -5.980  0.00  0.00    -0.033 A 
ATOM      2  C1  UNL d   1      -3.001  -1.853  -5.983  0.00  0.00     0.039 A 
ATOM      3  C2  UNL d   1      -3.525  -3.147  -5.989  0.00  0.00    -0.080 A 
ATOM      4  C3  UNL d   1      -4.905  -3.325  -5.993  0.00  0.00     0.150 A 
ATOM      5  C4  UNL d   1      -5.765  -2.231  -5.993  0.00  0.00    -0.007 A 
ATOM      6  C5  UNL d   1      -5.240  -0.940  -5.986  0.00  0.00     0.039 A 
ENDROOT
BRANCH   4   7
ATOM      7  O   UNL d   1      -5.463  -4.569  -5.994  0.00  0.00    -0.526 OA
ATOM      8  H5  UNL d   1      -4.749  -5.227  -5.965  0.00  0.00     0.418 HD
ENDBRANCH   4   7
TORSDOF 1
ENDMDL
