MODEL 1
REMARK minimizedAffinity -2.60252261
REMARK minimizedRMSD -1
REMARK  1 active torsions:
REMARK  status: ('A' for Active; 'I' for Inactive)
REMARK    1  A    between atoms: C3_4  and  O_7 
ROOT
ATOM      1  C   UNL d   1       0.159  -0.669   0.001  0.00  0.00    -0.033 A 
ATOM      2  C1  UNL d   1      -0.000  -1.640  -0.990  0.00  0.00     0.039 A 
ATOM      3  C2  UNL d   1       0.473  -1.405  -2.282  0.00  0.00    -0.080 A 
ATOM      4  C3  UNL d   1       1.104  -0.199  -2.571  0.00  0.00     0.150 A 
ATOM      5  C4  UNL d   1       1.270   0.772  -1.588  0.00  0.00    -0.007 A 
ATOM      6  C5  UNL d   1       0.796   0.536  -0.298  0.00  0.00     0.039 A 
ENDROOT
BRANCH   4   7
ATOM      7  O   UNL d   1       1.578   0.077  -3.819  0.00  0.00    -0.526 OA
ATOM      8  H5  UNL d   1       1.367  -0.672  -4.401  0.00  0.00     0.418 HD
ENDBRANCH   4   7
TORSDOF 1
ENDMDL
