MODEL 1
REMARK minimizedAffinity 3.43632579
REMARK minimizedRMSD -1
REMARK  1 active torsions:
REMARK  status: ('A' for Active; 'I' for Inactive)
REMARK    1  A    between atoms: C3_4  and  O_7 
ROOT
ATOM      1  C   UNL d   1      -3.390   2.100  -5.994  0.00  0.00    -0.033 A 
ATOM      2  C1  UNL d   1      -4.769   2.322  -5.998  0.00  0.00     0.039 A 
ATOM      3  C2  UNL d   1      -5.267   3.627  -6.000  0.00  0.00    -0.080 A 
ATOM      4  C3  UNL d   1      -4.378   4.698  -5.999  0.00  0.00     0.150 A 
ATOM      5  C4  UNL d   1      -3.003   4.483  -5.999  0.00  0.00    -0.007 A 
ATOM      6  C5  UNL d   1      -2.508   3.180  -5.996  0.00  0.00     0.039 A 
ENDROOT
BRANCH   4   7
ATOM      7  O   UNL d   1      -4.817   5.989  -5.996  0.00  0.00    -0.526 OA
ATOM      8  H5  UNL d   1      -5.788   5.983  -5.968  0.00  0.00     0.418 HD
ENDBRANCH   4   7
TORSDOF 1
ENDMDL
