MODEL 1
REMARK minimizedAffinity 3.36367249
REMARK minimizedRMSD -1
REMARK  1 active torsions:
REMARK  status: ('A' for Active; 'I' for Inactive)
REMARK    1  A    between atoms: C3_4  and  O_7 
ROOT
ATOM      1  C   UNL d   1      -3.736   0.001  -5.986  0.00  0.00    -0.033 A 
ATOM      2  C1  UNL d   1      -2.587  -0.793  -5.992  0.00  0.00     0.039 A 
ATOM      3  C2  UNL d   1      -2.699  -2.185  -5.996  0.00  0.00    -0.080 A 
ATOM      4  C3  UNL d   1      -3.962  -2.770  -5.996  0.00  0.00     0.150 A 
ATOM      5  C4  UNL d   1      -5.111  -1.985  -5.995  0.00  0.00    -0.007 A 
ATOM      6  C5  UNL d   1      -4.997  -0.595  -5.990  0.00  0.00     0.039 A 
ENDROOT
BRANCH   4   7
ATOM      7  O   UNL d   1      -4.121  -4.124  -5.995  0.00  0.00    -0.526 OA
ATOM      8  H5  UNL d   1      -3.242  -4.537  -5.967  0.00  0.00     0.418 HD
ENDBRANCH   4   7
TORSDOF 1
ENDMDL
