MODEL 1
REMARK minimizedAffinity 0.386489868
REMARK minimizedRMSD -1
REMARK  1 active torsions:
REMARK  status: ('A' for Active; 'I' for Inactive)
REMARK    1  A    between atoms: C3_4  and  O_7 
ROOT
ATOM      1  C   UNL d   1      -3.525  -4.442  -5.999  0.00  0.00    -0.033 A 
ATOM      2  C1  UNL d   1      -2.772  -3.266  -5.991  0.00  0.00     0.039 A 
ATOM      3  C2  UNL d   1      -3.412  -2.026  -5.976  0.00  0.00    -0.080 A 
ATOM      4  C3  UNL d   1      -4.803  -1.974  -5.969  0.00  0.00     0.150 A 
ATOM      5  C4  UNL d   1      -5.559  -3.142  -5.973  0.00  0.00    -0.007 A 
ATOM      6  C5  UNL d   1      -4.919  -4.380  -5.988  0.00  0.00     0.039 A 
ENDROOT
BRANCH   4   7
ATOM      7  O   UNL d   1      -5.472  -0.787  -5.959  0.00  0.00    -0.526 OA
ATOM      8  H5  UNL d   1      -4.821  -0.066  -5.986  0.00  0.00     0.418 HD
ENDBRANCH   4   7
TORSDOF 1
ENDMDL
