MODEL 1
REMARK minimizedAffinity -2.47536993
REMARK minimizedRMSD -1
REMARK  1 active torsions:
REMARK  status: ('A' for Active; 'I' for Inactive)
REMARK    1  A    between atoms: C3_4  and  O_7 
ROOT
ATOM      1  C   UNL d   1      -4.884  -1.038  -5.997  0.00  0.00    -0.033 A 
ATOM      2  C1  UNL d   1      -3.503  -1.246  -5.999  0.00  0.00     0.039 A 
ATOM      3  C2  UNL d   1      -2.991  -2.545  -5.999  0.00  0.00    -0.080 A 
ATOM      4  C3  UNL d   1      -3.868  -3.626  -5.998  0.00  0.00     0.150 A 
ATOM      5  C4  UNL d   1      -5.245  -3.426  -6.000  0.00  0.00    -0.007 A 
ATOM      6  C5  UNL d   1      -5.755  -2.128  -5.999  0.00  0.00     0.039 A 
ENDROOT
BRANCH   4   7
ATOM      7  O   UNL d   1      -3.415  -4.911  -5.993  0.00  0.00    -0.526 OA
ATOM      8  H5  UNL d   1      -2.444  -4.895  -5.963  0.00  0.00     0.418 HD
ENDBRANCH   4   7
TORSDOF 1
ENDMDL
