MODEL 1
REMARK minimizedAffinity 3.79854703
REMARK minimizedRMSD -1
REMARK  1 active torsions:
REMARK  status: ('A' for Active; 'I' for Inactive)
REMARK    1  A    between atoms: C3_4  and  O_7 
ROOT
ATOM      1  C   UNL d   1      -1.823   2.586   4.597  0.00  0.00    -0.033 A 
ATOM      2  C1  UNL d   1      -2.258   3.298   3.478  0.00  0.00     0.039 A 
ATOM      3  C2  UNL d   1      -3.278   2.784   2.675  0.00  0.00    -0.080 A 
ATOM      4  C3  UNL d   1      -3.855   1.560   3.003  0.00  0.00     0.150 A 
ATOM      5  C4  UNL d   1      -3.429   0.848   4.119  0.00  0.00    -0.007 A 
ATOM      6  C5  UNL d   1      -2.410   1.362   4.919  0.00  0.00     0.039 A 
ENDROOT
BRANCH   4   7
ATOM      7  O   UNL d   1      -4.851   1.016   2.247  0.00  0.00    -0.526 OA
ATOM      8  H5  UNL d   1      -5.021   1.605   1.493  0.00  0.00     0.418 HD
ENDBRANCH   4   7
TORSDOF 1
ENDMDL
