MODEL 1
REMARK minimizedAffinity 1.65849614
REMARK minimizedRMSD -1
REMARK  1 active torsions:
REMARK  status: ('A' for Active; 'I' for Inactive)
REMARK    1  A    between atoms: C3_4  and  O_7 
ROOT
ATOM      1  C   UNL d   1      -4.242   1.338   1.971  0.00  0.00    -0.033 A 
ATOM      2  C1  UNL d   1      -3.339   2.341   2.328  0.00  0.00     0.039 A 
ATOM      3  C2  UNL d   1      -2.768   2.349   3.602  0.00  0.00    -0.080 A 
ATOM      4  C3  UNL d   1      -3.108   1.348   4.508  0.00  0.00     0.150 A 
ATOM      5  C4  UNL d   1      -4.004   0.344   4.159  0.00  0.00    -0.007 A 
ATOM      6  C5  UNL d   1      -4.574   0.338   2.886  0.00  0.00     0.039 A 
ENDROOT
BRANCH   4   7
ATOM      7  O   UNL d   1      -2.580   1.317   5.765  0.00  0.00    -0.526 OA
ATOM      8  H5  UNL d   1      -2.000   2.089   5.875  0.00  0.00     0.418 HD
ENDBRANCH   4   7
TORSDOF 1
ENDMDL
