MODEL 1
REMARK minimizedAffinity 4.54451275
REMARK minimizedRMSD -1
REMARK  1 active torsions:
REMARK  status: ('A' for Active; 'I' for Inactive)
REMARK    1  A    between atoms: C3_4  and  O_7 
ROOT
ATOM      1  C   UNL d   1       1.310   2.841   1.376  0.00  0.00    -0.033 A 
ATOM      2  C1  UNL d   1       1.487   4.143   1.850  0.00  0.00     0.039 A 
ATOM      3  C2  UNL d   1       1.472   5.219   0.961  0.00  0.00    -0.080 A 
ATOM      4  C3  UNL d   1       1.277   4.981  -0.397  0.00  0.00     0.150 A 
ATOM      5  C4  UNL d   1       1.096   3.687  -0.875  0.00  0.00    -0.007 A 
ATOM      6  C5  UNL d   1       1.113   2.614   0.014  0.00  0.00     0.039 A 
ENDROOT
BRANCH   4   7
ATOM      7  O   UNL d   1       1.258   5.999  -1.303  0.00  0.00    -0.526 OA
ATOM      8  H5  UNL d   1       1.425   6.833  -0.833  0.00  0.00     0.418 HD
ENDBRANCH   4   7
TORSDOF 1
ENDMDL
