MODEL 1
REMARK minimizedAffinity 12.5379047
REMARK minimizedRMSD -1
REMARK  1 active torsions:
REMARK  status: ('A' for Active; 'I' for Inactive)
REMARK    1  A    between atoms: C3_4  and  O_7 
ROOT
ATOM      1  C   UNL d   1      -3.344   2.960   1.558  0.00  0.00    -0.033 A 
ATOM      2  C1  UNL d   1      -4.060   1.828   1.952  0.00  0.00     0.039 A 
ATOM      3  C2  UNL d   1      -3.980   1.373   3.270  0.00  0.00    -0.080 A 
ATOM      4  C3  UNL d   1      -3.183   2.060   4.183  0.00  0.00     0.150 A 
ATOM      5  C4  UNL d   1      -2.471   3.191   3.798  0.00  0.00    -0.007 A 
ATOM      6  C5  UNL d   1      -2.551   3.642   2.481  0.00  0.00     0.039 A 
ENDROOT
BRANCH   4   7
ATOM      7  O   UNL d   1      -3.070   1.651   5.478  0.00  0.00    -0.526 OA
ATOM      8  H5  UNL d   1      -3.595   0.841   5.592  0.00  0.00     0.418 HD
ENDBRANCH   4   7
TORSDOF 1
ENDMDL
