MODEL 1
REMARK minimizedAffinity 10.9404135
REMARK minimizedRMSD -1
REMARK  1 active torsions:
REMARK  status: ('A' for Active; 'I' for Inactive)
REMARK    1  A    between atoms: C3_4  and  O_7 
ROOT
ATOM      1  C   UNL d   1      -2.301   3.089   2.553  0.00  0.00    -0.033 A 
ATOM      2  C1  UNL d   1      -2.677   2.708   3.842  0.00  0.00     0.039 A 
ATOM      3  C2  UNL d   1      -3.900   2.068   4.054  0.00  0.00    -0.080 A 
ATOM      4  C3  UNL d   1      -4.735   1.814   2.969  0.00  0.00     0.150 A 
ATOM      5  C4  UNL d   1      -4.365   2.188   1.682  0.00  0.00    -0.007 A 
ATOM      6  C5  UNL d   1      -3.144   2.828   1.473  0.00  0.00     0.039 A 
ENDROOT
BRANCH   4   7
ATOM      7  O   UNL d   1      -5.940   1.197   3.127  0.00  0.00    -0.526 OA
ATOM      8  H5  UNL d   1      -6.075   1.022   4.074  0.00  0.00     0.418 HD
ENDBRANCH   4   7
TORSDOF 1
ENDMDL
