MODEL 1
REMARK minimizedAffinity 13.2279282
REMARK minimizedRMSD -1
REMARK  1 active torsions:
REMARK  status: ('A' for Active; 'I' for Inactive)
REMARK    1  A    between atoms: C1_2  and  C2_3 
ROOT
ATOM      1  C2  UNL d   1      -1.568   4.831  -1.404  0.00  0.00    -0.076 A 
ATOM      2  C3  UNL d   1      -2.557   5.084  -2.371  0.00  0.00     0.004 A 
ATOM      3  C4  UNL d   1      -2.885   4.126  -3.328  0.00  0.00    -0.003 A 
ATOM      4  C5  UNL d   1      -2.231   2.899  -3.334  0.00  0.00     0.000 A 
ATOM      5  C6  UNL d   1      -1.260   2.624  -2.371  0.00  0.00     0.000 A 
ATOM      6  C7  UNL d   1      -0.929   3.573  -1.389  0.00  0.00    -0.073 A 
ATOM      7  C8  UNL d   1       0.131   3.226  -0.379  0.00  0.00     0.078 C 
ENDROOT
BRANCH   1   8
ATOM      8  C1  UNL d   1      -1.234   5.918  -0.407  0.00  0.00     0.053 C 
ATOM      9  C   UNL d   1      -2.245   6.000   0.726  0.00  0.00     0.018 C 
ENDBRANCH   1   8
TORSDOF 1
ENDMDL
