MODEL 1
REMARK minimizedAffinity 3.88114262
REMARK minimizedRMSD -1
REMARK  1 active torsions:
REMARK  status: ('A' for Active; 'I' for Inactive)
REMARK    1  A    between atoms: C1_2  and  C2_3 
ROOT
ATOM      1  C2  UNL d   1      -4.786  -0.795   3.114  0.00  0.00    -0.076 A 
ATOM      2  C3  UNL d   1      -4.463  -2.162   3.156  0.00  0.00     0.004 A 
ATOM      3  C4  UNL d   1      -4.894  -2.969   4.207  0.00  0.00    -0.003 A 
ATOM      4  C5  UNL d   1      -5.655  -2.422   5.234  0.00  0.00     0.000 A 
ATOM      5  C6  UNL d   1      -6.000  -1.072   5.200  0.00  0.00     0.000 A 
ATOM      6  C7  UNL d   1      -5.587  -0.247   4.139  0.00  0.00    -0.073 A 
ATOM      7  C8  UNL d   1      -5.982   1.204   4.157  0.00  0.00     0.078 C 
ENDROOT
BRANCH   1   8
ATOM      8  C1  UNL d   1      -4.268   0.037   1.963  0.00  0.00     0.053 C 
ATOM      9  C   UNL d   1      -4.120  -0.769   0.682  0.00  0.00     0.018 C 
ENDBRANCH   1   8
TORSDOF 1
ENDMDL
