MODEL 1
REMARK minimizedAffinity 4.80412579
REMARK minimizedRMSD -1
REMARK  1 active torsions:
REMARK  status: ('A' for Active; 'I' for Inactive)
REMARK    1  A    between atoms: C1_2  and  C2_3 
ROOT
ATOM      1  C2  UNL d   1      -1.716  -3.379  -5.949  0.00  0.00    -0.076 A 
ATOM      2  C3  UNL d   1      -3.102  -3.613  -6.000  0.00  0.00     0.004 A 
ATOM      3  C4  UNL d   1      -3.611  -4.910  -5.992  0.00  0.00    -0.003 A 
ATOM      4  C5  UNL d   1      -2.744  -5.995  -5.932  0.00  0.00     0.000 A 
ATOM      5  C6  UNL d   1      -1.368  -5.782  -5.863  0.00  0.00     0.000 A 
ATOM      6  C7  UNL d   1      -0.838  -4.480  -5.854  0.00  0.00    -0.073 A 
ATOM      7  C8  UNL d   1       0.655  -4.309  -5.784  0.00  0.00     0.078 C 
ENDROOT
BRANCH   1   8
ATOM      8  C1  UNL d   1      -1.220  -1.952  -5.987  0.00  0.00     0.053 C 
ATOM      9  C   UNL d   1      -2.356  -0.940  -5.977  0.00  0.00     0.018 C 
ENDBRANCH   1   8
TORSDOF 1
ENDMDL
