MODEL 1
REMARK minimizedAffinity 8.07532501
REMARK minimizedRMSD -1
REMARK  1 active torsions:
REMARK  status: ('A' for Active; 'I' for Inactive)
REMARK    1  A    between atoms: C1_2  and  C2_3 
ROOT
ATOM      1  C2  UNL d   1      -1.148   5.268  -0.470  0.00  0.00    -0.076 A 
ATOM      2  C3  UNL d   1      -1.113   5.999  -1.670  0.00  0.00     0.004 A 
ATOM      3  C4  UNL d   1      -0.617   5.431  -2.843  0.00  0.00    -0.003 A 
ATOM      4  C5  UNL d   1      -0.149   4.122  -2.834  0.00  0.00     0.000 A 
ATOM      5  C6  UNL d   1      -0.193   3.376  -1.657  0.00  0.00     0.000 A 
ATOM      6  C7  UNL d   1      -0.704   3.928  -0.470  0.00  0.00    -0.073 A 
ATOM      7  C8  UNL d   1      -0.722   3.080   0.772  0.00  0.00     0.078 C 
ENDROOT
BRANCH   1   8
ATOM      8  C1  UNL d   1      -1.671   5.946   0.776  0.00  0.00     0.053 C 
ATOM      9  C   UNL d   1      -3.191   5.991   0.820  0.00  0.00     0.018 C 
ENDBRANCH   1   8
TORSDOF 1
ENDMDL
