MODEL 1
REMARK minimizedAffinity 1.10574818
REMARK minimizedRMSD -1
REMARK  1 active torsions:
REMARK  status: ('A' for Active; 'I' for Inactive)
REMARK    1  A    between atoms: C1_2  and  C2_3 
ROOT
ATOM      1  C2  UNL d   1      -3.606  -3.673  -5.977  0.00  0.00    -0.076 A 
ATOM      2  C3  UNL d   1      -2.307  -3.136  -5.988  0.00  0.00     0.004 A 
ATOM      3  C4  UNL d   1      -1.187  -3.965  -5.961  0.00  0.00    -0.003 A 
ATOM      4  C5  UNL d   1      -1.348  -5.346  -5.922  0.00  0.00     0.000 A 
ATOM      5  C6  UNL d   1      -2.628  -5.897  -5.928  0.00  0.00     0.000 A 
ATOM      6  C7  UNL d   1      -3.768  -5.075  -5.972  0.00  0.00    -0.073 A 
ATOM      7  C8  UNL d   1      -5.125  -5.723  -5.971  0.00  0.00     0.078 C 
ENDROOT
BRANCH   1   8
ATOM      8  C1  UNL d   1      -4.783  -2.724  -5.981  0.00  0.00     0.053 C 
ATOM      9  C   UNL d   1      -4.354  -1.265  -5.985  0.00  0.00     0.018 C 
ENDBRANCH   1   8
TORSDOF 1
ENDMDL
