MODEL 1
REMARK minimizedAffinity 3.38819551
REMARK minimizedRMSD -1
REMARK  1 active torsions:
REMARK  status: ('A' for Active; 'I' for Inactive)
REMARK    1  A    between atoms: C1_2  and  C2_3 
ROOT
ATOM      1  C2  UNL d   1      -1.134   5.249  -0.247  0.00  0.00    -0.076 A 
ATOM      2  C3  UNL d   1      -1.487   6.000  -1.383  0.00  0.00     0.004 A 
ATOM      3  C4  UNL d   1      -1.095   5.597  -2.658  0.00  0.00    -0.003 A 
ATOM      4  C5  UNL d   1      -0.346   4.437  -2.820  0.00  0.00     0.000 A 
ATOM      5  C6  UNL d   1      -0.003   3.671  -1.706  0.00  0.00     0.000 A 
ATOM      6  C7  UNL d   1      -0.403   4.054  -0.415  0.00  0.00    -0.073 A 
ATOM      7  C8  UNL d   1       0.000   3.193   0.751  0.00  0.00     0.078 C 
ENDROOT
BRANCH   1   8
ATOM      8  C1  UNL d   1      -1.564   5.749   1.113  0.00  0.00     0.053 C 
ATOM      9  C   UNL d   1      -3.062   6.000   1.196  0.00  0.00     0.018 C 
ENDBRANCH   1   8
TORSDOF 1
ENDMDL
