MODEL 1
REMARK minimizedAffinity 8.56325817
REMARK minimizedRMSD -1
REMARK  1 active torsions:
REMARK  status: ('A' for Active; 'I' for Inactive)
REMARK    1  A    between atoms: C1_2  and  C2_3 
ROOT
ATOM      1  C2  UNL d   1      -1.427   4.803  -0.573  0.00  0.00    -0.076 A 
ATOM      2  C3  UNL d   1      -1.487   3.660   0.243  0.00  0.00     0.004 A 
ATOM      3  C4  UNL d   1      -0.729   2.528  -0.050  0.00  0.00    -0.003 A 
ATOM      4  C5  UNL d   1       0.103   2.521  -1.165  0.00  0.00     0.000 A 
ATOM      5  C6  UNL d   1       0.188   3.652  -1.976  0.00  0.00     0.000 A 
ATOM      6  C7  UNL d   1      -0.558   4.808  -1.684  0.00  0.00    -0.073 A 
ATOM      7  C8  UNL d   1      -0.432   5.997  -2.596  0.00  0.00     0.078 C 
ENDROOT
BRANCH   1   8
ATOM      8  C1  UNL d   1      -2.294   5.991  -0.220  0.00  0.00     0.053 C 
ATOM      9  C   UNL d   1      -2.974   5.835   1.131  0.00  0.00     0.018 C 
ENDBRANCH   1   8
TORSDOF 1
ENDMDL
