MODEL 1
REMARK minimizedAffinity 12.2244015
REMARK minimizedRMSD -1
REMARK  1 active torsions:
REMARK  status: ('A' for Active; 'I' for Inactive)
REMARK    1  A    between atoms: C1_2  and  C2_3 
ROOT
ATOM      1  C2  UNL d   1      -0.110   3.837  -1.104  0.00  0.00    -0.076 A 
ATOM      2  C3  UNL d   1      -0.078   2.986  -2.223  0.00  0.00     0.004 A 
ATOM      3  C4  UNL d   1      -0.795   3.294  -3.378  0.00  0.00    -0.003 A 
ATOM      4  C5  UNL d   1      -1.554   4.458  -3.434  0.00  0.00     0.000 A 
ATOM      5  C6  UNL d   1      -1.583   5.322  -2.340  0.00  0.00     0.000 A 
ATOM      6  C7  UNL d   1      -0.854   5.035  -1.173  0.00  0.00    -0.073 A 
ATOM      7  C8  UNL d   1      -0.926   5.999  -0.021  0.00  0.00     0.078 C 
ENDROOT
BRANCH   1   8
ATOM      8  C1  UNL d   1       0.665   3.438   0.132  0.00  0.00     0.053 C 
ATOM      9  C   UNL d   1       0.019   2.279   0.876  0.00  0.00     0.018 C 
ENDBRANCH   1   8
TORSDOF 1
ENDMDL
