MODEL 1
REMARK minimizedAffinity -2.92795515
REMARK minimizedRMSD -1
REMARK  1 active torsions:
REMARK  status: ('A' for Active; 'I' for Inactive)
REMARK    1  A    between atoms: C1_2  and  C2_3 
ROOT
ATOM      1  C2  UNL d   1      -4.227  -3.786  -5.957  0.00  0.00    -0.076 A 
ATOM      2  C3  UNL d   1      -2.973  -3.152  -5.999  0.00  0.00     0.004 A 
ATOM      3  C4  UNL d   1      -1.793  -3.892  -5.937  0.00  0.00    -0.003 A 
ATOM      4  C5  UNL d   1      -1.848  -5.277  -5.833  0.00  0.00     0.000 A 
ATOM      5  C6  UNL d   1      -3.084  -5.924  -5.807  0.00  0.00     0.000 A 
ATOM      6  C7  UNL d   1      -4.282  -5.194  -5.885  0.00  0.00    -0.073 A 
ATOM      7  C8  UNL d   1      -5.587  -5.943  -5.847  0.00  0.00     0.078 C 
ENDROOT
BRANCH   1   8
ATOM      8  C1  UNL d   1      -5.473  -2.930  -6.000  0.00  0.00     0.053 C 
ATOM      9  C   UNL d   1      -5.158  -1.442  -5.994  0.00  0.00     0.018 C 
ENDBRANCH   1   8
TORSDOF 1
ENDMDL
