MODEL 1
REMARK minimizedAffinity -2.40434384
REMARK minimizedRMSD -1
REMARK  2 active torsions:
REMARK  status: ('A' for Active; 'I' for Inactive)
REMARK    1  A    between atoms: C1_2  and  C2_3 
REMARK    2  A    between atoms: C2_3  and  C3_4 
ROOT
ATOM      1  C3  UNL d   1       0.716   0.751  -0.620  0.00  0.00    -0.075 A 
ATOM      2  C4  UNL d   1       1.321  -0.420  -0.141  0.00  0.00     0.002 A 
ATOM      3  C5  UNL d   1       0.577  -1.360   0.573  0.00  0.00     0.002 A 
ATOM      4  C6  UNL d   1      -0.775  -1.138   0.824  0.00  0.00    -0.004 A 
ATOM      5  C7  UNL d   1      -1.382   0.030   0.367  0.00  0.00     0.002 A 
ATOM      6  C8  UNL d   1      -0.641   0.971  -0.351  0.00  0.00     0.002 A 
ENDROOT
BRANCH   1   7
ATOM      7  C2  UNL d   1       1.509   1.759  -1.418  0.00  0.00     0.056 C 
BRANCH   7   8
ATOM      8  C1  UNL d   1       0.848   2.167  -2.739  0.00  0.00     0.007 C 
ATOM      9  C   UNL d   1       1.729   1.914  -3.955  0.00  0.00     0.009 C 
ENDBRANCH   7   8
ENDBRANCH   1   7
TORSDOF 2
ENDMDL
