MODEL 1
REMARK minimizedAffinity -4.77561569
REMARK minimizedRMSD -1
REMARK  2 active torsions:
REMARK  status: ('A' for Active; 'I' for Inactive)
REMARK    1  A    between atoms: C1_2  and  C2_3 
REMARK    2  A    between atoms: C2_3  and  C3_4 
ROOT
ATOM      1  C3  UNL d   1       0.030  -0.263   0.172  0.00  0.00    -0.075 A 
ATOM      2  C4  UNL d   1      -1.370  -0.278   0.255  0.00  0.00     0.002 A 
ATOM      3  C5  UNL d   1      -2.046  -1.443   0.618  0.00  0.00     0.002 A 
ATOM      4  C6  UNL d   1      -1.334  -2.608   0.892  0.00  0.00    -0.004 A 
ATOM      5  C7  UNL d   1       0.056  -2.610   0.796  0.00  0.00     0.002 A 
ATOM      6  C8  UNL d   1       0.735  -1.444   0.437  0.00  0.00     0.002 A 
ENDROOT
BRANCH   1   7
ATOM      7  C2  UNL d   1       0.769   1.003  -0.192  0.00  0.00     0.056 C 
BRANCH   7   8
ATOM      8  C1  UNL d   1       0.607   1.420  -1.658  0.00  0.00     0.007 C 
ATOM      9  C   UNL d   1       1.703   2.362  -2.138  0.00  0.00     0.009 C 
ENDBRANCH   7   8
ENDBRANCH   1   7
TORSDOF 2
ENDMDL
