MODEL 1
REMARK minimizedAffinity -3.61569214
REMARK minimizedRMSD -1
REMARK  2 active torsions:
REMARK  status: ('A' for Active; 'I' for Inactive)
REMARK    1  A    between atoms: C1_2  and  C2_3 
REMARK    2  A    between atoms: C2_3  and  C3_4 
ROOT
ATOM      1  C3  UNL d   1       0.382   0.197  -0.148  0.00  0.00    -0.075 A 
ATOM      2  C4  UNL d   1      -0.850  -0.004   0.490  0.00  0.00     0.002 A 
ATOM      3  C5  UNL d   1      -1.158  -1.237   1.065  0.00  0.00     0.002 A 
ATOM      4  C6  UNL d   1      -0.244  -2.287   1.000  0.00  0.00    -0.004 A 
ATOM      5  C7  UNL d   1       0.976  -2.104   0.354  0.00  0.00     0.002 A 
ATOM      6  C8  UNL d   1       1.289  -0.870  -0.218  0.00  0.00     0.002 A 
ENDROOT
BRANCH   1   7
ATOM      7  C2  UNL d   1       0.733   1.538  -0.746  0.00  0.00     0.056 C 
BRANCH   7   8
ATOM      8  C1  UNL d   1       0.458   1.641  -2.250  0.00  0.00     0.007 C 
ATOM      9  C   UNL d   1       1.193   2.796  -2.917  0.00  0.00     0.009 C 
ENDBRANCH   7   8
ENDBRANCH   1   7
TORSDOF 2
ENDMDL
