MODEL 1
REMARK minimizedAffinity -5.30532265
REMARK minimizedRMSD -1
REMARK  2 active torsions:
REMARK  status: ('A' for Active; 'I' for Inactive)
REMARK    1  A    between atoms: C1_2  and  C2_3 
REMARK    2  A    between atoms: C2_3  and  C3_4 
ROOT
ATOM      1  C3  UNL d   1       0.179   0.775  -0.307  0.00  0.00    -0.075 A 
ATOM      2  C4  UNL d   1       0.741  -0.492  -0.092  0.00  0.00     0.002 A 
ATOM      3  C5  UNL d   1      -0.032  -1.533   0.422  0.00  0.00     0.002 A 
ATOM      4  C6  UNL d   1      -1.372  -1.318   0.738  0.00  0.00    -0.004 A 
ATOM      5  C7  UNL d   1      -1.937  -0.060   0.544  0.00  0.00     0.002 A 
ATOM      6  C8  UNL d   1      -1.167   0.982   0.025  0.00  0.00     0.002 A 
ENDROOT
BRANCH   1   7
ATOM      7  C2  UNL d   1       1.003   1.897  -0.891  0.00  0.00     0.056 C 
BRANCH   7   8
ATOM      8  C1  UNL d   1       1.166   1.825  -2.413  0.00  0.00     0.007 C 
ATOM      9  C   UNL d   1      -0.011   2.423  -3.172  0.00  0.00     0.009 C 
ENDBRANCH   7   8
ENDBRANCH   1   7
TORSDOF 2
ENDMDL
