MODEL 1
REMARK minimizedAffinity -3.93511581
REMARK minimizedRMSD -1
REMARK  2 active torsions:
REMARK  status: ('A' for Active; 'I' for Inactive)
REMARK    1  A    between atoms: C1_2  and  C2_3 
REMARK    2  A    between atoms: C2_3  and  C3_4 
ROOT
ATOM      1  C3  UNL d   1       0.356   0.520  -0.548  0.00  0.00    -0.075 A 
ATOM      2  C4  UNL d   1       0.918  -0.736  -0.280  0.00  0.00     0.002 A 
ATOM      3  C5  UNL d   1       0.165  -1.732   0.343  0.00  0.00     0.002 A 
ATOM      4  C6  UNL d   1      -1.154  -1.481   0.715  0.00  0.00    -0.004 A 
ATOM      5  C7  UNL d   1      -1.718  -0.231   0.469  0.00  0.00     0.002 A 
ATOM      6  C8  UNL d   1      -0.968   0.766  -0.158  0.00  0.00     0.002 A 
ENDROOT
BRANCH   1   7
ATOM      7  C2  UNL d   1       1.156   1.592  -1.248  0.00  0.00     0.056 C 
BRANCH   7   8
ATOM      8  C1  UNL d   1       0.508   2.114  -2.535  0.00  0.00     0.007 C 
ATOM      9  C   UNL d   1       1.250   1.690  -3.795  0.00  0.00     0.009 C 
ENDBRANCH   7   8
ENDBRANCH   1   7
TORSDOF 2
ENDMDL
