MODEL 1
REMARK minimizedAffinity -5.45372057
REMARK minimizedRMSD -1
REMARK  2 active torsions:
REMARK  status: ('A' for Active; 'I' for Inactive)
REMARK    1  A    between atoms: C1_2  and  C2_3 
REMARK    2  A    between atoms: C2_3  and  C3_4 
ROOT
ATOM      1  C3  UNL d   1       0.409   0.068  -0.205  0.00  0.00    -0.075 A 
ATOM      2  C4  UNL d   1       0.994  -1.134   0.221  0.00  0.00     0.002 A 
ATOM      3  C5  UNL d   1       0.234  -2.093   0.890  0.00  0.00     0.002 A 
ATOM      4  C6  UNL d   1      -1.115  -1.860   1.151  0.00  0.00    -0.004 A 
ATOM      5  C7  UNL d   1      -1.702  -0.663   0.747  0.00  0.00     0.002 A 
ATOM      6  C8  UNL d   1      -0.945   0.297   0.074  0.00  0.00     0.002 A 
ENDROOT
BRANCH   1   7
ATOM      7  C2  UNL d   1       1.219   1.098  -0.956  0.00  0.00     0.056 C 
BRANCH   7   8
ATOM      8  C1  UNL d   1       0.759   1.322  -2.400  0.00  0.00     0.007 C 
ATOM      9  C   UNL d   1       1.909   1.581  -3.364  0.00  0.00     0.009 C 
ENDBRANCH   7   8
ENDBRANCH   1   7
TORSDOF 2
ENDMDL
