MODEL 1
REMARK minimizedAffinity -2.49577546
REMARK minimizedRMSD -1
REMARK  2 active torsions:
REMARK  status: ('A' for Active; 'I' for Inactive)
REMARK    1  A    between atoms: C1_2  and  C2_3 
REMARK    2  A    between atoms: C2_3  and  C3_4 
ROOT
ATOM      1  C3  UNL d   1      -0.096  -0.409  -0.088  0.00  0.00    -0.075 A 
ATOM      2  C4  UNL d   1       0.250  -1.266   0.967  0.00  0.00     0.002 A 
ATOM      3  C5  UNL d   1      -0.670  -2.193   1.457  0.00  0.00     0.002 A 
ATOM      4  C6  UNL d   1      -1.948  -2.269   0.908  0.00  0.00    -0.004 A 
ATOM      5  C7  UNL d   1      -2.308  -1.411  -0.129  0.00  0.00     0.002 A 
ATOM      6  C8  UNL d   1      -1.388  -0.485  -0.625  0.00  0.00     0.002 A 
ENDROOT
BRANCH   1   7
ATOM      7  C2  UNL d   1       0.904   0.576  -0.643  0.00  0.00     0.056 C 
BRANCH   7   8
ATOM      8  C1  UNL d   1       1.156   0.429  -2.147  0.00  0.00     0.007 C 
ATOM      9  C   UNL d   1       1.902   1.612  -2.750  0.00  0.00     0.009 C 
ENDBRANCH   7   8
ENDBRANCH   1   7
TORSDOF 2
ENDMDL
