MODEL 1
REMARK minimizedAffinity -5.92351151
REMARK minimizedRMSD -1
REMARK  2 active torsions:
REMARK  status: ('A' for Active; 'I' for Inactive)
REMARK    1  A    between atoms: C1_2  and  C2_3 
REMARK    2  A    between atoms: C2_3  and  C3_4 
ROOT
ATOM      1  C3  UNL d   1       0.076  -0.082  -0.248  0.00  0.00    -0.075 A 
ATOM      2  C4  UNL d   1       0.750  -1.272   0.064  0.00  0.00     0.002 A 
ATOM      3  C5  UNL d   1       0.055  -2.362   0.589  0.00  0.00     0.002 A 
ATOM      4  C6  UNL d   1      -1.316  -2.273   0.818  0.00  0.00    -0.004 A 
ATOM      5  C7  UNL d   1      -1.993  -1.091   0.527  0.00  0.00     0.002 A 
ATOM      6  C8  UNL d   1      -1.301   0.000  -0.003  0.00  0.00     0.002 A 
ENDROOT
BRANCH   1   7
ATOM      7  C2  UNL d   1       0.816   1.091  -0.845  0.00  0.00     0.056 C 
BRANCH   7   8
ATOM      8  C1  UNL d   1       0.265   1.554  -2.197  0.00  0.00     0.007 C 
ATOM      9  C   UNL d   1       1.355   1.884  -3.208  0.00  0.00     0.009 C 
ENDBRANCH   7   8
ENDBRANCH   1   7
TORSDOF 2
ENDMDL
