MODEL 1
REMARK minimizedAffinity -4.07736969
REMARK minimizedRMSD -1
REMARK  2 active torsions:
REMARK  status: ('A' for Active; 'I' for Inactive)
REMARK    1  A    between atoms: C1_2  and  C2_3 
REMARK    2  A    between atoms: C2_3  and  C3_4 
ROOT
ATOM      1  C3  UNL d   1      -0.592  -1.192   0.117  0.00  0.00    -0.075 A 
ATOM      2  C4  UNL d   1       0.766  -1.538   0.142  0.00  0.00     0.002 A 
ATOM      3  C5  UNL d   1       1.747  -0.552   0.243  0.00  0.00     0.002 A 
ATOM      4  C6  UNL d   1       1.385   0.792   0.308  0.00  0.00    -0.004 A 
ATOM      5  C7  UNL d   1       0.039   1.149   0.267  0.00  0.00     0.002 A 
ATOM      6  C8  UNL d   1      -0.946   0.163   0.172  0.00  0.00     0.002 A 
ENDROOT
BRANCH   1   7
ATOM      7  C2  UNL d   1      -1.660  -2.256   0.039  0.00  0.00     0.056 C 
BRANCH   7   8
ATOM      8  C1  UNL d   1      -1.846  -3.050   1.336  0.00  0.00     0.007 C 
ATOM      9  C   UNL d   1      -0.849  -2.668   2.422  0.00  0.00     0.009 C 
ENDBRANCH   7   8
ENDBRANCH   1   7
TORSDOF 2
ENDMDL
