MODEL 1
REMARK minimizedAffinity 2.96172643
REMARK minimizedRMSD -1
REMARK  0 active torsions:
REMARK  status: ('A' for Active; 'I' for Inactive)
ROOT
ATOM      1  C   UNL d   1      -0.437   3.091   0.577  0.00  0.00     0.078 C 
ATOM      2  C1  UNL d   1      -0.633   3.930  -0.650  0.00  0.00    -0.077 A 
ATOM      3  C2  UNL d   1       0.399   4.100  -1.581  0.00  0.00    -0.001 A 
ATOM      4  C3  UNL d   1       0.206   4.892  -2.714  0.00  0.00     0.003 A 
ATOM      5  C4  UNL d   1      -1.019   5.522  -2.926  0.00  0.00    -0.005 A 
ATOM      6  C5  UNL d   1      -2.052   5.361  -2.004  0.00  0.00     0.003 A 
ATOM      7  C6  UNL d   1      -1.860   4.569  -0.871  0.00  0.00    -0.001 A 
ENDROOT
TORSDOF 0
ENDMDL
