MODEL 1
REMARK minimizedAffinity 8.41862202
REMARK minimizedRMSD -1
REMARK  0 active torsions:
REMARK  status: ('A' for Active; 'I' for Inactive)
ROOT
ATOM      1  C   UNL d   1      -0.020   3.125   0.373  0.00  0.00     0.078 C 
ATOM      2  C1  UNL d   1      -0.445   3.874  -0.855  0.00  0.00    -0.077 A 
ATOM      3  C2  UNL d   1       0.498   4.330  -1.784  0.00  0.00    -0.001 A 
ATOM      4  C3  UNL d   1       0.089   5.035  -2.917  0.00  0.00     0.003 A 
ATOM      5  C4  UNL d   1      -1.264   5.290  -3.132  0.00  0.00    -0.005 A 
ATOM      6  C5  UNL d   1      -2.210   4.841  -2.212  0.00  0.00     0.003 A 
ATOM      7  C6  UNL d   1      -1.803   4.137  -1.078  0.00  0.00    -0.001 A 
ENDROOT
TORSDOF 0
ENDMDL
