MODEL 1
REMARK minimizedAffinity 5.44649696
REMARK minimizedRMSD -1
REMARK  0 active torsions:
REMARK  status: ('A' for Active; 'I' for Inactive)
ROOT
ATOM      1  C   UNL d   1       0.057   2.961   1.757  0.00  0.00     0.078 C 
ATOM      2  C1  UNL d   1      -0.350   3.477   0.409  0.00  0.00    -0.077 A 
ATOM      3  C2  UNL d   1      -1.540   4.196   0.241  0.00  0.00    -0.001 A 
ATOM      4  C3  UNL d   1      -1.911   4.661  -1.021  0.00  0.00     0.003 A 
ATOM      5  C4  UNL d   1      -1.099   4.412  -2.126  0.00  0.00    -0.005 A 
ATOM      6  C5  UNL d   1       0.086   3.695  -1.969  0.00  0.00     0.003 A 
ATOM      7  C6  UNL d   1       0.459   3.229  -0.707  0.00  0.00    -0.001 A 
ENDROOT
TORSDOF 0
ENDMDL
