MODEL 1
REMARK minimizedAffinity 9.77432442
REMARK minimizedRMSD -1
REMARK  0 active torsions:
REMARK  status: ('A' for Active; 'I' for Inactive)
ROOT
ATOM      1  C   UNL d   1      -2.138  -0.656  -5.965  0.00  0.00     0.078 C 
ATOM      2  C1  UNL d   1      -3.351   0.225  -5.954  0.00  0.00    -0.077 A 
ATOM      3  C2  UNL d   1      -3.229   1.620  -5.937  0.00  0.00    -0.001 A 
ATOM      4  C3  UNL d   1      -4.366   2.428  -5.917  0.00  0.00     0.003 A 
ATOM      5  C4  UNL d   1      -5.635   1.851  -5.911  0.00  0.00    -0.005 A 
ATOM      6  C5  UNL d   1      -5.766   0.464  -5.925  0.00  0.00     0.003 A 
ATOM      7  C6  UNL d   1      -4.630  -0.346  -5.946  0.00  0.00    -0.001 A 
ENDROOT
TORSDOF 0
ENDMDL
