MODEL 1
REMARK minimizedAffinity 2.53285909
REMARK minimizedRMSD -1
REMARK  0 active torsions:
REMARK  status: ('A' for Active; 'I' for Inactive)
ROOT
ATOM      1  C   UNL d   1      -4.885   0.381   3.360  0.00  0.00     0.078 C 
ATOM      2  C1  UNL d   1      -4.876  -0.801   4.282  0.00  0.00    -0.077 A 
ATOM      3  C2  UNL d   1      -3.770  -1.658   4.346  0.00  0.00    -0.001 A 
ATOM      4  C3  UNL d   1      -3.780  -2.761   5.202  0.00  0.00     0.003 A 
ATOM      5  C4  UNL d   1      -4.894  -3.018   5.999  0.00  0.00    -0.005 A 
ATOM      6  C5  UNL d   1      -5.999  -2.172   5.941  0.00  0.00     0.003 A 
ATOM      7  C6  UNL d   1      -5.992  -1.069   5.086  0.00  0.00    -0.001 A 
ENDROOT
TORSDOF 0
ENDMDL
