MODEL 1
REMARK minimizedAffinity -0.25668779
REMARK minimizedRMSD -1
REMARK  0 active torsions:
REMARK  status: ('A' for Active; 'I' for Inactive)
ROOT
ATOM      1  C   UNL d   1       0.406   3.975   0.066  0.00  0.00     0.078 C 
ATOM      2  C1  UNL d   1       0.751   3.322   1.371  0.00  0.00    -0.077 A 
ATOM      3  C2  UNL d   1       1.987   3.552   1.988  0.00  0.00    -0.001 A 
ATOM      4  C3  UNL d   1       2.300   2.930   3.197  0.00  0.00     0.003 A 
ATOM      5  C4  UNL d   1       1.382   2.072   3.800  0.00  0.00    -0.005 A 
ATOM      6  C5  UNL d   1       0.150   1.835   3.193  0.00  0.00     0.003 A 
ATOM      7  C6  UNL d   1      -0.164   2.456   1.984  0.00  0.00    -0.001 A 
ENDROOT
TORSDOF 0
ENDMDL
