MODEL 1
REMARK minimizedAffinity 3.26956058
REMARK minimizedRMSD -1
REMARK  0 active torsions:
REMARK  status: ('A' for Active; 'I' for Inactive)
ROOT
ATOM      1  C   UNL d   1      -5.989   0.367  -5.667  0.00  0.00     0.078 C 
ATOM      2  C1  UNL d   1      -5.995   1.275  -4.473  0.00  0.00    -0.077 A 
ATOM      3  C2  UNL d   1      -5.983   2.666  -4.625  0.00  0.00    -0.001 A 
ATOM      4  C3  UNL d   1      -5.978   3.499  -3.504  0.00  0.00     0.003 A 
ATOM      5  C4  UNL d   1      -5.985   2.949  -2.224  0.00  0.00    -0.005 A 
ATOM      6  C5  UNL d   1      -5.994   1.565  -2.063  0.00  0.00     0.003 A 
ATOM      7  C6  UNL d   1      -5.999   0.731  -3.182  0.00  0.00    -0.001 A 
ENDROOT
TORSDOF 0
ENDMDL
