MODEL 1
REMARK minimizedAffinity 10.0682535
REMARK minimizedRMSD -1
REMARK  0 active torsions:
REMARK  status: ('A' for Active; 'I' for Inactive)
ROOT
ATOM      1  C   UNL d   1      -0.810  -4.235  -1.461  0.00  0.00     0.078 C 
ATOM      2  C1  UNL d   1       0.519  -3.745  -0.970  0.00  0.00    -0.077 A 
ATOM      3  C2  UNL d   1       0.654  -2.472  -0.402  0.00  0.00    -0.001 A 
ATOM      4  C3  UNL d   1       1.899  -2.025   0.042  0.00  0.00     0.003 A 
ATOM      5  C4  UNL d   1       3.020  -2.844  -0.079  0.00  0.00    -0.005 A 
ATOM      6  C5  UNL d   1       2.897  -4.111  -0.645  0.00  0.00     0.003 A 
ATOM      7  C6  UNL d   1       1.652  -4.560  -1.089  0.00  0.00    -0.001 A 
ENDROOT
TORSDOF 0
ENDMDL
