MODEL 1
REMARK minimizedAffinity -3.29161906
REMARK minimizedRMSD -1
REMARK  0 active torsions:
REMARK  status: ('A' for Active; 'I' for Inactive)
ROOT
ATOM      1  C   UNL d   1      -0.985   0.225  -1.087  0.00  0.00     0.078 C 
ATOM      2  C1  UNL d   1      -0.534   1.643  -0.902  0.00  0.00    -0.077 A 
ATOM      3  C2  UNL d   1      -0.539   2.546  -1.972  0.00  0.00    -0.001 A 
ATOM      4  C3  UNL d   1      -0.107   3.861  -1.788  0.00  0.00     0.003 A 
ATOM      5  C4  UNL d   1       0.334   4.284  -0.536  0.00  0.00    -0.005 A 
ATOM      6  C5  UNL d   1       0.343   3.392   0.534  0.00  0.00     0.003 A 
ATOM      7  C6  UNL d   1      -0.088   2.077   0.352  0.00  0.00    -0.001 A 
ENDROOT
TORSDOF 0
ENDMDL
