MODEL 1
REMARK minimizedAffinity -3.78599286
REMARK minimizedRMSD -1
REMARK  0 active torsions:
REMARK  status: ('A' for Active; 'I' for Inactive)
ROOT
ATOM      1  C1  DEN d   1       0.349  -0.858   2.688  0.00  0.00     0.130 A 
ATOM      2  C2  DEN d   1      -1.051  -0.445   2.731  0.00  0.00    -0.031 A 
ATOM      3  C3  DEN d   1      -1.506  -0.228   1.344  0.00  0.00     0.027 A 
ATOM      4  C4  DEN d   1      -0.188  -0.494  -0.857  0.00  0.00     0.027 A 
ATOM      5  C5  DEN d   1       1.037  -0.814  -1.400  0.00  0.00    -0.003 A 
ATOM      6  C6  DEN d   1       2.118  -1.135  -0.624  0.00  0.00     0.001 A 
ATOM      7  C7  DEN d   1       1.984  -1.188   0.738  0.00  0.00     0.017 A 
ATOM      8  C8  DEN d   1       0.755  -0.859   1.294  0.00  0.00    -0.094 A 
ATOM      9  C9  DEN d   1      -0.330  -0.549   0.491  0.00  0.00    -0.072 A 
ENDROOT
TORSDOF 0
ENDMDL
