MODEL 1
REMARK minimizedAffinity -2.88467836
REMARK minimizedRMSD -1
REMARK  0 active torsions:
REMARK  status: ('A' for Active; 'I' for Inactive)
ROOT
ATOM      1  C1  DEN d   1      -0.927  -0.069   0.295  0.00  0.00     0.130 A 
ATOM      2  C2  DEN d   1      -0.487  -0.032  -1.097  0.00  0.00    -0.031 A 
ATOM      3  C3  DEN d   1       0.735  -0.853  -1.212  0.00  0.00     0.027 A 
ATOM      4  C4  DEN d   1       1.978  -2.176   0.620  0.00  0.00     0.027 A 
ATOM      5  C5  DEN d   1       1.989  -2.500   1.959  0.00  0.00    -0.003 A 
ATOM      6  C6  DEN d   1       1.057  -2.013   2.836  0.00  0.00     0.001 A 
ATOM      7  C7  DEN d   1       0.046  -1.211   2.376  0.00  0.00     0.017 A 
ATOM      8  C8  DEN d   1       0.033  -0.874   1.029  0.00  0.00    -0.094 A 
ATOM      9  C9  DEN d   1       0.977  -1.386   0.156  0.00  0.00    -0.072 A 
ENDROOT
TORSDOF 0
ENDMDL
