MODEL 1
REMARK minimizedAffinity -4.38995886
REMARK minimizedRMSD -1
REMARK  0 active torsions:
REMARK  status: ('A' for Active; 'I' for Inactive)
ROOT
ATOM      1  C1  DEN d   1      -0.756   2.252  -2.716  0.00  0.00     0.130 A 
ATOM      2  C2  DEN d   1      -0.286   3.545  -2.227  0.00  0.00    -0.031 A 
ATOM      3  C3  DEN d   1      -0.026   3.419  -0.779  0.00  0.00     0.027 A 
ATOM      4  C4  DEN d   1      -0.299   1.357   0.745  0.00  0.00     0.027 A 
ATOM      5  C5  DEN d   1      -0.681   0.034   0.786  0.00  0.00    -0.003 A 
ATOM      6  C6  DEN d   1      -1.143  -0.628  -0.321  0.00  0.00     0.001 A 
ATOM      7  C7  DEN d   1      -1.192   0.020  -1.527  0.00  0.00     0.017 A 
ATOM      8  C8  DEN d   1      -0.816   1.356  -1.575  0.00  0.00    -0.094 A 
ATOM      9  C9  DEN d   1      -0.340   2.003  -0.447  0.00  0.00    -0.072 A 
ENDROOT
TORSDOF 0
ENDMDL
