MODEL 1
REMARK minimizedAffinity -4.51515102
REMARK minimizedRMSD -1
REMARK  0 active torsions:
REMARK  status: ('A' for Active; 'I' for Inactive)
ROOT
ATOM      1  C1  DEN d   1      -1.137   0.853   0.086  0.00  0.00     0.130 A 
ATOM      2  C2  DEN d   1      -0.969   0.830  -1.365  0.00  0.00    -0.031 A 
ATOM      3  C3  DEN d   1       0.261   0.072  -1.670  0.00  0.00     0.027 A 
ATOM      4  C4  DEN d   1       1.910  -1.066  -0.046  0.00  0.00     0.027 A 
ATOM      5  C5  DEN d   1       2.194  -1.307   1.280  0.00  0.00    -0.003 A 
ATOM      6  C6  DEN d   1       1.412  -0.820   2.294  0.00  0.00     0.001 A 
ATOM      7  C7  DEN d   1       0.283  -0.105   1.996  0.00  0.00     0.017 A 
ATOM      8  C8  DEN d   1      -0.006   0.149   0.662  0.00  0.00    -0.094 A 
ATOM      9  C9  DEN d   1       0.790  -0.363  -0.349  0.00  0.00    -0.072 A 
ENDROOT
TORSDOF 0
ENDMDL
