MODEL 1
REMARK minimizedAffinity -4.98516035
REMARK minimizedRMSD -1
REMARK  0 active torsions:
REMARK  status: ('A' for Active; 'I' for Inactive)
ROOT
ATOM      1  C1  DEN d   1      -1.280   0.317  -0.170  0.00  0.00     0.130 A 
ATOM      2  C2  DEN d   1      -0.727   0.267  -1.521  0.00  0.00    -0.031 A 
ATOM      3  C3  DEN d   1       0.725   0.022  -1.410  0.00  0.00     0.027 A 
ATOM      4  C4  DEN d   1       2.162  -0.288   0.709  0.00  0.00     0.027 A 
ATOM      5  C5  DEN d   1       2.140  -0.316   2.086  0.00  0.00    -0.003 A 
ATOM      6  C6  DEN d   1       0.992  -0.102   2.802  0.00  0.00     0.001 A 
ATOM      7  C7  DEN d   1      -0.191   0.103   2.143  0.00  0.00     0.017 A 
ATOM      8  C8  DEN d   1      -0.175   0.140   0.755  0.00  0.00    -0.094 A 
ATOM      9  C9  DEN d   1       0.993  -0.090   0.049  0.00  0.00    -0.072 A 
ENDROOT
TORSDOF 0
ENDMDL
