MODEL 1
REMARK minimizedAffinity -2.41305137
REMARK minimizedRMSD -1
REMARK  0 active torsions:
REMARK  status: ('A' for Active; 'I' for Inactive)
ROOT
ATOM      1  C1  DEN d   1      -0.296  -0.470  -1.528  0.00  0.00     0.130 A 
ATOM      2  C2  DEN d   1      -0.387   0.840  -2.165  0.00  0.00    -0.031 A 
ATOM      3  C3  DEN d   1      -0.451   1.863  -1.102  0.00  0.00     0.027 A 
ATOM      4  C4  DEN d   1      -0.415   1.545   1.458  0.00  0.00     0.027 A 
ATOM      5  C5  DEN d   1      -0.359   0.616   2.473  0.00  0.00    -0.003 A 
ATOM      6  C6  DEN d   1      -0.313  -0.731   2.228  0.00  0.00     0.001 A 
ATOM      7  C7  DEN d   1      -0.277  -1.185   0.936  0.00  0.00     0.017 A 
ATOM      8  C8  DEN d   1      -0.340  -0.255  -0.092  0.00  0.00    -0.094 A 
ATOM      9  C9  DEN d   1      -0.373   1.103   0.175  0.00  0.00    -0.072 A 
ENDROOT
TORSDOF 0
ENDMDL
