MODEL 1
REMARK minimizedAffinity -5.0369997
REMARK minimizedRMSD -1
REMARK  0 active torsions:
REMARK  status: ('A' for Active; 'I' for Inactive)
ROOT
ATOM      1  C1  DEN d   1       2.210  -1.564   1.699  0.00  0.00     0.130 A 
ATOM      2  C2  DEN d   1       1.546  -1.472   2.997  0.00  0.00    -0.031 A 
ATOM      3  C3  DEN d   1       0.163  -1.006   2.769  0.00  0.00     0.027 A 
ATOM      4  C4  DEN d   1      -1.010  -0.427   0.546  0.00  0.00     0.027 A 
ATOM      5  C5  DEN d   1      -0.848  -0.340  -0.819  0.00  0.00    -0.003 A 
ATOM      6  C6  DEN d   1       0.345  -0.619  -1.432  0.00  0.00     0.001 A 
ATOM      7  C7  DEN d   1       1.410  -1.043  -0.683  0.00  0.00     0.017 A 
ATOM      8  C8  DEN d   1       1.257  -1.127   0.695  0.00  0.00    -0.094 A 
ATOM      9  C9  DEN d   1       0.039  -0.852   1.295  0.00  0.00    -0.072 A 
ENDROOT
TORSDOF 0
ENDMDL
