MODEL 1
REMARK minimizedAffinity -3.19293022
REMARK minimizedRMSD -1
REMARK  1 active torsions:
REMARK  status: ('A' for Active; 'I' for Inactive)
REMARK    1  A    between atoms: C1_2  and  C2_3 
ROOT
ATOM      1  C2  UNL d   1      -0.013   0.416  -0.218  0.00  0.00    -0.073 A 
ATOM      2  C3  UNL d   1      -1.014   0.658   0.729  0.00  0.00    -0.002 A 
ATOM      3  C4  UNL d   1      -1.529  -0.390   1.494  0.00  0.00     0.004 A 
ATOM      4  C5  UNL d   1      -1.044  -1.687   1.325  0.00  0.00    -0.004 A 
ATOM      5  C6  UNL d   1      -0.035  -1.946   0.391  0.00  0.00    -0.075 A 
ATOM      6  C7  UNL d   1       0.496  -3.336   0.196  0.00  0.00     0.076 C 
ATOM      7  C8  UNL d   1       0.475  -0.890  -0.375  0.00  0.00     0.001 A 
ENDROOT
BRANCH   1   8
ATOM      8  C1  UNL d   1       0.551   1.545  -1.042  0.00  0.00     0.053 C 
ATOM      9  C   UNL d   1       1.043   2.693  -0.175  0.00  0.00     0.018 C 
ENDBRANCH   1   8
TORSDOF 1
ENDMDL
