MODEL 1
REMARK minimizedAffinity -4.0186224
REMARK minimizedRMSD -1
REMARK  1 active torsions:
REMARK  status: ('A' for Active; 'I' for Inactive)
REMARK    1  A    between atoms: C1_2  and  C2_3 
ROOT
ATOM      1  C2  UNL d   1       0.213   1.462  -0.440  0.00  0.00    -0.073 A 
ATOM      2  C3  UNL d   1      -0.199   1.459  -1.777  0.00  0.00    -0.002 A 
ATOM      3  C4  UNL d   1      -0.302   0.257  -2.480  0.00  0.00     0.004 A 
ATOM      4  C5  UNL d   1      -0.001  -0.951  -1.852  0.00  0.00    -0.004 A 
ATOM      5  C6  UNL d   1       0.402  -0.969  -0.513  0.00  0.00    -0.075 A 
ATOM      6  C7  UNL d   1       0.731  -2.261   0.176  0.00  0.00     0.076 C 
ATOM      7  C8  UNL d   1       0.505   0.241   0.185  0.00  0.00     0.001 A 
ENDROOT
BRANCH   1   8
ATOM      8  C1  UNL d   1       0.320   2.756   0.325  0.00  0.00     0.053 C 
ATOM      9  C   UNL d   1       1.745   3.285   0.355  0.00  0.00     0.018 C 
ENDBRANCH   1   8
TORSDOF 1
ENDMDL
