MODEL 1
REMARK minimizedAffinity -3.25275326
REMARK minimizedRMSD -1
REMARK  1 active torsions:
REMARK  status: ('A' for Active; 'I' for Inactive)
REMARK    1  A    between atoms: C1_2  and  C2_3 
ROOT
ATOM      1  C2  UNL d   1      -0.285  -1.256   0.240  0.00  0.00    -0.073 A 
ATOM      2  C3  UNL d   1      -0.680  -2.486   0.779  0.00  0.00    -0.002 A 
ATOM      3  C4  UNL d   1      -0.570  -3.655   0.024  0.00  0.00     0.004 A 
ATOM      4  C5  UNL d   1      -0.059  -3.607  -1.273  0.00  0.00    -0.004 A 
ATOM      5  C6  UNL d   1       0.351  -2.390  -1.825  0.00  0.00    -0.075 A 
ATOM      6  C7  UNL d   1       0.901  -2.321  -3.220  0.00  0.00     0.076 C 
ATOM      7  C8  UNL d   1       0.235  -1.220  -1.062  0.00  0.00     0.001 A 
ENDROOT
BRANCH   1   8
ATOM      8  C1  UNL d   1      -0.396   0.007   1.053  0.00  0.00     0.053 C 
ATOM      9  C   UNL d   1      -0.223   1.252   0.198  0.00  0.00     0.018 C 
ENDBRANCH   1   8
TORSDOF 1
ENDMDL
