MODEL 1
REMARK minimizedAffinity -1.00641441
REMARK minimizedRMSD -1
REMARK  1 active torsions:
REMARK  status: ('A' for Active; 'I' for Inactive)
REMARK    1  A    between atoms: C1_2  and  C2_3 
ROOT
ATOM      1  C2  UNL d   1       0.507   0.612   0.353  0.00  0.00    -0.073 A 
ATOM      2  C3  UNL d   1      -0.700   1.023   0.930  0.00  0.00    -0.002 A 
ATOM      3  C4  UNL d   1      -1.637   0.078   1.351  0.00  0.00     0.004 A 
ATOM      4  C5  UNL d   1      -1.374  -1.284   1.206  0.00  0.00    -0.004 A 
ATOM      5  C6  UNL d   1      -0.168  -1.714   0.643  0.00  0.00    -0.075 A 
ATOM      6  C7  UNL d   1       0.128  -3.176   0.477  0.00  0.00     0.076 C 
ATOM      7  C8  UNL d   1       0.766  -0.759   0.220  0.00  0.00     0.001 A 
ENDROOT
BRANCH   1   8
ATOM      8  C1  UNL d   1       1.525   1.629  -0.097  0.00  0.00     0.053 C 
ATOM      9  C   UNL d   1       1.929   2.568   1.029  0.00  0.00     0.018 C 
ENDBRANCH   1   8
TORSDOF 1
ENDMDL
