MODEL 1
REMARK minimizedAffinity -4.28381872
REMARK minimizedRMSD -1
REMARK  1 active torsions:
REMARK  status: ('A' for Active; 'I' for Inactive)
REMARK    1  A    between atoms: C1_2  and  C2_3 
ROOT
ATOM      1  C2  UNL d   1       0.107  -0.202  -0.284  0.00  0.00    -0.073 A 
ATOM      2  C3  UNL d   1       0.175  -0.083  -1.677  0.00  0.00    -0.002 A 
ATOM      3  C4  UNL d   1       0.227  -1.223  -2.480  0.00  0.00     0.004 A 
ATOM      4  C5  UNL d   1       0.205  -2.491  -1.900  0.00  0.00    -0.004 A 
ATOM      5  C6  UNL d   1       0.124  -2.631  -0.511  0.00  0.00    -0.075 A 
ATOM      6  C7  UNL d   1       0.101  -3.989   0.128  0.00  0.00     0.076 C 
ATOM      7  C8  UNL d   1       0.075  -1.481   0.289  0.00  0.00     0.001 A 
ENDROOT
BRANCH   1   8
ATOM      8  C1  UNL d   1       0.044   1.026   0.587  0.00  0.00     0.053 C 
ATOM      9  C   UNL d   1       0.919   2.149   0.053  0.00  0.00     0.018 C 
ENDBRANCH   1   8
TORSDOF 1
ENDMDL
