MODEL 1
REMARK minimizedAffinity -4.88816977
REMARK minimizedRMSD -1
REMARK  1 active torsions:
REMARK  status: ('A' for Active; 'I' for Inactive)
REMARK    1  A    between atoms: C1_2  and  C2_3 
ROOT
ATOM      1  C2  UNL d   1       0.159   0.060   0.450  0.00  0.00    -0.073 A 
ATOM      2  C3  UNL d   1      -0.216   0.703  -0.735  0.00  0.00    -0.002 A 
ATOM      3  C4  UNL d   1       0.268   1.979  -1.029  0.00  0.00     0.004 A 
ATOM      4  C5  UNL d   1       1.135   2.621  -0.146  0.00  0.00    -0.004 A 
ATOM      5  C6  UNL d   1       1.531   1.990   1.038  0.00  0.00    -0.075 A 
ATOM      6  C7  UNL d   1       2.462   2.668   2.000  0.00  0.00     0.076 C 
ATOM      7  C8  UNL d   1       1.039   0.710   1.327  0.00  0.00     0.001 A 
ENDROOT
BRANCH   1   8
ATOM      8  C1  UNL d   1      -0.355  -1.320   0.768  0.00  0.00     0.053 C 
ATOM      9  C   UNL d   1       0.319  -2.389  -0.077  0.00  0.00     0.018 C 
ENDBRANCH   1   8
TORSDOF 1
ENDMDL
