MODEL 1
REMARK minimizedAffinity -1.54092276
REMARK minimizedRMSD -1
REMARK  1 active torsions:
REMARK  status: ('A' for Active; 'I' for Inactive)
REMARK    1  A    between atoms: C1_2  and  C2_3 
ROOT
ATOM      1  C2  UNL d   1       0.288   0.534  -0.660  0.00  0.00    -0.073 A 
ATOM      2  C3  UNL d   1       0.591   0.496  -2.026  0.00  0.00    -0.002 A 
ATOM      3  C4  UNL d   1       0.887  -0.716  -2.650  0.00  0.00     0.004 A 
ATOM      4  C5  UNL d   1       0.878  -1.903  -1.917  0.00  0.00    -0.004 A 
ATOM      5  C6  UNL d   1       0.567  -1.888  -0.554  0.00  0.00    -0.075 A 
ATOM      6  C7  UNL d   1       0.555  -3.156   0.249  0.00  0.00     0.076 C 
ATOM      7  C8  UNL d   1       0.273  -0.666   0.066  0.00  0.00     0.001 A 
ENDROOT
BRANCH   1   8
ATOM      8  C1  UNL d   1      -0.039   1.840   0.016  0.00  0.00     0.053 C 
ATOM      9  C   UNL d   1       1.214   2.604   0.417  0.00  0.00     0.018 C 
ENDBRANCH   1   8
TORSDOF 1
ENDMDL
