MODEL 1
REMARK minimizedAffinity -4.13530111
REMARK minimizedRMSD -1
REMARK  1 active torsions:
REMARK  status: ('A' for Active; 'I' for Inactive)
REMARK    1  A    between atoms: C1_2  and  C2_3 
ROOT
ATOM      1  C2  UNL d   1      -0.009   0.739  -0.433  0.00  0.00    -0.073 A 
ATOM      2  C3  UNL d   1       0.061   0.776  -1.830  0.00  0.00    -0.002 A 
ATOM      3  C4  UNL d   1       0.205  -0.404  -2.561  0.00  0.00     0.004 A 
ATOM      4  C5  UNL d   1       0.272  -1.633  -1.904  0.00  0.00    -0.004 A 
ATOM      5  C6  UNL d   1       0.192  -1.692  -0.509  0.00  0.00    -0.075 A 
ATOM      6  C7  UNL d   1       0.265  -3.005   0.213  0.00  0.00     0.076 C 
ATOM      7  C8  UNL d   1       0.051  -0.502   0.218  0.00  0.00     0.001 A 
ENDROOT
BRANCH   1   8
ATOM      8  C1  UNL d   1      -0.170   2.010   0.360  0.00  0.00     0.053 C 
ATOM      9  C   UNL d   1       1.043   2.918   0.233  0.00  0.00     0.018 C 
ENDBRANCH   1   8
TORSDOF 1
ENDMDL
