MODEL 1
REMARK minimizedAffinity -2.74235296
REMARK minimizedRMSD -1
REMARK  1 active torsions:
REMARK  status: ('A' for Active; 'I' for Inactive)
REMARK    1  A    between atoms: C1_2  and  C2_3 
ROOT
ATOM      1  C2  UNL d   1      -0.476  -0.734   0.267  0.00  0.00    -0.073 A 
ATOM      2  C3  UNL d   1      -0.636  -1.843   1.105  0.00  0.00    -0.002 A 
ATOM      3  C4  UNL d   1      -0.157  -3.095   0.716  0.00  0.00     0.004 A 
ATOM      4  C5  UNL d   1       0.492  -3.249  -0.509  0.00  0.00    -0.004 A 
ATOM      5  C6  UNL d   1       0.673  -2.149  -1.354  0.00  0.00    -0.075 A 
ATOM      6  C7  UNL d   1       1.367  -2.298  -2.676  0.00  0.00     0.076 C 
ATOM      7  C8  UNL d   1       0.187  -0.896  -0.958  0.00  0.00     0.001 A 
ENDROOT
BRANCH   1   8
ATOM      8  C1  UNL d   1      -0.985   0.621   0.686  0.00  0.00     0.053 C 
ATOM      9  C   UNL d   1      -0.118   1.748   0.148  0.00  0.00     0.018 C 
ENDBRANCH   1   8
TORSDOF 1
ENDMDL
