MODEL 1
REMARK minimizedAffinity -4.08045197
REMARK minimizedRMSD -1
REMARK  1 active torsions:
REMARK  status: ('A' for Active; 'I' for Inactive)
REMARK    1  A    between atoms: C1_2  and  C2_3 
ROOT
ATOM      1  C2  UNL d   1      -0.092   0.669  -0.405  0.00  0.00    -0.073 A 
ATOM      2  C3  UNL d   1       0.292   0.708  -1.750  0.00  0.00    -0.002 A 
ATOM      3  C4  UNL d   1       0.720  -0.454  -2.394  0.00  0.00     0.004 A 
ATOM      4  C5  UNL d   1       0.762  -1.665  -1.704  0.00  0.00    -0.004 A 
ATOM      5  C6  UNL d   1       0.372  -1.726  -0.363  0.00  0.00    -0.075 A 
ATOM      6  C7  UNL d   1       0.413  -3.020   0.395  0.00  0.00     0.076 C 
ATOM      7  C8  UNL d   1      -0.055  -0.555   0.278  0.00  0.00     0.001 A 
ENDROOT
BRANCH   1   8
ATOM      8  C1  UNL d   1      -0.561   1.919   0.294  0.00  0.00     0.053 C 
ATOM      9  C   UNL d   1       0.547   2.953   0.417  0.00  0.00     0.018 C 
ENDBRANCH   1   8
TORSDOF 1
ENDMDL
