MODEL 1
REMARK minimizedAffinity 4.77449512
REMARK minimizedRMSD -1
REMARK  0 active torsions:
REMARK  status: ('A' for Active; 'I' for Inactive)
ROOT
ATOM      1  C4' PXY d   1       6.000  -5.241   1.146  0.00  0.00     0.077 C 
ATOM      2  C1' PXY d   1       0.860  -2.918  -0.119  0.00  0.00     0.077 C 
ATOM      3  C1  PXY d   1       2.207  -3.523   0.225  0.00  0.00    -0.082 A 
ATOM      4  C2  PXY d   1       3.093  -3.734  -0.735  0.00  0.00     0.003 A 
ATOM      5  C3  PXY d   1       4.304  -4.310  -0.446  0.00  0.00     0.003 A 
ATOM      6  C4  PXY d   1       4.631  -4.624   0.846  0.00  0.00    -0.082 A 
ATOM      7  C5  PXY d   1       3.736  -4.402   1.832  0.00  0.00     0.003 A 
ATOM      8  C6  PXY d   1       2.497  -3.855   1.512  0.00  0.00     0.003 A 
ENDROOT
TORSDOF 0
ENDMDL
