MODEL 1
REMARK minimizedAffinity 5.37489605
REMARK minimizedRMSD -1
REMARK  0 active torsions:
REMARK  status: ('A' for Active; 'I' for Inactive)
ROOT
ATOM      1  C4' PXY d   1       3.852  -4.691   0.049  0.00  0.00     0.077 C 
ATOM      2  C1' PXY d   1      -0.353  -1.006   1.518  0.00  0.00     0.077 C 
ATOM      3  C1  PXY d   1       0.747  -1.970   1.120  0.00  0.00    -0.082 A 
ATOM      4  C2  PXY d   1       1.092  -2.946   1.944  0.00  0.00     0.003 A 
ATOM      5  C3  PXY d   1       2.106  -3.807   1.614  0.00  0.00     0.003 A 
ATOM      6  C4  PXY d   1       2.740  -3.700   0.405  0.00  0.00    -0.082 A 
ATOM      7  C5  PXY d   1       2.387  -2.714  -0.446  0.00  0.00     0.003 A 
ATOM      8  C6  PXY d   1       1.382  -1.825  -0.075  0.00  0.00     0.003 A 
ENDROOT
TORSDOF 0
ENDMDL
