MODEL 1
REMARK minimizedAffinity -5.62087345
REMARK minimizedRMSD -1
REMARK  0 active torsions:
REMARK  status: ('A' for Active; 'I' for Inactive)
ROOT
ATOM      1  C4' PXY d   1      -2.442   2.253  -1.941  0.00  0.00     0.077 C 
ATOM      2  C1' PXY d   1      -3.322  -2.229  -5.484  0.00  0.00     0.077 C 
ATOM      3  C1  PXY d   1      -3.096  -1.046  -4.564  0.00  0.00    -0.082 A 
ATOM      4  C2  PXY d   1      -2.168  -1.116  -3.623  0.00  0.00     0.003 A 
ATOM      5  C3  PXY d   1      -1.973  -0.067  -2.761  0.00  0.00     0.003 A 
ATOM      6  C4  PXY d   1      -2.698   1.086  -2.899  0.00  0.00    -0.082 A 
ATOM      7  C5  PXY d   1      -3.639   1.170  -3.863  0.00  0.00     0.003 A 
ATOM      8  C6  PXY d   1      -3.850   0.079  -4.701  0.00  0.00     0.003 A 
ENDROOT
TORSDOF 0
ENDMDL
