MODEL 1
REMARK minimizedAffinity -6.18132067
REMARK minimizedRMSD -1
REMARK  0 active torsions:
REMARK  status: ('A' for Active; 'I' for Inactive)
ROOT
ATOM      1  C4' PXY d   1      -3.431  -2.339  -4.263  0.00  0.00     0.077 C 
ATOM      2  C1' PXY d   1      -3.947   3.274  -2.981  0.00  0.00     0.077 C 
ATOM      3  C1  PXY d   1      -3.823   1.802  -3.323  0.00  0.00    -0.082 A 
ATOM      4  C2  PXY d   1      -2.979   1.042  -2.645  0.00  0.00     0.003 A 
ATOM      5  C3  PXY d   1      -2.831  -0.284  -2.962  0.00  0.00     0.003 A 
ATOM      6  C4  PXY d   1      -3.595  -0.850  -3.947  0.00  0.00    -0.082 A 
ATOM      7  C5  PXY d   1      -4.467  -0.083  -4.636  0.00  0.00     0.003 A 
ATOM      8  C6  PXY d   1      -4.572   1.270  -4.327  0.00  0.00     0.003 A 
ENDROOT
TORSDOF 0
ENDMDL
