MODEL 1
REMARK minimizedAffinity 1.88840044
REMARK minimizedRMSD -1
REMARK  0 active torsions:
REMARK  status: ('A' for Active; 'I' for Inactive)
ROOT
ATOM      1  C4' PXY d   1      -2.557   2.857  -3.079  0.00  0.00     0.077 C 
ATOM      2  C1' PXY d   1      -5.442  -2.012  -4.259  0.00  0.00     0.077 C 
ATOM      3  C1  PXY d   1      -4.687  -0.731  -3.962  0.00  0.00    -0.082 A 
ATOM      4  C2  PXY d   1      -3.838  -0.692  -2.948  0.00  0.00     0.003 A 
ATOM      5  C3  PXY d   1      -3.170   0.467  -2.646  0.00  0.00     0.003 A 
ATOM      6  C4  PXY d   1      -3.334   1.583  -3.422  0.00  0.00    -0.082 A 
ATOM      7  C5  PXY d   1      -4.191   1.548  -4.464  0.00  0.00     0.003 A 
ATOM      8  C6  PXY d   1      -4.889   0.374  -4.730  0.00  0.00     0.003 A 
ENDROOT
TORSDOF 0
ENDMDL
