MODEL 1
REMARK minimizedAffinity 4.68855476
REMARK minimizedRMSD -1
REMARK  0 active torsions:
REMARK  status: ('A' for Active; 'I' for Inactive)
ROOT
ATOM      1  C4' PXY d   1       0.244  -0.588   3.376  0.00  0.00     0.077 C 
ATOM      2  C1' PXY d   1       3.850   1.829  -0.440  0.00  0.00     0.077 C 
ATOM      3  C1  PXY d   1       2.911   1.201   0.571  0.00  0.00    -0.082 A 
ATOM      4  C2  PXY d   1       2.250   0.100   0.253  0.00  0.00     0.003 A 
ATOM      5  C3  PXY d   1       1.373  -0.464   1.143  0.00  0.00     0.003 A 
ATOM      6  C4  PXY d   1       1.210   0.075   2.391  0.00  0.00    -0.082 A 
ATOM      7  C5  PXY d   1       1.888   1.193   2.726  0.00  0.00     0.003 A 
ATOM      8  C6  PXY d   1       2.743   1.773   1.794  0.00  0.00     0.003 A 
ENDROOT
TORSDOF 0
ENDMDL
