MODEL 1
REMARK minimizedAffinity 3.47192979
REMARK minimizedRMSD -1
REMARK  0 active torsions:
REMARK  status: ('A' for Active; 'I' for Inactive)
ROOT
ATOM      1  C4' PXY d   1      -5.994   1.954  -4.866  0.00  0.00     0.077 C 
ATOM      2  C1' PXY d   1      -1.513  -1.698  -4.904  0.00  0.00     0.077 C 
ATOM      3  C1  PXY d   1      -2.690  -0.742  -4.881  0.00  0.00    -0.082 A 
ATOM      4  C2  PXY d   1      -3.363  -0.507  -5.996  0.00  0.00     0.003 A 
ATOM      5  C3  PXY d   1      -4.410   0.379  -6.000  0.00  0.00     0.003 A 
ATOM      6  C4  PXY d   1      -4.805   0.990  -4.840  0.00  0.00    -0.082 A 
ATOM      7  C5  PXY d   1      -4.130   0.746  -3.696  0.00  0.00     0.003 A 
ATOM      8  C6  PXY d   1      -3.045  -0.125  -3.722  0.00  0.00     0.003 A 
ENDROOT
TORSDOF 0
ENDMDL
