MODEL 1
REMARK minimizedAffinity 4.70914555
REMARK minimizedRMSD -1
REMARK  0 active torsions:
REMARK  status: ('A' for Active; 'I' for Inactive)
ROOT
ATOM      1  C4' PXY d   1       5.661  -6.000   0.616  0.00  0.00     0.077 C 
ATOM      2  C1' PXY d   1       1.434  -2.145   1.444  0.00  0.00     0.077 C 
ATOM      3  C1  PXY d   1       2.534  -3.165   1.227  0.00  0.00    -0.082 A 
ATOM      4  C2  PXY d   1       3.767  -2.892   1.622  0.00  0.00     0.003 A 
ATOM      5  C3  PXY d   1       4.779  -3.791   1.404  0.00  0.00     0.003 A 
ATOM      6  C4  PXY d   1       4.517  -5.003   0.824  0.00  0.00    -0.082 A 
ATOM      7  C5  PXY d   1       3.260  -5.293   0.428  0.00  0.00     0.003 A 
ATOM      8  C6  PXY d   1       2.254  -4.351   0.621  0.00  0.00     0.003 A 
ENDROOT
TORSDOF 0
ENDMDL
