MODEL 1
REMARK minimizedAffinity 3.57727218
REMARK minimizedRMSD -1
REMARK  0 active torsions:
REMARK  status: ('A' for Active; 'I' for Inactive)
ROOT
ATOM      1  C4' PXY d   1      -1.551  -2.311  -4.904  0.00  0.00     0.077 C 
ATOM      2  C1' PXY d   1      -5.984   1.044  -3.320  0.00  0.00     0.077 C 
ATOM      3  C1  PXY d   1      -4.823   0.167  -3.748  0.00  0.00    -0.082 A 
ATOM      4  C2  PXY d   1      -4.454  -0.848  -2.984  0.00  0.00     0.003 A 
ATOM      5  C3  PXY d   1      -3.387  -1.631  -3.340  0.00  0.00     0.003 A 
ATOM      6  C4  PXY d   1      -2.723  -1.405  -4.516  0.00  0.00    -0.082 A 
ATOM      7  C5  PXY d   1      -3.101  -0.378  -5.306  0.00  0.00     0.003 A 
ATOM      8  C6  PXY d   1      -4.161   0.431  -4.906  0.00  0.00     0.003 A 
ENDROOT
TORSDOF 0
ENDMDL
