MODEL 1
REMARK minimizedAffinity -5.26081371
REMARK minimizedRMSD -1
REMARK  0 active torsions:
REMARK  status: ('A' for Active; 'I' for Inactive)
ROOT
ATOM      1  C4' PXY d   1      -1.340   2.397  -3.751  0.00  0.00     0.077 C 
ATOM      2  C1' PXY d   1      -4.975  -2.073  -4.222  0.00  0.00     0.077 C 
ATOM      3  C1  PXY d   1      -4.022  -0.900  -4.112  0.00  0.00    -0.082 A 
ATOM      4  C2  PXY d   1      -3.236  -0.792  -3.052  0.00  0.00     0.003 A 
ATOM      5  C3  PXY d   1      -2.391   0.280  -2.921  0.00  0.00     0.003 A 
ATOM      6  C4  PXY d   1      -2.311   1.224  -3.909  0.00  0.00    -0.082 A 
ATOM      7  C5  PXY d   1      -3.102   1.116  -4.998  0.00  0.00     0.003 A 
ATOM      8  C6  PXY d   1      -3.982   0.042  -5.093  0.00  0.00     0.003 A 
ENDROOT
TORSDOF 0
ENDMDL
