MODEL 1
REMARK minimizedAffinity -0.568606198
REMARK minimizedRMSD -1
REMARK  0 active torsions:
REMARK  status: ('A' for Active; 'I' for Inactive)
ROOT
ATOM      1  C4' PXY d   1       2.916  -2.640   2.084  0.00  0.00     0.077 C 
ATOM      2  C1' PXY d   1       5.576  -5.965   5.993  0.00  0.00     0.077 C 
ATOM      3  C1  PXY d   1       4.877  -5.084   4.977  0.00  0.00    -0.082 A 
ATOM      4  C2  PXY d   1       4.269  -5.637   3.940  0.00  0.00     0.003 A 
ATOM      5  C3  PXY d   1       3.659  -4.853   2.995  0.00  0.00     0.003 A 
ATOM      6  C4  PXY d   1       3.626  -3.492   3.140  0.00  0.00    -0.082 A 
ATOM      7  C5  PXY d   1       4.235  -2.921   4.201  0.00  0.00     0.003 A 
ATOM      8  C6  PXY d   1       4.884  -3.732   5.128  0.00  0.00     0.003 A 
ENDROOT
TORSDOF 0
ENDMDL
