MODEL 1
REMARK minimizedAffinity 3.64624596
REMARK minimizedRMSD -1
REMARK  0 active torsions:
REMARK  status: ('A' for Active; 'I' for Inactive)
ROOT
ATOM      1  C4' PXY d   1      -5.942   1.754  -4.866  0.00  0.00     0.077 C 
ATOM      2  C1' PXY d   1      -1.606  -2.062  -5.087  0.00  0.00     0.077 C 
ATOM      3  C1  PXY d   1      -2.750  -1.070  -5.022  0.00  0.00    -0.082 A 
ATOM      4  C2  PXY d   1      -2.845  -0.120  -5.938  0.00  0.00     0.003 A 
ATOM      5  C3  PXY d   1      -3.855   0.805  -5.876  0.00  0.00     0.003 A 
ATOM      6  C4  PXY d   1      -4.809   0.725  -4.897  0.00  0.00    -0.082 A 
ATOM      7  C5  PXY d   1      -4.725  -0.247  -3.965  0.00  0.00     0.003 A 
ATOM      8  C6  PXY d   1      -3.669  -1.152  -4.022  0.00  0.00     0.003 A 
ENDROOT
TORSDOF 0
ENDMDL
