MODEL 1
REMARK minimizedAffinity 3.98439097
REMARK minimizedRMSD -1
REMARK  0 active torsions:
REMARK  status: ('A' for Active; 'I' for Inactive)
ROOT
ATOM      1  C4' PXY d   1      -4.874  -2.530  -2.294  0.00  0.00     0.077 C 
ATOM      2  C1' PXY d   1      -3.897   1.798  -5.999  0.00  0.00     0.077 C 
ATOM      3  C1  PXY d   1      -4.142   0.658  -5.031  0.00  0.00    -0.082 A 
ATOM      4  C2  PXY d   1      -5.378   0.373  -4.655  0.00  0.00     0.003 A 
ATOM      5  C3  PXY d   1      -5.615  -0.635  -3.756  0.00  0.00     0.003 A 
ATOM      6  C4  PXY d   1      -4.581  -1.393  -3.277  0.00  0.00    -0.082 A 
ATOM      7  C5  PXY d   1      -3.318  -1.116  -3.664  0.00  0.00     0.003 A 
ATOM      8  C6  PXY d   1      -3.094  -0.062  -4.546  0.00  0.00     0.003 A 
ENDROOT
TORSDOF 0
ENDMDL
