MODEL 1
REMARK minimizedAffinity -1.70791519
REMARK minimizedRMSD -1
REMARK  0 active torsions:
REMARK  status: ('A' for Active; 'I' for Inactive)
ROOT
ATOM      1  C4' PXY d   1       5.505   5.999   3.196  0.00  0.00     0.077 C 
ATOM      2  C1' PXY d   1       0.358   5.933   5.828  0.00  0.00     0.077 C 
ATOM      3  C1  PXY d   1       1.703   5.945   5.127  0.00  0.00    -0.082 A 
ATOM      4  C2  PXY d   1       2.814   5.924   5.844  0.00  0.00     0.003 A 
ATOM      5  C3  PXY d   1       4.038   5.967   5.227  0.00  0.00     0.003 A 
ATOM      6  C4  PXY d   1       4.126   5.978   3.861  0.00  0.00    -0.082 A 
ATOM      7  C5  PXY d   1       2.996   5.990   3.122  0.00  0.00     0.003 A 
ATOM      8  C6  PXY d   1       1.763   5.987   3.768  0.00  0.00     0.003 A 
ENDROOT
TORSDOF 0
ENDMDL
