MODEL 1
REMARK minimizedAffinity 3.42486382
REMARK minimizedRMSD -1
REMARK  2 active torsions:
REMARK  status: ('A' for Active; 'I' for Inactive)
REMARK    1  A    between atoms: C2'_3  and  C1'_4 
REMARK    2  A    between atoms: C1'_4  and  C1_5 
ROOT
ATOM      1  C1  I4B d   1       0.256  -1.727  -1.876  0.00  0.00    -0.075 A 
ATOM      2  C2  I4B d   1      -0.195  -2.249  -3.063  0.00  0.00     0.003 A 
ATOM      3  C3  I4B d   1       0.727  -2.698  -4.040  0.00  0.00     0.002 A 
ATOM      4  C4  I4B d   1       2.080  -2.561  -3.811  0.00  0.00    -0.004 A 
ATOM      5  C5  I4B d   1       2.536  -2.052  -2.598  0.00  0.00     0.002 A 
ATOM      6  C6  I4B d   1       1.618  -1.644  -1.619  0.00  0.00     0.003 A 
ENDROOT
BRANCH   1   7
ATOM      7  C1' I4B d   1      -0.744  -1.232  -0.880  0.00  0.00     0.060 C 
BRANCH   7   8
ATOM      8  C2' I4B d   1      -1.613  -2.404  -0.469  0.00  0.00    -0.013 C 
ATOM      9  C4' I4B d   1      -1.567  -2.620   1.020  0.00  0.00     0.013 C 
ATOM     10  C3' I4B d   1      -3.012  -2.128  -0.934  0.00  0.00     0.013 C 
ENDBRANCH   7   8
ENDBRANCH   1   7
TORSDOF 2
ENDMDL
