MODEL 1
REMARK minimizedAffinity 9.74618053
REMARK minimizedRMSD -1
REMARK  2 active torsions:
REMARK  status: ('A' for Active; 'I' for Inactive)
REMARK    1  A    between atoms: C2'_3  and  C1'_4 
REMARK    2  A    between atoms: C1'_4  and  C1_5 
ROOT
ATOM      1  C1  I4B d   1      -2.884  -3.848  -4.122  0.00  0.00    -0.075 A 
ATOM      2  C2  I4B d   1      -4.184  -4.145  -3.801  0.00  0.00     0.003 A 
ATOM      3  C3  I4B d   1      -4.832  -5.252  -4.401  0.00  0.00     0.002 A 
ATOM      4  C4  I4B d   1      -4.163  -5.999  -5.349  0.00  0.00    -0.004 A 
ATOM      5  C5  I4B d   1      -2.837  -5.709  -5.658  0.00  0.00     0.002 A 
ATOM      6  C6  I4B d   1      -2.188  -4.635  -5.031  0.00  0.00     0.003 A 
ENDROOT
BRANCH   1   7
ATOM      7  C1' I4B d   1      -2.241  -2.652  -3.494  0.00  0.00     0.060 C 
BRANCH   7   8
ATOM      8  C2' I4B d   1      -0.740  -2.799  -3.638  0.00  0.00    -0.013 C 
ATOM      9  C4' I4B d   1      -0.188  -1.813  -4.633  0.00  0.00     0.013 C 
ATOM     10  C3' I4B d   1      -0.124  -2.605  -2.284  0.00  0.00     0.013 C 
ENDBRANCH   7   8
ENDBRANCH   1   7
TORSDOF 2
ENDMDL
