MODEL 1
REMARK minimizedAffinity 1.05498111
REMARK minimizedRMSD -1
REMARK  2 active torsions:
REMARK  status: ('A' for Active; 'I' for Inactive)
REMARK    1  A    between atoms: C2'_3  and  C1'_4 
REMARK    2  A    between atoms: C1'_4  and  C1_5 
ROOT
ATOM      1  C1  I4B d   1       5.324   5.315  -3.501  0.00  0.00    -0.075 A 
ATOM      2  C2  I4B d   1       4.023   5.726  -3.659  0.00  0.00     0.003 A 
ATOM      3  C3  I4B d   1       3.364   5.545  -4.899  0.00  0.00     0.002 A 
ATOM      4  C4  I4B d   1       4.054   4.998  -5.962  0.00  0.00    -0.004 A 
ATOM      5  C5  I4B d   1       5.365   4.561  -5.793  0.00  0.00     0.002 A 
ATOM      6  C6  I4B d   1       6.000   4.709  -4.552  0.00  0.00     0.003 A 
ENDROOT
BRANCH   1   7
ATOM      7  C1' I4B d   1       6.000   5.551  -2.188  0.00  0.00     0.060 C 
BRANCH   7   8
ATOM      8  C2' I4B d   1       6.000   4.245  -1.421  0.00  0.00    -0.013 C 
ATOM      9  C4' I4B d   1       4.830   4.167  -0.476  0.00  0.00     0.013 C 
ATOM     10  C3' I4B d   1       5.967   3.124  -2.416  0.00  0.00     0.013 C 
ENDBRANCH   7   8
ENDBRANCH   1   7
TORSDOF 2
ENDMDL
