MODEL 1
REMARK minimizedAffinity 7.39297152
REMARK minimizedRMSD -1
REMARK  2 active torsions:
REMARK  status: ('A' for Active; 'I' for Inactive)
REMARK    1  A    between atoms: C2'_3  and  C1'_4 
REMARK    2  A    between atoms: C1'_4  and  C1_5 
ROOT
ATOM      1  C1  I4B d   1       0.762  -1.956  -2.850  0.00  0.00    -0.075 A 
ATOM      2  C2  I4B d   1       0.945  -2.109  -1.499  0.00  0.00     0.003 A 
ATOM      3  C3  I4B d   1      -0.172  -2.156  -0.629  0.00  0.00     0.002 A 
ATOM      4  C4  I4B d   1      -1.442  -1.996  -1.145  0.00  0.00    -0.004 A 
ATOM      5  C5  I4B d   1      -1.626  -1.864  -2.518  0.00  0.00     0.002 A 
ATOM      6  C6  I4B d   1      -0.518  -1.856  -3.378  0.00  0.00     0.003 A 
ENDROOT
BRANCH   1   7
ATOM      7  C1' I4B d   1       1.965  -1.877  -3.736  0.00  0.00     0.060 C 
BRANCH   7   8
ATOM      8  C2' I4B d   1       3.159  -2.374  -2.946  0.00  0.00    -0.013 C 
ATOM      9  C4' I4B d   1       3.642  -3.702  -3.465  0.00  0.00     0.013 C 
ATOM     10  C3' I4B d   1       4.237  -1.334  -3.034  0.00  0.00     0.013 C 
ENDBRANCH   7   8
ENDBRANCH   1   7
TORSDOF 2
ENDMDL
