MODEL 1
REMARK minimizedAffinity -2.36389232
REMARK minimizedRMSD -1
REMARK  2 active torsions:
REMARK  status: ('A' for Active; 'I' for Inactive)
REMARK    1  A    between atoms: C2'_3  and  C1'_4 
REMARK    2  A    between atoms: C1'_4  and  C1_5 
ROOT
ATOM      1  C1  I4B d   1      -0.816  -2.272  -1.375  0.00  0.00    -0.075 A 
ATOM      2  C2  I4B d   1      -1.405  -3.242  -2.147  0.00  0.00     0.003 A 
ATOM      3  C3  I4B d   1      -0.856  -3.581  -3.407  0.00  0.00     0.002 A 
ATOM      4  C4  I4B d   1       0.246  -2.894  -3.876  0.00  0.00    -0.004 A 
ATOM      5  C5  I4B d   1       0.855  -1.927  -3.082  0.00  0.00     0.002 A 
ATOM      6  C6  I4B d   1       0.329  -1.622  -1.818  0.00  0.00     0.003 A 
ENDROOT
BRANCH   1   7
ATOM      7  C1' I4B d   1      -1.441  -1.917  -0.063  0.00  0.00     0.060 C 
BRANCH   7   8
ATOM      8  C2' I4B d   1      -1.618  -3.194   0.732  0.00  0.00    -0.013 C 
ATOM      9  C4' I4B d   1      -1.019  -3.068   2.108  0.00  0.00     0.013 C 
ATOM     10  C3' I4B d   1      -3.085  -3.494   0.805  0.00  0.00     0.013 C 
ENDBRANCH   7   8
ENDBRANCH   1   7
TORSDOF 2
ENDMDL
