MODEL 1
REMARK minimizedAffinity 5.38158226
REMARK minimizedRMSD -1
REMARK  2 active torsions:
REMARK  status: ('A' for Active; 'I' for Inactive)
REMARK    1  A    between atoms: C2'_3  and  C1'_4 
REMARK    2  A    between atoms: C1'_4  and  C1_5 
ROOT
ATOM      1  C1  I4B d   1       5.913   4.838  -3.254  0.00  0.00    -0.075 A 
ATOM      2  C2  I4B d   1       5.973   3.611  -2.641  0.00  0.00     0.003 A 
ATOM      3  C3  I4B d   1       5.987   3.521  -1.228  0.00  0.00     0.002 A 
ATOM      4  C4  I4B d   1       5.992   4.676  -0.473  0.00  0.00    -0.004 A 
ATOM      5  C5  I4B d   1       5.909   5.918  -1.096  0.00  0.00     0.002 A 
ATOM      6  C6  I4B d   1       5.856   5.999  -2.495  0.00  0.00     0.003 A 
ENDROOT
BRANCH   1   7
ATOM      7  C1' I4B d   1       5.933   4.898  -4.749  0.00  0.00     0.060 C 
BRANCH   7   8
ATOM      8  C2' I4B d   1       4.498   4.950  -5.233  0.00  0.00    -0.013 C 
ATOM      9  C4' I4B d   1       4.133   3.702  -5.992  0.00  0.00     0.013 C 
ATOM     10  C3' I4B d   1       3.613   5.135  -4.037  0.00  0.00     0.013 C 
ENDBRANCH   7   8
ENDBRANCH   1   7
TORSDOF 2
ENDMDL
