MODEL 1
REMARK minimizedAffinity 5.60681438
REMARK minimizedRMSD -1
REMARK  2 active torsions:
REMARK  status: ('A' for Active; 'I' for Inactive)
REMARK    1  A    between atoms: C2'_3  and  C1'_4 
REMARK    2  A    between atoms: C1'_4  and  C1_5 
ROOT
ATOM      1  C1  I4B d   1      -1.848  -3.053  -0.660  0.00  0.00    -0.075 A 
ATOM      2  C2  I4B d   1      -0.573  -3.297  -0.217  0.00  0.00     0.003 A 
ATOM      3  C3  I4B d   1      -0.262  -3.182   1.160  0.00  0.00     0.002 A 
ATOM      4  C4  I4B d   1      -1.239  -2.774   2.045  0.00  0.00    -0.004 A 
ATOM      5  C5  I4B d   1      -2.537  -2.549   1.598  0.00  0.00     0.002 A 
ATOM      6  C6  I4B d   1      -2.848  -2.701   0.238  0.00  0.00     0.003 A 
ENDROOT
BRANCH   1   7
ATOM      7  C1' I4B d   1      -2.134  -3.151  -2.125  0.00  0.00     0.060 C 
BRANCH   7   8
ATOM      8  C2' I4B d   1      -0.910  -3.735  -2.801  0.00  0.00    -0.013 C 
ATOM      9  C4' I4B d   1      -1.255  -4.982  -3.572  0.00  0.00     0.013 C 
ATOM     10  C3' I4B d   1      -0.332  -2.685  -3.701  0.00  0.00     0.013 C 
ENDBRANCH   7   8
ENDBRANCH   1   7
TORSDOF 2
ENDMDL
