MODEL 1
REMARK minimizedAffinity -0.904708147
REMARK minimizedRMSD -1
REMARK  2 active torsions:
REMARK  status: ('A' for Active; 'I' for Inactive)
REMARK    1  A    between atoms: C2'_3  and  C1'_4 
REMARK    2  A    between atoms: C1'_4  and  C1_5 
ROOT
ATOM      1  C1  I4B d   1      -1.135  -2.970  -1.301  0.00  0.00    -0.075 A 
ATOM      2  C2  I4B d   1      -1.224  -4.105  -2.067  0.00  0.00     0.003 A 
ATOM      3  C3  I4B d   1      -0.605  -4.158  -3.339  0.00  0.00     0.002 A 
ATOM      4  C4  I4B d   1       0.045  -3.042  -3.825  0.00  0.00    -0.004 A 
ATOM      5  C5  I4B d   1       0.154  -1.899  -3.038  0.00  0.00     0.002 A 
ATOM      6  C6  I4B d   1      -0.429  -1.866  -1.763  0.00  0.00     0.003 A 
ENDROOT
BRANCH   1   7
ATOM      7  C1' I4B d   1      -1.828  -2.937   0.024  0.00  0.00     0.060 C 
BRANCH   7   8
ATOM      8  C2' I4B d   1      -0.855  -2.385   1.046  0.00  0.00    -0.013 C 
ATOM      9  C4' I4B d   1      -1.509  -2.234   2.395  0.00  0.00     0.013 C 
ATOM     10  C3' I4B d   1       0.321  -3.314   1.116  0.00  0.00     0.013 C 
ENDBRANCH   7   8
ENDBRANCH   1   7
TORSDOF 2
ENDMDL
