MODEL 1
REMARK minimizedAffinity 0.602479696
REMARK minimizedRMSD -1
REMARK  2 active torsions:
REMARK  status: ('A' for Active; 'I' for Inactive)
REMARK    1  A    between atoms: C2'_3  and  C1'_4 
REMARK    2  A    between atoms: C1'_4  and  C1_5 
ROOT
ATOM      1  C1  I4B d   1       4.128  -2.785   3.331  0.00  0.00    -0.075 A 
ATOM      2  C2  I4B d   1       3.416  -1.769   3.918  0.00  0.00     0.003 A 
ATOM      3  C3  I4B d   1       3.663  -1.413   5.266  0.00  0.00     0.002 A 
ATOM      4  C4  I4B d   1       4.587  -2.128   6.000  0.00  0.00    -0.004 A 
ATOM      5  C5  I4B d   1       5.323  -3.143   5.396  0.00  0.00     0.002 A 
ATOM      6  C6  I4B d   1       5.101  -3.466   4.050  0.00  0.00     0.003 A 
ENDROOT
BRANCH   1   7
ATOM      7  C1' I4B d   1       3.819  -3.157   1.915  0.00  0.00     0.060 C 
BRANCH   7   8
ATOM      8  C2' I4B d   1       4.821  -2.457   1.020  0.00  0.00    -0.013 C 
ATOM      9  C4' I4B d   1       5.736  -3.447   0.347  0.00  0.00     0.013 C 
ATOM     10  C3' I4B d   1       4.058  -1.653   0.010  0.00  0.00     0.013 C 
ENDBRANCH   7   8
ENDBRANCH   1   7
TORSDOF 2
ENDMDL
