MODEL 1
REMARK minimizedAffinity -5.78153467
REMARK minimizedRMSD -1
REMARK  1 active torsions:
REMARK  status: ('A' for Active; 'I' for Inactive)
REMARK    1  A    between atoms: C1_2  and  C2_3 
ROOT
ATOM      1  C2  UNL d   1      -0.665   0.663   1.165  0.00  0.00    -0.073 A 
ATOM      2  C3  UNL d   1      -1.658   1.262   1.949  0.00  0.00    -0.002 A 
ATOM      3  C4  UNL d   1      -2.149   2.526   1.619  0.00  0.00     0.004 A 
ATOM      4  C5  UNL d   1      -1.659   3.200   0.501  0.00  0.00    -0.004 A 
ATOM      5  C6  UNL d   1      -0.676   2.613  -0.302  0.00  0.00    -0.075 A 
ATOM      6  C7  UNL d   1      -0.137   3.325  -1.507  0.00  0.00     0.076 C 
ATOM      7  C8  UNL d   1      -0.185   1.345   0.038  0.00  0.00     0.001 A 
ENDROOT
BRANCH   1   8
ATOM      8  C1  UNL d   1      -0.136  -0.704   1.514  0.00  0.00     0.053 C 
ATOM      9  C   UNL d   1       0.816  -0.662   2.699  0.00  0.00     0.018 C 
ENDBRANCH   1   8
TORSDOF 1
ENDMDL
