MODEL 1
REMARK minimizedAffinity -4.11727476
REMARK minimizedRMSD -1
REMARK  1 active torsions:
REMARK  status: ('A' for Active; 'I' for Inactive)
REMARK    1  A    between atoms: C1_2  and  C2_3 
ROOT
ATOM      1  C2  UNL d   1      -0.003  -0.598  -0.265  0.00  0.00    -0.073 A 
ATOM      2  C3  UNL d   1       0.297  -1.378   0.857  0.00  0.00    -0.002 A 
ATOM      3  C4  UNL d   1      -0.188  -1.020   2.116  0.00  0.00     0.004 A 
ATOM      4  C5  UNL d   1      -0.982   0.118   2.264  0.00  0.00    -0.004 A 
ATOM      5  C6  UNL d   1      -1.302   0.904   1.153  0.00  0.00    -0.075 A 
ATOM      6  C7  UNL d   1      -2.154   2.131   1.296  0.00  0.00     0.076 C 
ATOM      7  C8  UNL d   1      -0.809   0.539  -0.107  0.00  0.00     0.001 A 
ENDROOT
BRANCH   1   8
ATOM      8  C1  UNL d   1       0.514  -0.984  -1.626  0.00  0.00     0.053 C 
ATOM      9  C   UNL d   1       0.812  -2.472  -1.721  0.00  0.00     0.018 C 
ENDBRANCH   1   8
TORSDOF 1
ENDMDL
