MODEL 1
REMARK minimizedAffinity -5.18189001
REMARK minimizedRMSD -1
REMARK  1 active torsions:
REMARK  status: ('A' for Active; 'I' for Inactive)
REMARK    1  A    between atoms: C1_2  and  C2_3 
ROOT
ATOM      1  C2  UNL d   1      -0.846   1.360   0.973  0.00  0.00    -0.073 A 
ATOM      2  C3  UNL d   1      -1.051   0.637   2.153  0.00  0.00    -0.002 A 
ATOM      3  C4  UNL d   1      -0.695  -0.710   2.226  0.00  0.00     0.004 A 
ATOM      4  C5  UNL d   1      -0.123  -1.346   1.124  0.00  0.00    -0.004 A 
ATOM      5  C6  UNL d   1       0.101  -0.637  -0.061  0.00  0.00    -0.075 A 
ATOM      6  C7  UNL d   1       0.712  -1.307  -1.257  0.00  0.00     0.076 C 
ATOM      7  C8  UNL d   1      -0.262   0.715  -0.127  0.00  0.00     0.001 A 
ENDROOT
BRANCH   1   8
ATOM      8  C1  UNL d   1      -1.223   2.817   0.891  0.00  0.00     0.053 C 
ATOM      9  C   UNL d   1      -0.356   3.576  -0.101  0.00  0.00     0.018 C 
ENDBRANCH   1   8
TORSDOF 1
ENDMDL
