MODEL 1
REMARK minimizedAffinity -3.23202109
REMARK minimizedRMSD -1
REMARK  1 active torsions:
REMARK  status: ('A' for Active; 'I' for Inactive)
REMARK    1  A    between atoms: C1_2  and  C2_3 
ROOT
ATOM      1  C2  UNL d   1      -0.815  -0.155   0.179  0.00  0.00    -0.073 A 
ATOM      2  C3  UNL d   1       0.549   0.107   0.354  0.00  0.00    -0.002 A 
ATOM      3  C4  UNL d   1       1.505  -0.661  -0.311  0.00  0.00     0.004 A 
ATOM      4  C5  UNL d   1       1.110  -1.694  -1.161  0.00  0.00    -0.004 A 
ATOM      5  C6  UNL d   1      -0.248  -1.964  -1.358  0.00  0.00    -0.075 A 
ATOM      6  C7  UNL d   1      -0.691  -3.072  -2.267  0.00  0.00     0.076 C 
ATOM      7  C8  UNL d   1      -1.203  -1.189  -0.685  0.00  0.00     0.001 A 
ENDROOT
BRANCH   1   8
ATOM      8  C1  UNL d   1      -1.851   0.676   0.889  0.00  0.00     0.053 C 
ATOM      9  C   UNL d   1      -1.249   1.493   2.022  0.00  0.00     0.018 C 
ENDBRANCH   1   8
TORSDOF 1
ENDMDL
