MODEL 1
REMARK minimizedAffinity -4.75136185
REMARK minimizedRMSD -1
REMARK  1 active torsions:
REMARK  status: ('A' for Active; 'I' for Inactive)
REMARK    1  A    between atoms: C1_2  and  C2_3 
ROOT
ATOM      1  C2  UNL d   1       0.209  -0.923  -0.325  0.00  0.00    -0.073 A 
ATOM      2  C3  UNL d   1       0.280  -1.671   0.856  0.00  0.00    -0.002 A 
ATOM      3  C4  UNL d   1      -0.197  -1.141   2.055  0.00  0.00     0.004 A 
ATOM      4  C5  UNL d   1      -0.756   0.136   2.085  0.00  0.00    -0.004 A 
ATOM      5  C6  UNL d   1      -0.847   0.894   0.913  0.00  0.00    -0.075 A 
ATOM      6  C7  UNL d   1      -1.443   2.271   0.929  0.00  0.00     0.076 C 
ATOM      7  C8  UNL d   1      -0.363   0.357  -0.287  0.00  0.00     0.001 A 
ENDROOT
BRANCH   1   8
ATOM      8  C1  UNL d   1       0.717  -1.494  -1.624  0.00  0.00     0.053 C 
ATOM      9  C   UNL d   1       1.054  -2.972  -1.504  0.00  0.00     0.018 C 
ENDBRANCH   1   8
TORSDOF 1
ENDMDL
