MODEL 1
REMARK minimizedAffinity -3.50276756
REMARK minimizedRMSD -1
REMARK  1 active torsions:
REMARK  status: ('A' for Active; 'I' for Inactive)
REMARK    1  A    between atoms: C1_2  and  C2_3 
ROOT
ATOM      1  C2  UNL d   1      -0.449   0.186  -0.055  0.00  0.00    -0.073 A 
ATOM      2  C3  UNL d   1      -1.400  -0.793   0.252  0.00  0.00    -0.002 A 
ATOM      3  C4  UNL d   1      -2.567  -0.452   0.936  0.00  0.00     0.004 A 
ATOM      4  C5  UNL d   1      -2.798   0.871   1.314  0.00  0.00    -0.004 A 
ATOM      5  C6  UNL d   1      -1.865   1.866   1.006  0.00  0.00    -0.075 A 
ATOM      6  C7  UNL d   1      -2.097   3.293   1.408  0.00  0.00     0.076 C 
ATOM      7  C8  UNL d   1      -0.694   1.515   0.321  0.00  0.00     0.001 A 
ENDROOT
BRANCH   1   8
ATOM      8  C1  UNL d   1       0.810  -0.177  -0.799  0.00  0.00     0.053 C 
ATOM      9  C   UNL d   1       0.735  -1.571  -1.400  0.00  0.00     0.018 C 
ENDBRANCH   1   8
TORSDOF 1
ENDMDL
