MODEL 1
REMARK minimizedAffinity -4.39000559
REMARK minimizedRMSD -1
REMARK  1 active torsions:
REMARK  status: ('A' for Active; 'I' for Inactive)
REMARK    1  A    between atoms: C1_2  and  C2_3 
ROOT
ATOM      1  C2  UNL d   1      -0.402  -0.799  -0.995  0.00  0.00    -0.073 A 
ATOM      2  C3  UNL d   1       0.505  -1.232  -0.021  0.00  0.00    -0.002 A 
ATOM      3  C4  UNL d   1       0.528  -0.629   1.238  0.00  0.00     0.004 A 
ATOM      4  C5  UNL d   1      -0.358   0.405   1.537  0.00  0.00    -0.004 A 
ATOM      5  C6  UNL d   1      -1.279   0.844   0.581  0.00  0.00    -0.075 A 
ATOM      6  C7  UNL d   1      -2.238   1.957   0.887  0.00  0.00     0.076 C 
ATOM      7  C8  UNL d   1      -1.295   0.236  -0.681  0.00  0.00     0.001 A 
ENDROOT
BRANCH   1   8
ATOM      8  C1  UNL d   1      -0.436  -1.451  -2.353  0.00  0.00     0.053 C 
ATOM      9  C   UNL d   1      -0.465  -2.968  -2.257  0.00  0.00     0.018 C 
ENDBRANCH   1   8
TORSDOF 1
ENDMDL
