MODEL 1
REMARK minimizedAffinity -4.23659563
REMARK minimizedRMSD -1
REMARK  1 active torsions:
REMARK  status: ('A' for Active; 'I' for Inactive)
REMARK    1  A    between atoms: C1_2  and  C2_3 
ROOT
ATOM      1  C2  UNL d   1       0.646   0.510  -0.260  0.00  0.00    -0.073 A 
ATOM      2  C3  UNL d   1       1.037   1.566  -1.091  0.00  0.00    -0.002 A 
ATOM      3  C4  UNL d   1       0.535   2.851  -0.881  0.00  0.00     0.004 A 
ATOM      4  C5  UNL d   1      -0.356   3.095   0.163  0.00  0.00    -0.004 A 
ATOM      5  C6  UNL d   1      -0.750   2.055   1.012  0.00  0.00    -0.075 A 
ATOM      6  C7  UNL d   1      -1.710   2.300   2.138  0.00  0.00     0.076 C 
ATOM      7  C8  UNL d   1      -0.244   0.767   0.793  0.00  0.00     0.001 A 
ENDROOT
BRANCH   1   8
ATOM      8  C1  UNL d   1       1.190  -0.878  -0.478  0.00  0.00     0.053 C 
ATOM      9  C   UNL d   1       0.345  -1.674  -1.460  0.00  0.00     0.018 C 
ENDBRANCH   1   8
TORSDOF 1
ENDMDL
