MODEL 1
REMARK minimizedAffinity -2.89057708
REMARK minimizedRMSD -1
REMARK  0 active torsions:
REMARK  status: ('A' for Active; 'I' for Inactive)
ROOT
ATOM      1  C   UNL d   1      -0.799   1.172   2.946  0.00  0.00     0.077 C 
ATOM      2  C1  UNL d   1       0.102   0.576   1.905  0.00  0.00    -0.074 A 
ATOM      3  C2  UNL d   1       1.466   0.396   2.153  0.00  0.00    -0.005 A 
ATOM      4  C3  UNL d   1       2.289  -0.169   1.179  0.00  0.00     0.006 A 
ATOM      5  C4  UNL d   1       1.757  -0.559  -0.051  0.00  0.00    -0.005 A 
ATOM      6  C5  UNL d   1       0.395  -0.388  -0.316  0.00  0.00    -0.074 A 
ATOM      7  C6  UNL d   1      -0.195  -0.811  -1.628  0.00  0.00     0.077 C 
ATOM      8  C7  UNL d   1      -0.427   0.174   0.671  0.00  0.00    -0.001 A 
ENDROOT
TORSDOF 0
ENDMDL
