MODEL 1
REMARK minimizedAffinity 2.49082971
REMARK minimizedRMSD -1
REMARK  0 active torsions:
REMARK  status: ('A' for Active; 'I' for Inactive)
ROOT
ATOM      1  C   UNL d   1      -0.402  -0.890   4.154  0.00  0.00     0.077 C 
ATOM      2  C1  UNL d   1      -0.591  -0.545   2.707  0.00  0.00    -0.074 A 
ATOM      3  C2  UNL d   1      -1.857  -0.229   2.203  0.00  0.00    -0.005 A 
ATOM      4  C3  UNL d   1      -2.016   0.099   0.857  0.00  0.00     0.006 A 
ATOM      5  C4  UNL d   1      -0.913   0.113   0.002  0.00  0.00    -0.005 A 
ATOM      6  C5  UNL d   1       0.360  -0.200   0.488  0.00  0.00    -0.074 A 
ATOM      7  C6  UNL d   1       1.557  -0.180  -0.415  0.00  0.00     0.077 C 
ATOM      8  C7  UNL d   1       0.513  -0.521   1.844  0.00  0.00    -0.001 A 
ENDROOT
TORSDOF 0
ENDMDL
