MODEL 1
REMARK minimizedAffinity -2.14299679
REMARK minimizedRMSD -1
REMARK  0 active torsions:
REMARK  status: ('A' for Active; 'I' for Inactive)
ROOT
ATOM      1  C   UNL d   1      -1.612   0.362   1.925  0.00  0.00     0.077 C 
ATOM      2  C1  UNL d   1      -0.596   0.352   0.822  0.00  0.00    -0.074 A 
ATOM      3  C2  UNL d   1      -0.922  -0.126  -0.451  0.00  0.00    -0.005 A 
ATOM      4  C3  UNL d   1       0.031  -0.120  -1.470  0.00  0.00     0.006 A 
ATOM      5  C4  UNL d   1       1.317   0.362  -1.226  0.00  0.00    -0.005 A 
ATOM      6  C5  UNL d   1       1.662   0.844   0.040  0.00  0.00    -0.074 A 
ATOM      7  C6  UNL d   1       3.037   1.375   0.316  0.00  0.00     0.077 C 
ATOM      8  C7  UNL d   1       0.697   0.842   1.057  0.00  0.00    -0.001 A 
ENDROOT
TORSDOF 0
ENDMDL
