MODEL 1
REMARK minimizedAffinity 0.0141377039
REMARK minimizedRMSD -1
REMARK  0 active torsions:
REMARK  status: ('A' for Active; 'I' for Inactive)
ROOT
ATOM      1  C   UNL d   1      -2.938   0.338   1.844  0.00  0.00     0.077 C 
ATOM      2  C1  UNL d   1      -1.534  -0.069   2.179  0.00  0.00    -0.074 A 
ATOM      3  C2  UNL d   1      -1.237  -0.695   3.394  0.00  0.00    -0.005 A 
ATOM      4  C3  UNL d   1       0.072  -1.077   3.688  0.00  0.00     0.006 A 
ATOM      5  C4  UNL d   1       1.096  -0.837   2.771  0.00  0.00    -0.005 A 
ATOM      6  C5  UNL d   1       0.819  -0.213   1.551  0.00  0.00    -0.074 A 
ATOM      7  C6  UNL d   1       1.906   0.044   0.550  0.00  0.00     0.077 C 
ATOM      8  C7  UNL d   1      -0.500   0.161   1.260  0.00  0.00    -0.001 A 
ENDROOT
TORSDOF 0
ENDMDL
