MODEL 1
REMARK minimizedAffinity -1.13718414
REMARK minimizedRMSD -1
REMARK  0 active torsions:
REMARK  status: ('A' for Active; 'I' for Inactive)
ROOT
ATOM      1  C   UNL d   1      -0.345  -1.372   4.719  0.00  0.00     0.077 C 
ATOM      2  C1  UNL d   1      -0.769  -0.810   3.395  0.00  0.00    -0.074 A 
ATOM      3  C2  UNL d   1      -2.033  -0.234   3.229  0.00  0.00    -0.005 A 
ATOM      4  C3  UNL d   1      -2.409   0.294   1.994  0.00  0.00     0.006 A 
ATOM      5  C4  UNL d   1      -1.527   0.251   0.914  0.00  0.00    -0.005 A 
ATOM      6  C5  UNL d   1      -0.259  -0.320   1.061  0.00  0.00    -0.074 A 
ATOM      7  C6  UNL d   1       0.705  -0.365  -0.088  0.00  0.00     0.077 C 
ATOM      8  C7  UNL d   1       0.115  -0.841   2.307  0.00  0.00    -0.001 A 
ENDROOT
TORSDOF 0
ENDMDL
