MODEL 1
REMARK minimizedAffinity -2.67968488
REMARK minimizedRMSD -1
REMARK  0 active torsions:
REMARK  status: ('A' for Active; 'I' for Inactive)
ROOT
ATOM      1  C   UNL d   1       1.070  -1.135   0.287  0.00  0.00     0.077 C 
ATOM      2  C1  UNL d   1       0.218  -0.802   1.475  0.00  0.00    -0.074 A 
ATOM      3  C2  UNL d   1      -1.051  -0.237   1.314  0.00  0.00    -0.005 A 
ATOM      4  C3  UNL d   1      -1.836   0.058   2.428  0.00  0.00     0.006 A 
ATOM      5  C4  UNL d   1      -1.362  -0.209   3.713  0.00  0.00    -0.005 A 
ATOM      6  C5  UNL d   1      -0.096  -0.775   3.894  0.00  0.00    -0.074 A 
ATOM      7  C6  UNL d   1       0.426  -1.078   5.267  0.00  0.00     0.077 C 
ATOM      8  C7  UNL d   1       0.685  -1.075   2.769  0.00  0.00    -0.001 A 
ENDROOT
TORSDOF 0
ENDMDL
