MODEL 1
REMARK minimizedAffinity -0.389493465
REMARK minimizedRMSD -1
REMARK  0 active torsions:
REMARK  status: ('A' for Active; 'I' for Inactive)
ROOT
ATOM      1  C   UNL d   1      -3.717  -0.853  -0.965  0.00  0.00     0.077 C 
ATOM      2  C1  UNL d   1      -2.583  -0.344  -0.124  0.00  0.00    -0.074 A 
ATOM      3  C2  UNL d   1      -2.772   0.712   0.773  0.00  0.00    -0.005 A 
ATOM      4  C3  UNL d   1      -1.711   1.169   1.555  0.00  0.00     0.006 A 
ATOM      5  C4  UNL d   1      -0.453   0.575   1.447  0.00  0.00    -0.005 A 
ATOM      6  C5  UNL d   1      -0.245  -0.482   0.556  0.00  0.00    -0.074 A 
ATOM      7  C6  UNL d   1       1.098  -1.138   0.436  0.00  0.00     0.077 C 
ATOM      8  C7  UNL d   1      -1.318  -0.940  -0.221  0.00  0.00    -0.001 A 
ENDROOT
TORSDOF 0
ENDMDL
