MODEL 1
REMARK minimizedAffinity -4.14255285
REMARK minimizedRMSD -1
REMARK  0 active torsions:
REMARK  status: ('A' for Active; 'I' for Inactive)
ROOT
ATOM      1  C   UNL d   1       0.479  -1.280   3.587  0.00  0.00     0.077 C 
ATOM      2  C1  UNL d   1      -0.429  -0.558   2.636  0.00  0.00    -0.074 A 
ATOM      3  C2  UNL d   1      -1.697  -0.128   3.039  0.00  0.00    -0.005 A 
ATOM      4  C3  UNL d   1      -2.526   0.551   2.146  0.00  0.00     0.006 A 
ATOM      5  C4  UNL d   1      -2.097   0.804   0.843  0.00  0.00    -0.005 A 
ATOM      6  C5  UNL d   1      -0.832   0.382   0.422  0.00  0.00    -0.074 A 
ATOM      7  C6  UNL d   1      -0.351   0.655  -0.973  0.00  0.00     0.077 C 
ATOM      8  C7  UNL d   1      -0.002  -0.293   1.327  0.00  0.00    -0.001 A 
ENDROOT
TORSDOF 0
ENDMDL
