MODEL 1
REMARK minimizedAffinity -1.33961213
REMARK minimizedRMSD -1
REMARK  0 active torsions:
REMARK  status: ('A' for Active; 'I' for Inactive)
ROOT
ATOM      1  C   UNL d   1      -2.572  -0.746  -0.969  0.00  0.00     0.077 C 
ATOM      2  C1  UNL d   1      -1.524  -0.603   0.094  0.00  0.00    -0.074 A 
ATOM      3  C2  UNL d   1      -1.879  -0.421   1.434  0.00  0.00    -0.005 A 
ATOM      4  C3  UNL d   1      -0.893  -0.299   2.413  0.00  0.00     0.006 A 
ATOM      5  C4  UNL d   1       0.456  -0.357   2.062  0.00  0.00    -0.005 A 
ATOM      6  C5  UNL d   1       0.831  -0.540   0.727  0.00  0.00    -0.074 A 
ATOM      7  C6  UNL d   1       2.276  -0.614   0.334  0.00  0.00     0.077 C 
ATOM      8  C7  UNL d   1      -0.166  -0.668  -0.250  0.00  0.00    -0.001 A 
ENDROOT
TORSDOF 0
ENDMDL
