MODEL 1
REMARK minimizedAffinity 6.29875469
REMARK minimizedRMSD -1
REMARK  0 active torsions:
REMARK  status: ('A' for Active; 'I' for Inactive)
ROOT
ATOM      1  C1  DEN d   1      -2.465  -2.089   0.965  0.00  0.00     0.130 A 
ATOM      2  C2  DEN d   1      -1.367  -1.127   0.922  0.00  0.00    -0.031 A 
ATOM      3  C3  DEN d   1      -0.149  -1.842   0.493  0.00  0.00     0.027 A 
ATOM      4  C4  DEN d   1       0.142  -4.333  -0.110  0.00  0.00     0.027 A 
ATOM      5  C5  DEN d   1      -0.502  -5.546  -0.212  0.00  0.00    -0.003 A 
ATOM      6  C6  DEN d   1      -1.827  -5.698   0.102  0.00  0.00     0.001 A 
ATOM      7  C7  DEN d   1      -2.562  -4.608   0.489  0.00  0.00     0.017 A 
ATOM      8  C8  DEN d   1      -1.917  -3.383   0.601  0.00  0.00    -0.094 A 
ATOM      9  C9  DEN d   1      -0.580  -3.248   0.268  0.00  0.00    -0.072 A 
ENDROOT
TORSDOF 0
ENDMDL
