MODEL 1
REMARK minimizedAffinity 10.4947815
REMARK minimizedRMSD -1
REMARK  0 active torsions:
REMARK  status: ('A' for Active; 'I' for Inactive)
ROOT
ATOM      1  C1  DEN d   1      -3.068   0.872  -3.006  0.00  0.00     0.130 A 
ATOM      2  C2  DEN d   1      -3.250   0.889  -1.558  0.00  0.00    -0.031 A 
ATOM      3  C3  DEN d   1      -3.794   2.209  -1.181  0.00  0.00     0.027 A 
ATOM      4  C4  DEN d   1      -4.375   4.216  -2.692  0.00  0.00     0.027 A 
ATOM      5  C5  DEN d   1      -4.382   4.680  -3.989  0.00  0.00    -0.003 A 
ATOM      6  C6  DEN d   1      -3.923   3.926  -5.037  0.00  0.00     0.001 A 
ATOM      7  C7  DEN d   1      -3.480   2.649  -4.811  0.00  0.00     0.017 A 
ATOM      8  C8  DEN d   1      -3.464   2.177  -3.505  0.00  0.00    -0.094 A 
ATOM      9  C9  DEN d   1      -3.943   2.951  -2.461  0.00  0.00    -0.072 A 
ENDROOT
TORSDOF 0
ENDMDL
