MODEL 1
REMARK minimizedAffinity 4.86008024
REMARK minimizedRMSD -1
REMARK  0 active torsions:
REMARK  status: ('A' for Active; 'I' for Inactive)
ROOT
ATOM      1  C1  DEN d   1       0.997  -1.015   2.597  0.00  0.00     0.130 A 
ATOM      2  C2  DEN d   1       1.664  -1.722   1.507  0.00  0.00    -0.031 A 
ATOM      3  C3  DEN d   1       2.120  -3.029   2.023  0.00  0.00     0.027 A 
ATOM      4  C4  DEN d   1       1.857  -4.022   4.388  0.00  0.00     0.027 A 
ATOM      5  C5  DEN d   1       1.371  -3.789   5.656  0.00  0.00    -0.003 A 
ATOM      6  C6  DEN d   1       0.761  -2.611   5.999  0.00  0.00     0.001 A 
ATOM      7  C7  DEN d   1       0.581  -1.639   5.051  0.00  0.00     0.017 A 
ATOM      8  C8  DEN d   1       1.075  -1.864   3.773  0.00  0.00    -0.094 A 
ATOM      9  C9  DEN d   1       1.678  -3.066   3.442  0.00  0.00    -0.072 A 
ENDROOT
TORSDOF 0
ENDMDL
