MODEL 1
REMARK minimizedAffinity 8.98750973
REMARK minimizedRMSD -1
REMARK  0 active torsions:
REMARK  status: ('A' for Active; 'I' for Inactive)
ROOT
ATOM      1  C1  DEN d   1       2.512  -3.114   2.094  0.00  0.00     0.130 A 
ATOM      2  C2  DEN d   1       1.921  -1.962   1.420  0.00  0.00    -0.031 A 
ATOM      3  C3  DEN d   1       1.212  -1.154   2.432  0.00  0.00     0.027 A 
ATOM      4  C4  DEN d   1       0.976  -1.573   4.967  0.00  0.00     0.027 A 
ATOM      5  C5  DEN d   1       1.296  -2.428   5.998  0.00  0.00    -0.003 A 
ATOM      6  C6  DEN d   1       2.009  -3.581   5.796  0.00  0.00     0.001 A 
ATOM      7  C7  DEN d   1       2.464  -3.886   4.540  0.00  0.00     0.017 A 
ATOM      8  C8  DEN d   1       2.139  -3.032   3.495  0.00  0.00    -0.094 A 
ATOM      9  C9  DEN d   1       1.428  -1.866   3.721  0.00  0.00    -0.072 A 
ENDROOT
TORSDOF 0
ENDMDL
