MODEL 1
REMARK minimizedAffinity 11.9144325
REMARK minimizedRMSD -1
REMARK  0 active torsions:
REMARK  status: ('A' for Active; 'I' for Inactive)
ROOT
ATOM      1  C1  DEN d   1       1.184  -1.313   1.913  0.00  0.00     0.130 A 
ATOM      2  C2  DEN d   1       1.531  -2.672   1.507  0.00  0.00    -0.031 A 
ATOM      3  C3  DEN d   1       1.524  -3.524   2.714  0.00  0.00     0.027 A 
ATOM      4  C4  DEN d   1       1.007  -2.875   5.156  0.00  0.00     0.027 A 
ATOM      5  C5  DEN d   1       0.670  -1.834   5.993  0.00  0.00    -0.003 A 
ATOM      6  C6  DEN d   1       0.516  -0.551   5.539  0.00  0.00     0.001 A 
ATOM      7  C7  DEN d   1       0.654  -0.284   4.202  0.00  0.00     0.017 A 
ATOM      8  C8  DEN d   1       1.001  -1.326   3.353  0.00  0.00    -0.094 A 
ATOM      9  C9  DEN d   1       1.140  -2.618   3.830  0.00  0.00    -0.072 A 
ENDROOT
TORSDOF 0
ENDMDL
