MODEL 1
REMARK minimizedAffinity 11.1897907
REMARK minimizedRMSD -1
REMARK  0 active torsions:
REMARK  status: ('A' for Active; 'I' for Inactive)
ROOT
ATOM      1  C1  DEN d   1      -1.967  -2.898   1.038  0.00  0.00     0.130 A 
ATOM      2  C2  DEN d   1      -2.322  -4.112   0.308  0.00  0.00    -0.031 A 
ATOM      3  C3  DEN d   1      -1.149  -5.010   0.318  0.00  0.00     0.027 A 
ATOM      4  C4  DEN d   1       1.167  -4.642   1.391  0.00  0.00     0.027 A 
ATOM      5  C5  DEN d   1       1.945  -3.760   2.108  0.00  0.00    -0.003 A 
ATOM      6  C6  DEN d   1       1.488  -2.525   2.486  0.00  0.00     0.001 A 
ATOM      7  C7  DEN d   1       0.203  -2.156   2.188  0.00  0.00     0.017 A 
ATOM      8  C8  DEN d   1      -0.584  -3.037   1.459  0.00  0.00    -0.094 A 
ATOM      9  C9  DEN d   1      -0.109  -4.286   1.096  0.00  0.00    -0.072 A 
ENDROOT
TORSDOF 0
ENDMDL
