MODEL 1
REMARK minimizedAffinity 13.6840305
REMARK minimizedRMSD -1
REMARK  0 active torsions:
REMARK  status: ('A' for Active; 'I' for Inactive)
ROOT
ATOM      1  C1  DEN d   1       0.938  -4.757  -2.981  0.00  0.00     0.130 A 
ATOM      2  C2  DEN d   1       2.382  -4.811  -2.777  0.00  0.00    -0.031 A 
ATOM      3  C3  DEN d   1       2.632  -5.028  -1.337  0.00  0.00     0.027 A 
ATOM      4  C4  DEN d   1       0.930  -5.289   0.583  0.00  0.00     0.027 A 
ATOM      5  C5  DEN d   1      -0.411  -5.303   0.901  0.00  0.00    -0.003 A 
ATOM      6  C6  DEN d   1      -1.386  -5.104  -0.040  0.00  0.00     0.001 A 
ATOM      7  C7  DEN d   1      -1.038  -4.927  -1.353  0.00  0.00     0.017 A 
ATOM      8  C8  DEN d   1       0.312  -4.904  -1.680  0.00  0.00    -0.094 A 
ATOM      9  C9  DEN d   1       1.283  -5.120  -0.716  0.00  0.00    -0.072 A 
ENDROOT
TORSDOF 0
ENDMDL
