MODEL 1
REMARK minimizedAffinity 14.3324242
REMARK minimizedRMSD -1
REMARK  0 active torsions:
REMARK  status: ('A' for Active; 'I' for Inactive)
ROOT
ATOM      1  C1  DEN d   1       0.750  -1.113   2.604  0.00  0.00     0.130 A 
ATOM      2  C2  DEN d   1       1.339  -1.742   1.425  0.00  0.00    -0.031 A 
ATOM      3  C3  DEN d   1       2.046  -2.962   1.863  0.00  0.00     0.027 A 
ATOM      4  C4  DEN d   1       2.280  -3.936   4.240  0.00  0.00     0.027 A 
ATOM      5  C5  DEN d   1       1.960  -3.749   5.566  0.00  0.00    -0.003 A 
ATOM      6  C6  DEN d   1       1.250  -2.661   5.999  0.00  0.00     0.001 A 
ATOM      7  C7  DEN d   1       0.796  -1.741   5.091  0.00  0.00     0.017 A 
ATOM      8  C8  DEN d   1       1.121  -1.919   3.753  0.00  0.00    -0.094 A 
ATOM      9  C9  DEN d   1       1.829  -3.032   3.333  0.00  0.00    -0.072 A 
ENDROOT
TORSDOF 0
ENDMDL
