MODEL 1
REMARK minimizedAffinity -2.18371916
REMARK minimizedRMSD -1
REMARK  1 active torsions:
REMARK  status: ('A' for Active; 'I' for Inactive)
REMARK    1  A    between atoms: N_2  and  C1_3 
ROOT
ATOM      1  C1  UNL d   1      -0.165  -1.014   0.241  0.00  0.00     0.143 A 
ATOM      2  C2  UNL d   1      -1.387  -0.473   0.657  0.00  0.00    -0.057 A 
ATOM      3  C3  UNL d   1      -1.527   0.897   0.907  0.00  0.00     0.033 A 
ATOM      4  C4  UNL d   1      -0.436   1.750   0.774  0.00  0.00    -0.042 A 
ATOM      5  C5  UNL d   1       0.794   1.231   0.386  0.00  0.00     0.033 A 
ATOM      6  C6  UNL d   1       0.926  -0.138   0.132  0.00  0.00    -0.057 A 
ENDROOT
BRANCH   1   7
ATOM      7  N   UNL d   1       0.062  -2.382   0.072  0.00  0.00    -0.732 N 
ATOM      8  C   UNL d   1      -0.202  -3.021  -1.199  0.00  0.00     0.284 C 
ATOM      9  H3  UNL d   1       0.920  -2.691   0.523  0.00  0.00     0.395 HD
ENDBRANCH   1   7
TORSDOF 1
ENDMDL
