MODEL 1
REMARK minimizedAffinity -4.26235008
REMARK minimizedRMSD -1
REMARK  1 active torsions:
REMARK  status: ('A' for Active; 'I' for Inactive)
REMARK    1  A    between atoms: N_2  and  C1_3 
ROOT
ATOM      1  C1  UNL d   1       0.238   0.493   0.396  0.00  0.00     0.143 A 
ATOM      2  C2  UNL d   1       1.635   0.485   0.473  0.00  0.00    -0.057 A 
ATOM      3  C3  UNL d   1       2.349   1.636   0.828  0.00  0.00     0.033 A 
ATOM      4  C4  UNL d   1       1.677   2.827   1.084  0.00  0.00    -0.042 A 
ATOM      5  C5  UNL d   1       0.291   2.864   0.989  0.00  0.00     0.033 A 
ATOM      6  C6  UNL d   1      -0.417   1.710   0.641  0.00  0.00    -0.057 A 
ENDROOT
BRANCH   1   7
ATOM      7  N   UNL d   1      -0.522  -0.592  -0.047  0.00  0.00    -0.732 N 
ATOM      8  C   UNL d   1       0.102  -1.871  -0.311  0.00  0.00     0.284 C 
ATOM      9  H3  UNL d   1      -1.419  -0.658   0.429  0.00  0.00     0.395 HD
ENDBRANCH   1   7
TORSDOF 1
ENDMDL
