MODEL 1
REMARK minimizedAffinity -3.80894661
REMARK minimizedRMSD -1
REMARK  1 active torsions:
REMARK  status: ('A' for Active; 'I' for Inactive)
REMARK    1  A    between atoms: N_2  and  C1_3 
ROOT
ATOM      1  C1  UNL d   1       0.082   0.394  -0.126  0.00  0.00     0.143 A 
ATOM      2  C2  UNL d   1      -0.968   1.318  -0.157  0.00  0.00    -0.057 A 
ATOM      3  C3  UNL d   1      -0.814   2.610   0.359  0.00  0.00     0.033 A 
ATOM      4  C4  UNL d   1       0.389   2.993   0.945  0.00  0.00    -0.042 A 
ATOM      5  C5  UNL d   1       1.438   2.082   1.010  0.00  0.00     0.033 A 
ATOM      6  C6  UNL d   1       1.279   0.796   0.486  0.00  0.00    -0.057 A 
ENDROOT
BRANCH   1   7
ATOM      7  N   UNL d   1      -0.041  -0.937  -0.533  0.00  0.00    -0.732 N 
ATOM      8  C   UNL d   1       0.352  -2.016   0.346  0.00  0.00     0.284 C 
ATOM      9  H3  UNL d   1      -0.905  -1.109  -1.043  0.00  0.00     0.395 HD
ENDBRANCH   1   7
TORSDOF 1
ENDMDL
