MODEL 1
REMARK minimizedAffinity -3.38606572
REMARK minimizedRMSD -1
REMARK  1 active torsions:
REMARK  status: ('A' for Active; 'I' for Inactive)
REMARK    1  A    between atoms: N_2  and  C1_3 
ROOT
ATOM      1  C1  UNL d   1      -0.259  -0.389   0.106  0.00  0.00     0.143 A 
ATOM      2  C2  UNL d   1      -1.457   0.255   0.433  0.00  0.00    -0.057 A 
ATOM      3  C3  UNL d   1      -1.492   1.628   0.703  0.00  0.00     0.033 A 
ATOM      4  C4  UNL d   1      -0.322   2.379   0.679  0.00  0.00    -0.042 A 
ATOM      5  C5  UNL d   1       0.884   1.755   0.380  0.00  0.00     0.033 A 
ATOM      6  C6  UNL d   1       0.912   0.384   0.105  0.00  0.00    -0.057 A 
ENDROOT
BRANCH   1   7
ATOM      7  N   UNL d   1      -0.143  -1.769  -0.077  0.00  0.00    -0.732 N 
ATOM      8  C   UNL d   1      -0.772  -2.419  -1.206  0.00  0.00     0.284 C 
ATOM      9  H3  UNL d   1       0.793  -2.111   0.132  0.00  0.00     0.395 HD
ENDBRANCH   1   7
TORSDOF 1
ENDMDL
