MODEL 1
REMARK minimizedAffinity -2.92591906
REMARK minimizedRMSD -1
REMARK  1 active torsions:
REMARK  status: ('A' for Active; 'I' for Inactive)
REMARK    1  A    between atoms: N_2  and  C1_3 
ROOT
ATOM      1  C1  UNL d   1      -0.143   0.535   0.381  0.00  0.00     0.143 A 
ATOM      2  C2  UNL d   1       1.143   1.087   0.387  0.00  0.00    -0.057 A 
ATOM      3  C3  UNL d   1       2.280   0.277   0.502  0.00  0.00     0.033 A 
ATOM      4  C4  UNL d   1       2.149  -1.100   0.645  0.00  0.00    -0.042 A 
ATOM      5  C5  UNL d   1       0.880  -1.667   0.667  0.00  0.00     0.033 A 
ATOM      6  C6  UNL d   1      -0.251  -0.855   0.545  0.00  0.00    -0.057 A 
ENDROOT
BRANCH   1   7
ATOM      7  N   UNL d   1      -1.315   1.295   0.368  0.00  0.00    -0.732 N 
ATOM      8  C   UNL d   1      -2.610   0.654   0.439  0.00  0.00     0.284 C 
ATOM      9  H3  UNL d   1      -1.237   2.139   0.932  0.00  0.00     0.395 HD
ENDBRANCH   1   7
TORSDOF 1
ENDMDL
