MODEL 1
REMARK minimizedAffinity -5.23731709
REMARK minimizedRMSD -1
REMARK  1 active torsions:
REMARK  status: ('A' for Active; 'I' for Inactive)
REMARK    1  A    between atoms: N_2  and  C1_3 
ROOT
ATOM      1  C1  UNL d   1       1.196   0.372  -0.035  0.00  0.00     0.143 A 
ATOM      2  C2  UNL d   1       0.170   1.324  -0.054  0.00  0.00    -0.057 A 
ATOM      3  C3  UNL d   1       0.392   2.639   0.373  0.00  0.00     0.033 A 
ATOM      4  C4  UNL d   1       1.640   3.019   0.856  0.00  0.00    -0.042 A 
ATOM      5  C5  UNL d   1       2.667   2.083   0.907  0.00  0.00     0.033 A 
ATOM      6  C6  UNL d   1       2.441   0.773   0.473  0.00  0.00    -0.057 A 
ENDROOT
BRANCH   1   7
ATOM      7  N   UNL d   1       1.012  -0.976  -0.353  0.00  0.00    -0.732 N 
ATOM      8  C   UNL d   1      -0.106  -1.716   0.191  0.00  0.00     0.284 C 
ATOM      9  H3  UNL d   1       1.204  -1.173  -1.333  0.00  0.00     0.395 HD
ENDBRANCH   1   7
TORSDOF 1
ENDMDL
