MODEL 1
REMARK minimizedAffinity -2.39330053
REMARK minimizedRMSD -1
REMARK  1 active torsions:
REMARK  status: ('A' for Active; 'I' for Inactive)
REMARK    1  A    between atoms: N_2  and  C1_3 
ROOT
ATOM      1  C1  UNL d   1      -0.049   0.324   0.268  0.00  0.00     0.143 A 
ATOM      2  C2  UNL d   1      -1.189   1.065  -0.062  0.00  0.00    -0.057 A 
ATOM      3  C3  UNL d   1      -1.243   2.448   0.149  0.00  0.00     0.033 A 
ATOM      4  C4  UNL d   1      -0.164   3.112   0.723  0.00  0.00    -0.042 A 
ATOM      5  C5  UNL d   1       0.971   2.393   1.081  0.00  0.00     0.033 A 
ATOM      6  C6  UNL d   1       1.021   1.013   0.862  0.00  0.00    -0.057 A 
ENDROOT
BRANCH   1   7
ATOM      7  N   UNL d   1       0.029  -1.067   0.173  0.00  0.00    -0.732 N 
ATOM      8  C   UNL d   1      -0.391  -1.749  -1.033  0.00  0.00     0.284 C 
ATOM      9  H3  UNL d   1       0.883  -1.437   0.584  0.00  0.00     0.395 HD
ENDBRANCH   1   7
TORSDOF 1
ENDMDL
