MODEL 1
REMARK minimizedAffinity -0.610852122
REMARK minimizedRMSD -1
REMARK  0 active torsions:
REMARK  status: ('A' for Active; 'I' for Inactive)
ROOT
ATOM      1  C   UNL d   1      -3.709  -1.146  -2.230  0.00  0.00     0.078 C 
ATOM      2  C1  UNL d   1      -4.098  -0.485  -3.519  0.00  0.00    -0.077 A 
ATOM      3  C2  UNL d   1      -3.128  -0.103  -4.454  0.00  0.00    -0.001 A 
ATOM      4  C3  UNL d   1      -3.503   0.520  -5.646  0.00  0.00     0.003 A 
ATOM      5  C4  UNL d   1      -4.849   0.767  -5.913  0.00  0.00    -0.005 A 
ATOM      6  C5  UNL d   1      -5.820   0.392  -4.987  0.00  0.00     0.003 A 
ATOM      7  C6  UNL d   1      -5.447  -0.231  -3.795  0.00  0.00    -0.001 A 
ENDROOT
TORSDOF 0
ENDMDL
