MODEL 1
REMARK minimizedAffinity 1.71513271
REMARK minimizedRMSD -1
REMARK  0 active torsions:
REMARK  status: ('A' for Active; 'I' for Inactive)
ROOT
ATOM      1  C   UNL d   1      -5.873   1.011  -4.824  0.00  0.00     0.078 C 
ATOM      2  C1  UNL d   1      -4.571   0.268  -4.815  0.00  0.00    -0.077 A 
ATOM      3  C2  UNL d   1      -3.788   0.170  -5.972  0.00  0.00    -0.001 A 
ATOM      4  C3  UNL d   1      -2.582  -0.533  -5.951  0.00  0.00     0.003 A 
ATOM      5  C4  UNL d   1      -2.150  -1.145  -4.776  0.00  0.00    -0.005 A 
ATOM      6  C5  UNL d   1      -2.923  -1.055  -3.620  0.00  0.00     0.003 A 
ATOM      7  C6  UNL d   1      -4.129  -0.352  -3.639  0.00  0.00    -0.001 A 
ENDROOT
TORSDOF 0
ENDMDL
