MODEL 1
REMARK minimizedAffinity 2.61406875
REMARK minimizedRMSD -1
REMARK  0 active torsions:
REMARK  status: ('A' for Active; 'I' for Inactive)
ROOT
ATOM      1  C   UNL d   1       5.321  -3.727   0.909  0.00  0.00     0.078 C 
ATOM      2  C1  UNL d   1       4.089  -2.886   0.751  0.00  0.00    -0.077 A 
ATOM      3  C2  UNL d   1       4.159  -1.603   0.194  0.00  0.00    -0.001 A 
ATOM      4  C3  UNL d   1       3.006  -0.827   0.062  0.00  0.00     0.003 A 
ATOM      5  C4  UNL d   1       1.775  -1.326   0.485  0.00  0.00    -0.005 A 
ATOM      6  C5  UNL d   1       1.696  -2.600   1.042  0.00  0.00     0.003 A 
ATOM      7  C6  UNL d   1       2.848  -3.377   1.175  0.00  0.00    -0.001 A 
ENDROOT
TORSDOF 0
ENDMDL
