MODEL 1
REMARK minimizedAffinity 1.49030793
REMARK minimizedRMSD -1
REMARK  0 active torsions:
REMARK  status: ('A' for Active; 'I' for Inactive)
ROOT
ATOM      1  C   UNL d   1      -5.999   5.006  -5.178  0.00  0.00     0.078 C 
ATOM      2  C1  UNL d   1      -4.526   4.867  -5.425  0.00  0.00    -0.077 A 
ATOM      3  C2  UNL d   1      -3.888   3.627  -5.298  0.00  0.00    -0.001 A 
ATOM      4  C3  UNL d   1      -2.515   3.514  -5.522  0.00  0.00     0.003 A 
ATOM      5  C4  UNL d   1      -1.768   4.637  -5.873  0.00  0.00    -0.005 A 
ATOM      6  C5  UNL d   1      -2.394   5.875  -6.000  0.00  0.00     0.003 A 
ATOM      7  C6  UNL d   1      -3.767   5.990  -5.776  0.00  0.00    -0.001 A 
ENDROOT
TORSDOF 0
ENDMDL
