MODEL 1
REMARK minimizedAffinity 0.47714904
REMARK minimizedRMSD -1
REMARK  0 active torsions:
REMARK  status: ('A' for Active; 'I' for Inactive)
ROOT
ATOM      1  C   UNL d   1      -2.578   1.405  -6.000  0.00  0.00     0.078 C 
ATOM      2  C1  UNL d   1      -3.123   0.297  -5.148  0.00  0.00    -0.077 A 
ATOM      3  C2  UNL d   1      -4.384   0.402  -4.549  0.00  0.00    -0.001 A 
ATOM      4  C3  UNL d   1      -4.875  -0.632  -3.751  0.00  0.00     0.003 A 
ATOM      5  C4  UNL d   1      -4.110  -1.779  -3.544  0.00  0.00    -0.005 A 
ATOM      6  C5  UNL d   1      -2.853  -1.891  -4.134  0.00  0.00     0.003 A 
ATOM      7  C6  UNL d   1      -2.361  -0.858  -4.933  0.00  0.00    -0.001 A 
ENDROOT
TORSDOF 0
ENDMDL
