MODEL 1
REMARK minimizedAffinity -2.32043505
REMARK minimizedRMSD -1
REMARK  1 active torsions:
REMARK  status: ('A' for Active; 'I' for Inactive)
REMARK    1  A    between atoms: C1_2  and  C2_3 
ROOT
ATOM      1  C2  UNL d   1       4.504  -4.445  -0.786  0.00  0.00    -0.081 A 
ATOM      2  C3  UNL d   1       4.571  -4.166  -2.156  0.00  0.00     0.006 A 
ATOM      3  C4  UNL d   1       3.402  -4.016  -2.907  0.00  0.00     0.002 A 
ATOM      4  C5  UNL d   1       2.148  -4.135  -2.298  0.00  0.00    -0.080 A 
ATOM      5  C6  UNL d   1       0.886  -3.947  -3.086  0.00  0.00     0.076 C 
ATOM      6  C7  UNL d   1       2.081  -4.431  -0.932  0.00  0.00     0.002 A 
ATOM      7  C8  UNL d   1       3.249  -4.581  -0.182  0.00  0.00     0.006 A 
ENDROOT
BRANCH   1   8
ATOM      8  C1  UNL d   1       5.762  -4.542   0.039  0.00  0.00     0.054 C 
ATOM      9  C   UNL d   1       5.999  -3.270   0.839  0.00  0.00     0.018 C 
ENDBRANCH   1   8
TORSDOF 1
ENDMDL
