MODEL 1
REMARK minimizedAffinity 9.41842937
REMARK minimizedRMSD -1
REMARK  1 active torsions:
REMARK  status: ('A' for Active; 'I' for Inactive)
REMARK    1  A    between atoms: C1_2  and  C2_3 
ROOT
ATOM      1  C2  UNL d   1       2.170  -0.375  -2.209  0.00  0.00    -0.081 A 
ATOM      2  C3  UNL d   1       2.935   0.312  -1.259  0.00  0.00     0.006 A 
ATOM      3  C4  UNL d   1       3.010   1.706  -1.283  0.00  0.00     0.002 A 
ATOM      4  C5  UNL d   1       2.315   2.437  -2.253  0.00  0.00    -0.080 A 
ATOM      5  C6  UNL d   1       2.362   3.936  -2.272  0.00  0.00     0.076 C 
ATOM      6  C7  UNL d   1       1.564   1.750  -3.213  0.00  0.00     0.002 A 
ATOM      7  C8  UNL d   1       1.490   0.356  -3.190  0.00  0.00     0.006 A 
ENDROOT
BRANCH   1   8
ATOM      8  C1  UNL d   1       2.035  -1.875  -2.146  0.00  0.00     0.054 C 
ATOM      9  C   UNL d   1       2.491  -2.416  -0.798  0.00  0.00     0.018 C 
ENDBRANCH   1   8
TORSDOF 1
ENDMDL
