MODEL 1
REMARK minimizedAffinity -2.57076573
REMARK minimizedRMSD -1
REMARK  1 active torsions:
REMARK  status: ('A' for Active; 'I' for Inactive)
REMARK    1  A    between atoms: C1_2  and  C2_3 
ROOT
ATOM      1  C2  UNL d   1       1.557   4.140  -1.120  0.00  0.00    -0.081 A 
ATOM      2  C3  UNL d   1       1.088   3.283  -0.116  0.00  0.00     0.006 A 
ATOM      3  C4  UNL d   1       1.352   1.912  -0.176  0.00  0.00     0.002 A 
ATOM      4  C5  UNL d   1       2.095   1.377  -1.234  0.00  0.00    -0.080 A 
ATOM      5  C6  UNL d   1       2.411  -0.088  -1.294  0.00  0.00     0.076 C 
ATOM      6  C7  UNL d   1       2.548   2.231  -2.245  0.00  0.00     0.002 A 
ATOM      7  C8  UNL d   1       2.284   3.601  -2.187  0.00  0.00     0.006 A 
ENDROOT
BRANCH   1   8
ATOM      8  C1  UNL d   1       1.329   5.627  -1.025  0.00  0.00     0.054 C 
ATOM      9  C   UNL d   1       0.262   5.959   0.008  0.00  0.00     0.018 C 
ENDBRANCH   1   8
TORSDOF 1
ENDMDL
