MODEL 1
REMARK minimizedAffinity -1.45915914
REMARK minimizedRMSD -1
REMARK  1 active torsions:
REMARK  status: ('A' for Active; 'I' for Inactive)
REMARK    1  A    between atoms: C1_2  and  C2_3 
ROOT
ATOM      1  C2  UNL d   1       1.112   4.504  -0.566  0.00  0.00    -0.081 A 
ATOM      2  C3  UNL d   1       2.251   4.208  -1.324  0.00  0.00     0.006 A 
ATOM      3  C4  UNL d   1       2.627   2.882  -1.550  0.00  0.00     0.002 A 
ATOM      4  C5  UNL d   1       1.867   1.830  -1.029  0.00  0.00    -0.080 A 
ATOM      5  C6  UNL d   1       2.243   0.402  -1.290  0.00  0.00     0.076 C 
ATOM      6  C7  UNL d   1       0.738   2.125  -0.257  0.00  0.00     0.002 A 
ATOM      7  C8  UNL d   1       0.362   3.451  -0.030  0.00  0.00     0.006 A 
ENDROOT
BRANCH   1   8
ATOM      8  C1  UNL d   1       0.667   5.931  -0.375  0.00  0.00     0.054 C 
ATOM      9  C   UNL d   1      -0.736   6.000   0.211  0.00  0.00     0.018 C 
ENDBRANCH   1   8
TORSDOF 1
ENDMDL
