MODEL 1
REMARK minimizedAffinity -1.68486762
REMARK minimizedRMSD -1
REMARK  1 active torsions:
REMARK  status: ('A' for Active; 'I' for Inactive)
REMARK    1  A    between atoms: C1_2  and  C2_3 
ROOT
ATOM      1  C2  UNL d   1       1.486   3.411  -1.150  0.00  0.00    -0.081 A 
ATOM      2  C3  UNL d   1       0.974   2.467  -0.251  0.00  0.00     0.006 A 
ATOM      3  C4  UNL d   1       1.273   1.111  -0.402  0.00  0.00     0.002 A 
ATOM      4  C5  UNL d   1       2.094   0.677  -1.448  0.00  0.00    -0.080 A 
ATOM      5  C6  UNL d   1       2.447  -0.773  -1.603  0.00  0.00     0.076 C 
ATOM      6  C7  UNL d   1       2.591   1.617  -2.356  0.00  0.00     0.002 A 
ATOM      7  C8  UNL d   1       2.292   2.973  -2.207  0.00  0.00     0.006 A 
ENDROOT
BRANCH   1   8
ATOM      8  C1  UNL d   1       1.219   4.881  -0.952  0.00  0.00     0.054 C 
ATOM      9  C   UNL d   1      -0.025   5.108  -0.105  0.00  0.00     0.018 C 
ENDBRANCH   1   8
TORSDOF 1
ENDMDL
