MODEL 1
REMARK minimizedAffinity 1.88331735
REMARK minimizedRMSD -1
REMARK  1 active torsions:
REMARK  status: ('A' for Active; 'I' for Inactive)
REMARK    1  A    between atoms: C1_2  and  C2_3 
ROOT
ATOM      1  C2  UNL d   1       1.402   2.305  -1.468  0.00  0.00    -0.081 A 
ATOM      2  C3  UNL d   1       0.103   2.394  -0.952  0.00  0.00     0.006 A 
ATOM      3  C4  UNL d   1      -0.350   3.585  -0.378  0.00  0.00     0.002 A 
ATOM      4  C5  UNL d   1       0.483   4.707  -0.319  0.00  0.00    -0.080 A 
ATOM      5  C6  UNL d   1      -0.002   6.000   0.266  0.00  0.00     0.076 C 
ATOM      6  C7  UNL d   1       1.786   4.612  -0.820  0.00  0.00     0.002 A 
ATOM      7  C8  UNL d   1       2.241   3.422  -1.392  0.00  0.00     0.006 A 
ENDROOT
BRANCH   1   8
ATOM      8  C1  UNL d   1       1.872   1.043  -2.145  0.00  0.00     0.054 C 
ATOM      9  C   UNL d   1       2.248  -0.024  -1.127  0.00  0.00     0.018 C 
ENDBRANCH   1   8
TORSDOF 1
ENDMDL
