MODEL 1
REMARK minimizedAffinity 8.15424156
REMARK minimizedRMSD -1
REMARK  1 active torsions:
REMARK  status: ('A' for Active; 'I' for Inactive)
REMARK    1  A    between atoms: C1_2  and  C2_3 
ROOT
ATOM      1  C2  UNL d   1       0.761  -2.106  -1.534  0.00  0.00    -0.081 A 
ATOM      2  C3  UNL d   1       1.613  -1.590  -0.550  0.00  0.00     0.006 A 
ATOM      3  C4  UNL d   1       2.321  -0.407  -0.776  0.00  0.00     0.002 A 
ATOM      4  C5  UNL d   1       2.182   0.284  -1.985  0.00  0.00    -0.080 A 
ATOM      5  C6  UNL d   1       2.912   1.571  -2.229  0.00  0.00     0.076 C 
ATOM      6  C7  UNL d   1       1.344  -0.242  -2.975  0.00  0.00     0.002 A 
ATOM      7  C8  UNL d   1       0.637  -1.425  -2.750  0.00  0.00     0.006 A 
ENDROOT
BRANCH   1   8
ATOM      8  C1  UNL d   1      -0.052  -3.347  -1.269  0.00  0.00     0.054 C 
ATOM      9  C   UNL d   1      -1.030  -3.621  -2.403  0.00  0.00     0.018 C 
ENDBRANCH   1   8
TORSDOF 1
ENDMDL
