MODEL 1
REMARK minimizedAffinity 4.00897169
REMARK minimizedRMSD -1
REMARK  1 active torsions:
REMARK  status: ('A' for Active; 'I' for Inactive)
REMARK    1  A    between atoms: C1_2  and  C2_3 
ROOT
ATOM      1  C2  UNL d   1      -4.438   4.001  -5.874  0.00  0.00    -0.081 A 
ATOM      2  C3  UNL d   1      -3.397   4.929  -5.998  0.00  0.00     0.006 A 
ATOM      3  C4  UNL d   1      -2.065   4.512  -5.942  0.00  0.00     0.002 A 
ATOM      4  C5  UNL d   1      -1.752   3.159  -5.770  0.00  0.00    -0.080 A 
ATOM      5  C6  UNL d   1      -0.327   2.693  -5.739  0.00  0.00     0.076 C 
ATOM      6  C7  UNL d   1      -2.792   2.234  -5.629  0.00  0.00     0.002 A 
ATOM      7  C8  UNL d   1      -4.124   2.651  -5.684  0.00  0.00     0.006 A 
ENDROOT
BRANCH   1   8
ATOM      8  C1  UNL d   1      -5.875   4.440  -5.999  0.00  0.00     0.054 C 
ATOM      9  C   UNL d   1      -5.992   5.957  -5.998  0.00  0.00     0.018 C 
ENDBRANCH   1   8
TORSDOF 1
ENDMDL
