MODEL 1
REMARK minimizedAffinity 10.5660038
REMARK minimizedRMSD -1
REMARK  1 active torsions:
REMARK  status: ('A' for Active; 'I' for Inactive)
REMARK    1  A    between atoms: C1_2  and  C2_3 
ROOT
ATOM      1  C2  UNL d   1      -4.009  -4.755   2.274  0.00  0.00    -0.081 A 
ATOM      2  C3  UNL d   1      -5.346  -4.543   1.917  0.00  0.00     0.006 A 
ATOM      3  C4  UNL d   1      -5.997  -3.362   2.282  0.00  0.00     0.002 A 
ATOM      4  C5  UNL d   1      -5.320  -2.371   3.002  0.00  0.00    -0.080 A 
ATOM      5  C6  UNL d   1      -5.998  -1.086   3.374  0.00  0.00     0.076 C 
ATOM      6  C7  UNL d   1      -3.990  -2.591   3.373  0.00  0.00     0.002 A 
ATOM      7  C8  UNL d   1      -3.339  -3.772   3.010  0.00  0.00     0.006 A 
ENDROOT
BRANCH   1   8
ATOM      8  C1  UNL d   1      -3.285  -5.999   1.826  0.00  0.00     0.054 C 
ATOM      9  C   UNL d   1      -3.002  -5.967   0.331  0.00  0.00     0.018 C 
ENDBRANCH   1   8
TORSDOF 1
ENDMDL
