MODEL 1
REMARK minimizedAffinity 20.1104774
REMARK minimizedRMSD -1
REMARK  1 active torsions:
REMARK  status: ('A' for Active; 'I' for Inactive)
REMARK    1  A    between atoms: C1_2  and  C2_3 
ROOT
ATOM      1  C2  UNL d   1       2.487  -0.237  -0.426  0.00  0.00    -0.081 A 
ATOM      2  C3  UNL d   1       1.658   0.132  -1.493  0.00  0.00     0.006 A 
ATOM      3  C4  UNL d   1       0.934  -0.834  -2.195  0.00  0.00     0.002 A 
ATOM      4  C5  UNL d   1       1.020  -2.184  -1.837  0.00  0.00    -0.080 A 
ATOM      5  C6  UNL d   1       0.225  -3.228  -2.563  0.00  0.00     0.076 C 
ATOM      6  C7  UNL d   1       1.861  -2.555  -0.783  0.00  0.00     0.002 A 
ATOM      7  C8  UNL d   1       2.586  -1.590  -0.081  0.00  0.00     0.006 A 
ENDROOT
BRANCH   1   8
ATOM      8  C1  UNL d   1       3.218   0.810   0.374  0.00  0.00     0.054 C 
ATOM      9  C   UNL d   1       2.348   1.357   1.496  0.00  0.00     0.018 C 
ENDBRANCH   1   8
TORSDOF 1
ENDMDL
