MODEL 1
REMARK minimizedAffinity 12.6102257
REMARK minimizedRMSD -1
REMARK  1 active torsions:
REMARK  status: ('A' for Active; 'I' for Inactive)
REMARK    1  A    between atoms: C1_2  and  C2_3 
ROOT
ATOM      1  C2  UNL d   1      -3.139  -3.568   2.906  0.00  0.00    -0.081 A 
ATOM      2  C3  UNL d   1      -1.913  -3.949   2.347  0.00  0.00     0.006 A 
ATOM      3  C4  UNL d   1      -0.728  -3.331   2.753  0.00  0.00     0.002 A 
ATOM      4  C5  UNL d   1      -0.748  -2.329   3.728  0.00  0.00    -0.080 A 
ATOM      5  C6  UNL d   1       0.521  -1.679   4.194  0.00  0.00     0.076 C 
ATOM      6  C7  UNL d   1      -1.974  -1.936   4.274  0.00  0.00     0.002 A 
ATOM      7  C8  UNL d   1      -3.160  -2.553   3.868  0.00  0.00     0.006 A 
ENDROOT
BRANCH   1   8
ATOM      8  C1  UNL d   1      -4.412  -4.277   2.518  0.00  0.00     0.054 C 
ATOM      9  C   UNL d   1      -5.631  -3.597   3.123  0.00  0.00     0.018 C 
ENDBRANCH   1   8
TORSDOF 1
ENDMDL
