MODEL 1
REMARK minimizedAffinity 6.68970776
REMARK minimizedRMSD -1
REMARK  1 active torsions:
REMARK  status: ('A' for Active; 'I' for Inactive)
REMARK    1  A    between atoms: C1_2  and  C2_3 
ROOT
ATOM      1  C2  UNL d   1       1.597   1.700  -1.577  0.00  0.00    -0.081 A 
ATOM      2  C3  UNL d   1       1.536   2.556  -2.684  0.00  0.00     0.006 A 
ATOM      3  C4  UNL d   1       1.551   3.942  -2.508  0.00  0.00     0.002 A 
ATOM      4  C5  UNL d   1       1.636   4.494  -1.226  0.00  0.00    -0.080 A 
ATOM      5  C6  UNL d   1       1.684   5.980  -1.026  0.00  0.00     0.076 C 
ATOM      6  C7  UNL d   1       1.679   3.639  -0.119  0.00  0.00     0.002 A 
ATOM      7  C8  UNL d   1       1.663   2.253  -0.294  0.00  0.00     0.006 A 
ENDROOT
BRANCH   1   8
ATOM      8  C1  UNL d   1       1.645   0.205  -1.766  0.00  0.00     0.054 C 
ATOM      9  C   UNL d   1       2.363  -0.476  -0.610  0.00  0.00     0.018 C 
ENDBRANCH   1   8
TORSDOF 1
ENDMDL
