MODEL 1
REMARK minimizedAffinity 6.13281107
REMARK minimizedRMSD -1
REMARK  1 active torsions:
REMARK  status: ('A' for Active; 'I' for Inactive)
REMARK    1  A    between atoms: C1_2  and  C2_3 
ROOT
ATOM      1  C2  UNL d   1      -1.139  -3.674  -0.143  0.00  0.00    -0.081 A 
ATOM      2  C3  UNL d   1      -2.321  -3.870   0.582  0.00  0.00     0.006 A 
ATOM      3  C4  UNL d   1      -2.408  -3.469   1.917  0.00  0.00     0.002 A 
ATOM      4  C5  UNL d   1      -1.318  -2.858   2.547  0.00  0.00    -0.080 A 
ATOM      5  C6  UNL d   1      -1.408  -2.395   3.971  0.00  0.00     0.076 C 
ATOM      6  C7  UNL d   1      -0.131  -2.678   1.829  0.00  0.00     0.002 A 
ATOM      7  C8  UNL d   1      -0.044  -3.080   0.494  0.00  0.00     0.006 A 
ENDROOT
BRANCH   1   8
ATOM      8  C1  UNL d   1      -1.064  -4.047  -1.601  0.00  0.00     0.054 C 
ATOM      9  C   UNL d   1      -1.782  -3.025  -2.471  0.00  0.00     0.018 C 
ENDBRANCH   1   8
TORSDOF 1
ENDMDL
