MODEL 1
REMARK minimizedAffinity -4.66770983
REMARK minimizedRMSD -1
REMARK  1 active torsions:
REMARK  status: ('A' for Active; 'I' for Inactive)
REMARK    1  A    between atoms: C3_4  and  O_7 
ROOT
ATOM      1  C   UNL d   1       1.077   2.359   1.660  0.00  0.00    -0.033 A 
ATOM      2  C1  UNL d   1       1.612   1.877   0.464  0.00  0.00     0.039 A 
ATOM      3  C2  UNL d   1       0.976   0.839  -0.220  0.00  0.00    -0.080 A 
ATOM      4  C3  UNL d   1      -0.194   0.293   0.303  0.00  0.00     0.150 A 
ATOM      5  C4  UNL d   1      -0.735   0.772   1.492  0.00  0.00    -0.007 A 
ATOM      6  C5  UNL d   1      -0.097   1.808   2.173  0.00  0.00     0.039 A 
ENDROOT
BRANCH   4   7
ATOM      7  O   UNL d   1      -0.848  -0.724  -0.326  0.00  0.00    -0.526 OA
ATOM      8  H5  UNL d   1      -0.344  -0.970  -1.119  0.00  0.00     0.418 HD
ENDBRANCH   4   7
TORSDOF 1
ENDMDL
