MODEL 1
REMARK minimizedAffinity -4.3703227
REMARK minimizedRMSD -1
REMARK  1 active torsions:
REMARK  status: ('A' for Active; 'I' for Inactive)
REMARK    1  A    between atoms: C3_4  and  O_7 
ROOT
ATOM      1  C   UNL d   1       2.471   2.072   1.149  0.00  0.00    -0.033 A 
ATOM      2  C1  UNL d   1       2.935   1.232   0.135  0.00  0.00     0.039 A 
ATOM      3  C2  UNL d   1       2.091   0.263  -0.412  0.00  0.00    -0.080 A 
ATOM      4  C3  UNL d   1       0.788   0.145   0.062  0.00  0.00     0.150 A 
ATOM      5  C4  UNL d   1       0.318   0.981   1.070  0.00  0.00    -0.007 A 
ATOM      6  C5  UNL d   1       1.162   1.947   1.616  0.00  0.00     0.039 A 
ENDROOT
BRANCH   4   7
ATOM      7  O   UNL d   1      -0.071  -0.789  -0.437  0.00  0.00    -0.526 OA
ATOM      8  H5  UNL d   1       0.400  -1.313  -1.107  0.00  0.00     0.418 HD
ENDBRANCH   4   7
TORSDOF 1
ENDMDL
