MODEL 1
REMARK minimizedAffinity -2.94241548
REMARK minimizedRMSD -1
REMARK  1 active torsions:
REMARK  status: ('A' for Active; 'I' for Inactive)
REMARK    1  A    between atoms: C3_4  and  O_7 
ROOT
ATOM      1  C   UNL d   1      -0.760   0.351   0.722  0.00  0.00    -0.033 A 
ATOM      2  C1  UNL d   1      -0.088  -0.446  -0.207  0.00  0.00     0.039 A 
ATOM      3  C2  UNL d   1       1.303  -0.381  -0.309  0.00  0.00    -0.080 A 
ATOM      4  C3  UNL d   1       2.009   0.482   0.524  0.00  0.00     0.150 A 
ATOM      5  C4  UNL d   1       1.347   1.276   1.454  0.00  0.00    -0.007 A 
ATOM      6  C5  UNL d   1      -0.042   1.211   1.553  0.00  0.00     0.039 A 
ENDROOT
BRANCH   4   7
ATOM      7  O   UNL d   1       3.367   0.583   0.458  0.00  0.00    -0.526 OA
ATOM      8  H5  UNL d   1       3.686  -0.002  -0.249  0.00  0.00     0.418 HD
ENDBRANCH   4   7
TORSDOF 1
ENDMDL
