MODEL 1
REMARK minimizedAffinity -5.56834984
REMARK minimizedRMSD -1
REMARK  1 active torsions:
REMARK  status: ('A' for Active; 'I' for Inactive)
REMARK    1  A    between atoms: C3_4  and  O_7 
ROOT
ATOM      1  C   UNL d   1       1.040  -0.423  -0.313  0.00  0.00    -0.033 A 
ATOM      2  C1  UNL d   1      -0.037  -0.199   0.547  0.00  0.00     0.039 A 
ATOM      3  C2  UNL d   1      -0.099   0.977   1.298  0.00  0.00    -0.080 A 
ATOM      4  C3  UNL d   1       0.919   1.918   1.180  0.00  0.00     0.150 A 
ATOM      5  C4  UNL d   1       1.992   1.703   0.321  0.00  0.00    -0.007 A 
ATOM      6  C5  UNL d   1       2.054   0.529  -0.427  0.00  0.00     0.039 A 
ENDROOT
BRANCH   4   7
ATOM      7  O   UNL d   1       0.904   3.078   1.896  0.00  0.00    -0.526 OA
ATOM      8  H5  UNL d   1       0.118   3.077   2.468  0.00  0.00     0.418 HD
ENDBRANCH   4   7
TORSDOF 1
ENDMDL
