MODEL 1
REMARK minimizedAffinity -5.49973631
REMARK minimizedRMSD -1
REMARK  1 active torsions:
REMARK  status: ('A' for Active; 'I' for Inactive)
REMARK    1  A    between atoms: C3_4  and  O_7 
ROOT
ATOM      1  C   UNL d   1       2.492   0.125  -0.425  0.00  0.00    -0.033 A 
ATOM      2  C1  UNL d   1       3.219   1.172   0.145  0.00  0.00     0.039 A 
ATOM      3  C2  UNL d   1       2.556   2.287   0.658  0.00  0.00    -0.080 A 
ATOM      4  C3  UNL d   1       1.166   2.344   0.597  0.00  0.00     0.150 A 
ATOM      5  C4  UNL d   1       0.434   1.303   0.035  0.00  0.00    -0.007 A 
ATOM      6  C5  UNL d   1       1.099   0.190  -0.479  0.00  0.00     0.039 A 
ENDROOT
BRANCH   4   7
ATOM      7  O   UNL d   1       0.474   3.414   1.081  0.00  0.00    -0.526 OA
ATOM      8  H5  UNL d   1       1.112   4.068   1.414  0.00  0.00     0.418 HD
ENDBRANCH   4   7
TORSDOF 1
ENDMDL
