MODEL 1
REMARK minimizedAffinity -3.56489015
REMARK minimizedRMSD -1
REMARK  1 active torsions:
REMARK  status: ('A' for Active; 'I' for Inactive)
REMARK    1  A    between atoms: C3_4  and  O_7 
ROOT
ATOM      1  C   UNL d   1      -1.171  -0.598  -0.074  0.00  0.00    -0.033 A 
ATOM      2  C1  UNL d   1      -0.110  -0.197   0.740  0.00  0.00     0.039 A 
ATOM      3  C2  UNL d   1       1.197  -0.567   0.418  0.00  0.00    -0.080 A 
ATOM      4  C3  UNL d   1       1.429  -1.336  -0.720  0.00  0.00     0.150 A 
ATOM      5  C4  UNL d   1       0.377  -1.735  -1.537  0.00  0.00    -0.007 A 
ATOM      6  C5  UNL d   1      -0.928  -1.365  -1.213  0.00  0.00     0.039 A 
ENDROOT
BRANCH   4   7
ATOM      7  O   UNL d   1       2.687  -1.725  -1.072  0.00  0.00    -0.526 OA
ATOM      8  H5  UNL d   1       3.310  -1.401  -0.400  0.00  0.00     0.418 HD
ENDBRANCH   4   7
TORSDOF 1
ENDMDL
