MODEL 1
REMARK minimizedAffinity -5.60766792
REMARK minimizedRMSD -1
REMARK  1 active torsions:
REMARK  status: ('A' for Active; 'I' for Inactive)
REMARK    1  A    between atoms: C3_4  and  O_7 
ROOT
ATOM      1  C   UNL d   1       1.890   2.229   1.365  0.00  0.00    -0.033 A 
ATOM      2  C1  UNL d   1       0.652   1.823   1.868  0.00  0.00     0.039 A 
ATOM      3  C2  UNL d   1      -0.038   0.769   1.264  0.00  0.00    -0.080 A 
ATOM      4  C3  UNL d   1       0.521   0.131   0.160  0.00  0.00     0.150 A 
ATOM      5  C4  UNL d   1       1.755   0.528  -0.344  0.00  0.00    -0.007 A 
ATOM      6  C5  UNL d   1       2.442   1.580   0.260  0.00  0.00     0.039 A 
ENDROOT
BRANCH   4   7
ATOM      7  O   UNL d   1      -0.117  -0.899  -0.466  0.00  0.00    -0.526 OA
ATOM      8  H5  UNL d   1      -0.971  -1.044  -0.026  0.00  0.00     0.418 HD
ENDBRANCH   4   7
TORSDOF 1
ENDMDL
