MODEL 1
REMARK minimizedAffinity -3.92653108
REMARK minimizedRMSD -1
REMARK  1 active torsions:
REMARK  status: ('A' for Active; 'I' for Inactive)
REMARK    1  A    between atoms: C3_4  and  O_7 
ROOT
ATOM      1  C   UNL d   1       1.784   1.273   1.377  0.00  0.00    -0.033 A 
ATOM      2  C1  UNL d   1       0.438   1.182   1.737  0.00  0.00     0.039 A 
ATOM      3  C2  UNL d   1      -0.426   0.359   1.012  0.00  0.00    -0.080 A 
ATOM      4  C3  UNL d   1       0.068  -0.368  -0.068  0.00  0.00     0.150 A 
ATOM      5  C4  UNL d   1       1.409  -0.284  -0.430  0.00  0.00    -0.007 A 
ATOM      6  C5  UNL d   1       2.270   0.539   0.294  0.00  0.00     0.039 A 
ENDROOT
BRANCH   4   7
ATOM      7  O   UNL d   1      -0.737  -1.181  -0.809  0.00  0.00    -0.526 OA
ATOM      8  H5  UNL d   1      -1.643  -1.116  -0.461  0.00  0.00     0.418 HD
ENDBRANCH   4   7
TORSDOF 1
ENDMDL
