MODEL 1
REMARK minimizedAffinity -4.92183924
REMARK minimizedRMSD -1
REMARK  1 active torsions:
REMARK  status: ('A' for Active; 'I' for Inactive)
REMARK    1  A    between atoms: C3_4  and  O_7 
ROOT
ATOM      1  C   UNL d   1       2.689   2.632   0.055  0.00  0.00    -0.033 A 
ATOM      2  C1  UNL d   1       1.296   2.567  -0.024  0.00  0.00     0.039 A 
ATOM      3  C2  UNL d   1       0.652   1.328  -0.018  0.00  0.00    -0.080 A 
ATOM      4  C3  UNL d   1       1.411   0.164   0.068  0.00  0.00     0.150 A 
ATOM      5  C4  UNL d   1       2.798   0.222   0.151  0.00  0.00    -0.007 A 
ATOM      6  C5  UNL d   1       3.440   1.460   0.144  0.00  0.00     0.039 A 
ENDROOT
BRANCH   4   7
ATOM      7  O   UNL d   1       0.828  -1.068   0.073  0.00  0.00    -0.526 OA
ATOM      8  H5  UNL d   1      -0.133  -0.954  -0.019  0.00  0.00     0.418 HD
ENDBRANCH   4   7
TORSDOF 1
ENDMDL
