MODEL 1
REMARK minimizedAffinity -5.52333784
REMARK minimizedRMSD -1
REMARK  1 active torsions:
REMARK  status: ('A' for Active; 'I' for Inactive)
REMARK    1  A    between atoms: C3_4  and  O_7 
ROOT
ATOM      1  C   UNL d   1       1.850   0.059  -0.167  0.00  0.00    -0.033 A 
ATOM      2  C1  UNL d   1       0.535   0.363   0.190  0.00  0.00     0.039 A 
ATOM      3  C2  UNL d   1       0.251   1.545   0.876  0.00  0.00    -0.080 A 
ATOM      4  C3  UNL d   1       1.290   2.415   1.198  0.00  0.00     0.150 A 
ATOM      5  C4  UNL d   1       2.602   2.120   0.842  0.00  0.00    -0.007 A 
ATOM      6  C5  UNL d   1       2.884   0.939   0.157  0.00  0.00     0.039 A 
ENDROOT
BRANCH   4   7
ATOM      7  O   UNL d   1       1.063   3.578   1.871  0.00  0.00    -0.526 OA
ATOM      8  H5  UNL d   1       0.115   3.635   2.076  0.00  0.00     0.418 HD
ENDBRANCH   4   7
TORSDOF 1
ENDMDL
