MODEL 1
REMARK minimizedAffinity -5.1041522
REMARK minimizedRMSD -1
REMARK  1 active torsions:
REMARK  status: ('A' for Active; 'I' for Inactive)
REMARK    1  A    between atoms: C3_4  and  O_7 
ROOT
ATOM      1  C   UNL d   1      -0.104   1.436   1.276  0.00  0.00    -0.033 A 
ATOM      2  C1  UNL d   1      -0.114   0.356   0.391  0.00  0.00     0.039 A 
ATOM      3  C2  UNL d   1       1.084  -0.124  -0.140  0.00  0.00    -0.080 A 
ATOM      4  C3  UNL d   1       2.284   0.483   0.221  0.00  0.00     0.150 A 
ATOM      5  C4  UNL d   1       2.301   1.557   1.106  0.00  0.00    -0.007 A 
ATOM      6  C5  UNL d   1       1.103   2.035   1.634  0.00  0.00     0.039 A 
ENDROOT
BRANCH   4   7
ATOM      7  O   UNL d   1       3.478   0.052  -0.275  0.00  0.00    -0.526 OA
ATOM      8  H5  UNL d   1       3.309  -0.677  -0.895  0.00  0.00     0.418 HD
ENDBRANCH   4   7
TORSDOF 1
ENDMDL
