MODEL 1
REMARK minimizedAffinity -4.49194479
REMARK minimizedRMSD -1
REMARK  1 active torsions:
REMARK  status: ('A' for Active; 'I' for Inactive)
REMARK    1  A    between atoms: C3_4  and  O_7 
ROOT
ATOM      1  C   UNL d   1       1.374   2.772   0.930  0.00  0.00    -0.033 A 
ATOM      2  C1  UNL d   1       0.670   1.878   0.121  0.00  0.00     0.039 A 
ATOM      3  C2  UNL d   1       1.330   0.797  -0.467  0.00  0.00    -0.080 A 
ATOM      4  C3  UNL d   1       2.692   0.622  -0.238  0.00  0.00     0.150 A 
ATOM      5  C4  UNL d   1       3.399   1.508   0.569  0.00  0.00    -0.007 A 
ATOM      6  C5  UNL d   1       2.738   2.587   1.154  0.00  0.00     0.039 A 
ENDROOT
BRANCH   4   7
ATOM      7  O   UNL d   1       3.381  -0.414  -0.795  0.00  0.00    -0.526 OA
ATOM      8  H5  UNL d   1       2.770  -0.927  -1.350  0.00  0.00     0.418 HD
ENDBRANCH   4   7
TORSDOF 1
ENDMDL
