MODEL 1
REMARK minimizedAffinity -3.15667939
REMARK minimizedRMSD -1
REMARK  1 active torsions:
REMARK  status: ('A' for Active; 'I' for Inactive)
REMARK    1  A    between atoms: C3_4  and  O_7 
ROOT
ATOM      1  C   UNL d   1       0.821  -1.425  -0.613  0.00  0.00    -0.033 A 
ATOM      2  C1  UNL d   1      -0.223  -0.992   0.207  0.00  0.00     0.039 A 
ATOM      3  C2  UNL d   1      -0.094   0.190   0.939  0.00  0.00    -0.080 A 
ATOM      4  C3  UNL d   1       1.081   0.930   0.840  0.00  0.00     0.150 A 
ATOM      5  C4  UNL d   1       2.124   0.507   0.022  0.00  0.00    -0.007 A 
ATOM      6  C5  UNL d   1       1.994  -0.675  -0.706  0.00  0.00     0.039 A 
ENDROOT
BRANCH   4   7
ATOM      7  O   UNL d   1       1.255   2.088   1.539  0.00  0.00    -0.526 OA
ATOM      8  H5  UNL d   1       0.465   2.240   2.083  0.00  0.00     0.418 HD
ENDBRANCH   4   7
TORSDOF 1
ENDMDL
