MODEL 1
REMARK minimizedAffinity -3.04089785
REMARK minimizedRMSD -1
REMARK  1 active torsions:
REMARK  status: ('A' for Active; 'I' for Inactive)
REMARK    1  A    between atoms: C3_4  and  O_7 
ROOT
ATOM      1  C   UNL d   1      -0.281   0.046   0.735  0.00  0.00    -0.033 A 
ATOM      2  C1  UNL d   1      -0.502  -1.209   0.163  0.00  0.00     0.039 A 
ATOM      3  C2  UNL d   1       0.557  -1.907  -0.421  0.00  0.00    -0.080 A 
ATOM      4  C3  UNL d   1       1.829  -1.341  -0.426  0.00  0.00     0.150 A 
ATOM      5  C4  UNL d   1       2.056  -0.094   0.146  0.00  0.00    -0.007 A 
ATOM      6  C5  UNL d   1       0.998   0.603   0.728  0.00  0.00     0.039 A 
ENDROOT
BRANCH   4   7
ATOM      7  O   UNL d   1       2.892  -1.983  -0.988  0.00  0.00    -0.526 OA
ATOM      8  H5  UNL d   1       2.580  -2.821  -1.369  0.00  0.00     0.418 HD
ENDBRANCH   4   7
TORSDOF 1
ENDMDL
