MODEL 1
REMARK minimizedAffinity 5.06789112
REMARK minimizedRMSD -1
REMARK  1 active torsions:
REMARK  status: ('A' for Active; 'I' for Inactive)
REMARK    1  A    between atoms: C3_4  and  O_7 
ROOT
ATOM      1  C   UNL d   1       1.004  -1.566  -4.241  0.00  0.00    -0.033 A 
ATOM      2  C1  UNL d   1       2.290  -1.801  -3.751  0.00  0.00     0.039 A 
ATOM      3  C2  UNL d   1       2.641  -1.368  -2.471  0.00  0.00    -0.080 A 
ATOM      4  C3  UNL d   1       1.697  -0.704  -1.692  0.00  0.00     0.150 A 
ATOM      5  C4  UNL d   1       0.413  -0.470  -2.172  0.00  0.00    -0.007 A 
ATOM      6  C5  UNL d   1       0.065  -0.902  -3.451  0.00  0.00     0.039 A 
ENDROOT
BRANCH   4   7
ATOM      7  O   UNL d   1       1.994  -0.259  -0.438  0.00  0.00    -0.526 OA
ATOM      8  H5  UNL d   1       2.925  -0.465  -0.251  0.00  0.00     0.418 HD
ENDBRANCH   4   7
TORSDOF 1
ENDMDL
