MODEL 1
REMARK minimizedAffinity 1.01014245
REMARK minimizedRMSD -1
REMARK  0 active torsions:
REMARK  status: ('A' for Active; 'I' for Inactive)
ROOT
ATOM      1  C1  BNZ d   1       3.390   0.285  -4.002  0.00  0.00     0.000 A 
ATOM      2  C2  BNZ d   1       2.161   0.772  -3.643  0.00  0.00     0.000 A 
ATOM      3  C3  BNZ d   1       1.754   0.752  -2.338  0.00  0.00     0.000 A 
ATOM      4  C4  BNZ d   1       2.558   0.209  -1.401  0.00  0.00     0.000 A 
ATOM      5  C5  BNZ d   1       3.795  -0.295  -1.748  0.00  0.00     0.000 A 
ATOM      6  C6  BNZ d   1       4.218  -0.238  -3.057  0.00  0.00     0.000 A 
ENDROOT
TORSDOF 0
ENDMDL
