MODEL 1
REMARK minimizedAffinity 4.85769176
REMARK minimizedRMSD -1
REMARK  0 active torsions:
REMARK  status: ('A' for Active; 'I' for Inactive)
ROOT
ATOM      1  C1  BNZ d   1      -0.823  -3.815  -5.997  0.00  0.00     0.000 A 
ATOM      2  C2  BNZ d   1       0.494  -4.189  -5.990  0.00  0.00     0.000 A 
ATOM      3  C3  BNZ d   1       0.922  -5.234  -5.220  0.00  0.00     0.000 A 
ATOM      4  C4  BNZ d   1       0.040  -5.877  -4.428  0.00  0.00     0.000 A 
ATOM      5  C5  BNZ d   1      -1.290  -5.507  -4.416  0.00  0.00     0.000 A 
ATOM      6  C6  BNZ d   1      -1.724  -4.479  -5.222  0.00  0.00     0.000 A 
ENDROOT
TORSDOF 0
ENDMDL
