MODEL 1
REMARK minimizedAffinity 4.4952569
REMARK minimizedRMSD -1
REMARK  0 active torsions:
REMARK  status: ('A' for Active; 'I' for Inactive)
ROOT
ATOM      1  C1  BNZ d   1       3.073  -1.246   1.632  0.00  0.00     0.000 A 
ATOM      2  C2  BNZ d   1       3.036  -1.904   0.431  0.00  0.00     0.000 A 
ATOM      3  C3  BNZ d   1       1.851  -2.107  -0.220  0.00  0.00     0.000 A 
ATOM      4  C4  BNZ d   1       0.702  -1.689   0.349  0.00  0.00     0.000 A 
ATOM      5  C5  BNZ d   1       0.722  -1.033   1.564  0.00  0.00     0.000 A 
ATOM      6  C6  BNZ d   1       1.920  -0.796   2.198  0.00  0.00     0.000 A 
ENDROOT
TORSDOF 0
ENDMDL
