MODEL 1
REMARK minimizedAffinity 2.61129045
REMARK minimizedRMSD -1
REMARK  0 active torsions:
REMARK  status: ('A' for Active; 'I' for Inactive)
ROOT
ATOM      1  C1  BNZ d   1       2.244   1.346  -4.202  0.00  0.00     0.000 A 
ATOM      2  C2  BNZ d   1       1.435   0.869  -5.199  0.00  0.00     0.000 A 
ATOM      3  C3  BNZ d   1       0.396   0.027  -4.915  0.00  0.00     0.000 A 
ATOM      4  C4  BNZ d   1       0.192  -0.367  -3.641  0.00  0.00     0.000 A 
ATOM      5  C5  BNZ d   1       1.004   0.098  -2.626  0.00  0.00     0.000 A 
ATOM      6  C6  BNZ d   1       2.025   0.976  -2.911  0.00  0.00     0.000 A 
ENDROOT
TORSDOF 0
ENDMDL
