MODEL 1
REMARK minimizedAffinity 3.87752438
REMARK minimizedRMSD -1
REMARK  0 active torsions:
REMARK  status: ('A' for Active; 'I' for Inactive)
ROOT
ATOM      1  C1  BNZ d   1       2.558   1.085  -3.282  0.00  0.00     0.000 A 
ATOM      2  C2  BNZ d   1       1.888   1.191  -4.472  0.00  0.00     0.000 A 
ATOM      3  C3  BNZ d   1       0.846   0.357  -4.766  0.00  0.00     0.000 A 
ATOM      4  C4  BNZ d   1       0.501  -0.608  -3.888  0.00  0.00     0.000 A 
ATOM      5  C5  BNZ d   1       1.173  -0.734  -2.688  0.00  0.00     0.000 A 
ATOM      6  C6  BNZ d   1       2.196   0.133  -2.379  0.00  0.00     0.000 A 
ENDROOT
TORSDOF 0
ENDMDL
