MODEL 1
REMARK minimizedAffinity 12.7520514
REMARK minimizedRMSD -1
REMARK  1 active torsions:
REMARK  status: ('A' for Active; 'I' for Inactive)
REMARK    1  A    between atoms: C1_2  and  C2_3 
ROOT
ATOM      1  C2  UNL d   1      -0.839  -5.947  -1.293  0.00  0.00    -0.076 A 
ATOM      2  C3  UNL d   1      -0.876  -5.998  -2.697  0.00  0.00     0.004 A 
ATOM      3  C4  UNL d   1       0.299  -5.994  -3.446  0.00  0.00    -0.003 A 
ATOM      4  C5  UNL d   1       1.531  -5.941  -2.803  0.00  0.00     0.000 A 
ATOM      5  C6  UNL d   1       1.587  -5.908  -1.410  0.00  0.00     0.000 A 
ATOM      6  C7  UNL d   1       0.412  -5.927  -0.639  0.00  0.00    -0.073 A 
ATOM      7  C8  UNL d   1       0.531  -5.883   0.859  0.00  0.00     0.078 C 
ENDROOT
BRANCH   1   8
ATOM      8  C1  UNL d   1      -2.147  -5.926  -0.534  0.00  0.00     0.053 C 
ATOM      9  C   UNL d   1      -3.262  -5.248  -1.315  0.00  0.00     0.018 C 
ENDBRANCH   1   8
TORSDOF 1
ENDMDL
