MODEL 1
REMARK minimizedAffinity 6.51968622
REMARK minimizedRMSD -1
REMARK  1 active torsions:
REMARK  status: ('A' for Active; 'I' for Inactive)
REMARK    1  A    between atoms: C1_2  and  C2_3 
ROOT
ATOM      1  C2  UNL d   1       5.690   4.773   3.524  0.00  0.00    -0.076 A 
ATOM      2  C3  UNL d   1       5.382   5.977   2.867  0.00  0.00     0.004 A 
ATOM      3  C4  UNL d   1       5.113   6.000   1.499  0.00  0.00    -0.003 A 
ATOM      4  C5  UNL d   1       5.147   4.818   0.767  0.00  0.00     0.000 A 
ATOM      5  C6  UNL d   1       5.433   3.612   1.406  0.00  0.00     0.000 A 
ATOM      6  C7  UNL d   1       5.690   3.570   2.787  0.00  0.00    -0.073 A 
ATOM      7  C8  UNL d   1       5.999   2.242   3.423  0.00  0.00     0.078 C 
ENDROOT
BRANCH   1   8
ATOM      8  C1  UNL d   1       6.000   4.815   5.003  0.00  0.00     0.053 C 
ATOM      9  C   UNL d   1       4.968   5.605   5.793  0.00  0.00     0.018 C 
ENDBRANCH   1   8
TORSDOF 1
ENDMDL
