MODEL 1
REMARK minimizedAffinity 15.2623405
REMARK minimizedRMSD -1
REMARK  1 active torsions:
REMARK  status: ('A' for Active; 'I' for Inactive)
REMARK    1  A    between atoms: C1_2  and  C2_3 
ROOT
ATOM      1  C2  UNL d   1       4.016   3.274   1.662  0.00  0.00    -0.076 A 
ATOM      2  C3  UNL d   1       3.454   4.408   1.051  0.00  0.00     0.004 A 
ATOM      3  C4  UNL d   1       4.044   5.663   1.188  0.00  0.00    -0.003 A 
ATOM      4  C5  UNL d   1       5.206   5.805   1.938  0.00  0.00     0.000 A 
ATOM      5  C6  UNL d   1       5.788   4.687   2.536  0.00  0.00     0.000 A 
ATOM      6  C7  UNL d   1       5.215   3.412   2.395  0.00  0.00    -0.073 A 
ATOM      7  C8  UNL d   1       5.881   2.242   3.067  0.00  0.00     0.078 C 
ENDROOT
BRANCH   1   8
ATOM      8  C1  UNL d   1       3.317   1.943   1.501  0.00  0.00     0.053 C 
ATOM      9  C   UNL d   1       1.802   2.077   1.495  0.00  0.00     0.018 C 
ENDBRANCH   1   8
TORSDOF 1
ENDMDL
