MODEL 1
REMARK minimizedAffinity 14.3078156
REMARK minimizedRMSD -1
REMARK  1 active torsions:
REMARK  status: ('A' for Active; 'I' for Inactive)
REMARK    1  A    between atoms: C1_2  and  C2_3 
ROOT
ATOM      1  C2  UNL d   1      -0.763   2.362  -5.305  0.00  0.00    -0.076 A 
ATOM      2  C3  UNL d   1      -0.024   1.388  -6.000  0.00  0.00     0.004 A 
ATOM      3  C4  UNL d   1       1.083   0.776  -5.416  0.00  0.00    -0.003 A 
ATOM      4  C5  UNL d   1       1.470   1.127  -4.127  0.00  0.00     0.000 A 
ATOM      5  C6  UNL d   1       0.739   2.079  -3.417  0.00  0.00     0.000 A 
ATOM      6  C7  UNL d   1      -0.390   2.693  -3.985  0.00  0.00    -0.073 A 
ATOM      7  C8  UNL d   1      -1.139   3.717  -3.176  0.00  0.00     0.078 C 
ENDROOT
BRANCH   1   8
ATOM      8  C1  UNL d   1      -1.939   3.011  -6.000  0.00  0.00     0.053 C 
ATOM      9  C   UNL d   1      -3.176   2.127  -6.000  0.00  0.00     0.018 C 
ENDBRANCH   1   8
TORSDOF 1
ENDMDL
