MODEL 1
REMARK minimizedAffinity -0.0985066965
REMARK minimizedRMSD -1
REMARK  1 active torsions:
REMARK  status: ('A' for Active; 'I' for Inactive)
REMARK    1  A    between atoms: C1_2  and  C2_3 
ROOT
ATOM      1  C2  UNL d   1       2.881   4.645   2.850  0.00  0.00    -0.076 A 
ATOM      2  C3  UNL d   1       2.511   3.404   3.396  0.00  0.00     0.004 A 
ATOM      3  C4  UNL d   1       2.536   2.243   2.624  0.00  0.00    -0.003 A 
ATOM      4  C5  UNL d   1       2.933   2.305   1.293  0.00  0.00     0.000 A 
ATOM      5  C6  UNL d   1       3.321   3.525   0.740  0.00  0.00     0.000 A 
ATOM      6  C7  UNL d   1       3.316   4.702   1.509  0.00  0.00    -0.073 A 
ATOM      7  C8  UNL d   1       3.738   5.991   0.859  0.00  0.00     0.078 C 
ENDROOT
BRANCH   1   8
ATOM      8  C1  UNL d   1       2.807   5.874   3.728  0.00  0.00     0.053 C 
ATOM      9  C   UNL d   1       1.512   5.946   4.522  0.00  0.00     0.018 C 
ENDBRANCH   1   8
TORSDOF 1
ENDMDL
