MODEL 1
REMARK minimizedAffinity 4.96101189
REMARK minimizedRMSD -1
REMARK  1 active torsions:
REMARK  status: ('A' for Active; 'I' for Inactive)
REMARK    1  A    between atoms: C1_2  and  C2_3 
ROOT
ATOM      1  C2  UNL d   1      -3.455   3.281  -5.981  0.00  0.00    -0.076 A 
ATOM      2  C3  UNL d   1      -2.614   4.408  -5.984  0.00  0.00     0.004 A 
ATOM      3  C4  UNL d   1      -3.142   5.698  -5.994  0.00  0.00    -0.003 A 
ATOM      4  C5  UNL d   1      -4.520   5.882  -6.000  0.00  0.00     0.000 A 
ATOM      5  C6  UNL d   1      -5.370   4.777  -5.979  0.00  0.00     0.000 A 
ATOM      6  C7  UNL d   1      -4.854   3.470  -5.953  0.00  0.00    -0.073 A 
ATOM      7  C8  UNL d   1      -5.816   2.314  -5.937  0.00  0.00     0.078 C 
ENDROOT
BRANCH   1   8
ATOM      8  C1  UNL d   1      -2.825   1.907  -5.998  0.00  0.00     0.053 C 
ATOM      9  C   UNL d   1      -1.306   1.962  -5.996  0.00  0.00     0.018 C 
ENDBRANCH   1   8
TORSDOF 1
ENDMDL
