MODEL 1
REMARK minimizedAffinity 1.27060914
REMARK minimizedRMSD -1
REMARK  1 active torsions:
REMARK  status: ('A' for Active; 'I' for Inactive)
REMARK    1  A    between atoms: C1_2  and  C2_3 
ROOT
ATOM      1  C2  UNL d   1       3.807   4.191   3.162  0.00  0.00    -0.076 A 
ATOM      2  C3  UNL d   1       2.965   5.294   3.387  0.00  0.00     0.004 A 
ATOM      3  C4  UNL d   1       3.013   5.999   4.589  0.00  0.00    -0.003 A 
ATOM      4  C5  UNL d   1       3.904   5.612   5.584  0.00  0.00     0.000 A 
ATOM      5  C6  UNL d   1       4.759   4.531   5.370  0.00  0.00     0.000 A 
ATOM      6  C7  UNL d   1       4.734   3.820   4.158  0.00  0.00    -0.073 A 
ATOM      7  C8  UNL d   1       5.674   2.658   3.984  0.00  0.00     0.078 C 
ENDROOT
BRANCH   1   8
ATOM      8  C1  UNL d   1       3.691   3.448   1.850  0.00  0.00     0.053 C 
ATOM      9  C   UNL d   1       3.772   4.374   0.646  0.00  0.00     0.018 C 
ENDBRANCH   1   8
TORSDOF 1
ENDMDL
