MODEL 1
REMARK minimizedAffinity -1.01694167
REMARK minimizedRMSD -1
REMARK  1 active torsions:
REMARK  status: ('A' for Active; 'I' for Inactive)
REMARK    1  A    between atoms: C1_2  and  C2_3 
ROOT
ATOM      1  C2  UNL d   1      -2.784   4.607  -5.866  0.00  0.00    -0.076 A 
ATOM      2  C3  UNL d   1      -3.630   3.487  -5.788  0.00  0.00     0.004 A 
ATOM      3  C4  UNL d   1      -3.107   2.198  -5.704  0.00  0.00    -0.003 A 
ATOM      4  C5  UNL d   1      -1.729   2.008  -5.695  0.00  0.00     0.000 A 
ATOM      5  C6  UNL d   1      -0.875   3.109  -5.753  0.00  0.00     0.000 A 
ATOM      6  C7  UNL d   1      -1.387   4.416  -5.822  0.00  0.00    -0.073 A 
ATOM      7  C8  UNL d   1      -0.420   5.567  -5.889  0.00  0.00     0.078 C 
ENDROOT
BRANCH   1   8
ATOM      8  C1  UNL d   1      -3.409   5.979  -5.983  0.00  0.00     0.053 C 
ATOM      9  C   UNL d   1      -4.929   5.928  -6.000  0.00  0.00     0.018 C 
ENDBRANCH   1   8
TORSDOF 1
ENDMDL
