MODEL 1
REMARK minimizedAffinity 1.61462748
REMARK minimizedRMSD -1
REMARK  1 active torsions:
REMARK  status: ('A' for Active; 'I' for Inactive)
REMARK    1  A    between atoms: C1_2  and  C2_3 
ROOT
ATOM      1  C2  UNL d   1      -2.328   5.072  -5.982  0.00  0.00    -0.076 A 
ATOM      2  C3  UNL d   1      -3.533   5.797  -5.990  0.00  0.00     0.004 A 
ATOM      3  C4  UNL d   1      -4.763   5.142  -5.999  0.00  0.00    -0.003 A 
ATOM      4  C5  UNL d   1      -4.809   3.752  -6.000  0.00  0.00     0.000 A 
ATOM      5  C6  UNL d   1      -3.624   3.018  -5.974  0.00  0.00     0.000 A 
ATOM      6  C7  UNL d   1      -2.376   3.662  -5.948  0.00  0.00    -0.073 A 
ATOM      7  C8  UNL d   1      -1.129   2.821  -5.927  0.00  0.00     0.078 C 
ENDROOT
BRANCH   1   8
ATOM      8  C1  UNL d   1      -1.024   5.837  -6.000  0.00  0.00     0.053 C 
ATOM      9  C   UNL d   1       0.189   4.919  -5.972  0.00  0.00     0.018 C 
ENDBRANCH   1   8
TORSDOF 1
ENDMDL
