MODEL 1
REMARK minimizedAffinity 0.230540961
REMARK minimizedRMSD -1
REMARK  1 active torsions:
REMARK  status: ('A' for Active; 'I' for Inactive)
REMARK    1  A    between atoms: C1_2  and  C2_3 
ROOT
ATOM      1  C2  UNL d   1       1.153   2.248  -0.897  0.00  0.00    -0.076 A 
ATOM      2  C3  UNL d   1       1.226   1.829  -2.237  0.00  0.00     0.004 A 
ATOM      3  C4  UNL d   1       2.286   1.043  -2.686  0.00  0.00    -0.003 A 
ATOM      4  C5  UNL d   1       3.290   0.663  -1.803  0.00  0.00     0.000 A 
ATOM      5  C6  UNL d   1       3.225   1.055  -0.466  0.00  0.00     0.000 A 
ATOM      6  C7  UNL d   1       2.155   1.833   0.007  0.00  0.00    -0.073 A 
ATOM      7  C8  UNL d   1       2.138   2.232   1.457  0.00  0.00     0.078 C 
ENDROOT
BRANCH   1   8
ATOM      8  C1  UNL d   1      -0.006   3.122  -0.473  0.00  0.00     0.053 C 
ATOM      9  C   UNL d   1      -0.357   4.171  -1.517  0.00  0.00     0.018 C 
ENDBRANCH   1   8
TORSDOF 1
ENDMDL
