MODEL 1
REMARK minimizedAffinity -3.08487225
REMARK minimizedRMSD -1
REMARK  1 active torsions:
REMARK  status: ('A' for Active; 'I' for Inactive)
REMARK    1  A    between atoms: C1_2  and  C2_3 
ROOT
ATOM      1  C2  UNL d   1      -0.143   2.261  -5.627  0.00  0.00    -0.076 A 
ATOM      2  C3  UNL d   1      -1.519   1.971  -5.604  0.00  0.00     0.004 A 
ATOM      3  C4  UNL d   1      -2.467   2.979  -5.767  0.00  0.00    -0.003 A 
ATOM      4  C5  UNL d   1      -2.055   4.294  -5.957  0.00  0.00     0.000 A 
ATOM      5  C6  UNL d   1      -0.695   4.597  -6.000  0.00  0.00     0.000 A 
ATOM      6  C7  UNL d   1       0.274   3.590  -5.853  0.00  0.00    -0.073 A 
ATOM      7  C8  UNL d   1       1.728   3.974  -5.902  0.00  0.00     0.078 C 
ENDROOT
BRANCH   1   8
ATOM      8  C1  UNL d   1       0.838   1.130  -5.417  0.00  0.00     0.053 C 
ATOM      9  C   UNL d   1       1.167   0.909  -3.948  0.00  0.00     0.018 C 
ENDBRANCH   1   8
TORSDOF 1
ENDMDL
