MODEL 1
REMARK minimizedAffinity 5.08988333
REMARK minimizedRMSD -1
REMARK  1 active torsions:
REMARK  status: ('A' for Active; 'I' for Inactive)
REMARK    1  A    between atoms: C1_2  and  C2_3 
ROOT
ATOM      1  C2  UNL d   1      -0.362   3.317  -5.956  0.00  0.00    -0.076 A 
ATOM      2  C3  UNL d   1      -0.832   4.641  -5.998  0.00  0.00     0.004 A 
ATOM      3  C4  UNL d   1       0.054   5.717  -5.993  0.00  0.00    -0.003 A 
ATOM      4  C5  UNL d   1       1.424   5.487  -5.946  0.00  0.00     0.000 A 
ATOM      5  C6  UNL d   1       1.909   4.179  -5.921  0.00  0.00     0.000 A 
ATOM      6  C7  UNL d   1       1.030   3.083  -5.942  0.00  0.00    -0.073 A 
ATOM      7  C8  UNL d   1       1.607   1.694  -5.908  0.00  0.00     0.078 C 
ENDROOT
BRANCH   1   8
ATOM      8  C1  UNL d   1      -1.370   2.190  -5.936  0.00  0.00     0.053 C 
ATOM      9  C   UNL d   1      -2.805   2.693  -5.897  0.00  0.00     0.018 C 
ENDBRANCH   1   8
TORSDOF 1
ENDMDL
