MODEL 1
REMARK minimizedAffinity 4.17793846
REMARK minimizedRMSD -1
REMARK  0 active torsions:
REMARK  status: ('A' for Active; 'I' for Inactive)
ROOT
ATOM      1  C4' PXY d   1      -2.429   1.523  -4.783  0.00  0.00     0.077 C 
ATOM      2  C1' PXY d   1      -5.101  -0.821  -0.225  0.00  0.00     0.077 C 
ATOM      3  C1  PXY d   1      -4.390  -0.203  -1.413  0.00  0.00    -0.082 A 
ATOM      4  C2  PXY d   1      -5.098   0.263  -2.429  0.00  0.00     0.003 A 
ATOM      5  C3  PXY d   1      -4.470   0.795  -3.526  0.00  0.00     0.003 A 
ATOM      6  C4  PXY d   1      -3.105   0.900  -3.559  0.00  0.00    -0.082 A 
ATOM      7  C5  PXY d   1      -2.376   0.437  -2.522  0.00  0.00     0.003 A 
ATOM      8  C6  PXY d   1      -3.031  -0.138  -1.436  0.00  0.00     0.003 A 
ENDROOT
TORSDOF 0
ENDMDL
