MODEL 1
REMARK minimizedAffinity 3.4382596
REMARK minimizedRMSD -1
REMARK  0 active torsions:
REMARK  status: ('A' for Active; 'I' for Inactive)
ROOT
ATOM      1  C4' PXY d   1       4.942  -0.488  -0.433  0.00  0.00     0.077 C 
ATOM      2  C1' PXY d   1       0.268  -3.887  -0.535  0.00  0.00     0.077 C 
ATOM      3  C1  PXY d   1       1.498  -3.001  -0.519  0.00  0.00    -0.082 A 
ATOM      4  C2  PXY d   1       1.926  -2.497   0.626  0.00  0.00     0.003 A 
ATOM      5  C3  PXY d   1       3.018  -1.668   0.654  0.00  0.00     0.003 A 
ATOM      6  C4  PXY d   1       3.710  -1.395  -0.495  0.00  0.00    -0.082 A 
ATOM      7  C5  PXY d   1       3.286  -1.915  -1.667  0.00  0.00     0.003 A 
ATOM      8  C6  PXY d   1       2.151  -2.721  -1.679  0.00  0.00     0.003 A 
ENDROOT
TORSDOF 0
ENDMDL
