MODEL 1
REMARK minimizedAffinity 11.1444292
REMARK minimizedRMSD -1
REMARK  0 active torsions:
REMARK  status: ('A' for Active; 'I' for Inactive)
ROOT
ATOM      1  C4' PXY d   1      -5.981   2.764  -1.401  0.00  0.00     0.077 C 
ATOM      2  C1' PXY d   1      -1.259  -0.112  -3.088  0.00  0.00     0.077 C 
ATOM      3  C1  PXY d   1      -2.504   0.630  -2.643  0.00  0.00    -0.082 A 
ATOM      4  C2  PXY d   1      -2.733   1.852  -3.097  0.00  0.00     0.003 A 
ATOM      5  C3  PXY d   1      -3.837   2.551  -2.680  0.00  0.00     0.003 A 
ATOM      6  C4  PXY d   1      -4.743   1.972  -1.831  0.00  0.00    -0.082 A 
ATOM      7  C5  PXY d   1      -4.521   0.722  -1.372  0.00  0.00     0.003 A 
ATOM      8  C6  PXY d   1      -3.374   0.046  -1.775  0.00  0.00     0.003 A 
ENDROOT
TORSDOF 0
ENDMDL
