MODEL 1
REMARK minimizedAffinity 2.46392393
REMARK minimizedRMSD -1
REMARK  0 active torsions:
REMARK  status: ('A' for Active; 'I' for Inactive)
ROOT
ATOM      1  C4' PXY d   1      -1.832   1.530  -0.706  0.00  0.00     0.077 C 
ATOM      2  C1' PXY d   1       1.583   1.456   3.957  0.00  0.00     0.077 C 
ATOM      3  C1  PXY d   1       0.697   1.480   2.727  0.00  0.00    -0.082 A 
ATOM      4  C2  PXY d   1      -0.615   1.578   2.868  0.00  0.00     0.003 A 
ATOM      5  C3  PXY d   1      -1.432   1.569   1.767  0.00  0.00     0.003 A 
ATOM      6  C4  PXY d   1      -0.899   1.512   0.508  0.00  0.00    -0.082 A 
ATOM      7  C5  PXY d   1       0.440   1.422   0.356  0.00  0.00     0.003 A 
ATOM      8  C6  PXY d   1       1.250   1.392   1.487  0.00  0.00     0.003 A 
ENDROOT
TORSDOF 0
ENDMDL
