MODEL 1
REMARK minimizedAffinity 3.29238939
REMARK minimizedRMSD -1
REMARK  0 active torsions:
REMARK  status: ('A' for Active; 'I' for Inactive)
ROOT
ATOM      1  C4' PXY d   1       0.407   1.020   0.652  0.00  0.00     0.077 C 
ATOM      2  C1' PXY d   1       5.999   1.161  -0.802  0.00  0.00     0.077 C 
ATOM      3  C1  PXY d   1       4.531   1.114  -0.429  0.00  0.00    -0.082 A 
ATOM      4  C2  PXY d   1       3.931   2.209   0.008  0.00  0.00     0.003 A 
ATOM      5  C3  PXY d   1       2.612   2.177   0.380  0.00  0.00     0.003 A 
ATOM      6  C4  PXY d   1       1.885   1.023   0.255  0.00  0.00    -0.082 A 
ATOM      7  C5  PXY d   1       2.487  -0.096  -0.200  0.00  0.00     0.003 A 
ATOM      8  C6  PXY d   1       3.837  -0.052  -0.534  0.00  0.00     0.003 A 
ENDROOT
TORSDOF 0
ENDMDL
