MODEL 1
REMARK minimizedAffinity 3.18008018
REMARK minimizedRMSD -1
REMARK  0 active torsions:
REMARK  status: ('A' for Active; 'I' for Inactive)
ROOT
ATOM      1  C4' PXY d   1      -1.304   0.954  -0.933  0.00  0.00     0.077 C 
ATOM      2  C1' PXY d   1       1.751   0.700   3.968  0.00  0.00     0.077 C 
ATOM      3  C1  PXY d   1       0.960   0.772   2.677  0.00  0.00    -0.082 A 
ATOM      4  C2  PXY d   1      -0.362   0.783   2.720  0.00  0.00     0.003 A 
ATOM      5  C3  PXY d   1      -1.093   0.816   1.560  0.00  0.00     0.003 A 
ATOM      6  C4  PXY d   1      -0.464   0.891   0.346  0.00  0.00    -0.082 A 
ATOM      7  C5  PXY d   1       0.884   0.891   0.295  0.00  0.00     0.003 A 
ATOM      8  C6  PXY d   1       1.608   0.816   1.481  0.00  0.00     0.003 A 
ENDROOT
TORSDOF 0
ENDMDL
