MODEL 1
REMARK minimizedAffinity -3.0200913
REMARK minimizedRMSD -1
REMARK  1 active torsions:
REMARK  status: ('A' for Active; 'I' for Inactive)
REMARK    1  A    between atoms: N_2  and  C1_3 
ROOT
ATOM      1  C1  UNL d   1       0.462   1.375   0.180  0.00  0.00     0.143 A 
ATOM      2  C2  UNL d   1       1.758   1.177   0.667  0.00  0.00    -0.057 A 
ATOM      3  C3  UNL d   1       2.536   2.250   1.118  0.00  0.00     0.033 A 
ATOM      4  C4  UNL d   1       2.040   3.549   1.063  0.00  0.00    -0.042 A 
ATOM      5  C5  UNL d   1       0.764   3.772   0.559  0.00  0.00     0.033 A 
ATOM      6  C6  UNL d   1      -0.011   2.695   0.116  0.00  0.00    -0.057 A 
ENDROOT
BRANCH   1   7
ATOM      7  N   UNL d   1      -0.324   0.362  -0.374  0.00  0.00    -0.732 N 
ATOM      8  C   UNL d   1      -0.601  -0.847   0.372  0.00  0.00     0.284 C 
ATOM      9  H3  UNL d   1      -1.124   0.727  -0.887  0.00  0.00     0.395 HD
ENDBRANCH   1   7
TORSDOF 1
ENDMDL
