MODEL 1
REMARK minimizedAffinity -4.0097847
REMARK minimizedRMSD -1
REMARK  1 active torsions:
REMARK  status: ('A' for Active; 'I' for Inactive)
REMARK    1  A    between atoms: N_2  and  C1_3 
ROOT
ATOM      1  C1  UNL d   1       0.357   0.641  -0.331  0.00  0.00     0.143 A 
ATOM      2  C2  UNL d   1       0.940  -0.150  -1.327  0.00  0.00    -0.057 A 
ATOM      3  C3  UNL d   1       0.815  -1.544  -1.312  0.00  0.00     0.033 A 
ATOM      4  C4  UNL d   1       0.127  -2.176  -0.281  0.00  0.00    -0.042 A 
ATOM      5  C5  UNL d   1      -0.439  -1.412   0.733  0.00  0.00     0.033 A 
ATOM      6  C6  UNL d   1      -0.317  -0.019   0.709  0.00  0.00    -0.057 A 
ENDROOT
BRANCH   1   7
ATOM      7  N   UNL d   1       0.529   2.024  -0.236  0.00  0.00    -0.732 N 
ATOM      8  C   UNL d   1       1.790   2.582   0.203  0.00  0.00     0.284 C 
ATOM      9  H3  UNL d   1       0.102   2.523  -1.014  0.00  0.00     0.395 HD
ENDBRANCH   1   7
TORSDOF 1
ENDMDL
