MODEL 1
REMARK minimizedAffinity -2.72819066
REMARK minimizedRMSD -1
REMARK  1 active torsions:
REMARK  status: ('A' for Active; 'I' for Inactive)
REMARK    1  A    between atoms: N_2  and  C1_3 
ROOT
ATOM      1  C1  UNL d   1      -0.060   0.571   0.074  0.00  0.00     0.143 A 
ATOM      2  C2  UNL d   1      -0.742  -0.134   1.071  0.00  0.00    -0.057 A 
ATOM      3  C3  UNL d   1      -0.883  -1.526   1.010  0.00  0.00     0.033 A 
ATOM      4  C4  UNL d   1      -0.366  -2.236  -0.069  0.00  0.00    -0.042 A 
ATOM      5  C5  UNL d   1       0.294  -1.554  -1.084  0.00  0.00     0.033 A 
ATOM      6  C6  UNL d   1       0.436  -0.164  -1.014  0.00  0.00    -0.057 A 
ENDROOT
BRANCH   1   7
ATOM      7  N   UNL d   1       0.027   1.964   0.028  0.00  0.00    -0.732 N 
ATOM      8  C   UNL d   1       1.216   2.644   0.494  0.00  0.00     0.284 C 
ATOM      9  H3  UNL d   1      -0.363   2.350  -0.829  0.00  0.00     0.395 HD
ENDBRANCH   1   7
TORSDOF 1
ENDMDL
