MODEL 1
REMARK minimizedAffinity -2.54818726
REMARK minimizedRMSD -1
REMARK  1 active torsions:
REMARK  status: ('A' for Active; 'I' for Inactive)
REMARK    1  A    between atoms: N_2  and  C1_3 
ROOT
ATOM      1  C1  UNL d   1       0.076  -0.270  -0.754  0.00  0.00     0.143 A 
ATOM      2  C2  UNL d   1      -0.421  -0.529   0.528  0.00  0.00    -0.057 A 
ATOM      3  C3  UNL d   1      -0.884  -1.801   0.885  0.00  0.00     0.033 A 
ATOM      4  C4  UNL d   1      -0.884  -2.834  -0.047  0.00  0.00    -0.042 A 
ATOM      5  C5  UNL d   1      -0.418  -2.594  -1.334  0.00  0.00     0.033 A 
ATOM      6  C6  UNL d   1       0.049  -1.322  -1.682  0.00  0.00    -0.057 A 
ENDROOT
BRANCH   1   7
ATOM      7  N   UNL d   1       0.458   0.998  -1.199  0.00  0.00    -0.732 N 
ATOM      8  C   UNL d   1       0.661   2.079  -0.258  0.00  0.00     0.284 C 
ATOM      9  H3  UNL d   1       1.153   0.956  -1.941  0.00  0.00     0.395 HD
ENDBRANCH   1   7
TORSDOF 1
ENDMDL
