MODEL 1
REMARK minimizedAffinity -0.459463745
REMARK minimizedRMSD -1
REMARK  1 active torsions:
REMARK  status: ('A' for Active; 'I' for Inactive)
REMARK    1  A    between atoms: N_2  and  C1_3 
ROOT
ATOM      1  C1  UNL d   1       0.017   0.747  -0.264  0.00  0.00     0.143 A 
ATOM      2  C2  UNL d   1      -0.553  -0.021   0.758  0.00  0.00    -0.057 A 
ATOM      3  C3  UNL d   1      -0.860  -1.373   0.564  0.00  0.00     0.033 A 
ATOM      4  C4  UNL d   1      -0.630  -1.976  -0.668  0.00  0.00    -0.042 A 
ATOM      5  C5  UNL d   1      -0.087  -1.225  -1.706  0.00  0.00     0.033 A 
ATOM      6  C6  UNL d   1       0.224   0.123  -1.504  0.00  0.00    -0.057 A 
ENDROOT
BRANCH   1   7
ATOM      7  N   UNL d   1       0.254   2.120  -0.164  0.00  0.00    -0.732 N 
ATOM      8  C   UNL d   1       1.538   2.616   0.283  0.00  0.00     0.284 C 
ATOM      9  H3  UNL d   1      -0.145   2.640  -0.942  0.00  0.00     0.395 HD
ENDBRANCH   1   7
TORSDOF 1
ENDMDL
