MODEL 1
REMARK minimizedAffinity -2.70053077
REMARK minimizedRMSD -1
REMARK  1 active torsions:
REMARK  status: ('A' for Active; 'I' for Inactive)
REMARK    1  A    between atoms: N_2  and  C1_3 
ROOT
ATOM      1  C1  UNL d   1      -0.269   0.340  -0.025  0.00  0.00     0.143 A 
ATOM      2  C2  UNL d   1      -0.779  -0.444   1.015  0.00  0.00    -0.057 A 
ATOM      3  C3  UNL d   1      -0.807  -1.841   0.924  0.00  0.00     0.033 A 
ATOM      4  C4  UNL d   1      -0.350  -2.479  -0.224  0.00  0.00    -0.042 A 
ATOM      5  C5  UNL d   1       0.138  -1.718  -1.281  0.00  0.00     0.033 A 
ATOM      6  C6  UNL d   1       0.170  -0.324  -1.181  0.00  0.00    -0.057 A 
ENDROOT
BRANCH   1   7
ATOM      7  N   UNL d   1      -0.305   1.737  -0.036  0.00  0.00    -0.732 N 
ATOM      8  C   UNL d   1       0.824   2.507   0.439  0.00  0.00     0.284 C 
ATOM      9  H3  UNL d   1      -0.736   2.108  -0.880  0.00  0.00     0.395 HD
ENDBRANCH   1   7
TORSDOF 1
ENDMDL
