MODEL 1
REMARK minimizedAffinity -2.64716649
REMARK minimizedRMSD -1
REMARK  1 active torsions:
REMARK  status: ('A' for Active; 'I' for Inactive)
REMARK    1  A    between atoms: N_2  and  C1_3 
ROOT
ATOM      1  C1  UNL d   1       0.152   0.711   0.589  0.00  0.00     0.143 A 
ATOM      2  C2  UNL d   1       0.339  -0.195  -0.461  0.00  0.00    -0.057 A 
ATOM      3  C3  UNL d   1      -0.138  -1.509  -0.381  0.00  0.00     0.033 A 
ATOM      4  C4  UNL d   1      -0.788  -1.950   0.767  0.00  0.00    -0.042 A 
ATOM      5  C5  UNL d   1      -0.964  -1.075   1.833  0.00  0.00     0.033 A 
ATOM      6  C6  UNL d   1      -0.491   0.238   1.744  0.00  0.00    -0.057 A 
ENDROOT
BRANCH   1   7
ATOM      7  N   UNL d   1       0.689   2.000   0.609  0.00  0.00    -0.732 N 
ATOM      8  C   UNL d   1       2.102   2.214   0.381  0.00  0.00     0.284 C 
ATOM      9  H3  UNL d   1       0.086   2.679   0.150  0.00  0.00     0.395 HD
ENDBRANCH   1   7
TORSDOF 1
ENDMDL
