MODEL 1
REMARK minimizedAffinity 0.412588298
REMARK minimizedRMSD -1
REMARK  1 active torsions:
REMARK  status: ('A' for Active; 'I' for Inactive)
REMARK    1  A    between atoms: N_2  and  C1_3 
ROOT
ATOM      1  C1  UNL d   1      -0.429  -1.087   0.475  0.00  0.00     0.143 A 
ATOM      2  C2  UNL d   1       0.141  -0.693  -0.740  0.00  0.00    -0.057 A 
ATOM      3  C3  UNL d   1       0.413   0.653  -1.012  0.00  0.00     0.033 A 
ATOM      4  C4  UNL d   1       0.091   1.636  -0.082  0.00  0.00    -0.042 A 
ATOM      5  C5  UNL d   1      -0.500   1.270   1.123  0.00  0.00     0.033 A 
ATOM      6  C6  UNL d   1      -0.762  -0.077   1.391  0.00  0.00    -0.057 A 
ENDROOT
BRANCH   1   7
ATOM      7  N   UNL d   1      -0.813  -2.398   0.766  0.00  0.00    -0.732 N 
ATOM      8  C   UNL d   1      -0.828  -3.409  -0.271  0.00  0.00     0.284 C 
ATOM      9  H3  UNL d   1      -0.445  -2.723   1.657  0.00  0.00     0.395 HD
ENDBRANCH   1   7
TORSDOF 1
ENDMDL
