MODEL 1
REMARK minimizedAffinity -0.570619464
REMARK minimizedRMSD -1
REMARK  1 active torsions:
REMARK  status: ('A' for Active; 'I' for Inactive)
REMARK    1  A    between atoms: N_2  and  C1_3 
ROOT
ATOM      1  C1  UNL d   1      -0.527  -1.252   0.447  0.00  0.00     0.143 A 
ATOM      2  C2  UNL d   1       0.145  -0.957  -0.744  0.00  0.00    -0.057 A 
ATOM      3  C3  UNL d   1       0.492   0.359  -1.074  0.00  0.00     0.033 A 
ATOM      4  C4  UNL d   1       0.145   1.409  -0.230  0.00  0.00    -0.042 A 
ATOM      5  C5  UNL d   1      -0.546   1.141   0.947  0.00  0.00     0.033 A 
ATOM      6  C6  UNL d   1      -0.883  -0.176   1.274  0.00  0.00    -0.057 A 
ENDROOT
BRANCH   1   7
ATOM      7  N   UNL d   1      -0.987  -2.528   0.785  0.00  0.00    -0.732 N 
ATOM      8  C   UNL d   1      -2.396  -2.849   0.707  0.00  0.00     0.284 C 
ATOM      9  H3  UNL d   1      -0.373  -3.264   0.443  0.00  0.00     0.395 HD
ENDBRANCH   1   7
TORSDOF 1
ENDMDL
