MODEL 1
REMARK minimizedAffinity -4.14046431
REMARK minimizedRMSD -1
REMARK  1 active torsions:
REMARK  status: ('A' for Active; 'I' for Inactive)
REMARK    1  A    between atoms: N_2  and  C1_3 
ROOT
ATOM      1  C1  UNL d   1       0.153   0.299  -0.415  0.00  0.00     0.143 A 
ATOM      2  C2  UNL d   1      -0.428  -0.252   0.733  0.00  0.00    -0.057 A 
ATOM      3  C3  UNL d   1      -0.716  -1.620   0.816  0.00  0.00     0.033 A 
ATOM      4  C4  UNL d   1      -0.453  -2.458  -0.262  0.00  0.00    -0.042 A 
ATOM      5  C5  UNL d   1       0.101  -1.929  -1.422  0.00  0.00     0.033 A 
ATOM      6  C6  UNL d   1       0.392  -0.563  -1.496  0.00  0.00    -0.057 A 
ENDROOT
BRANCH   1   7
ATOM      7  N   UNL d   1       0.372   1.667  -0.595  0.00  0.00    -0.732 N 
ATOM      8  C   UNL d   1       1.612   2.278  -0.168  0.00  0.00     0.284 C 
ATOM      9  H3  UNL d   1       0.034   1.998  -1.496  0.00  0.00     0.395 HD
ENDBRANCH   1   7
TORSDOF 1
ENDMDL
