MODEL 1
REMARK minimizedAffinity -3.98928261
REMARK minimizedRMSD -1
REMARK  1 active torsions:
REMARK  status: ('A' for Active; 'I' for Inactive)
REMARK    1  A    between atoms: N_2  and  C1_3 
ROOT
ATOM      1  C1  UNL d   1       0.416  -1.176  -2.185  0.00  0.00     0.143 A 
ATOM      2  C2  UNL d   1       0.423   0.193  -1.895  0.00  0.00    -0.057 A 
ATOM      3  C3  UNL d   1       0.006   0.672  -0.648  0.00  0.00     0.033 A 
ATOM      4  C4  UNL d   1      -0.455  -0.209   0.325  0.00  0.00    -0.042 A 
ATOM      5  C5  UNL d   1      -0.494  -1.571   0.050  0.00  0.00     0.033 A 
ATOM      6  C6  UNL d   1      -0.070  -2.045  -1.196  0.00  0.00    -0.057 A 
ENDROOT
BRANCH   1   7
ATOM      7  N   UNL d   1       0.725  -1.707  -3.440  0.00  0.00    -0.732 N 
ATOM      8  C   UNL d   1       1.822  -2.637  -3.597  0.00  0.00     0.284 C 
ATOM      9  H3  UNL d   1      -0.106  -1.950  -3.974  0.00  0.00     0.395 HD
ENDBRANCH   1   7
TORSDOF 1
ENDMDL
