MODEL 1
REMARK minimizedAffinity -4.25401115
REMARK minimizedRMSD -1
REMARK  1 active torsions:
REMARK  status: ('A' for Active; 'I' for Inactive)
REMARK    1  A    between atoms: N_2  and  C1_3 
ROOT
ATOM      1  C1  UNL d   1       0.223  -1.384  -0.063  0.00  0.00     0.143 A 
ATOM      2  C2  UNL d   1      -0.009  -2.541   0.687  0.00  0.00    -0.057 A 
ATOM      3  C3  UNL d   1      -0.358  -3.749   0.070  0.00  0.00     0.033 A 
ATOM      4  C4  UNL d   1      -0.510  -3.812  -1.311  0.00  0.00    -0.042 A 
ATOM      5  C5  UNL d   1      -0.308  -2.668  -2.075  0.00  0.00     0.033 A 
ATOM      6  C6  UNL d   1       0.047  -1.467  -1.453  0.00  0.00    -0.057 A 
ENDROOT
BRANCH   1   7
ATOM      7  N   UNL d   1       0.477  -0.130   0.499  0.00  0.00    -0.732 N 
ATOM      8  C   UNL d   1       0.081   1.080  -0.188  0.00  0.00     0.284 C 
ATOM      9  H3  UNL d   1       0.306  -0.113   1.502  0.00  0.00     0.395 HD
ENDBRANCH   1   7
TORSDOF 1
ENDMDL
