MODEL 1
REMARK minimizedAffinity 3.08440948
REMARK minimizedRMSD -1
REMARK  0 active torsions:
REMARK  status: ('A' for Active; 'I' for Inactive)
ROOT
ATOM      1  C1  DEN d   1      -0.765  -0.705   0.349  0.00  0.00     0.130 A 
ATOM      2  C2  DEN d   1      -0.538  -1.887   1.177  0.00  0.00    -0.031 A 
ATOM      3  C3  DEN d   1       0.756  -1.718   1.868  0.00  0.00     0.027 A 
ATOM      4  C4  DEN d   1       2.419   0.249   1.742  0.00  0.00     0.027 A 
ATOM      5  C5  DEN d   1       2.667   1.474   1.163  0.00  0.00    -0.003 A 
ATOM      6  C6  DEN d   1       1.812   2.039   0.255  0.00  0.00     0.001 A 
ATOM      7  C7  DEN d   1       0.645   1.398  -0.068  0.00  0.00     0.017 A 
ATOM      8  C8  DEN d   1       0.392   0.159   0.505  0.00  0.00    -0.094 A 
ATOM      9  C9  DEN d   1       1.263  -0.390   1.430  0.00  0.00    -0.072 A 
ENDROOT
TORSDOF 0
ENDMDL
