MODEL 1
REMARK minimizedAffinity 1.76096976
REMARK minimizedRMSD -1
REMARK  0 active torsions:
REMARK  status: ('A' for Active; 'I' for Inactive)
ROOT
ATOM      1  C1  DEN d   1       2.771   2.802  -0.912  0.00  0.00     0.130 A 
ATOM      2  C2  DEN d   1       1.793   3.647  -0.231  0.00  0.00    -0.031 A 
ATOM      3  C3  DEN d   1       1.478   3.024   1.070  0.00  0.00     0.027 A 
ATOM      4  C4  DEN d   1       2.408   0.846   2.094  0.00  0.00     0.027 A 
ATOM      5  C5  DEN d   1       3.253  -0.220   1.885  0.00  0.00    -0.003 A 
ATOM      6  C6  DEN d   1       3.966  -0.371   0.725  0.00  0.00     0.001 A 
ATOM      7  C7  DEN d   1       3.881   0.584  -0.253  0.00  0.00     0.017 A 
ATOM      8  C8  DEN d   1       3.024   1.659  -0.053  0.00  0.00    -0.094 A 
ATOM      9  C9  DEN d   1       2.321   1.800   1.131  0.00  0.00    -0.072 A 
ENDROOT
TORSDOF 0
ENDMDL
