MODEL 1
REMARK minimizedAffinity 3.12366748
REMARK minimizedRMSD -1
REMARK  0 active torsions:
REMARK  status: ('A' for Active; 'I' for Inactive)
ROOT
ATOM      1  C1  DEN d   1      -1.399  -1.329   0.943  0.00  0.00     0.130 A 
ATOM      2  C2  DEN d   1      -0.087  -1.704   1.461  0.00  0.00    -0.031 A 
ATOM      3  C3  DEN d   1       0.711  -2.238   0.340  0.00  0.00     0.027 A 
ATOM      4  C4  DEN d   1       0.048  -2.515  -2.137  0.00  0.00     0.027 A 
ATOM      5  C5  DEN d   1      -0.967  -2.346  -3.053  0.00  0.00    -0.003 A 
ATOM      6  C6  DEN d   1      -2.199  -1.862  -2.697  0.00  0.00     0.001 A 
ATOM      7  C7  DEN d   1      -2.432  -1.488  -1.400  0.00  0.00     0.017 A 
ATOM      8  C8  DEN d   1      -1.416  -1.662  -0.470  0.00  0.00    -0.094 A 
ATOM      9  C9  DEN d   1      -0.174  -2.141  -0.852  0.00  0.00    -0.072 A 
ENDROOT
TORSDOF 0
ENDMDL
