MODEL 1
REMARK minimizedAffinity 2.74090791
REMARK minimizedRMSD -1
REMARK  0 active torsions:
REMARK  status: ('A' for Active; 'I' for Inactive)
ROOT
ATOM      1  C1  DEN d   1       1.093  -2.122  -1.422  0.00  0.00     0.130 A 
ATOM      2  C2  DEN d   1       2.082  -3.168  -1.176  0.00  0.00    -0.031 A 
ATOM      3  C3  DEN d   1       1.371  -4.460  -1.100  0.00  0.00     0.027 A 
ATOM      4  C4  DEN d   1      -1.151  -4.941  -1.345  0.00  0.00     0.027 A 
ATOM      5  C5  DEN d   1      -2.388  -4.370  -1.551  0.00  0.00    -0.003 A 
ATOM      6  C6  DEN d   1      -2.554  -3.018  -1.693  0.00  0.00     0.001 A 
ATOM      7  C7  DEN d   1      -1.459  -2.194  -1.677  0.00  0.00     0.017 A 
ATOM      8  C8  DEN d   1      -0.210  -2.761  -1.462  0.00  0.00    -0.094 A 
ATOM      9  C9  DEN d   1      -0.062  -4.132  -1.333  0.00  0.00    -0.072 A 
ENDROOT
TORSDOF 0
ENDMDL
