MODEL 1
REMARK minimizedAffinity 0.207125425
REMARK minimizedRMSD -1
REMARK  0 active torsions:
REMARK  status: ('A' for Active; 'I' for Inactive)
ROOT
ATOM      1  C1  DEN d   1       2.699   1.524   0.349  0.00  0.00     0.130 A 
ATOM      2  C2  DEN d   1       2.084   0.346   0.955  0.00  0.00    -0.031 A 
ATOM      3  C3  DEN d   1       0.632   0.595   1.064  0.00  0.00     0.027 A 
ATOM      4  C4  DEN d   1      -0.715   2.676   0.353  0.00  0.00     0.027 A 
ATOM      5  C5  DEN d   1      -0.628   3.936  -0.197  0.00  0.00    -0.003 A 
ATOM      6  C6  DEN d   1       0.568   4.489  -0.570  0.00  0.00     0.001 A 
ATOM      7  C7  DEN d   1       1.722   3.762  -0.438  0.00  0.00     0.017 A 
ATOM      8  C8  DEN d   1       1.643   2.494   0.123  0.00  0.00    -0.094 A 
ATOM      9  C9  DEN d   1       0.423   1.948   0.482  0.00  0.00    -0.072 A 
ENDROOT
TORSDOF 0
ENDMDL
