MODEL 1
REMARK minimizedAffinity 14.4212627
REMARK minimizedRMSD -1
REMARK  0 active torsions:
REMARK  status: ('A' for Active; 'I' for Inactive)
ROOT
ATOM      1  C1  DEN d   1       2.629   2.956  -0.920  0.00  0.00     0.130 A 
ATOM      2  C2  DEN d   1       1.910   3.899  -0.067  0.00  0.00    -0.031 A 
ATOM      3  C3  DEN d   1       1.699   3.258   1.246  0.00  0.00     0.027 A 
ATOM      4  C4  DEN d   1       2.418   0.912   2.041  0.00  0.00     0.027 A 
ATOM      5  C5  DEN d   1       3.045  -0.257   1.667  0.00  0.00    -0.003 A 
ATOM      6  C6  DEN d   1       3.543  -0.447   0.406  0.00  0.00     0.001 A 
ATOM      7  C7  DEN d   1       3.463   0.563  -0.515  0.00  0.00     0.017 A 
ATOM      8  C8  DEN d   1       2.826   1.742  -0.149  0.00  0.00    -0.094 A 
ATOM      9  C9  DEN d   1       2.340   1.920   1.135  0.00  0.00    -0.072 A 
ENDROOT
TORSDOF 0
ENDMDL
