MODEL 1
REMARK minimizedAffinity 6.52751684
REMARK minimizedRMSD -1
REMARK  0 active torsions:
REMARK  status: ('A' for Active; 'I' for Inactive)
ROOT
ATOM      1  C1  DEN d   1       2.197   0.928   2.232  0.00  0.00     0.130 A 
ATOM      2  C2  DEN d   1       2.122   1.110   0.785  0.00  0.00    -0.031 A 
ATOM      3  C3  DEN d   1       1.533  -0.112   0.201  0.00  0.00     0.027 A 
ATOM      4  C4  DEN d   1       0.729  -2.254   1.391  0.00  0.00     0.027 A 
ATOM      5  C5  DEN d   1       0.601  -2.879   2.612  0.00  0.00    -0.003 A 
ATOM      6  C6  DEN d   1       1.023  -2.298   3.778  0.00  0.00     0.001 A 
ATOM      7  C7  DEN d   1       1.553  -1.035   3.754  0.00  0.00     0.017 A 
ATOM      8  C8  DEN d   1       1.692  -0.401   2.526  0.00  0.00    -0.094 A 
ATOM      9  C9  DEN d   1       1.248  -1.001   1.360  0.00  0.00    -0.072 A 
ENDROOT
TORSDOF 0
ENDMDL
