MODEL 1
REMARK minimizedAffinity 4.98077869
REMARK minimizedRMSD -1
REMARK  0 active torsions:
REMARK  status: ('A' for Active; 'I' for Inactive)
ROOT
ATOM      1  C1  DEN d   1       1.428  -0.888   4.512  0.00  0.00     0.130 A 
ATOM      2  C2  DEN d   1       0.463  -0.874   3.416  0.00  0.00    -0.031 A 
ATOM      3  C3  DEN d   1       0.087  -2.271   3.122  0.00  0.00     0.027 A 
ATOM      4  C4  DEN d   1       0.897  -4.443   4.253  0.00  0.00     0.027 A 
ATOM      5  C5  DEN d   1       1.725  -4.961   5.225  0.00  0.00    -0.003 A 
ATOM      6  C6  DEN d   1       2.530  -4.168   5.997  0.00  0.00     0.001 A 
ATOM      7  C7  DEN d   1       2.492  -2.807   5.842  0.00  0.00     0.017 A 
ATOM      8  C8  DEN d   1       1.666  -2.278   4.860  0.00  0.00    -0.094 A 
ATOM      9  C9  DEN d   1       0.850  -3.096   4.097  0.00  0.00    -0.072 A 
ENDROOT
TORSDOF 0
ENDMDL
