MODEL 1
REMARK minimizedAffinity -4.18574715
REMARK minimizedRMSD -1
REMARK  0 active torsions:
REMARK  status: ('A' for Active; 'I' for Inactive)
ROOT
ATOM      1  C1  DEN d   1       0.451  -1.548   1.662  0.00  0.00     0.130 A 
ATOM      2  C2  DEN d   1       0.592  -0.513   0.643  0.00  0.00    -0.031 A 
ATOM      3  C3  DEN d   1       1.236   0.659   1.269  0.00  0.00     0.027 A 
ATOM      4  C4  DEN d   1       2.027   0.968   3.704  0.00  0.00     0.027 A 
ATOM      5  C5  DEN d   1       2.110   0.370   4.942  0.00  0.00    -0.003 A 
ATOM      6  C6  DEN d   1       1.618  -0.887   5.180  0.00  0.00     0.001 A 
ATOM      7  C7  DEN d   1       1.062  -1.604   4.154  0.00  0.00     0.017 A 
ATOM      8  C8  DEN d   1       0.969  -1.004   2.905  0.00  0.00    -0.094 A 
ATOM      9  C9  DEN d   1       1.483   0.262   2.681  0.00  0.00    -0.072 A 
ENDROOT
TORSDOF 0
ENDMDL
