MODEL 1
REMARK minimizedAffinity -0.57730484
REMARK minimizedRMSD -1
REMARK  0 active torsions:
REMARK  status: ('A' for Active; 'I' for Inactive)
ROOT
ATOM      1  C1  DEN d   1      -0.484  -0.713   0.269  0.00  0.00     0.130 A 
ATOM      2  C2  DEN d   1      -0.113  -1.770   1.206  0.00  0.00    -0.031 A 
ATOM      3  C3  DEN d   1       1.059  -1.307   1.975  0.00  0.00     0.027 A 
ATOM      4  C4  DEN d   1       2.325   0.934   1.811  0.00  0.00     0.027 A 
ATOM      5  C5  DEN d   1       2.387   2.143   1.154  0.00  0.00    -0.003 A 
ATOM      6  C6  DEN d   1       1.525   2.468   0.141  0.00  0.00     0.001 A 
ATOM      7  C7  DEN d   1       0.533   1.592  -0.214  0.00  0.00     0.017 A 
ATOM      8  C8  DEN d   1       0.469   0.368   0.439  0.00  0.00    -0.094 A 
ATOM      9  C9  DEN d   1       1.343   0.063   1.469  0.00  0.00    -0.072 A 
ENDROOT
TORSDOF 0
ENDMDL
