MODEL 1
REMARK minimizedAffinity -2.12795329
REMARK minimizedRMSD -1
REMARK  0 active torsions:
REMARK  status: ('A' for Active; 'I' for Inactive)
ROOT
ATOM      1  C   UNL d   1      -3.833   5.844   5.277  0.00  0.00     0.172 C 
ATOM      2  N   UNL d   1      -2.448   5.439   5.242  0.00  0.00    -0.070 N 
ATOM      3  C1  UNL d   1      -1.887   4.444   5.998  0.00  0.00    -0.004 A 
ATOM      4  C2  UNL d   1      -0.551   4.367   5.672  0.00  0.00    -0.047 A 
ATOM      5  C3  UNL d   1      -0.298   5.351   4.686  0.00  0.00    -0.047 A 
ATOM      6  C4  UNL d   1      -1.490   5.999   4.439  0.00  0.00    -0.004 A 
ENDROOT
TORSDOF 0
ENDMDL
