MODEL 1
REMARK minimizedAffinity -1.98379016
REMARK minimizedRMSD -1
REMARK  0 active torsions:
REMARK  status: ('A' for Active; 'I' for Inactive)
ROOT
ATOM      1  C   UNL d   1      -2.691   5.976   4.270  0.00  0.00     0.172 C 
ATOM      2  N   UNL d   1      -1.326   5.825   4.715  0.00  0.00    -0.070 N 
ATOM      3  C1  UNL d   1      -0.931   5.492   5.983  0.00  0.00    -0.004 A 
ATOM      4  C2  UNL d   1       0.446   5.450   6.000  0.00  0.00    -0.047 A 
ATOM      5  C3  UNL d   1       0.895   5.770   4.697  0.00  0.00    -0.047 A 
ATOM      6  C4  UNL d   1      -0.222   5.997   3.922  0.00  0.00    -0.004 A 
ENDROOT
TORSDOF 0
ENDMDL
