MODEL 1
REMARK minimizedAffinity -2.33548808
REMARK minimizedRMSD -1
REMARK  0 active torsions:
REMARK  status: ('A' for Active; 'I' for Inactive)
ROOT
ATOM      1  C   UNL d   1       1.858   6.000   5.989  0.00  0.00     0.172 C 
ATOM      2  N   UNL d   1       0.621   5.632   5.342  0.00  0.00    -0.070 N 
ATOM      3  C1  UNL d   1       0.278   5.926   4.049  0.00  0.00    -0.004 A 
ATOM      4  C2  UNL d   1      -0.975   5.402   3.815  0.00  0.00    -0.047 A 
ATOM      5  C3  UNL d   1      -1.400   4.772   5.009  0.00  0.00    -0.047 A 
ATOM      6  C4  UNL d   1      -0.393   4.929   5.937  0.00  0.00    -0.004 A 
ENDROOT
TORSDOF 0
ENDMDL
