MODEL 1
REMARK minimizedAffinity 4.66838694
REMARK minimizedRMSD -1
REMARK  0 active torsions:
REMARK  status: ('A' for Active; 'I' for Inactive)
ROOT
ATOM      1  C   UNL d   1       1.026  -4.229   2.315  0.00  0.00     0.172 C 
ATOM      2  N   UNL d   1       1.282  -2.867   1.909  0.00  0.00    -0.070 N 
ATOM      3  C1  UNL d   1       1.947  -2.484   0.776  0.00  0.00    -0.004 A 
ATOM      4  C2  UNL d   1       1.981  -1.106   0.752  0.00  0.00    -0.047 A 
ATOM      5  C3  UNL d   1       1.313  -0.646   1.912  0.00  0.00    -0.047 A 
ATOM      6  C4  UNL d   1       0.890  -1.757   2.611  0.00  0.00    -0.004 A 
ENDROOT
TORSDOF 0
ENDMDL
