MODEL 1
REMARK minimizedAffinity -2.17298889
REMARK minimizedRMSD -1
REMARK  0 active torsions:
REMARK  status: ('A' for Active; 'I' for Inactive)
ROOT
ATOM      1  C   UNL d   1      -2.519   3.982   5.934  0.00  0.00     0.172 C 
ATOM      2  N   UNL d   1      -1.443   4.721   5.317  0.00  0.00    -0.070 N 
ATOM      3  C1  UNL d   1      -0.457   5.401   5.982  0.00  0.00    -0.004 A 
ATOM      4  C2  UNL d   1       0.373   5.969   5.040  0.00  0.00    -0.047 A 
ATOM      5  C3  UNL d   1      -0.132   5.620   3.765  0.00  0.00    -0.047 A 
ATOM      6  C4  UNL d   1      -1.256   4.847   3.966  0.00  0.00    -0.004 A 
ENDROOT
TORSDOF 0
ENDMDL
