MODEL 1
REMARK minimizedAffinity 0.600204229
REMARK minimizedRMSD -1
REMARK  0 active torsions:
REMARK  status: ('A' for Active; 'I' for Inactive)
ROOT
ATOM      1  C   UNL d   1       0.027  -3.708   1.761  0.00  0.00     0.172 C 
ATOM      2  N   UNL d   1       1.083  -2.810   1.357  0.00  0.00    -0.070 N 
ATOM      3  C1  UNL d   1       2.247  -3.175   0.735  0.00  0.00    -0.004 A 
ATOM      4  C2  UNL d   1       2.987  -2.033   0.519  0.00  0.00    -0.047 A 
ATOM      5  C3  UNL d   1       2.241  -0.943   1.029  0.00  0.00    -0.047 A 
ATOM      6  C4  UNL d   1       1.067  -1.453   1.542  0.00  0.00    -0.004 A 
ENDROOT
TORSDOF 0
ENDMDL
