MODEL 1
REMARK minimizedAffinity -1.30772078
REMARK minimizedRMSD -1
REMARK  0 active torsions:
REMARK  status: ('A' for Active; 'I' for Inactive)
ROOT
ATOM      1  C   UNL d   1       2.027   6.000   4.907  0.00  0.00     0.172 C 
ATOM      2  N   UNL d   1       0.599   5.787   4.925  0.00  0.00    -0.070 N 
ATOM      3  C1  UNL d   1      -0.226   5.997   5.998  0.00  0.00    -0.004 A 
ATOM      4  C2  UNL d   1      -1.510   5.680   5.612  0.00  0.00    -0.047 A 
ATOM      5  C3  UNL d   1      -1.456   5.264   4.260  0.00  0.00    -0.047 A 
ATOM      6  C4  UNL d   1      -0.138   5.340   3.860  0.00  0.00    -0.004 A 
ENDROOT
TORSDOF 0
ENDMDL
