MODEL 1
REMARK minimizedAffinity 0.340041846
REMARK minimizedRMSD -1
REMARK  0 active torsions:
REMARK  status: ('A' for Active; 'I' for Inactive)
ROOT
ATOM      1  C   UNL d   1       0.645  -4.832   2.520  0.00  0.00     0.172 C 
ATOM      2  N   UNL d   1       1.383  -3.745   1.921  0.00  0.00    -0.070 N 
ATOM      3  C1  UNL d   1       2.738  -3.713   1.727  0.00  0.00    -0.004 A 
ATOM      4  C2  UNL d   1       3.051  -2.510   1.130  0.00  0.00    -0.047 A 
ATOM      5  C3  UNL d   1       1.841  -1.795   0.960  0.00  0.00    -0.047 A 
ATOM      6  C4  UNL d   1       0.825  -2.583   1.459  0.00  0.00    -0.004 A 
ENDROOT
TORSDOF 0
ENDMDL
