MODEL 1
REMARK minimizedAffinity -2.9811635
REMARK minimizedRMSD -1
REMARK  0 active torsions:
REMARK  status: ('A' for Active; 'I' for Inactive)
ROOT
ATOM      1  C   UNL d   1       0.399   5.125   4.357  0.00  0.00     0.172 C 
ATOM      2  N   UNL d   1      -1.010   4.983   4.641  0.00  0.00    -0.070 N 
ATOM      3  C1  UNL d   1      -1.612   3.868   5.160  0.00  0.00    -0.004 A 
ATOM      4  C2  UNL d   1      -2.959   4.133   5.281  0.00  0.00    -0.047 A 
ATOM      5  C3  UNL d   1      -3.174   5.453   4.818  0.00  0.00    -0.047 A 
ATOM      6  C4  UNL d   1      -1.951   5.956   4.428  0.00  0.00    -0.004 A 
ENDROOT
TORSDOF 0
ENDMDL
