MODEL 1
REMARK minimizedAffinity 10.2180338
REMARK minimizedRMSD -1
REMARK  0 active torsions:
REMARK  status: ('A' for Active; 'I' for Inactive)
ROOT
ATOM      1  C1  DEN d   1       5.986  -0.697   0.620  0.00  0.00     0.130 A 
ATOM      2  C2  DEN d   1       5.999  -2.100   1.023  0.00  0.00    -0.031 A 
ATOM      3  C3  DEN d   1       4.643  -2.646   0.819  0.00  0.00     0.027 A 
ATOM      4  C4  DEN d   1       2.536  -1.463  -0.083  0.00  0.00     0.027 A 
ATOM      5  C5  DEN d   1       2.031  -0.268  -0.545  0.00  0.00    -0.003 A 
ATOM      6  C6  DEN d   1       2.794   0.867  -0.619  0.00  0.00     0.001 A 
ATOM      7  C7  DEN d   1       4.117   0.820  -0.267  0.00  0.00     0.017 A 
ATOM      8  C8  DEN d   1       4.631  -0.379   0.207  0.00  0.00    -0.094 A 
ATOM      9  C9  DEN d   1       3.847  -1.519   0.263  0.00  0.00    -0.072 A 
ENDROOT
TORSDOF 0
ENDMDL
