MODEL 1
REMARK minimizedAffinity 9.34431267
REMARK minimizedRMSD -1
REMARK  0 active torsions:
REMARK  status: ('A' for Active; 'I' for Inactive)
ROOT
ATOM      1  C1  DEN d   1      -0.784  -0.096   1.484  0.00  0.00     0.130 A 
ATOM      2  C2  DEN d   1       0.395  -0.083   0.623  0.00  0.00    -0.031 A 
ATOM      3  C3  DEN d   1       1.115  -1.358   0.817  0.00  0.00     0.027 A 
ATOM      4  C4  DEN d   1       0.518  -3.341   2.355  0.00  0.00     0.027 A 
ATOM      5  C5  DEN d   1      -0.384  -3.808   3.284  0.00  0.00    -0.003 A 
ATOM      6  C6  DEN d   1      -1.455  -3.064   3.701  0.00  0.00     0.001 A 
ATOM      7  C7  DEN d   1      -1.677  -1.828   3.153  0.00  0.00     0.017 A 
ATOM      8  C8  DEN d   1      -0.767  -1.347   2.220  0.00  0.00    -0.094 A 
ATOM      9  C9  DEN d   1       0.303  -2.120   1.803  0.00  0.00    -0.072 A 
ENDROOT
TORSDOF 0
ENDMDL
