MODEL 1
REMARK minimizedAffinity 12.1554728
REMARK minimizedRMSD -1
REMARK  0 active torsions:
REMARK  status: ('A' for Active; 'I' for Inactive)
ROOT
ATOM      1  C1  DEN d   1       0.232  -2.143   3.226  0.00  0.00     0.130 A 
ATOM      2  C2  DEN d   1      -0.465  -0.860   3.208  0.00  0.00    -0.031 A 
ATOM      3  C3  DEN d   1      -0.064  -0.141   1.981  0.00  0.00     0.027 A 
ATOM      4  C4  DEN d   1       1.555  -0.888   0.118  0.00  0.00     0.027 A 
ATOM      5  C5  DEN d   1       2.397  -1.894  -0.300  0.00  0.00    -0.003 A 
ATOM      6  C6  DEN d   1       2.602  -3.030   0.438  0.00  0.00     0.001 A 
ATOM      7  C7  DEN d   1       1.920  -3.207   1.613  0.00  0.00     0.017 A 
ATOM      8  C8  DEN d   1       1.075  -2.194   2.045  0.00  0.00    -0.094 A 
ATOM      9  C9  DEN d   1       0.872  -1.059   1.278  0.00  0.00    -0.072 A 
ENDROOT
TORSDOF 0
ENDMDL
