MODEL 1
REMARK minimizedAffinity 4.92890739
REMARK minimizedRMSD -1
REMARK  0 active torsions:
REMARK  status: ('A' for Active; 'I' for Inactive)
ROOT
ATOM      1  C1  DEN d   1      -0.449  -0.770   2.388  0.00  0.00     0.130 A 
ATOM      2  C2  DEN d   1      -1.879  -0.503   2.517  0.00  0.00    -0.031 A 
ATOM      3  C3  DEN d   1      -2.415  -0.225   1.169  0.00  0.00     0.027 A 
ATOM      4  C4  DEN d   1      -1.176  -0.185  -1.093  0.00  0.00     0.027 A 
ATOM      5  C5  DEN d   1       0.048  -0.338  -1.705  0.00  0.00    -0.003 A 
ATOM      6  C6  DEN d   1       1.190  -0.609  -0.998  0.00  0.00     0.001 A 
ATOM      7  C7  DEN d   1       1.122  -0.781   0.359  0.00  0.00     0.017 A 
ATOM      8  C8  DEN d   1      -0.107  -0.622   0.985  0.00  0.00    -0.094 A 
ATOM      9  C9  DEN d   1      -1.252  -0.359   0.251  0.00  0.00    -0.072 A 
ENDROOT
TORSDOF 0
ENDMDL
