MODEL 1
REMARK minimizedAffinity 4.98907804
REMARK minimizedRMSD -1
REMARK  0 active torsions:
REMARK  status: ('A' for Active; 'I' for Inactive)
ROOT
ATOM      1  C1  DEN d   1       1.660  -3.864   1.532  0.00  0.00     0.130 A 
ATOM      2  C2  DEN d   1       2.249  -2.961   0.546  0.00  0.00    -0.031 A 
ATOM      3  C3  DEN d   1       1.529  -1.674   0.619  0.00  0.00     0.027 A 
ATOM      4  C4  DEN d   1      -0.426  -0.993   2.156  0.00  0.00     0.027 A 
ATOM      5  C5  DEN d   1      -1.276  -1.425   3.150  0.00  0.00    -0.003 A 
ATOM      6  C6  DEN d   1      -1.229  -2.701   3.647  0.00  0.00     0.001 A 
ATOM      7  C7  DEN d   1      -0.284  -3.576   3.181  0.00  0.00     0.017 A 
ATOM      8  C8  DEN d   1       0.572  -3.149   2.174  0.00  0.00    -0.094 A 
ATOM      9  C9  DEN d   1       0.517  -1.852   1.694  0.00  0.00    -0.072 A 
ENDROOT
TORSDOF 0
ENDMDL
