MODEL 1
REMARK minimizedAffinity 9.44969845
REMARK minimizedRMSD -1
REMARK  0 active torsions:
REMARK  status: ('A' for Active; 'I' for Inactive)
ROOT
ATOM      1  C1  DEN d   1      -2.609   2.136  -2.892  0.00  0.00     0.130 A 
ATOM      2  C2  DEN d   1      -3.105   3.389  -2.330  0.00  0.00    -0.031 A 
ATOM      3  C3  DEN d   1      -4.518   3.542  -2.730  0.00  0.00     0.027 A 
ATOM      4  C4  DEN d   1      -5.981   1.965  -4.153  0.00  0.00     0.027 A 
ATOM      5  C5  DEN d   1      -5.998   0.785  -4.863  0.00  0.00    -0.003 A 
ATOM      6  C6  DEN d   1      -4.886  -0.004  -4.993  0.00  0.00     0.001 A 
ATOM      7  C7  DEN d   1      -3.721   0.354  -4.366  0.00  0.00     0.017 A 
ATOM      8  C8  DEN d   1      -3.695   1.547  -3.655  0.00  0.00    -0.094 A 
ATOM      9  C9  DEN d   1      -4.833   2.325  -3.525  0.00  0.00    -0.072 A 
ENDROOT
TORSDOF 0
ENDMDL
