MODEL 1
REMARK minimizedAffinity 1.80403101
REMARK minimizedRMSD -1
REMARK  0 active torsions:
REMARK  status: ('A' for Active; 'I' for Inactive)
ROOT
ATOM      1  C1  DEN d   1       2.375   5.885   1.757  0.00  0.00     0.130 A 
ATOM      2  C2  DEN d   1       3.830   5.909   1.641  0.00  0.00    -0.031 A 
ATOM      3  C3  DEN d   1       4.396   5.958   3.005  0.00  0.00     0.027 A 
ATOM      4  C4  DEN d   1       3.166   5.993   5.271  0.00  0.00     0.027 A 
ATOM      5  C5  DEN d   1       1.929   5.998   5.877  0.00  0.00    -0.003 A 
ATOM      6  C6  DEN d   1       0.763   6.000   5.158  0.00  0.00     0.001 A 
ATOM      7  C7  DEN d   1       0.810   5.951   3.790  0.00  0.00     0.017 A 
ATOM      8  C8  DEN d   1       2.053   5.954   3.171  0.00  0.00    -0.094 A 
ATOM      9  C9  DEN d   1       3.220   5.940   3.917  0.00  0.00    -0.072 A 
ENDROOT
TORSDOF 0
ENDMDL
