MODEL 1
REMARK minimizedAffinity -3.18072796
REMARK minimizedRMSD -1
REMARK  0 active torsions:
REMARK  status: ('A' for Active; 'I' for Inactive)
ROOT
ATOM      1  C1  DEN d   1       1.341  -3.877   2.235  0.00  0.00     0.130 A 
ATOM      2  C2  DEN d   1       2.191  -3.325   1.184  0.00  0.00    -0.031 A 
ATOM      3  C3  DEN d   1       1.643  -2.009   0.798  0.00  0.00     0.027 A 
ATOM      4  C4  DEN d   1      -0.427  -0.779   1.723  0.00  0.00     0.027 A 
ATOM      5  C5  DEN d   1      -1.473  -0.857   2.616  0.00  0.00    -0.003 A 
ATOM      6  C6  DEN d   1      -1.672  -1.952   3.413  0.00  0.00     0.001 A 
ATOM      7  C7  DEN d   1      -0.787  -2.996   3.366  0.00  0.00     0.017 A 
ATOM      8  C8  DEN d   1       0.266  -2.928   2.463  0.00  0.00    -0.094 A 
ATOM      9  C9  DEN d   1       0.457  -1.807   1.674  0.00  0.00    -0.072 A 
ENDROOT
TORSDOF 0
ENDMDL
