MODEL 1
REMARK minimizedAffinity 15.6079283
REMARK minimizedRMSD -1
REMARK  0 active torsions:
REMARK  status: ('A' for Active; 'I' for Inactive)
ROOT
ATOM      1  C4' PXY d   1       4.798   4.100  -5.995  0.00  0.00     0.077 C 
ATOM      2  C1' PXY d   1       2.246  -0.965  -4.880  0.00  0.00     0.077 C 
ATOM      3  C1  PXY d   1       2.927   0.358  -5.172  0.00  0.00    -0.082 A 
ATOM      4  C2  PXY d   1       2.308   1.490  -4.881  0.00  0.00     0.003 A 
ATOM      5  C3  PXY d   1       2.896   2.695  -5.168  0.00  0.00     0.003 A 
ATOM      6  C4  PXY d   1       4.152   2.742  -5.709  0.00  0.00    -0.082 A 
ATOM      7  C5  PXY d   1       4.795   1.590  -6.000  0.00  0.00     0.003 A 
ATOM      8  C6  PXY d   1       4.164   0.377  -5.739  0.00  0.00     0.003 A 
ENDROOT
TORSDOF 0
ENDMDL
