MODEL 1
REMARK minimizedAffinity 17.5743465
REMARK minimizedRMSD -1
REMARK  0 active torsions:
REMARK  status: ('A' for Active; 'I' for Inactive)
ROOT
ATOM      1  C4' PXY d   1      -0.108   1.692   2.251  0.00  0.00     0.077 C 
ATOM      2  C1' PXY d   1      -5.458   3.393   0.872  0.00  0.00     0.077 C 
ATOM      3  C1  PXY d   1      -4.058   2.935   1.231  0.00  0.00    -0.082 A 
ATOM      4  C2  PXY d   1      -3.331   3.651   2.073  0.00  0.00     0.003 A 
ATOM      5  C3  PXY d   1      -2.052   3.268   2.383  0.00  0.00     0.003 A 
ATOM      6  C4  PXY d   1      -1.530   2.112   1.868  0.00  0.00    -0.082 A 
ATOM      7  C5  PXY d   1      -2.270   1.370   1.016  0.00  0.00     0.003 A 
ATOM      8  C6  PXY d   1      -3.551   1.798   0.682  0.00  0.00     0.003 A 
ENDROOT
TORSDOF 0
ENDMDL
