MODEL 1
REMARK minimizedAffinity 12.3786564
REMARK minimizedRMSD -1
REMARK  0 active torsions:
REMARK  status: ('A' for Active; 'I' for Inactive)
ROOT
ATOM      1  C4' PXY d   1      -5.609   5.998   5.994  0.00  0.00     0.077 C 
ATOM      2  C1' PXY d   1      -3.834   2.964   1.406  0.00  0.00     0.077 C 
ATOM      3  C1  PXY d   1      -4.289   3.756   2.616  0.00  0.00    -0.082 A 
ATOM      4  C2  PXY d   1      -5.575   4.021   2.778  0.00  0.00     0.003 A 
ATOM      5  C3  PXY d   1      -6.000   4.764   3.849  0.00  0.00     0.003 A 
ATOM      6  C4  PXY d   1      -5.106   5.194   4.793  0.00  0.00    -0.082 A 
ATOM      7  C5  PXY d   1      -3.793   4.918   4.640  0.00  0.00     0.003 A 
ATOM      8  C6  PXY d   1      -3.377   4.198   3.524  0.00  0.00     0.003 A 
ENDROOT
TORSDOF 0
ENDMDL
