MODEL 1
REMARK minimizedAffinity 10.596034
REMARK minimizedRMSD -1
REMARK  0 active torsions:
REMARK  status: ('A' for Active; 'I' for Inactive)
ROOT
ATOM      1  C4' PXY d   1      -5.999   4.609   2.914  0.00  0.00     0.077 C 
ATOM      2  C1' PXY d   1      -3.390  -0.538   2.579  0.00  0.00     0.077 C 
ATOM      3  C1  PXY d   1      -4.085   0.806   2.672  0.00  0.00    -0.082 A 
ATOM      4  C2  PXY d   1      -3.736   1.781   1.849  0.00  0.00     0.003 A 
ATOM      5  C3  PXY d   1      -4.332   3.013   1.941  0.00  0.00     0.003 A 
ATOM      6  C4  PXY d   1      -5.332   3.233   2.850  0.00  0.00    -0.082 A 
ATOM      7  C5  PXY d   1      -5.700   2.240   3.686  0.00  0.00     0.003 A 
ATOM      8  C6  PXY d   1      -5.055   1.009   3.604  0.00  0.00     0.003 A 
ENDROOT
TORSDOF 0
ENDMDL
