MODEL 1
REMARK minimizedAffinity 6.8040514
REMARK minimizedRMSD -1
REMARK  0 active torsions:
REMARK  status: ('A' for Active; 'I' for Inactive)
ROOT
ATOM      1  C4' PXY d   1       1.029  -4.194   1.262  0.00  0.00     0.077 C 
ATOM      2  C1' PXY d   1       5.941  -5.945   3.755  0.00  0.00     0.077 C 
ATOM      3  C1  PXY d   1       4.659  -5.474   3.098  0.00  0.00    -0.082 A 
ATOM      4  C2  PXY d   1       3.503  -6.000   3.470  0.00  0.00     0.003 A 
ATOM      5  C3  PXY d   1       2.336  -5.609   2.864  0.00  0.00     0.003 A 
ATOM      6  C4  PXY d   1       2.348  -4.632   1.904  0.00  0.00    -0.082 A 
ATOM      7  C5  PXY d   1       3.522  -4.084   1.527  0.00  0.00     0.003 A 
ATOM      8  C6  PXY d   1       4.699  -4.524   2.125  0.00  0.00     0.003 A 
ENDROOT
TORSDOF 0
ENDMDL
