MODEL 1
REMARK minimizedAffinity 3.98959589
REMARK minimizedRMSD -1
REMARK  0 active torsions:
REMARK  status: ('A' for Active; 'I' for Inactive)
ROOT
ATOM      1  C4' PXY d   1      -3.043   2.570   1.935  0.00  0.00     0.077 C 
ATOM      2  C1' PXY d   1       1.738  -0.388   3.282  0.00  0.00     0.077 C 
ATOM      3  C1  PXY d   1       0.478   0.377   2.928  0.00  0.00    -0.082 A 
ATOM      4  C2  PXY d   1       0.572   1.603   2.441  0.00  0.00     0.003 A 
ATOM      5  C3  PXY d   1      -0.558   2.321   2.145  0.00  0.00     0.003 A 
ATOM      6  C4  PXY d   1      -1.797   1.757   2.298  0.00  0.00    -0.082 A 
ATOM      7  C5  PXY d   1      -1.901   0.502   2.784  0.00  0.00     0.003 A 
ATOM      8  C6  PXY d   1      -0.743  -0.194   3.118  0.00  0.00     0.003 A 
ENDROOT
TORSDOF 0
ENDMDL
