MODEL 1
REMARK minimizedAffinity 10.8610888
REMARK minimizedRMSD -1
REMARK  0 active torsions:
REMARK  status: ('A' for Active; 'I' for Inactive)
ROOT
ATOM      1  C4' PXY d   1       1.533  -0.435   3.177  0.00  0.00     0.077 C 
ATOM      2  C1' PXY d   1      -3.564   1.712   1.495  0.00  0.00     0.077 C 
ATOM      3  C1  PXY d   1      -2.221   1.156   1.926  0.00  0.00    -0.082 A 
ATOM      4  C2  PXY d   1      -2.171   0.019   2.602  0.00  0.00     0.003 A 
ATOM      5  C3  PXY d   1      -0.968  -0.482   3.027  0.00  0.00     0.003 A 
ATOM      6  C4  PXY d   1       0.200   0.160   2.713  0.00  0.00    -0.082 A 
ATOM      7  C5  PXY d   1       0.158   1.314   2.015  0.00  0.00     0.003 A 
ATOM      8  C6  PXY d   1      -1.077   1.828   1.628  0.00  0.00     0.003 A 
ENDROOT
TORSDOF 0
ENDMDL
