MODEL 1
REMARK minimizedAffinity 11.8526554
REMARK minimizedRMSD -1
REMARK  0 active torsions:
REMARK  status: ('A' for Active; 'I' for Inactive)
ROOT
ATOM      1  C4' PXY d   1      -6.000   2.997   2.271  0.00  0.00     0.077 C 
ATOM      2  C1' PXY d   1      -1.157  -0.149   2.020  0.00  0.00     0.077 C 
ATOM      3  C1  PXY d   1      -2.422   0.683   2.095  0.00  0.00    -0.082 A 
ATOM      4  C2  PXY d   1      -3.565   0.177   1.662  0.00  0.00     0.003 A 
ATOM      5  C3  PXY d   1      -4.712   0.927   1.694  0.00  0.00     0.003 A 
ATOM      6  C4  PXY d   1      -4.700   2.190   2.223  0.00  0.00    -0.082 A 
ATOM      7  C5  PXY d   1      -3.540   2.710   2.676  0.00  0.00     0.003 A 
ATOM      8  C6  PXY d   1      -2.378   1.947   2.598  0.00  0.00     0.003 A 
ENDROOT
TORSDOF 0
ENDMDL
