MODEL 1
REMARK minimizedAffinity 2.7899251
REMARK minimizedRMSD -1
REMARK  0 active torsions:
REMARK  status: ('A' for Active; 'I' for Inactive)
ROOT
ATOM      1  C4' PXY d   1      -1.056   1.237   2.339  0.00  0.00     0.077 C 
ATOM      2  C1' PXY d   1       4.582   0.402   1.376  0.00  0.00     0.077 C 
ATOM      3  C1  PXY d   1       3.103   0.609   1.634  0.00  0.00    -0.082 A 
ATOM      4  C2  PXY d   1       2.438   1.515   0.935  0.00  0.00     0.003 A 
ATOM      5  C3  PXY d   1       1.107   1.737   1.177  0.00  0.00     0.003 A 
ATOM      6  C4  PXY d   1       0.437   0.987   2.106  0.00  0.00    -0.082 A 
ATOM      7  C5  PXY d   1       1.105   0.053   2.815  0.00  0.00     0.003 A 
ATOM      8  C6  PXY d   1       2.466  -0.129   2.583  0.00  0.00     0.003 A 
ENDROOT
TORSDOF 0
ENDMDL
