MODEL 1
REMARK minimizedAffinity 12.0437088
REMARK minimizedRMSD -1
REMARK  0 active torsions:
REMARK  status: ('A' for Active; 'I' for Inactive)
ROOT
ATOM      1  C4' PXY d   1       5.905   3.145  -5.226  0.00  0.00     0.077 C 
ATOM      2  C1' PXY d   1       0.632   5.514  -5.220  0.00  0.00     0.077 C 
ATOM      3  C1  PXY d   1       2.010   4.881  -5.225  0.00  0.00    -0.082 A 
ATOM      4  C2  PXY d   1       2.971   5.401  -4.480  0.00  0.00     0.003 A 
ATOM      5  C3  PXY d   1       4.232   4.861  -4.497  0.00  0.00     0.003 A 
ATOM      6  C4  PXY d   1       4.496   3.745  -5.245  0.00  0.00    -0.082 A 
ATOM      7  C5  PXY d   1       3.518   3.202  -6.000  0.00  0.00     0.003 A 
ATOM      8  C6  PXY d   1       2.256   3.790  -6.000  0.00  0.00     0.003 A 
ENDROOT
TORSDOF 0
ENDMDL
