MODEL 1
REMARK minimizedAffinity 8.41224861
REMARK minimizedRMSD -1
REMARK  0 active torsions:
REMARK  status: ('A' for Active; 'I' for Inactive)
ROOT
ATOM      1  C4' PXY d   1      -3.521  -4.104  -5.996  0.00  0.00     0.077 C 
ATOM      2  C1' PXY d   1      -0.702   0.943  -5.979  0.00  0.00     0.077 C 
ATOM      3  C1  PXY d   1      -1.431  -0.386  -5.989  0.00  0.00    -0.082 A 
ATOM      4  C2  PXY d   1      -2.754  -0.407  -5.996  0.00  0.00     0.003 A 
ATOM      5  C3  PXY d   1      -3.429  -1.600  -5.972  0.00  0.00     0.003 A 
ATOM      6  C4  PXY d   1      -2.743  -2.785  -5.996  0.00  0.00    -0.082 A 
ATOM      7  C5  PXY d   1      -1.393  -2.772  -6.000  0.00  0.00     0.003 A 
ATOM      8  C6  PXY d   1      -0.726  -1.551  -5.982  0.00  0.00     0.003 A 
ENDROOT
TORSDOF 0
ENDMDL
