MODEL 1
REMARK minimizedAffinity 5.15281153
REMARK minimizedRMSD -1
REMARK  0 active torsions:
REMARK  status: ('A' for Active; 'I' for Inactive)
ROOT
ATOM      1  C4' PXY d   1      -3.182  -3.008  -6.000  0.00  0.00     0.077 C 
ATOM      2  C1' PXY d   1       1.414  -0.373  -3.686  0.00  0.00     0.077 C 
ATOM      3  C1  PXY d   1       0.201  -1.057  -4.286  0.00  0.00    -0.082 A 
ATOM      4  C2  PXY d   1       0.321  -2.270  -4.800  0.00  0.00     0.003 A 
ATOM      5  C3  PXY d   1      -0.758  -2.890  -5.375  0.00  0.00     0.003 A 
ATOM      6  C4  PXY d   1      -1.986  -2.284  -5.376  0.00  0.00    -0.082 A 
ATOM      7  C5  PXY d   1      -2.120  -1.051  -4.843  0.00  0.00     0.003 A 
ATOM      8  C6  PXY d   1      -1.002  -0.421  -4.301  0.00  0.00     0.003 A 
ENDROOT
TORSDOF 0
ENDMDL
