MODEL 1
REMARK minimizedAffinity 5.32353544
REMARK minimizedRMSD -1
REMARK  0 active torsions:
REMARK  status: ('A' for Active; 'I' for Inactive)
ROOT
ATOM      1  C4' PXY d   1      -6.000   2.576   1.309  0.00  0.00     0.077 C 
ATOM      2  C1' PXY d   1      -1.036  -0.266   2.144  0.00  0.00     0.077 C 
ATOM      3  C1  PXY d   1      -2.332   0.491   1.929  0.00  0.00    -0.082 A 
ATOM      4  C2  PXY d   1      -3.480  -0.167   1.923  0.00  0.00     0.003 A 
ATOM      5  C3  PXY d   1      -4.659   0.496   1.698  0.00  0.00     0.003 A 
ATOM      6  C4  PXY d   1      -4.668   1.855   1.531  0.00  0.00    -0.082 A 
ATOM      7  C5  PXY d   1      -3.502   2.535   1.547  0.00  0.00     0.003 A 
ATOM      8  C6  PXY d   1      -2.312   1.837   1.736  0.00  0.00     0.003 A 
ENDROOT
TORSDOF 0
ENDMDL
