MODEL 1
REMARK minimizedAffinity 18.5379734
REMARK minimizedRMSD -1
REMARK  0 active torsions:
REMARK  status: ('A' for Active; 'I' for Inactive)
ROOT
ATOM      1  C4' PXY d   1      -3.922  -0.111   4.410  0.00  0.00     0.077 C 
ATOM      2  C1' PXY d   1      -0.583   1.161  -0.134  0.00  0.00     0.077 C 
ATOM      3  C1  PXY d   1      -1.465   0.839   1.056  0.00  0.00    -0.082 A 
ATOM      4  C2  PXY d   1      -1.042  -0.020   1.970  0.00  0.00     0.003 A 
ATOM      5  C3  PXY d   1      -1.840  -0.347   3.036  0.00  0.00     0.003 A 
ATOM      6  C4  PXY d   1      -3.061   0.252   3.197  0.00  0.00    -0.082 A 
ATOM      7  C5  PXY d   1      -3.495   1.137   2.275  0.00  0.00     0.003 A 
ATOM      8  C6  PXY d   1      -2.687   1.425   1.178  0.00  0.00     0.003 A 
ENDROOT
TORSDOF 0
ENDMDL
