MODEL 1
REMARK minimizedAffinity 0.281884193
REMARK minimizedRMSD -1
REMARK  0 active torsions:
REMARK  status: ('A' for Active; 'I' for Inactive)
ROOT
ATOM      1  C4' PXY d   1       4.993  -2.034   1.897  0.00  0.00     0.077 C 
ATOM      2  C1' PXY d   1       6.000  -6.000   5.980  0.00  0.00     0.077 C 
ATOM      3  C1  PXY d   1       5.742  -4.967   4.901  0.00  0.00    -0.082 A 
ATOM      4  C2  PXY d   1       5.536  -3.705   5.239  0.00  0.00     0.003 A 
ATOM      5  C3  PXY d   1       5.270  -2.764   4.278  0.00  0.00     0.003 A 
ATOM      6  C4  PXY d   1       5.267  -3.109   2.953  0.00  0.00    -0.082 A 
ATOM      7  C5  PXY d   1       5.487  -4.393   2.599  0.00  0.00     0.003 A 
ATOM      8  C6  PXY d   1       5.714  -5.340   3.593  0.00  0.00     0.003 A 
ENDROOT
TORSDOF 0
ENDMDL
