MODEL 1
REMARK minimizedAffinity 15.906538
REMARK minimizedRMSD -1
REMARK  0 active torsions:
REMARK  status: ('A' for Active; 'I' for Inactive)
ROOT
ATOM      1  C4' PXY d   1      -6.000  -2.076   2.268  0.00  0.00     0.077 C 
ATOM      2  C1' PXY d   1      -0.739   0.175   1.451  0.00  0.00     0.077 C 
ATOM      3  C1  PXY d   1      -2.119  -0.419   1.653  0.00  0.00    -0.082 A 
ATOM      4  C2  PXY d   1      -2.873   0.004   2.655  0.00  0.00     0.003 A 
ATOM      5  C3  PXY d   1      -4.111  -0.545   2.870  0.00  0.00     0.003 A 
ATOM      6  C4  PXY d   1      -4.604  -1.499   2.021  0.00  0.00    -0.082 A 
ATOM      7  C5  PXY d   1      -3.845  -1.927   0.990  0.00  0.00     0.003 A 
ATOM      8  C6  PXY d   1      -2.574  -1.387   0.812  0.00  0.00     0.003 A 
ENDROOT
TORSDOF 0
ENDMDL
