MODEL 1
REMARK minimizedAffinity 13.8115416
REMARK minimizedRMSD -1
REMARK  0 active torsions:
REMARK  status: ('A' for Active; 'I' for Inactive)
ROOT
ATOM      1  C4' PXY d   1       0.436   5.976  -4.621  0.00  0.00     0.077 C 
ATOM      2  C1' PXY d   1       5.989   4.475  -5.194  0.00  0.00     0.077 C 
ATOM      3  C1  PXY d   1       4.534   4.868  -5.030  0.00  0.00    -0.082 A 
ATOM      4  C2  PXY d   1       3.672   4.605  -5.999  0.00  0.00     0.003 A 
ATOM      5  C3  PXY d   1       2.359   4.982  -5.882  0.00  0.00     0.003 A 
ATOM      6  C4  PXY d   1       1.913   5.588  -4.738  0.00  0.00    -0.082 A 
ATOM      7  C5  PXY d   1       2.783   5.851  -3.740  0.00  0.00     0.003 A 
ATOM      8  C6  PXY d   1       4.120   5.497  -3.897  0.00  0.00     0.003 A 
ENDROOT
TORSDOF 0
ENDMDL
