MODEL 1
REMARK minimizedAffinity 10.3556461
REMARK minimizedRMSD -1
REMARK  0 active torsions:
REMARK  status: ('A' for Active; 'I' for Inactive)
ROOT
ATOM      1  C4' PXY d   1       5.993  -5.233   6.000  0.00  0.00     0.077 C 
ATOM      2  C1' PXY d   1       5.134  -0.910   2.260  0.00  0.00     0.077 C 
ATOM      3  C1  PXY d   1       5.367  -2.036   3.248  0.00  0.00    -0.082 A 
ATOM      4  C2  PXY d   1       5.280  -3.292   2.841  0.00  0.00     0.003 A 
ATOM      5  C3  PXY d   1       5.455  -4.322   3.729  0.00  0.00     0.003 A 
ATOM      6  C4  PXY d   1       5.776  -4.065   5.035  0.00  0.00    -0.082 A 
ATOM      7  C5  PXY d   1       5.877  -2.786   5.455  0.00  0.00     0.003 A 
ATOM      8  C6  PXY d   1       5.654  -1.754   4.548  0.00  0.00     0.003 A 
ENDROOT
TORSDOF 0
ENDMDL
