MODEL 1
REMARK minimizedAffinity 18.4858875
REMARK minimizedRMSD -1
REMARK  0 active torsions:
REMARK  status: ('A' for Active; 'I' for Inactive)
ROOT
ATOM      1  C4' PXY d   1      -1.149  -2.502   0.462  0.00  0.00     0.077 C 
ATOM      2  C1' PXY d   1      -2.432   2.504   3.053  0.00  0.00     0.077 C 
ATOM      3  C1  PXY d   1      -2.104   1.194   2.364  0.00  0.00    -0.082 A 
ATOM      4  C2  PXY d   1      -1.654   0.174   3.077  0.00  0.00     0.003 A 
ATOM      5  C3  PXY d   1      -1.322  -1.007   2.466  0.00  0.00     0.003 A 
ATOM      6  C4  PXY d   1      -1.502  -1.164   1.117  0.00  0.00    -0.082 A 
ATOM      7  C5  PXY d   1      -1.971  -0.132   0.384  0.00  0.00     0.003 A 
ATOM      8  C6  PXY d   1      -2.263   1.072   1.018  0.00  0.00     0.003 A 
ENDROOT
TORSDOF 0
ENDMDL
