MODEL 1
REMARK minimizedAffinity 8.73873806
REMARK minimizedRMSD -1
REMARK  0 active torsions:
REMARK  status: ('A' for Active; 'I' for Inactive)
ROOT
ATOM      1  C4' PXY d   1      -0.137   1.687   2.308  0.00  0.00     0.077 C 
ATOM      2  C1' PXY d   1      -5.147  -1.000   1.260  0.00  0.00     0.077 C 
ATOM      3  C1  PXY d   1      -3.837  -0.285   1.528  0.00  0.00    -0.082 A 
ATOM      4  C2  PXY d   1      -2.765  -0.987   1.858  0.00  0.00     0.003 A 
ATOM      5  C3  PXY d   1      -1.580  -0.354   2.135  0.00  0.00     0.003 A 
ATOM      6  C4  PXY d   1      -1.478   1.007   2.020  0.00  0.00    -0.082 A 
ATOM      7  C5  PXY d   1      -2.565   1.728   1.672  0.00  0.00     0.003 A 
ATOM      8  C6  PXY d   1      -3.768   1.071   1.436  0.00  0.00     0.003 A 
ENDROOT
TORSDOF 0
ENDMDL
