MODEL 1
REMARK minimizedAffinity -5.33021069
REMARK minimizedRMSD -1
REMARK  0 active torsions:
REMARK  status: ('A' for Active; 'I' for Inactive)
ROOT
ATOM      1  C   UNL d   1       0.152  -0.530  -0.669  0.00  0.00     0.078 C 
ATOM      2  C1  UNL d   1       0.098  -0.135   0.776  0.00  0.00    -0.077 A 
ATOM      3  C2  UNL d   1       1.158  -0.425   1.644  0.00  0.00    -0.001 A 
ATOM      4  C3  UNL d   1       1.090  -0.059   2.989  0.00  0.00     0.003 A 
ATOM      5  C4  UNL d   1      -0.037   0.598   3.479  0.00  0.00    -0.005 A 
ATOM      6  C5  UNL d   1      -1.098   0.889   2.624  0.00  0.00     0.003 A 
ATOM      7  C6  UNL d   1      -1.031   0.524   1.278  0.00  0.00    -0.001 A 
ENDROOT
TORSDOF 0
ENDMDL
