MODEL 1
REMARK minimizedAffinity -4.869277
REMARK minimizedRMSD -1
REMARK  0 active torsions:
REMARK  status: ('A' for Active; 'I' for Inactive)
ROOT
ATOM      1  C   UNL d   1       1.103   0.493  -3.043  0.00  0.00     0.078 C 
ATOM      2  C1  UNL d   1      -0.159   0.154  -3.778  0.00  0.00    -0.077 A 
ATOM      3  C2  UNL d   1      -0.809  -1.069  -3.569  0.00  0.00    -0.001 A 
ATOM      4  C3  UNL d   1      -1.978  -1.376  -4.267  0.00  0.00     0.003 A 
ATOM      5  C4  UNL d   1      -2.507  -0.465  -5.180  0.00  0.00    -0.005 A 
ATOM      6  C5  UNL d   1      -1.866   0.753  -5.396  0.00  0.00     0.003 A 
ATOM      7  C6  UNL d   1      -0.697   1.061  -4.699  0.00  0.00    -0.001 A 
ENDROOT
TORSDOF 0
ENDMDL
