MODEL 1
REMARK minimizedAffinity -2.57793498
REMARK minimizedRMSD -1
REMARK  0 active torsions:
REMARK  status: ('A' for Active; 'I' for Inactive)
ROOT
ATOM      1  C   UNL d   1      -0.075  -0.725  -3.503  0.00  0.00     0.078 C 
ATOM      2  C1  UNL d   1       0.100  -0.501  -2.030  0.00  0.00    -0.077 A 
ATOM      3  C2  UNL d   1      -0.841   0.229  -1.294  0.00  0.00    -0.001 A 
ATOM      4  C3  UNL d   1      -0.659   0.437   0.074  0.00  0.00     0.003 A 
ATOM      5  C4  UNL d   1       0.463  -0.080   0.717  0.00  0.00    -0.005 A 
ATOM      6  C5  UNL d   1       1.406  -0.805  -0.007  0.00  0.00     0.003 A 
ATOM      7  C6  UNL d   1       1.227  -1.015  -1.375  0.00  0.00    -0.001 A 
ENDROOT
TORSDOF 0
ENDMDL
