MODEL 1
REMARK minimizedAffinity -5.79770851
REMARK minimizedRMSD -1
REMARK  0 active torsions:
REMARK  status: ('A' for Active; 'I' for Inactive)
ROOT
ATOM      1  C   UNL d   1       0.155  -0.239  -0.458  0.00  0.00     0.078 C 
ATOM      2  C1  UNL d   1       0.098   0.246   0.959  0.00  0.00    -0.077 A 
ATOM      3  C2  UNL d   1       1.172   0.042   1.835  0.00  0.00    -0.001 A 
ATOM      4  C3  UNL d   1       1.101   0.490   3.155  0.00  0.00     0.003 A 
ATOM      5  C4  UNL d   1      -0.041   1.145   3.611  0.00  0.00    -0.005 A 
ATOM      6  C5  UNL d   1      -1.115   1.350   2.748  0.00  0.00     0.003 A 
ATOM      7  C6  UNL d   1      -1.047   0.903   1.428  0.00  0.00    -0.001 A 
ENDROOT
TORSDOF 0
ENDMDL
