MODEL 1
REMARK minimizedAffinity -4.78804874
REMARK minimizedRMSD -1
REMARK  0 active torsions:
REMARK  status: ('A' for Active; 'I' for Inactive)
ROOT
ATOM      1  C   UNL d   1       0.364  -1.041  -0.486  0.00  0.00     0.078 C 
ATOM      2  C1  UNL d   1       0.288  -0.194   0.749  0.00  0.00    -0.077 A 
ATOM      3  C2  UNL d   1      -0.820   0.627   0.993  0.00  0.00    -0.001 A 
ATOM      4  C3  UNL d   1      -0.873   1.417   2.142  0.00  0.00     0.003 A 
ATOM      5  C4  UNL d   1       0.180   1.397   3.055  0.00  0.00    -0.005 A 
ATOM      6  C5  UNL d   1       1.288   0.586   2.819  0.00  0.00     0.003 A 
ATOM      7  C6  UNL d   1       1.343  -0.206   1.670  0.00  0.00    -0.001 A 
ENDROOT
TORSDOF 0
ENDMDL
