MODEL 1
REMARK minimizedAffinity -2.87834334
REMARK minimizedRMSD -1
REMARK  0 active torsions:
REMARK  status: ('A' for Active; 'I' for Inactive)
ROOT
ATOM      1  C   UNL d   1      -0.536  -1.248  -0.272  0.00  0.00     0.078 C 
ATOM      2  C1  UNL d   1      -0.406  -0.082   0.661  0.00  0.00    -0.077 A 
ATOM      3  C2  UNL d   1       0.409   1.011   0.341  0.00  0.00    -0.001 A 
ATOM      4  C3  UNL d   1       0.528   2.085   1.223  0.00  0.00     0.003 A 
ATOM      5  C4  UNL d   1      -0.165   2.078   2.432  0.00  0.00    -0.005 A 
ATOM      6  C5  UNL d   1      -0.977   0.995   2.760  0.00  0.00     0.003 A 
ATOM      7  C6  UNL d   1      -1.097  -0.081   1.879  0.00  0.00    -0.001 A 
ENDROOT
TORSDOF 0
ENDMDL
