MODEL 1
REMARK minimizedAffinity -0.273871571
REMARK minimizedRMSD -1
REMARK  0 active torsions:
REMARK  status: ('A' for Active; 'I' for Inactive)
ROOT
ATOM      1  C   UNL d   1       2.030  -0.523   1.213  0.00  0.00     0.078 C 
ATOM      2  C1  UNL d   1       0.554  -0.261   1.259  0.00  0.00    -0.077 A 
ATOM      3  C2  UNL d   1      -0.080   0.086   2.458  0.00  0.00    -0.001 A 
ATOM      4  C3  UNL d   1      -1.456   0.318   2.488  0.00  0.00     0.003 A 
ATOM      5  C4  UNL d   1      -2.210   0.204   1.322  0.00  0.00    -0.005 A 
ATOM      6  C5  UNL d   1      -1.589  -0.143   0.125  0.00  0.00     0.003 A 
ATOM      7  C6  UNL d   1      -0.213  -0.375   0.092  0.00  0.00    -0.001 A 
ENDROOT
TORSDOF 0
ENDMDL
