MODEL 1
REMARK minimizedAffinity -4.97043133
REMARK minimizedRMSD -1
REMARK  0 active torsions:
REMARK  status: ('A' for Active; 'I' for Inactive)
ROOT
ATOM      1  C   UNL d   1       0.341  -0.563  -1.606  0.00  0.00     0.078 C 
ATOM      2  C1  UNL d   1       0.298  -0.014  -3.000  0.00  0.00    -0.077 A 
ATOM      3  C2  UNL d   1       1.412   0.624  -3.559  0.00  0.00    -0.001 A 
ATOM      4  C3  UNL d   1       1.354   1.139  -4.855  0.00  0.00     0.003 A 
ATOM      5  C4  UNL d   1       0.184   1.023  -5.603  0.00  0.00    -0.005 A 
ATOM      6  C5  UNL d   1      -0.930   0.392  -5.054  0.00  0.00     0.003 A 
ATOM      7  C6  UNL d   1      -0.875  -0.124  -3.758  0.00  0.00    -0.001 A 
ENDROOT
TORSDOF 0
ENDMDL
