MODEL 1
REMARK minimizedAffinity -3.66845369
REMARK minimizedRMSD -1
REMARK  0 active torsions:
REMARK  status: ('A' for Active; 'I' for Inactive)
ROOT
ATOM      1  C   UNL d   1      -0.776   1.279   3.035  0.00  0.00     0.078 C 
ATOM      2  C1  UNL d   1      -0.282   0.399   1.926  0.00  0.00    -0.077 A 
ATOM      3  C2  UNL d   1      -1.104   0.079   0.839  0.00  0.00    -0.001 A 
ATOM      4  C3  UNL d   1      -0.634  -0.749  -0.182  0.00  0.00     0.003 A 
ATOM      5  C4  UNL d   1       0.659  -1.264  -0.125  0.00  0.00    -0.005 A 
ATOM      6  C5  UNL d   1       1.484  -0.953   0.954  0.00  0.00     0.003 A 
ATOM      7  C6  UNL d   1       1.016  -0.125   1.975  0.00  0.00    -0.001 A 
ENDROOT
TORSDOF 0
ENDMDL
