MODEL 1
REMARK minimizedAffinity 3.38115978
REMARK minimizedRMSD -1
REMARK  0 active torsions:
REMARK  status: ('A' for Active; 'I' for Inactive)
ROOT
ATOM      1  C   UNL d   1       3.942  -2.435   5.640  0.00  0.00     0.077 C 
ATOM      2  C1  UNL d   1       3.183  -2.068   4.399  0.00  0.00    -0.074 A 
ATOM      3  C2  UNL d   1       2.117  -2.853   3.950  0.00  0.00    -0.005 A 
ATOM      4  C3  UNL d   1       1.414  -2.494   2.800  0.00  0.00     0.006 A 
ATOM      5  C4  UNL d   1       1.770  -1.347   2.089  0.00  0.00    -0.005 A 
ATOM      6  C5  UNL d   1       2.833  -0.549   2.524  0.00  0.00    -0.074 A 
ATOM      7  C6  UNL d   1       3.222   0.692   1.777  0.00  0.00     0.077 C 
ATOM      8  C7  UNL d   1       3.529  -0.913   3.684  0.00  0.00    -0.001 A 
ENDROOT
TORSDOF 0
ENDMDL
