MODEL 1
REMARK minimizedAffinity 6.62511587
REMARK minimizedRMSD -1
REMARK  0 active torsions:
REMARK  status: ('A' for Active; 'I' for Inactive)
ROOT
ATOM      1  C   UNL d   1       1.734   1.627   2.628  0.00  0.00     0.077 C 
ATOM      2  C1  UNL d   1       2.036   2.771   1.707  0.00  0.00    -0.074 A 
ATOM      3  C2  UNL d   1       3.357   3.135   1.423  0.00  0.00    -0.005 A 
ATOM      4  C3  UNL d   1       3.623   4.195   0.557  0.00  0.00     0.006 A 
ATOM      5  C4  UNL d   1       2.574   4.902  -0.032  0.00  0.00    -0.005 A 
ATOM      6  C5  UNL d   1       1.247   4.552   0.240  0.00  0.00    -0.074 A 
ATOM      7  C6  UNL d   1       0.108   5.294  -0.393  0.00  0.00     0.077 C 
ATOM      8  C7  UNL d   1       0.988   3.481   1.105  0.00  0.00    -0.001 A 
ENDROOT
TORSDOF 0
ENDMDL
