MODEL 1
REMARK minimizedAffinity 8.82552433
REMARK minimizedRMSD -1
REMARK  0 active torsions:
REMARK  status: ('A' for Active; 'I' for Inactive)
ROOT
ATOM      1  C   UNL d   1       5.999  -2.255   2.183  0.00  0.00     0.077 C 
ATOM      2  C1  UNL d   1       4.628  -1.647   2.180  0.00  0.00    -0.074 A 
ATOM      3  C2  UNL d   1       4.240  -0.753   1.177  0.00  0.00    -0.005 A 
ATOM      4  C3  UNL d   1       2.959  -0.203   1.182  0.00  0.00     0.006 A 
ATOM      5  C4  UNL d   1       2.054  -0.540   2.189  0.00  0.00    -0.005 A 
ATOM      6  C5  UNL d   1       2.423  -1.433   3.200  0.00  0.00    -0.074 A 
ATOM      7  C6  UNL d   1       1.459  -1.813   4.285  0.00  0.00     0.077 C 
ATOM      8  C7  UNL d   1       3.711  -1.987   3.184  0.00  0.00    -0.001 A 
ENDROOT
TORSDOF 0
ENDMDL
