MODEL 1
REMARK minimizedAffinity 8.49651432
REMARK minimizedRMSD -1
REMARK  0 active torsions:
REMARK  status: ('A' for Active; 'I' for Inactive)
ROOT
ATOM      1  C   UNL d   1      -6.000   4.515  -0.662  0.00  0.00     0.077 C 
ATOM      2  C1  UNL d   1      -5.196   3.801   0.384  0.00  0.00    -0.074 A 
ATOM      3  C2  UNL d   1      -3.867   3.439   0.146  0.00  0.00    -0.005 A 
ATOM      4  C3  UNL d   1      -3.129   2.784   1.132  0.00  0.00     0.006 A 
ATOM      5  C4  UNL d   1      -3.712   2.484   2.363  0.00  0.00    -0.005 A 
ATOM      6  C5  UNL d   1      -5.041   2.839   2.620  0.00  0.00    -0.074 A 
ATOM      7  C6  UNL d   1      -5.680   2.534   3.942  0.00  0.00     0.077 C 
ATOM      8  C7  UNL d   1      -5.773   3.504   1.626  0.00  0.00    -0.001 A 
ENDROOT
TORSDOF 0
ENDMDL
