MODEL 1
REMARK minimizedAffinity 6.78307056
REMARK minimizedRMSD -1
REMARK  0 active torsions:
REMARK  status: ('A' for Active; 'I' for Inactive)
ROOT
ATOM      1  C   UNL d   1       0.607  -4.131   5.247  0.00  0.00     0.077 C 
ATOM      2  C1  UNL d   1       1.765  -3.417   4.616  0.00  0.00    -0.074 A 
ATOM      3  C2  UNL d   1       3.030  -4.012   4.556  0.00  0.00    -0.005 A 
ATOM      4  C3  UNL d   1       4.095  -3.339   3.957  0.00  0.00     0.006 A 
ATOM      5  C4  UNL d   1       3.907  -2.068   3.414  0.00  0.00    -0.005 A 
ATOM      6  C5  UNL d   1       2.650  -1.458   3.464  0.00  0.00    -0.074 A 
ATOM      7  C6  UNL d   1       2.428  -0.096   2.876  0.00  0.00     0.077 C 
ATOM      8  C7  UNL d   1       1.583  -2.143   4.061  0.00  0.00    -0.001 A 
ENDROOT
TORSDOF 0
ENDMDL
