MODEL 1
REMARK minimizedAffinity 12.5903168
REMARK minimizedRMSD -1
REMARK  0 active torsions:
REMARK  status: ('A' for Active; 'I' for Inactive)
ROOT
ATOM      1  C   UNL d   1      -5.999   4.670  -0.069  0.00  0.00     0.077 C 
ATOM      2  C1  UNL d   1      -5.954   3.677   1.055  0.00  0.00    -0.074 A 
ATOM      3  C2  UNL d   1      -5.964   2.302   0.800  0.00  0.00    -0.005 A 
ATOM      4  C3  UNL d   1      -5.912   1.391   1.854  0.00  0.00     0.006 A 
ATOM      5  C4  UNL d   1      -5.849   1.844   3.172  0.00  0.00    -0.005 A 
ATOM      6  C5  UNL d   1      -5.837   3.216   3.447  0.00  0.00    -0.074 A 
ATOM      7  C6  UNL d   1      -5.760   3.720   4.857  0.00  0.00     0.077 C 
ATOM      8  C7  UNL d   1      -5.883   4.125   2.381  0.00  0.00    -0.001 A 
ENDROOT
TORSDOF 0
ENDMDL
