MODEL 1
REMARK minimizedAffinity 6.26696444
REMARK minimizedRMSD -1
REMARK  0 active torsions:
REMARK  status: ('A' for Active; 'I' for Inactive)
ROOT
ATOM      1  C   UNL d   1      -5.999   2.022  -1.107  0.00  0.00     0.077 C 
ATOM      2  C1  UNL d   1      -5.238   2.490   0.098  0.00  0.00    -0.074 A 
ATOM      3  C2  UNL d   1      -3.842   2.415   0.140  0.00  0.00    -0.005 A 
ATOM      4  C3  UNL d   1      -3.148   2.863   1.264  0.00  0.00     0.006 A 
ATOM      5  C4  UNL d   1      -3.841   3.389   2.355  0.00  0.00    -0.005 A 
ATOM      6  C5  UNL d   1      -5.236   3.473   2.330  0.00  0.00    -0.074 A 
ATOM      7  C6  UNL d   1      -5.996   4.045   3.490  0.00  0.00     0.077 C 
ATOM      8  C7  UNL d   1      -5.927   3.027   1.195  0.00  0.00    -0.001 A 
ENDROOT
TORSDOF 0
ENDMDL
