MODEL 1
REMARK minimizedAffinity -4.05543852
REMARK minimizedRMSD -1
REMARK  1 active torsions:
REMARK  status: ('A' for Active; 'I' for Inactive)
REMARK    1  A    between atoms: C1_2  and  C2_3 
ROOT
ATOM      1  C2  UNL d   1       1.042  -2.464   0.106  0.00  0.00    -0.073 A 
ATOM      2  C3  UNL d   1       1.757  -1.264   0.184  0.00  0.00    -0.002 A 
ATOM      3  C4  UNL d   1       3.153  -1.273   0.160  0.00  0.00     0.004 A 
ATOM      4  C5  UNL d   1       3.846  -2.478   0.050  0.00  0.00    -0.004 A 
ATOM      5  C6  UNL d   1       3.148  -3.687  -0.041  0.00  0.00    -0.075 A 
ATOM      6  C7  UNL d   1       3.878  -4.993  -0.158  0.00  0.00     0.076 C 
ATOM      7  C8  UNL d   1       1.747  -3.670  -0.014  0.00  0.00     0.001 A 
ENDROOT
BRANCH   1   8
ATOM      8  C1  UNL d   1      -0.465  -2.459   0.125  0.00  0.00     0.053 C 
ATOM      9  C   UNL d   1      -1.025  -1.115   0.563  0.00  0.00     0.018 C 
ENDBRANCH   1   8
TORSDOF 1
ENDMDL
