MODEL 1
REMARK minimizedAffinity -4.33811951
REMARK minimizedRMSD -1
REMARK  1 active torsions:
REMARK  status: ('A' for Active; 'I' for Inactive)
REMARK    1  A    between atoms: C1_2  and  C2_3 
ROOT
ATOM      1  C2  UNL d   1       1.316  -2.813   0.113  0.00  0.00    -0.073 A 
ATOM      2  C3  UNL d   1       2.044  -1.623  -0.006  0.00  0.00    -0.002 A 
ATOM      3  C4  UNL d   1       3.435  -1.656  -0.114  0.00  0.00     0.004 A 
ATOM      4  C5  UNL d   1       4.111  -2.876  -0.111  0.00  0.00    -0.004 A 
ATOM      5  C6  UNL d   1       3.400  -4.076  -0.005  0.00  0.00    -0.075 A 
ATOM      6  C7  UNL d   1       4.112  -5.396   0.003  0.00  0.00     0.076 C 
ATOM      7  C8  UNL d   1       2.004  -4.035   0.106  0.00  0.00     0.001 A 
ENDROOT
BRANCH   1   8
ATOM      8  C1  UNL d   1      -0.187  -2.783   0.224  0.00  0.00     0.053 C 
ATOM      9  C   UNL d   1      -0.706  -1.394   0.559  0.00  0.00     0.018 C 
ENDBRANCH   1   8
TORSDOF 1
ENDMDL
