MODEL 1
REMARK minimizedAffinity 2.22002912
REMARK minimizedRMSD -1
REMARK  1 active torsions:
REMARK  status: ('A' for Active; 'I' for Inactive)
REMARK    1  A    between atoms: C1_2  and  C2_3 
ROOT
ATOM      1  C2  UNL d   1       2.754  -1.644   0.854  0.00  0.00    -0.073 A 
ATOM      2  C3  UNL d   1       2.466  -2.969   0.505  0.00  0.00    -0.002 A 
ATOM      3  C4  UNL d   1       1.145  -3.417   0.472  0.00  0.00     0.004 A 
ATOM      4  C5  UNL d   1       0.100  -2.546   0.781  0.00  0.00    -0.004 A 
ATOM      5  C6  UNL d   1       0.367  -1.216   1.120  0.00  0.00    -0.075 A 
ATOM      6  C7  UNL d   1      -0.745  -0.267   1.457  0.00  0.00     0.076 C 
ATOM      7  C8  UNL d   1       1.697  -0.774   1.154  0.00  0.00     0.001 A 
ENDROOT
BRANCH   1   8
ATOM      8  C1  UNL d   1       4.179  -1.154   0.885  0.00  0.00     0.053 C 
ATOM      9  C   UNL d   1       4.612  -0.747   2.284  0.00  0.00     0.018 C 
ENDBRANCH   1   8
TORSDOF 1
ENDMDL
