MODEL 1
REMARK minimizedAffinity 1.70493066
REMARK minimizedRMSD -1
REMARK  1 active torsions:
REMARK  status: ('A' for Active; 'I' for Inactive)
REMARK    1  A    between atoms: C1_2  and  C2_3 
ROOT
ATOM      1  C2  UNL d   1       2.467  -0.663   1.540  0.00  0.00    -0.073 A 
ATOM      2  C3  UNL d   1       2.582  -1.515   0.435  0.00  0.00    -0.002 A 
ATOM      3  C4  UNL d   1       1.452  -1.867  -0.305  0.00  0.00     0.004 A 
ATOM      4  C5  UNL d   1       0.199  -1.367   0.048  0.00  0.00    -0.004 A 
ATOM      5  C6  UNL d   1       0.065  -0.506   1.141  0.00  0.00    -0.075 A 
ATOM      6  C7  UNL d   1      -1.277   0.039   1.535  0.00  0.00     0.076 C 
ATOM      7  C8  UNL d   1       1.204  -0.159   1.881  0.00  0.00     0.001 A 
ENDROOT
BRANCH   1   8
ATOM      8  C1  UNL d   1       3.685  -0.275   2.338  0.00  0.00     0.053 C 
ATOM      9  C   UNL d   1       4.885  -1.149   2.008  0.00  0.00     0.018 C 
ENDBRANCH   1   8
TORSDOF 1
ENDMDL
