MODEL 1
REMARK minimizedAffinity -3.70951319
REMARK minimizedRMSD -1
REMARK  1 active torsions:
REMARK  status: ('A' for Active; 'I' for Inactive)
REMARK    1  A    between atoms: C1_2  and  C2_3 
ROOT
ATOM      1  C2  UNL d   1       1.243  -2.729   0.174  0.00  0.00    -0.073 A 
ATOM      2  C3  UNL d   1       2.165  -1.791   0.653  0.00  0.00    -0.002 A 
ATOM      3  C4  UNL d   1       1.760  -0.486   0.938  0.00  0.00     0.004 A 
ATOM      4  C5  UNL d   1       0.430  -0.108   0.754  0.00  0.00    -0.004 A 
ATOM      5  C6  UNL d   1      -0.509  -1.034   0.288  0.00  0.00    -0.075 A 
ATOM      6  C7  UNL d   1      -1.943  -0.643   0.083  0.00  0.00     0.076 C 
ATOM      7  C8  UNL d   1      -0.094  -2.342   0.001  0.00  0.00     0.001 A 
ENDROOT
BRANCH   1   8
ATOM      8  C1  UNL d   1       1.674  -4.140  -0.129  0.00  0.00     0.053 C 
ATOM      9  C   UNL d   1       3.155  -4.355   0.143  0.00  0.00     0.018 C 
ENDBRANCH   1   8
TORSDOF 1
ENDMDL
