MODEL 1
REMARK minimizedAffinity -3.5542593
REMARK minimizedRMSD -1
REMARK  1 active torsions:
REMARK  status: ('A' for Active; 'I' for Inactive)
REMARK    1  A    between atoms: C1_2  and  C2_3 
ROOT
ATOM      1  C2  UNL d   1       1.472  -3.160   0.204  0.00  0.00    -0.073 A 
ATOM      2  C3  UNL d   1       0.074  -3.109   0.263  0.00  0.00    -0.002 A 
ATOM      3  C4  UNL d   1      -0.574  -1.919   0.596  0.00  0.00     0.004 A 
ATOM      4  C5  UNL d   1       0.166  -0.768   0.866  0.00  0.00    -0.004 A 
ATOM      5  C6  UNL d   1       1.563  -0.796   0.800  0.00  0.00    -0.075 A 
ATOM      6  C7  UNL d   1       2.374   0.433   1.089  0.00  0.00     0.076 C 
ATOM      7  C8  UNL d   1       2.207  -1.996   0.468  0.00  0.00     0.001 A 
ENDROOT
BRANCH   1   8
ATOM      8  C1  UNL d   1       2.176  -4.441  -0.162  0.00  0.00     0.053 C 
ATOM      9  C   UNL d   1       3.686  -4.321  -0.025  0.00  0.00     0.018 C 
ENDBRANCH   1   8
TORSDOF 1
ENDMDL
