MODEL 1
REMARK minimizedAffinity -0.0589547306
REMARK minimizedRMSD -1
REMARK  1 active torsions:
REMARK  status: ('A' for Active; 'I' for Inactive)
REMARK    1  A    between atoms: C1_2  and  C2_3 
ROOT
ATOM      1  C2  UNL d   1       2.866  -3.081   0.234  0.00  0.00    -0.073 A 
ATOM      2  C3  UNL d   1       1.717  -3.867   0.085  0.00  0.00    -0.002 A 
ATOM      3  C4  UNL d   1       0.468  -3.367   0.459  0.00  0.00     0.004 A 
ATOM      4  C5  UNL d   1       0.355  -2.077   0.977  0.00  0.00    -0.004 A 
ATOM      5  C6  UNL d   1       1.490  -1.273   1.122  0.00  0.00    -0.075 A 
ATOM      6  C7  UNL d   1       1.385   0.116   1.679  0.00  0.00     0.076 C 
ATOM      7  C8  UNL d   1       2.740  -1.783   0.747  0.00  0.00     0.001 A 
ENDROOT
BRANCH   1   8
ATOM      8  C1  UNL d   1       4.215  -3.614  -0.174  0.00  0.00     0.053 C 
ATOM      9  C   UNL d   1       4.273  -5.132  -0.106  0.00  0.00     0.018 C 
ENDBRANCH   1   8
TORSDOF 1
ENDMDL
