MODEL 1
REMARK minimizedAffinity 0.939494908
REMARK minimizedRMSD -1
REMARK  1 active torsions:
REMARK  status: ('A' for Active; 'I' for Inactive)
REMARK    1  A    between atoms: C1_2  and  C2_3 
ROOT
ATOM      1  C2  UNL d   1       1.722  -2.925  -0.090  0.00  0.00    -0.073 A 
ATOM      2  C3  UNL d   1       2.618  -1.870   0.114  0.00  0.00    -0.002 A 
ATOM      3  C4  UNL d   1       2.200  -0.704   0.757  0.00  0.00     0.004 A 
ATOM      4  C5  UNL d   1       0.886  -0.584   1.209  0.00  0.00    -0.004 A 
ATOM      5  C6  UNL d   1      -0.021  -1.633   1.026  0.00  0.00    -0.075 A 
ATOM      6  C7  UNL d   1      -1.439  -1.519   1.504  0.00  0.00     0.076 C 
ATOM      7  C8  UNL d   1       0.406  -2.799   0.376  0.00  0.00     0.001 A 
ENDROOT
BRANCH   1   8
ATOM      8  C1  UNL d   1       2.171  -4.188  -0.778  0.00  0.00     0.053 C 
ATOM      9  C   UNL d   1       3.582  -4.586  -0.377  0.00  0.00     0.018 C 
ENDBRANCH   1   8
TORSDOF 1
ENDMDL
