MODEL 1
REMARK minimizedAffinity 1.13112319
REMARK minimizedRMSD -1
REMARK  1 active torsions:
REMARK  status: ('A' for Active; 'I' for Inactive)
REMARK    1  A    between atoms: C1_2  and  C2_3 
ROOT
ATOM      1  C2  UNL d   1       3.382  -4.656  -0.173  0.00  0.00    -0.073 A 
ATOM      2  C3  UNL d   1       2.026  -4.889   0.083  0.00  0.00    -0.002 A 
ATOM      3  C4  UNL d   1       1.164  -3.822   0.339  0.00  0.00     0.004 A 
ATOM      4  C5  UNL d   1       1.646  -2.513   0.335  0.00  0.00    -0.004 A 
ATOM      5  C6  UNL d   1       2.996  -2.260   0.070  0.00  0.00    -0.075 A 
ATOM      6  C7  UNL d   1       3.531  -0.858   0.065  0.00  0.00     0.076 C 
ATOM      7  C8  UNL d   1       3.856  -3.336  -0.183  0.00  0.00     0.001 A 
ENDROOT
BRANCH   1   8
ATOM      8  C1  UNL d   1       4.316  -5.805  -0.456  0.00  0.00     0.053 C 
ATOM      9  C   UNL d   1       5.337  -5.997   0.654  0.00  0.00     0.018 C 
ENDBRANCH   1   8
TORSDOF 1
ENDMDL
