MODEL 1
REMARK minimizedAffinity -3.085145
REMARK minimizedRMSD -1
REMARK  1 active torsions:
REMARK  status: ('A' for Active; 'I' for Inactive)
REMARK    1  A    between atoms: C1_2  and  C2_3 
ROOT
ATOM      1  C2  UNL d   1       0.606  -3.042  -0.469  0.00  0.00    -0.073 A 
ATOM      2  C3  UNL d   1       1.949  -2.700  -0.272  0.00  0.00    -0.002 A 
ATOM      3  C4  UNL d   1       2.288  -1.451   0.249  0.00  0.00     0.004 A 
ATOM      4  C5  UNL d   1       1.291  -0.535   0.584  0.00  0.00    -0.004 A 
ATOM      5  C6  UNL d   1      -0.057  -0.863   0.405  0.00  0.00    -0.075 A 
ATOM      6  C7  UNL d   1      -1.142   0.111   0.758  0.00  0.00     0.076 C 
ATOM      7  C8  UNL d   1      -0.390  -2.119  -0.121  0.00  0.00     0.001 A 
ENDROOT
BRANCH   1   8
ATOM      8  C1  UNL d   1       0.235  -4.393  -1.026  0.00  0.00     0.053 C 
ATOM      9  C   UNL d   1       0.020  -4.350  -2.530  0.00  0.00     0.018 C 
ENDBRANCH   1   8
TORSDOF 1
ENDMDL
