MODEL 1
REMARK minimizedAffinity 3.61693525
REMARK minimizedRMSD -1
REMARK  0 active torsions:
REMARK  status: ('A' for Active; 'I' for Inactive)
ROOT
ATOM      1  C1  DEN d   1      -2.219  -0.325   0.805  0.00  0.00     0.130 A 
ATOM      2  C2  DEN d   1      -2.468   1.096   0.580  0.00  0.00    -0.031 A 
ATOM      3  C3  DEN d   1      -1.471   1.586  -0.392  0.00  0.00     0.027 A 
ATOM      4  C4  DEN d   1       0.423   0.288  -1.568  0.00  0.00     0.027 A 
ATOM      5  C5  DEN d   1       1.036  -0.939  -1.688  0.00  0.00    -0.003 A 
ATOM      6  C6  DEN d   1       0.632  -2.031  -0.966  0.00  0.00     0.001 A 
ATOM      7  C7  DEN d   1      -0.444  -1.928  -0.124  0.00  0.00     0.017 A 
ATOM      8  C8  DEN d   1      -1.062  -0.691   0.007  0.00  0.00    -0.094 A 
ATOM      9  C9  DEN d   1      -0.647   0.397  -0.741  0.00  0.00    -0.072 A 
ENDROOT
TORSDOF 0
ENDMDL
