MODEL 1
REMARK minimizedAffinity 6.85081053
REMARK minimizedRMSD -1
REMARK  0 active torsions:
REMARK  status: ('A' for Active; 'I' for Inactive)
ROOT
ATOM      1  C1  DEN d   1      -2.039  -3.530  -1.514  0.00  0.00     0.130 A 
ATOM      2  C2  DEN d   1      -1.295  -3.217  -2.731  0.00  0.00    -0.031 A 
ATOM      3  C3  DEN d   1      -0.384  -2.093  -2.432  0.00  0.00     0.027 A 
ATOM      4  C4  DEN d   1      -0.053  -0.818  -0.215  0.00  0.00     0.027 A 
ATOM      5  C5  DEN d   1      -0.469  -0.716   1.094  0.00  0.00    -0.003 A 
ATOM      6  C6  DEN d   1      -1.453  -1.515   1.612  0.00  0.00     0.001 A 
ATOM      7  C7  DEN d   1      -2.024  -2.483   0.828  0.00  0.00     0.017 A 
ATOM      8  C8  DEN d   1      -1.615  -2.588  -0.494  0.00  0.00    -0.094 A 
ATOM      9  C9  DEN d   1      -0.609  -1.779  -0.996  0.00  0.00    -0.072 A 
ENDROOT
TORSDOF 0
ENDMDL
