MODEL 1
REMARK minimizedAffinity -1.3870523
REMARK minimizedRMSD -1
REMARK  0 active torsions:
REMARK  status: ('A' for Active; 'I' for Inactive)
ROOT
ATOM      1  C1  DEN d   1       0.891   0.940  -0.723  0.00  0.00     0.130 A 
ATOM      2  C2  DEN d   1       0.670   1.923   0.334  0.00  0.00    -0.031 A 
ATOM      3  C3  DEN d   1      -0.186   1.301   1.364  0.00  0.00     0.027 A 
ATOM      4  C4  DEN d   1      -1.183  -1.077   1.426  0.00  0.00     0.027 A 
ATOM      5  C5  DEN d   1      -1.282  -2.270   0.746  0.00  0.00    -0.003 A 
ATOM      6  C6  DEN d   1      -0.697  -2.465  -0.477  0.00  0.00     0.001 A 
ATOM      7  C7  DEN d   1       0.052  -1.464  -1.038  0.00  0.00     0.017 A 
ATOM      8  C8  DEN d   1       0.151  -0.255  -0.361  0.00  0.00    -0.094 A 
ATOM      9  C9  DEN d   1      -0.438  -0.083   0.880  0.00  0.00    -0.072 A 
ENDROOT
TORSDOF 0
ENDMDL
