MODEL 1
REMARK minimizedAffinity 10.9013424
REMARK minimizedRMSD -1
REMARK  0 active torsions:
REMARK  status: ('A' for Active; 'I' for Inactive)
ROOT
ATOM      1  C1  DEN d   1       1.507   4.689   1.563  0.00  0.00     0.130 A 
ATOM      2  C2  DEN d   1       0.770   3.558   2.122  0.00  0.00    -0.031 A 
ATOM      3  C3  DEN d   1       1.378   2.316   1.604  0.00  0.00     0.027 A 
ATOM      4  C4  DEN d   1       3.381   2.035   0.003  0.00  0.00     0.027 A 
ATOM      5  C5  DEN d   1       4.322   2.706  -0.745  0.00  0.00    -0.003 A 
ATOM      6  C6  DEN d   1       4.370   4.074  -0.804  0.00  0.00     0.001 A 
ATOM      7  C7  DEN d   1       3.486   4.815  -0.065  0.00  0.00     0.017 A 
ATOM      8  C8  DEN d   1       2.529   4.146   0.687  0.00  0.00    -0.094 A 
ATOM      9  C9  DEN d   1       2.506   2.763   0.742  0.00  0.00    -0.072 A 
ENDROOT
TORSDOF 0
ENDMDL
