MODEL 1
REMARK minimizedAffinity -3.18860888
REMARK minimizedRMSD -1
REMARK  0 active torsions:
REMARK  status: ('A' for Active; 'I' for Inactive)
ROOT
ATOM      1  C1  DEN d   1       0.377   0.705  -1.124  0.00  0.00     0.130 A 
ATOM      2  C2  DEN d   1       0.374   1.817  -0.178  0.00  0.00    -0.031 A 
ATOM      3  C3  DEN d   1      -0.061   1.299   1.134  0.00  0.00     0.027 A 
ATOM      4  C4  DEN d   1      -0.722  -1.106   1.791  0.00  0.00     0.027 A 
ATOM      5  C5  DEN d   1      -0.887  -2.392   1.325  0.00  0.00    -0.003 A 
ATOM      6  C6  DEN d   1      -0.677  -2.726   0.013  0.00  0.00     0.001 A 
ATOM      7  C7  DEN d   1      -0.245  -1.771  -0.869  0.00  0.00     0.017 A 
ATOM      8  C8  DEN d   1      -0.084  -0.471  -0.409  0.00  0.00    -0.094 A 
ATOM      9  C9  DEN d   1      -0.290  -0.156   0.924  0.00  0.00    -0.072 A 
ENDROOT
TORSDOF 0
ENDMDL
