MODEL 1
REMARK minimizedAffinity -3.15505552
REMARK minimizedRMSD -1
REMARK  0 active torsions:
REMARK  status: ('A' for Active; 'I' for Inactive)
ROOT
ATOM      1  C1  DEN d   1       1.285   0.076   0.391  0.00  0.00     0.130 A 
ATOM      2  C2  DEN d   1      -0.045   0.180  -0.202  0.00  0.00    -0.031 A 
ATOM      3  C3  DEN d   1      -0.417   1.608  -0.243  0.00  0.00     0.027 A 
ATOM      4  C4  DEN d   1       0.932   3.660   0.546  0.00  0.00     0.027 A 
ATOM      5  C5  DEN d   1       2.110   4.072   1.129  0.00  0.00    -0.003 A 
ATOM      6  C6  DEN d   1       3.073   3.186   1.535  0.00  0.00     0.001 A 
ATOM      7  C7  DEN d   1       2.895   1.845   1.321  0.00  0.00     0.017 A 
ATOM      8  C8  DEN d   1       1.707   1.421   0.741  0.00  0.00    -0.094 A 
ATOM      9  C9  DEN d   1       0.750   2.333   0.327  0.00  0.00    -0.072 A 
ENDROOT
TORSDOF 0
ENDMDL
