MODEL 1
REMARK minimizedAffinity -2.88203335
REMARK minimizedRMSD -1
REMARK  0 active torsions:
REMARK  status: ('A' for Active; 'I' for Inactive)
ROOT
ATOM      1  C1  DEN d   1       2.239   2.135   1.907  0.00  0.00     0.130 A 
ATOM      2  C2  DEN d   1       2.228   3.387   1.155  0.00  0.00    -0.031 A 
ATOM      3  C3  DEN d   1       1.291   3.232   0.025  0.00  0.00     0.027 A 
ATOM      4  C4  DEN d   1      -0.141   1.188  -0.628  0.00  0.00     0.027 A 
ATOM      5  C5  DEN d   1      -0.459  -0.111  -0.297  0.00  0.00    -0.003 A 
ATOM      6  C6  DEN d   1       0.119  -0.758   0.762  0.00  0.00     0.001 A 
ATOM      7  C7  DEN d   1       1.015  -0.092   1.557  0.00  0.00     0.017 A 
ATOM      8  C8  DEN d   1       1.347   1.215   1.226  0.00  0.00    -0.094 A 
ATOM      9  C9  DEN d   1       0.742   1.856   0.158  0.00  0.00    -0.072 A 
ENDROOT
TORSDOF 0
ENDMDL
