MODEL 1
REMARK minimizedAffinity -0.709883571
REMARK minimizedRMSD -1
REMARK  0 active torsions:
REMARK  status: ('A' for Active; 'I' for Inactive)
ROOT
ATOM      1  C1  DEN d   1       2.862   2.263   0.285  0.00  0.00     0.130 A 
ATOM      2  C2  DEN d   1       2.579   3.381   1.180  0.00  0.00    -0.031 A 
ATOM      3  C3  DEN d   1       1.202   3.220   1.689  0.00  0.00     0.027 A 
ATOM      4  C4  DEN d   1      -0.507   1.356   1.184  0.00  0.00     0.027 A 
ATOM      5  C5  DEN d   1      -0.727   0.197   0.473  0.00  0.00    -0.003 A 
ATOM      6  C6  DEN d   1       0.214  -0.332  -0.370  0.00  0.00     0.001 A 
ATOM      7  C7  DEN d   1       1.436   0.275  -0.489  0.00  0.00     0.017 A 
ATOM      8  C8  DEN d   1       1.663   1.448   0.220  0.00  0.00    -0.094 A 
ATOM      9  C9  DEN d   1       0.703   1.960   1.076  0.00  0.00    -0.072 A 
ENDROOT
TORSDOF 0
ENDMDL
