MODEL 1
REMARK minimizedAffinity -2.59116888
REMARK minimizedRMSD -1
REMARK  0 active torsions:
REMARK  status: ('A' for Active; 'I' for Inactive)
ROOT
ATOM      1  C1  DEN d   1       0.540   0.925  -0.934  0.00  0.00     0.130 A 
ATOM      2  C2  DEN d   1       0.525   1.849   0.196  0.00  0.00    -0.031 A 
ATOM      3  C3  DEN d   1      -0.024   1.132   1.365  0.00  0.00     0.027 A 
ATOM      4  C4  DEN d   1      -0.844  -1.308   1.533  0.00  0.00     0.027 A 
ATOM      5  C5  DEN d   1      -1.038  -2.478   0.832  0.00  0.00    -0.003 A 
ATOM      6  C6  DEN d   1      -0.753  -2.585  -0.503  0.00  0.00     0.001 A 
ATOM      7  C7  DEN d   1      -0.216  -1.516  -1.171  0.00  0.00     0.017 A 
ATOM      8  C8  DEN d   1      -0.025  -0.330  -0.473  0.00  0.00    -0.094 A 
ATOM      9  C9  DEN d   1      -0.308  -0.246   0.880  0.00  0.00    -0.072 A 
ENDROOT
TORSDOF 0
ENDMDL
