MODEL 1
REMARK minimizedAffinity -6.10952616
REMARK minimizedRMSD -1
REMARK  0 active torsions:
REMARK  status: ('A' for Active; 'I' for Inactive)
ROOT
ATOM      1  C1  DEN d   1      -0.032  -0.078  -1.338  0.00  0.00     0.130 A 
ATOM      2  C2  DEN d   1      -0.226   0.416   0.022  0.00  0.00    -0.031 A 
ATOM      3  C3  DEN d   1      -0.244  -0.747   0.932  0.00  0.00     0.027 A 
ATOM      4  C4  DEN d   1       0.015  -3.251   0.370  0.00  0.00     0.027 A 
ATOM      5  C5  DEN d   1       0.191  -4.161  -0.649  0.00  0.00    -0.003 A 
ATOM      6  C6  DEN d   1       0.270  -3.779  -1.962  0.00  0.00     0.001 A 
ATOM      7  C7  DEN d   1       0.218  -2.449  -2.287  0.00  0.00     0.017 A 
ATOM      8  C8  DEN d   1       0.034  -1.527  -1.265  0.00  0.00    -0.094 A 
ATOM      9  C9  DEN d   1      -0.032  -1.932   0.057  0.00  0.00    -0.072 A 
ENDROOT
TORSDOF 0
ENDMDL
