MODEL 1
REMARK minimizedAffinity -3.54736495
REMARK minimizedRMSD -1
REMARK  0 active torsions:
REMARK  status: ('A' for Active; 'I' for Inactive)
ROOT
ATOM      1  C1  DEN d   1      -0.569   1.097  -0.883  0.00  0.00     0.130 A 
ATOM      2  C2  DEN d   1       0.337   2.069  -0.277  0.00  0.00    -0.031 A 
ATOM      3  C3  DEN d   1       0.701   1.578   1.067  0.00  0.00     0.027 A 
ATOM      4  C4  DEN d   1      -0.041  -0.585   2.261  0.00  0.00     0.027 A 
ATOM      5  C5  DEN d   1      -0.814  -1.719   2.150  0.00  0.00    -0.003 A 
ATOM      6  C6  DEN d   1      -1.580  -1.976   1.044  0.00  0.00     0.001 A 
ATOM      7  C7  DEN d   1      -1.555  -1.107  -0.015  0.00  0.00     0.017 A 
ATOM      8  C8  DEN d   1      -0.783   0.042   0.092  0.00  0.00    -0.094 A 
ATOM      9  C9  DEN d   1      -0.006   0.277   1.213  0.00  0.00    -0.072 A 
ENDROOT
TORSDOF 0
ENDMDL
