MODEL 1
REMARK minimizedAffinity -4.44526863
REMARK minimizedRMSD -1
REMARK  0 active torsions:
REMARK  status: ('A' for Active; 'I' for Inactive)
ROOT
ATOM      1  C1  DEN d   1      -0.719  -3.288  -1.679  0.00  0.00     0.130 A 
ATOM      2  C2  DEN d   1      -0.278  -2.594  -2.886  0.00  0.00    -0.031 A 
ATOM      3  C3  DEN d   1       0.075  -1.209  -2.513  0.00  0.00     0.027 A 
ATOM      4  C4  DEN d   1      -0.013  -0.080  -0.196  0.00  0.00     0.027 A 
ATOM      5  C5  DEN d   1      -0.333  -0.264   1.131  0.00  0.00    -0.003 A 
ATOM      6  C6  DEN d   1      -0.831  -1.449   1.604  0.00  0.00     0.001 A 
ATOM      7  C7  DEN d   1      -0.983  -2.510   0.752  0.00  0.00     0.017 A 
ATOM      8  C8  DEN d   1      -0.670  -2.330  -0.589  0.00  0.00    -0.094 A 
ATOM      9  C9  DEN d   1      -0.155  -1.128  -1.046  0.00  0.00    -0.072 A 
ENDROOT
TORSDOF 0
ENDMDL
