MODEL 1
REMARK minimizedAffinity -4.06788111
REMARK minimizedRMSD -1
REMARK  0 active torsions:
REMARK  status: ('A' for Active; 'I' for Inactive)
ROOT
ATOM      1  C1  DEN d   1       0.419  -0.417   1.408  0.00  0.00     0.130 A 
ATOM      2  C2  DEN d   1      -0.421  -1.430   0.774  0.00  0.00    -0.031 A 
ATOM      3  C3  DEN d   1      -0.833  -0.918  -0.548  0.00  0.00     0.027 A 
ATOM      4  C4  DEN d   1      -0.253   1.331  -1.671  0.00  0.00     0.027 A 
ATOM      5  C5  DEN d   1       0.420   2.523  -1.515  0.00  0.00    -0.003 A 
ATOM      6  C6  DEN d   1       1.106   2.830  -0.370  0.00  0.00     0.001 A 
ATOM      7  C7  DEN d   1       1.172   1.915   0.647  0.00  0.00     0.017 A 
ATOM      8  C8  DEN d   1       0.490   0.714   0.501  0.00  0.00    -0.094 A 
ATOM      9  C9  DEN d   1      -0.188   0.417  -0.669  0.00  0.00    -0.072 A 
ENDROOT
TORSDOF 0
ENDMDL
