MODEL 1
REMARK minimizedAffinity -2.51426697
REMARK minimizedRMSD -1
REMARK  0 active torsions:
REMARK  status: ('A' for Active; 'I' for Inactive)
ROOT
ATOM      1  C1  DEN d   1       0.065  -1.346  -2.521  0.00  0.00     0.130 A 
ATOM      2  C2  DEN d   1      -0.123  -2.761  -2.827  0.00  0.00    -0.031 A 
ATOM      3  C3  DEN d   1      -0.618  -3.431  -1.608  0.00  0.00     0.027 A 
ATOM      4  C4  DEN d   1      -1.113  -2.418   0.712  0.00  0.00     0.027 A 
ATOM      5  C5  DEN d   1      -1.095  -1.260   1.458  0.00  0.00    -0.003 A 
ATOM      6  C6  DEN d   1      -0.661  -0.067   0.945  0.00  0.00     0.001 A 
ATOM      7  C7  DEN d   1      -0.269   0.006  -0.366  0.00  0.00     0.017 A 
ATOM      8  C8  DEN d   1      -0.277  -1.159  -1.122  0.00  0.00    -0.094 A 
ATOM      9  C9  DEN d   1      -0.731  -2.353  -0.589  0.00  0.00    -0.072 A 
ENDROOT
TORSDOF 0
ENDMDL
