MODEL 1
REMARK minimizedAffinity -6.74056768
REMARK minimizedRMSD -1
REMARK  0 active torsions:
REMARK  status: ('A' for Active; 'I' for Inactive)
ROOT
ATOM      1  C1  DEN d   1      -0.030  -0.098   0.615  0.00  0.00     0.130 A 
ATOM      2  C2  DEN d   1       0.024   0.934  -0.417  0.00  0.00    -0.031 A 
ATOM      3  C3  DEN d   1       0.034   0.263  -1.733  0.00  0.00     0.027 A 
ATOM      4  C4  DEN d   1      -0.034  -2.259  -2.269  0.00  0.00     0.027 A 
ATOM      5  C5  DEN d   1      -0.072  -3.522  -1.722  0.00  0.00    -0.003 A 
ATOM      6  C6  DEN d   1      -0.065  -3.732  -0.368  0.00  0.00     0.001 A 
ATOM      7  C7  DEN d   1      -0.064  -2.660   0.485  0.00  0.00     0.017 A 
ATOM      8  C8  DEN d   1      -0.018  -1.384  -0.060  0.00  0.00    -0.094 A 
ATOM      9  C9  DEN d   1      -0.038  -1.192  -1.431  0.00  0.00    -0.072 A 
ENDROOT
TORSDOF 0
ENDMDL
