MODEL 1
REMARK minimizedAffinity -2.94878936
REMARK minimizedRMSD -1
REMARK  0 active torsions:
REMARK  status: ('A' for Active; 'I' for Inactive)
ROOT
ATOM      1  C1  DEN d   1       1.403   2.221   2.364  0.00  0.00     0.130 A 
ATOM      2  C2  DEN d   1       2.132   3.297   1.697  0.00  0.00    -0.031 A 
ATOM      3  C3  DEN d   1       1.818   3.236   0.255  0.00  0.00     0.027 A 
ATOM      4  C4  DEN d   1       0.276   1.594  -1.002  0.00  0.00     0.027 A 
ATOM      5  C5  DEN d   1      -0.551   0.501  -0.863  0.00  0.00    -0.003 A 
ATOM      6  C6  DEN d   1      -0.756  -0.111   0.345  0.00  0.00     0.001 A 
ATOM      7  C7  DEN d   1      -0.161   0.394   1.471  0.00  0.00     0.017 A 
ATOM      8  C8  DEN d   1       0.679   1.491   1.338  0.00  0.00    -0.094 A 
ATOM      9  C9  DEN d   1       0.864   2.103   0.110  0.00  0.00    -0.072 A 
ENDROOT
TORSDOF 0
ENDMDL
