MODEL 1
REMARK minimizedAffinity 2.40456343
REMARK minimizedRMSD -1
REMARK  1 active torsions:
REMARK  status: ('A' for Active; 'I' for Inactive)
REMARK    1  A    between atoms: C1_2  and  C2_3 
ROOT
ATOM      1  C2  UNL d   1       2.566   2.135   0.526  0.00  0.00    -0.081 A 
ATOM      2  C3  UNL d   1       2.420   0.829   0.041  0.00  0.00     0.006 A 
ATOM      3  C4  UNL d   1       2.480  -0.261   0.912  0.00  0.00     0.002 A 
ATOM      4  C5  UNL d   1       2.678  -0.064   2.282  0.00  0.00    -0.080 A 
ATOM      5  C6  UNL d   1       2.714  -1.224   3.233  0.00  0.00     0.076 C 
ATOM      6  C7  UNL d   1       2.842   1.239   2.765  0.00  0.00     0.002 A 
ATOM      7  C8  UNL d   1       2.783   2.329   1.895  0.00  0.00     0.006 A 
ENDROOT
BRANCH   1   8
ATOM      8  C1  UNL d   1       2.438   3.316  -0.401  0.00  0.00     0.054 C 
ATOM      9  C   UNL d   1       0.978   3.669  -0.649  0.00  0.00     0.018 C 
ENDBRANCH   1   8
TORSDOF 1
ENDMDL
