MODEL 1
REMARK minimizedAffinity 6.92723942
REMARK minimizedRMSD -1
REMARK  1 active torsions:
REMARK  status: ('A' for Active; 'I' for Inactive)
REMARK    1  A    between atoms: C1_2  and  C2_3 
ROOT
ATOM      1  C2  UNL d   1      -4.590   2.007  -0.765  0.00  0.00    -0.081 A 
ATOM      2  C3  UNL d   1      -3.641   1.777  -1.769  0.00  0.00     0.006 A 
ATOM      3  C4  UNL d   1      -3.868   2.223  -3.073  0.00  0.00     0.002 A 
ATOM      4  C5  UNL d   1      -5.043   2.912  -3.393  0.00  0.00    -0.080 A 
ATOM      5  C6  UNL d   1      -5.285   3.423  -4.783  0.00  0.00     0.076 C 
ATOM      6  C7  UNL d   1      -5.999   3.126  -2.394  0.00  0.00     0.002 A 
ATOM      7  C8  UNL d   1      -5.773   2.680  -1.090  0.00  0.00     0.006 A 
ENDROOT
BRANCH   1   8
ATOM      8  C1  UNL d   1      -4.319   1.584   0.656  0.00  0.00     0.054 C 
ATOM      9  C   UNL d   1      -3.054   2.235   1.196  0.00  0.00     0.018 C 
ENDBRANCH   1   8
TORSDOF 1
ENDMDL
