MODEL 1
REMARK minimizedAffinity 4.51567221
REMARK minimizedRMSD -1
REMARK  1 active torsions:
REMARK  status: ('A' for Active; 'I' for Inactive)
REMARK    1  A    between atoms: C1_2  and  C2_3 
ROOT
ATOM      1  C2  UNL d   1       2.701   1.946   1.539  0.00  0.00    -0.081 A 
ATOM      2  C3  UNL d   1       3.083   0.739   0.939  0.00  0.00     0.006 A 
ATOM      3  C4  UNL d   1       3.104  -0.444   1.680  0.00  0.00     0.002 A 
ATOM      4  C5  UNL d   1       2.737  -0.443   3.030  0.00  0.00    -0.080 A 
ATOM      5  C6  UNL d   1       2.726  -1.712   3.829  0.00  0.00     0.076 C 
ATOM      6  C7  UNL d   1       2.372   0.765   3.634  0.00  0.00     0.002 A 
ATOM      7  C8  UNL d   1       2.351   1.949   2.893  0.00  0.00     0.006 A 
ENDROOT
BRANCH   1   8
ATOM      8  C1  UNL d   1       2.615   3.212   0.726  0.00  0.00     0.054 C 
ATOM      9  C   UNL d   1       1.174   3.676   0.575  0.00  0.00     0.018 C 
ENDBRANCH   1   8
TORSDOF 1
ENDMDL
