MODEL 1
REMARK minimizedAffinity 6.1439476
REMARK minimizedRMSD -1
REMARK  1 active torsions:
REMARK  status: ('A' for Active; 'I' for Inactive)
REMARK    1  A    between atoms: C1_2  and  C2_3 
ROOT
ATOM      1  C2  UNL d   1       2.891  -0.249   1.701  0.00  0.00    -0.081 A 
ATOM      2  C3  UNL d   1       1.642  -0.635   2.204  0.00  0.00     0.006 A 
ATOM      3  C4  UNL d   1       1.539  -1.697   3.105  0.00  0.00     0.002 A 
ATOM      4  C5  UNL d   1       2.682  -2.385   3.525  0.00  0.00    -0.080 A 
ATOM      5  C6  UNL d   1       2.588  -3.508   4.516  0.00  0.00     0.076 C 
ATOM      6  C7  UNL d   1       3.928  -2.012   3.009  0.00  0.00     0.002 A 
ATOM      7  C8  UNL d   1       4.031  -0.950   2.107  0.00  0.00     0.006 A 
ENDROOT
BRANCH   1   8
ATOM      8  C1  UNL d   1       3.013   0.937   0.779  0.00  0.00     0.054 C 
ATOM      9  C   UNL d   1       2.609   2.226   1.479  0.00  0.00     0.018 C 
ENDBRANCH   1   8
TORSDOF 1
ENDMDL
