MODEL 1
REMARK minimizedAffinity 4.31286001
REMARK minimizedRMSD -1
REMARK  1 active torsions:
REMARK  status: ('A' for Active; 'I' for Inactive)
REMARK    1  A    between atoms: C1_2  and  C2_3 
ROOT
ATOM      1  C2  UNL d   1       0.501  -0.927   1.413  0.00  0.00    -0.081 A 
ATOM      2  C3  UNL d   1       0.286   0.427   1.126  0.00  0.00     0.006 A 
ATOM      3  C4  UNL d   1       1.155   1.402   1.621  0.00  0.00     0.002 A 
ATOM      4  C5  UNL d   1       2.257   1.040   2.403  0.00  0.00    -0.080 A 
ATOM      5  C6  UNL d   1       3.215   2.074   2.915  0.00  0.00     0.076 C 
ATOM      6  C7  UNL d   1       2.462  -0.311   2.704  0.00  0.00     0.002 A 
ATOM      7  C8  UNL d   1       1.593  -1.286   2.210  0.00  0.00     0.006 A 
ENDROOT
BRANCH   1   8
ATOM      8  C1  UNL d   1      -0.397  -1.986   0.827  0.00  0.00     0.054 C 
ATOM      9  C   UNL d   1       0.066  -2.398  -0.563  0.00  0.00     0.018 C 
ENDBRANCH   1   8
TORSDOF 1
ENDMDL
