MODEL 1
REMARK minimizedAffinity 6.50173759
REMARK minimizedRMSD -1
REMARK  0 active torsions:
REMARK  status: ('A' for Active; 'I' for Inactive)
ROOT
ATOM      1  C4' PXY d   1       0.178   1.799   3.041  0.00  0.00     0.077 C 
ATOM      2  C1' PXY d   1      -0.749   4.496  -1.988  0.00  0.00     0.077 C 
ATOM      3  C1  PXY d   1      -0.498   3.798  -0.665  0.00  0.00    -0.082 A 
ATOM      4  C2  PXY d   1      -0.673   2.490  -0.572  0.00  0.00     0.003 A 
ATOM      5  C3  PXY d   1      -0.481   1.847   0.624  0.00  0.00     0.003 A 
ATOM      6  C4  PXY d   1      -0.055   2.543   1.723  0.00  0.00    -0.082 A 
ATOM      7  C5  PXY d   1       0.136   3.877   1.634  0.00  0.00     0.003 A 
ATOM      8  C6  PXY d   1      -0.104   4.516   0.421  0.00  0.00     0.003 A 
ENDROOT
TORSDOF 0
ENDMDL
