MODEL 1
REMARK minimizedAffinity 6.41744661
REMARK minimizedRMSD -1
REMARK  0 active torsions:
REMARK  status: ('A' for Active; 'I' for Inactive)
ROOT
ATOM      1  C4' PXY d   1      -0.700   2.130   2.547  0.00  0.00     0.077 C 
ATOM      2  C1' PXY d   1      -0.719   5.016  -2.462  0.00  0.00     0.077 C 
ATOM      3  C1  PXY d   1      -0.719   4.248  -1.154  0.00  0.00    -0.082 A 
ATOM      4  C2  PXY d   1      -0.815   4.905  -0.010  0.00  0.00     0.003 A 
ATOM      5  C3  PXY d   1      -0.783   4.230   1.183  0.00  0.00     0.003 A 
ATOM      6  C4  PXY d   1      -0.706   2.863   1.203  0.00  0.00    -0.082 A 
ATOM      7  C5  PXY d   1      -0.618   2.184   0.039  0.00  0.00     0.003 A 
ATOM      8  C6  PXY d   1      -0.610   2.892  -1.160  0.00  0.00     0.003 A 
ENDROOT
TORSDOF 0
ENDMDL
