MODEL 1
REMARK minimizedAffinity 9.28280258
REMARK minimizedRMSD -1
REMARK  0 active torsions:
REMARK  status: ('A' for Active; 'I' for Inactive)
ROOT
ATOM      1  C4' PXY d   1       0.302   0.105   3.941  0.00  0.00     0.077 C 
ATOM      2  C1' PXY d   1      -0.319   4.587   0.344  0.00  0.00     0.077 C 
ATOM      3  C1  PXY d   1      -0.143   3.413   1.287  0.00  0.00    -0.082 A 
ATOM      4  C2  PXY d   1      -1.087   2.489   1.364  0.00  0.00     0.003 A 
ATOM      5  C3  PXY d   1      -0.958   1.438   2.235  0.00  0.00     0.003 A 
ATOM      6  C4  PXY d   1       0.172   1.302   2.996  0.00  0.00    -0.082 A 
ATOM      7  C5  PXY d   1       1.144   2.235   2.916  0.00  0.00     0.003 A 
ATOM      8  C6  PXY d   1       0.976   3.317   2.056  0.00  0.00     0.003 A 
ENDROOT
TORSDOF 0
ENDMDL
