MODEL 1
REMARK minimizedAffinity 7.76901388
REMARK minimizedRMSD -1
REMARK  0 active torsions:
REMARK  status: ('A' for Active; 'I' for Inactive)
ROOT
ATOM      1  C4' PXY d   1      -0.726   4.047  -0.758  0.00  0.00     0.077 C 
ATOM      2  C1' PXY d   1       0.136   0.547   3.761  0.00  0.00     0.077 C 
ATOM      3  C1  PXY d   1      -0.101   1.458   2.573  0.00  0.00    -0.082 A 
ATOM      4  C2  PXY d   1       0.916   2.118   2.042  0.00  0.00     0.003 A 
ATOM      5  C3  PXY d   1       0.714   2.971   0.987  0.00  0.00     0.003 A 
ATOM      6  C4  PXY d   1      -0.532   3.109   0.437  0.00  0.00    -0.082 A 
ATOM      7  C5  PXY d   1      -1.572   2.431   0.966  0.00  0.00     0.003 A 
ATOM      8  C6  PXY d   1      -1.354   1.602   2.062  0.00  0.00     0.003 A 
ENDROOT
TORSDOF 0
ENDMDL
