MODEL 1
REMARK minimizedAffinity 4.66382456
REMARK minimizedRMSD -1
REMARK  0 active torsions:
REMARK  status: ('A' for Active; 'I' for Inactive)
ROOT
ATOM      1  C4' PXY d   1      -5.774   0.823   2.603  0.00  0.00     0.077 C 
ATOM      2  C1' PXY d   1      -2.849  -0.609  -2.173  0.00  0.00     0.077 C 
ATOM      3  C1  PXY d   1      -3.621  -0.223  -0.926  0.00  0.00    -0.082 A 
ATOM      4  C2  PXY d   1      -3.228  -0.677   0.253  0.00  0.00     0.003 A 
ATOM      5  C3  PXY d   1      -3.933  -0.363   1.386  0.00  0.00     0.003 A 
ATOM      6  C4  PXY d   1      -5.020   0.466   1.319  0.00  0.00    -0.082 A 
ATOM      7  C5  PXY d   1      -5.421   0.942   0.121  0.00  0.00     0.003 A 
ATOM      8  C6  PXY d   1      -4.716   0.579  -1.023  0.00  0.00     0.003 A 
ENDROOT
TORSDOF 0
ENDMDL
