MODEL 1
REMARK minimizedAffinity 6.75869036
REMARK minimizedRMSD -1
REMARK  0 active torsions:
REMARK  status: ('A' for Active; 'I' for Inactive)
ROOT
ATOM      1  C4' PXY d   1       0.839  -1.540  -1.898  0.00  0.00     0.077 C 
ATOM      2  C1' PXY d   1      -4.295   0.794  -0.628  0.00  0.00     0.077 C 
ATOM      3  C1  PXY d   1      -2.954   0.170  -0.959  0.00  0.00    -0.082 A 
ATOM      4  C2  PXY d   1      -1.845   0.869  -0.780  0.00  0.00     0.003 A 
ATOM      5  C3  PXY d   1      -0.626   0.332  -1.105  0.00  0.00     0.003 A 
ATOM      6  C4  PXY d   1      -0.537  -0.954  -1.568  0.00  0.00    -0.082 A 
ATOM      7  C5  PXY d   1      -1.663  -1.678  -1.743  0.00  0.00     0.003 A 
ATOM      8  C6  PXY d   1      -2.894  -1.099  -1.446  0.00  0.00     0.003 A 
ENDROOT
TORSDOF 0
ENDMDL
