MODEL 1
REMARK minimizedAffinity 5.7331419
REMARK minimizedRMSD -1
REMARK  0 active torsions:
REMARK  status: ('A' for Active; 'I' for Inactive)
ROOT
ATOM      1  C4' PXY d   1      -0.651   5.125  -1.715  0.00  0.00     0.077 C 
ATOM      2  C1' PXY d   1       0.299   2.294   3.235  0.00  0.00     0.077 C 
ATOM      3  C1  PXY d   1       0.055   3.027   1.931  0.00  0.00    -0.082 A 
ATOM      4  C2  PXY d   1      -0.020   4.348   1.926  0.00  0.00     0.003 A 
ATOM      5  C3  PXY d   1      -0.272   5.024   0.760  0.00  0.00     0.003 A 
ATOM      6  C4  PXY d   1      -0.396   4.344  -0.422  0.00  0.00    -0.082 A 
ATOM      7  C5  PXY d   1      -0.311   2.997  -0.427  0.00  0.00     0.003 A 
ATOM      8  C6  PXY d   1      -0.095   2.327   0.773  0.00  0.00     0.003 A 
ENDROOT
TORSDOF 0
ENDMDL
