MODEL 1
REMARK minimizedAffinity 8.73351288
REMARK minimizedRMSD -1
REMARK  0 active torsions:
REMARK  status: ('A' for Active; 'I' for Inactive)
ROOT
ATOM      1  C4' PXY d   1       0.197   0.072   4.128  0.00  0.00     0.077 C 
ATOM      2  C1' PXY d   1      -0.506   4.629   0.640  0.00  0.00     0.077 C 
ATOM      3  C1  PXY d   1      -0.308   3.435   1.554  0.00  0.00    -0.082 A 
ATOM      4  C2  PXY d   1      -1.264   2.525   1.657  0.00  0.00     0.003 A 
ATOM      5  C3  PXY d   1      -1.115   1.457   2.503  0.00  0.00     0.003 A 
ATOM      6  C4  PXY d   1       0.045   1.289   3.210  0.00  0.00    -0.082 A 
ATOM      7  C5  PXY d   1       1.029   2.207   3.102  0.00  0.00     0.003 A 
ATOM      8  C6  PXY d   1       0.842   3.306   2.269  0.00  0.00     0.003 A 
ENDROOT
TORSDOF 0
ENDMDL
