MODEL 1
REMARK minimizedAffinity 10.0580187
REMARK minimizedRMSD -1
REMARK  0 active torsions:
REMARK  status: ('A' for Active; 'I' for Inactive)
ROOT
ATOM      1  C4' PXY d   1      -1.503  -1.622  -2.771  0.00  0.00     0.077 C 
ATOM      2  C1' PXY d   1      -4.996   0.681   1.218  0.00  0.00     0.077 C 
ATOM      3  C1  PXY d   1      -4.083   0.086   0.164  0.00  0.00    -0.082 A 
ATOM      4  C2  PXY d   1      -3.796  -1.205   0.200  0.00  0.00     0.003 A 
ATOM      5  C3  PXY d   1      -2.946  -1.752  -0.727  0.00  0.00     0.003 A 
ATOM      6  C4  PXY d   1      -2.428  -0.981  -1.732  0.00  0.00    -0.082 A 
ATOM      7  C5  PXY d   1      -2.724   0.335  -1.782  0.00  0.00     0.003 A 
ATOM      8  C6  PXY d   1      -3.556   0.880  -0.808  0.00  0.00     0.003 A 
ENDROOT
TORSDOF 0
ENDMDL
