MODEL 1
REMARK minimizedAffinity 10.7944088
REMARK minimizedRMSD -1
REMARK  0 active torsions:
REMARK  status: ('A' for Active; 'I' for Inactive)
ROOT
ATOM      1  C4' PXY d   1      -0.226   3.822  -1.203  0.00  0.00     0.077 C 
ATOM      2  C1' PXY d   1      -0.711   0.422   3.447  0.00  0.00     0.077 C 
ATOM      3  C1  PXY d   1      -0.591   1.305   2.221  0.00  0.00    -0.082 A 
ATOM      4  C2  PXY d   1       0.455   2.104   2.090  0.00  0.00     0.003 A 
ATOM      5  C3  PXY d   1       0.563   2.933   1.003  0.00  0.00     0.003 A 
ATOM      6  C4  PXY d   1      -0.383   2.905   0.014  0.00  0.00    -0.082 A 
ATOM      7  C5  PXY d   1      -1.448   2.085   0.135  0.00  0.00     0.003 A 
ATOM      8  C6  PXY d   1      -1.560   1.281   1.266  0.00  0.00     0.003 A 
ENDROOT
TORSDOF 0
ENDMDL
