MODEL 1
REMARK minimizedAffinity 4.94312096
REMARK minimizedRMSD -1
REMARK  0 active torsions:
REMARK  status: ('A' for Active; 'I' for Inactive)
ROOT
ATOM      1  C4' PXY d   1      -3.403  -0.393   0.098  0.00  0.00     0.077 C 
ATOM      2  C1' PXY d   1       0.895   3.470   0.219  0.00  0.00     0.077 C 
ATOM      3  C1  PXY d   1      -0.232   2.457   0.201  0.00  0.00    -0.082 A 
ATOM      4  C2  PXY d   1      -0.375   1.656  -0.843  0.00  0.00     0.003 A 
ATOM      5  C3  PXY d   1      -1.408   0.756  -0.890  0.00  0.00     0.003 A 
ATOM      6  C4  PXY d   1      -2.273   0.639   0.164  0.00  0.00    -0.082 A 
ATOM      7  C5  PXY d   1      -2.129   1.445   1.237  0.00  0.00     0.003 A 
ATOM      8  C6  PXY d   1      -1.098   2.380   1.248  0.00  0.00     0.003 A 
ENDROOT
TORSDOF 0
ENDMDL
