MODEL 1
REMARK minimizedAffinity -1.1187166
REMARK minimizedRMSD -1
REMARK  0 active torsions:
REMARK  status: ('A' for Active; 'I' for Inactive)
ROOT
ATOM      1  C4' PXY d   1       1.043  -1.139  -1.581  0.00  0.00     0.077 C 
ATOM      2  C1' PXY d   1      -4.371   0.672  -0.674  0.00  0.00     0.077 C 
ATOM      3  C1  PXY d   1      -2.948   0.209  -0.917  0.00  0.00    -0.082 A 
ATOM      4  C2  PXY d   1      -2.694  -1.083  -1.051  0.00  0.00     0.003 A 
ATOM      5  C3  PXY d   1      -1.409  -1.522  -1.239  0.00  0.00     0.003 A 
ATOM      6  C4  PXY d   1      -0.379  -0.625  -1.344  0.00  0.00    -0.082 A 
ATOM      7  C5  PXY d   1      -0.632   0.695  -1.219  0.00  0.00     0.003 A 
ATOM      8  C6  PXY d   1      -1.938   1.117  -0.988  0.00  0.00     0.003 A 
ENDROOT
TORSDOF 0
ENDMDL
