MODEL 1
REMARK minimizedAffinity 5.94906664
REMARK minimizedRMSD -1
REMARK  0 active torsions:
REMARK  status: ('A' for Active; 'I' for Inactive)
ROOT
ATOM      1  C4' PXY d   1      -0.070   0.839   3.915  0.00  0.00     0.077 C 
ATOM      2  C1' PXY d   1      -0.559   3.724  -1.070  0.00  0.00     0.077 C 
ATOM      3  C1  PXY d   1      -0.440   2.976   0.243  0.00  0.00    -0.082 A 
ATOM      4  C2  PXY d   1       0.649   2.267   0.495  0.00  0.00     0.003 A 
ATOM      5  C3  PXY d   1       0.760   1.559   1.663  0.00  0.00     0.003 A 
ATOM      6  C4  PXY d   1      -0.230   1.618   2.606  0.00  0.00    -0.082 A 
ATOM      7  C5  PXY d   1      -1.340   2.347   2.361  0.00  0.00     0.003 A 
ATOM      8  C6  PXY d   1      -1.451   3.026   1.151  0.00  0.00     0.003 A 
ENDROOT
TORSDOF 0
ENDMDL
