MODEL 1
REMARK minimizedAffinity -3.18690538
REMARK minimizedRMSD -1
REMARK  1 active torsions:
REMARK  status: ('A' for Active; 'I' for Inactive)
REMARK    1  A    between atoms: C1_2  and  C2_3 
ROOT
ATOM      1  C2  UNL d   1       2.350   1.117   1.617  0.00  0.00    -0.076 A 
ATOM      2  C3  UNL d   1       1.178   1.704   1.110  0.00  0.00     0.004 A 
ATOM      3  C4  UNL d   1       0.470   1.109   0.067  0.00  0.00    -0.003 A 
ATOM      4  C5  UNL d   1       0.923  -0.083  -0.486  0.00  0.00     0.000 A 
ATOM      5  C6  UNL d   1       2.075  -0.689   0.016  0.00  0.00     0.000 A 
ATOM      6  C7  UNL d   1       2.791  -0.111   1.078  0.00  0.00    -0.073 A 
ATOM      7  C8  UNL d   1       4.029  -0.805   1.576  0.00  0.00     0.078 C 
ENDROOT
BRANCH   1   8
ATOM      8  C1  UNL d   1       3.090   1.822   2.731  0.00  0.00     0.053 C 
ATOM      9  C   UNL d   1       2.663   1.342   4.109  0.00  0.00     0.018 C 
ENDBRANCH   1   8
TORSDOF 1
ENDMDL
