MODEL 1
REMARK minimizedAffinity -2.78559804
REMARK minimizedRMSD -1
REMARK  1 active torsions:
REMARK  status: ('A' for Active; 'I' for Inactive)
REMARK    1  A    between atoms: C1_2  and  C2_3 
ROOT
ATOM      1  C2  UNL d   1       1.250  -0.665   0.896  0.00  0.00    -0.076 A 
ATOM      2  C3  UNL d   1       0.877   0.519   0.237  0.00  0.00     0.004 A 
ATOM      3  C4  UNL d   1      -0.436   0.722  -0.186  0.00  0.00    -0.003 A 
ATOM      4  C5  UNL d   1      -1.397  -0.256   0.045  0.00  0.00     0.000 A 
ATOM      5  C6  UNL d   1      -1.049  -1.430   0.713  0.00  0.00     0.000 A 
ATOM      6  C7  UNL d   1       0.267  -1.643   1.160  0.00  0.00    -0.073 A 
ATOM      7  C8  UNL d   1       0.588  -2.929   1.870  0.00  0.00     0.078 C 
ENDROOT
BRANCH   1   8
ATOM      8  C1  UNL d   1       2.694  -0.841   1.307  0.00  0.00     0.053 C 
ATOM      9  C   UNL d   1       3.059  -0.007   2.525  0.00  0.00     0.018 C 
ENDBRANCH   1   8
TORSDOF 1
ENDMDL
