MODEL 1
REMARK minimizedAffinity -6.16178036
REMARK minimizedRMSD -1
REMARK  1 active torsions:
REMARK  status: ('A' for Active; 'I' for Inactive)
REMARK    1  A    between atoms: C1_2  and  C2_3 
ROOT
ATOM      1  C2  UNL d   1       0.933   0.179   0.614  0.00  0.00    -0.076 A 
ATOM      2  C3  UNL d   1       2.247   0.600   0.343  0.00  0.00     0.004 A 
ATOM      3  C4  UNL d   1       3.338  -0.209   0.655  0.00  0.00    -0.003 A 
ATOM      4  C5  UNL d   1       3.134  -1.452   1.243  0.00  0.00     0.000 A 
ATOM      5  C6  UNL d   1       1.837  -1.894   1.503  0.00  0.00     0.000 A 
ATOM      6  C7  UNL d   1       0.725  -1.098   1.180  0.00  0.00    -0.073 A 
ATOM      7  C8  UNL d   1      -0.651  -1.621   1.488  0.00  0.00     0.078 C 
ENDROOT
BRANCH   1   8
ATOM      8  C1  UNL d   1      -0.210   1.110   0.279  0.00  0.00     0.053 C 
ATOM      9  C   UNL d   1      -0.148   2.413   1.061  0.00  0.00     0.018 C 
ENDBRANCH   1   8
TORSDOF 1
ENDMDL
