MODEL 1
REMARK minimizedAffinity -0.0341047905
REMARK minimizedRMSD -1
REMARK  1 active torsions:
REMARK  status: ('A' for Active; 'I' for Inactive)
REMARK    1  A    between atoms: C1_2  and  C2_3 
ROOT
ATOM      1  C2  UNL d   1       1.080  -0.601   0.571  0.00  0.00    -0.076 A 
ATOM      2  C3  UNL d   1      -0.032   0.186   0.225  0.00  0.00     0.004 A 
ATOM      3  C4  UNL d   1      -0.016   1.568   0.402  0.00  0.00    -0.003 A 
ATOM      4  C5  UNL d   1       1.113   2.187   0.926  0.00  0.00     0.000 A 
ATOM      5  C6  UNL d   1       2.232   1.424   1.258  0.00  0.00     0.000 A 
ATOM      6  C7  UNL d   1       2.238   0.031   1.072  0.00  0.00    -0.073 A 
ATOM      7  C8  UNL d   1       3.471  -0.743   1.453  0.00  0.00     0.078 C 
ENDROOT
BRANCH   1   8
ATOM      8  C1  UNL d   1       0.995  -2.099   0.383  0.00  0.00     0.053 C 
ATOM      9  C   UNL d   1      -0.026  -2.745   1.307  0.00  0.00     0.018 C 
ENDBRANCH   1   8
TORSDOF 1
ENDMDL
