MODEL 1
REMARK minimizedAffinity 2.63838172
REMARK minimizedRMSD -1
REMARK  1 active torsions:
REMARK  status: ('A' for Active; 'I' for Inactive)
REMARK    1  A    between atoms: C1_2  and  C2_3 
ROOT
ATOM      1  C2  UNL d   1       0.839   0.368   1.212  0.00  0.00    -0.076 A 
ATOM      2  C3  UNL d   1       0.708   1.584   0.519  0.00  0.00     0.004 A 
ATOM      3  C4  UNL d   1      -0.237   1.734  -0.495  0.00  0.00    -0.003 A 
ATOM      4  C5  UNL d   1      -1.067   0.670  -0.831  0.00  0.00     0.000 A 
ATOM      5  C6  UNL d   1      -0.962  -0.538  -0.142  0.00  0.00     0.000 A 
ATOM      6  C7  UNL d   1      -0.026  -0.700   0.893  0.00  0.00    -0.073 A 
ATOM      7  C8  UNL d   1       0.047  -2.026   1.599  0.00  0.00     0.078 C 
ENDROOT
BRANCH   1   8
ATOM      8  C1  UNL d   1       1.900   0.256   2.284  0.00  0.00     0.053 C 
ATOM      9  C   UNL d   1       3.256  -0.142   1.722  0.00  0.00     0.018 C 
ENDBRANCH   1   8
TORSDOF 1
ENDMDL
