MODEL 1
REMARK minimizedAffinity -5.37141895
REMARK minimizedRMSD -1
REMARK  1 active torsions:
REMARK  status: ('A' for Active; 'I' for Inactive)
REMARK    1  A    between atoms: C1_2  and  C2_3 
ROOT
ATOM      1  C2  UNL d   1       0.571  -0.133   0.352  0.00  0.00    -0.076 A 
ATOM      2  C3  UNL d   1       1.321   1.048   0.213  0.00  0.00     0.004 A 
ATOM      3  C4  UNL d   1       2.629   1.128   0.689  0.00  0.00    -0.003 A 
ATOM      4  C5  UNL d   1       3.208   0.028   1.311  0.00  0.00     0.000 A 
ATOM      5  C6  UNL d   1       2.485  -1.158   1.442  0.00  0.00     0.000 A 
ATOM      6  C7  UNL d   1       1.171  -1.260   0.953  0.00  0.00    -0.073 A 
ATOM      7  C8  UNL d   1       0.436  -2.560   1.127  0.00  0.00     0.078 C 
ENDROOT
BRANCH   1   8
ATOM      8  C1  UNL d   1      -0.852  -0.152  -0.159  0.00  0.00     0.053 C 
ATOM      9  C   UNL d   1      -0.927  -0.077  -1.676  0.00  0.00     0.018 C 
ENDBRANCH   1   8
TORSDOF 1
ENDMDL
