MODEL 1
REMARK minimizedAffinity -4.52979517
REMARK minimizedRMSD -1
REMARK  1 active torsions:
REMARK  status: ('A' for Active; 'I' for Inactive)
REMARK    1  A    between atoms: C1_2  and  C2_3 
ROOT
ATOM      1  C2  UNL d   1      -0.229   0.329   0.050  0.00  0.00    -0.076 A 
ATOM      2  C3  UNL d   1       0.208   1.613  -0.320  0.00  0.00     0.004 A 
ATOM      3  C4  UNL d   1       1.529   2.007  -0.118  0.00  0.00    -0.003 A 
ATOM      4  C5  UNL d   1       2.436   1.124   0.456  0.00  0.00     0.000 A 
ATOM      5  C6  UNL d   1       2.025  -0.160   0.813  0.00  0.00     0.000 A 
ATOM      6  C7  UNL d   1       0.701  -0.579   0.601  0.00  0.00    -0.073 A 
ATOM      7  C8  UNL d   1       0.310  -1.973   1.010  0.00  0.00     0.078 C 
ENDROOT
BRANCH   1   8
ATOM      8  C1  UNL d   1      -1.680  -0.033  -0.168  0.00  0.00     0.053 C 
ATOM      9  C   UNL d   1      -2.095   0.077  -1.627  0.00  0.00     0.018 C 
ENDBRANCH   1   8
TORSDOF 1
ENDMDL
