MODEL 1
REMARK minimizedAffinity -0.970709264
REMARK minimizedRMSD -1
REMARK  0 active torsions:
REMARK  status: ('A' for Active; 'I' for Inactive)
ROOT
ATOM      1  C4' PXY d   1      -1.553   1.147   2.590  0.00  0.00     0.077 C 
ATOM      2  C1' PXY d   1       1.328  -1.635  -1.578  0.00  0.00     0.077 C 
ATOM      3  C1  PXY d   1       0.572  -0.916  -0.478  0.00  0.00    -0.082 A 
ATOM      4  C2  PXY d   1      -0.108   0.183  -0.762  0.00  0.00     0.003 A 
ATOM      5  C3  PXY d   1      -0.771   0.863   0.227  0.00  0.00     0.003 A 
ATOM      6  C4  PXY d   1      -0.783   0.384   1.510  0.00  0.00    -0.082 A 
ATOM      7  C5  PXY d   1      -0.100  -0.743   1.805  0.00  0.00     0.003 A 
ATOM      8  C6  PXY d   1       0.601  -1.396   0.795  0.00  0.00     0.003 A 
ENDROOT
TORSDOF 0
ENDMDL
