MODEL 1
REMARK minimizedAffinity -5.58086395
REMARK minimizedRMSD -1
REMARK  0 active torsions:
REMARK  status: ('A' for Active; 'I' for Inactive)
ROOT
ATOM      1  C4' PXY d   1      -1.930   3.509   1.091  0.00  0.00     0.077 C 
ATOM      2  C1' PXY d   1       1.119  -1.115  -0.561  0.00  0.00     0.077 C 
ATOM      3  C1  PXY d   1       0.312   0.090  -0.121  0.00  0.00    -0.082 A 
ATOM      4  C2  PXY d   1       0.318   1.187  -0.860  0.00  0.00     0.003 A 
ATOM      5  C3  PXY d   1      -0.381   2.297  -0.461  0.00  0.00     0.003 A 
ATOM      6  C4  PXY d   1      -1.137   2.266   0.680  0.00  0.00    -0.082 A 
ATOM      7  C5  PXY d   1      -1.157   1.146   1.435  0.00  0.00     0.003 A 
ATOM      8  C6  PXY d   1      -0.408   0.044   1.033  0.00  0.00     0.003 A 
ENDROOT
TORSDOF 0
ENDMDL
