MODEL 1
REMARK minimizedAffinity -5.96697426
REMARK minimizedRMSD -1
REMARK  0 active torsions:
REMARK  status: ('A' for Active; 'I' for Inactive)
ROOT
ATOM      1  C4' PXY d   1       1.070  -1.063  -0.748  0.00  0.00     0.077 C 
ATOM      2  C1' PXY d   1      -2.413   3.273   0.828  0.00  0.00     0.077 C 
ATOM      3  C1  PXY d   1      -1.496   2.134   0.427  0.00  0.00    -0.082 A 
ATOM      4  C2  PXY d   1      -1.025   2.078  -0.808  0.00  0.00     0.003 A 
ATOM      5  C3  PXY d   1      -0.220   1.037  -1.196  0.00  0.00     0.003 A 
ATOM      6  C4  PXY d   1       0.149   0.074  -0.296  0.00  0.00    -0.082 A 
ATOM      7  C5  PXY d   1      -0.319   0.130   0.968  0.00  0.00     0.003 A 
ATOM      8  C6  PXY d   1      -1.168   1.172   1.331  0.00  0.00     0.003 A 
ENDROOT
TORSDOF 0
ENDMDL
