MODEL 1
REMARK minimizedAffinity -6.2962532
REMARK minimizedRMSD -1
REMARK  0 active torsions:
REMARK  status: ('A' for Active; 'I' for Inactive)
ROOT
ATOM      1  C4' PXY d   1      -2.377   3.803   1.203  0.00  0.00     0.077 C 
ATOM      2  C1' PXY d   1       0.947   0.073  -1.705  0.00  0.00     0.077 C 
ATOM      3  C1  PXY d   1       0.068   1.042  -0.937  0.00  0.00    -0.082 A 
ATOM      4  C2  PXY d   1      -0.051   2.290  -1.358  0.00  0.00     0.003 A 
ATOM      5  C3  PXY d   1      -0.816   3.188  -0.658  0.00  0.00     0.003 A 
ATOM      6  C4  PXY d   1      -1.508   2.789   0.454  0.00  0.00    -0.082 A 
ATOM      7  C5  PXY d   1      -1.400   1.514   0.883  0.00  0.00     0.003 A 
ATOM      8  C6  PXY d   1      -0.586   0.629   0.182  0.00  0.00     0.003 A 
ENDROOT
TORSDOF 0
ENDMDL
