MODEL 1
REMARK minimizedAffinity -6.1798377
REMARK minimizedRMSD -1
REMARK  0 active torsions:
REMARK  status: ('A' for Active; 'I' for Inactive)
ROOT
ATOM      1  C4' PXY d   1      -1.730   2.849   1.099  0.00  0.00     0.077 C 
ATOM      2  C1' PXY d   1       1.342  -0.627  -2.349  0.00  0.00     0.077 C 
ATOM      3  C1  PXY d   1       0.530   0.274  -1.441  0.00  0.00    -0.082 A 
ATOM      4  C2  PXY d   1       0.454   1.569  -1.702  0.00  0.00     0.003 A 
ATOM      5  C3  PXY d   1      -0.251   2.404  -0.873  0.00  0.00     0.003 A 
ATOM      6  C4  PXY d   1      -0.928   1.900   0.204  0.00  0.00    -0.082 A 
ATOM      7  C5  PXY d   1      -0.865   0.578   0.471  0.00  0.00     0.003 A 
ATOM      8  C6  PXY d   1      -0.111  -0.246  -0.359  0.00  0.00     0.003 A 
ENDROOT
TORSDOF 0
ENDMDL
