MODEL 1
REMARK minimizedAffinity -5.69018841
REMARK minimizedRMSD -1
REMARK  0 active torsions:
REMARK  status: ('A' for Active; 'I' for Inactive)
ROOT
ATOM      1  C4' PXY d   1      -2.496   3.608   2.243  0.00  0.00     0.077 C 
ATOM      2  C1' PXY d   1      -0.231  -0.416  -1.234  0.00  0.00     0.077 C 
ATOM      3  C1  PXY d   1      -0.815   0.648  -0.325  0.00  0.00    -0.082 A 
ATOM      4  C2  PXY d   1      -1.635   0.294   0.652  0.00  0.00     0.003 A 
ATOM      5  C3  PXY d   1      -2.197   1.246   1.463  0.00  0.00     0.003 A 
ATOM      6  C4  PXY d   1      -1.876   2.568   1.307  0.00  0.00    -0.082 A 
ATOM      7  C5  PXY d   1      -1.032   2.935   0.319  0.00  0.00     0.003 A 
ATOM      8  C6  PXY d   1      -0.504   1.958  -0.520  0.00  0.00     0.003 A 
ENDROOT
TORSDOF 0
ENDMDL
