MODEL 1
REMARK minimizedAffinity -2.85300851
REMARK minimizedRMSD -1
REMARK  0 active torsions:
REMARK  status: ('A' for Active; 'I' for Inactive)
ROOT
ATOM      1  C4' PXY d   1       1.503  -2.092  -1.273  0.00  0.00     0.077 C 
ATOM      2  C1' PXY d   1      -1.195   2.742   0.390  0.00  0.00     0.077 C 
ATOM      3  C1  PXY d   1      -0.485   1.471  -0.034  0.00  0.00    -0.082 A 
ATOM      4  C2  PXY d   1      -0.027   1.359  -1.270  0.00  0.00     0.003 A 
ATOM      5  C3  PXY d   1       0.590   0.205  -1.679  0.00  0.00     0.003 A 
ATOM      6  C4  PXY d   1       0.788  -0.825  -0.799  0.00  0.00    -0.082 A 
ATOM      7  C5  PXY d   1       0.333  -0.714   0.467  0.00  0.00     0.003 A 
ATOM      8  C6  PXY d   1      -0.327   0.450   0.851  0.00  0.00     0.003 A 
ENDROOT
TORSDOF 0
ENDMDL
