MODEL 1
REMARK minimizedAffinity -5.1722827
REMARK minimizedRMSD -1
REMARK  0 active torsions:
REMARK  status: ('A' for Active; 'I' for Inactive)
ROOT
ATOM      1  C4' PXY d   1      -2.379   3.367   0.819  0.00  0.00     0.077 C 
ATOM      2  C1' PXY d   1       1.540  -0.609  -0.681  0.00  0.00     0.077 C 
ATOM      3  C1  PXY d   1       0.520   0.443  -0.292  0.00  0.00    -0.082 A 
ATOM      4  C2  PXY d   1      -0.368   0.176   0.652  0.00  0.00     0.003 A 
ATOM      5  C3  PXY d   1      -1.317   1.104   0.994  0.00  0.00     0.003 A 
ATOM      6  C4  PXY d   1      -1.325   2.338   0.401  0.00  0.00    -0.082 A 
ATOM      7  C5  PXY d   1      -0.416   2.622  -0.556  0.00  0.00     0.003 A 
ATOM      8  C6  PXY d   1       0.514   1.651  -0.918  0.00  0.00     0.003 A 
ENDROOT
TORSDOF 0
ENDMDL
