MODEL 1
REMARK minimizedAffinity -6.1003499
REMARK minimizedRMSD -1
REMARK  0 active torsions:
REMARK  status: ('A' for Active; 'I' for Inactive)
ROOT
ATOM      1  C4' PXY d   1      -2.992   4.287   1.272  0.00  0.00     0.077 C 
ATOM      2  C1' PXY d   1       0.823   0.268  -0.372  0.00  0.00     0.077 C 
ATOM      3  C1  PXY d   1      -0.171   1.331   0.052  0.00  0.00    -0.082 A 
ATOM      4  C2  PXY d   1      -0.872   1.165   1.162  0.00  0.00     0.003 A 
ATOM      5  C3  PXY d   1      -1.799   2.101   1.543  0.00  0.00     0.003 A 
ATOM      6  C4  PXY d   1      -1.971   3.244   0.810  0.00  0.00    -0.082 A 
ATOM      7  C5  PXY d   1      -1.251   3.426  -0.317  0.00  0.00     0.003 A 
ATOM      8  C6  PXY d   1      -0.345   2.445  -0.709  0.00  0.00     0.003 A 
ENDROOT
TORSDOF 0
ENDMDL
