MODEL 1
REMARK minimizedAffinity -1.06090403
REMARK minimizedRMSD -1
REMARK  0 active torsions:
REMARK  status: ('A' for Active; 'I' for Inactive)
ROOT
ATOM      1  C4' PXY d   1       0.327   3.131  -1.190  0.00  0.00     0.077 C 
ATOM      2  C1' PXY d   1      -0.951  -1.080   2.558  0.00  0.00     0.077 C 
ATOM      3  C1  PXY d   1      -0.625   0.032   1.581  0.00  0.00    -0.082 A 
ATOM      4  C2  PXY d   1      -0.077  -0.264   0.413  0.00  0.00     0.003 A 
ATOM      5  C3  PXY d   1       0.254   0.732  -0.469  0.00  0.00     0.003 A 
ATOM      6  C4  PXY d   1      -0.028   2.040  -0.176  0.00  0.00    -0.082 A 
ATOM      7  C5  PXY d   1      -0.596   2.348   1.009  0.00  0.00     0.003 A 
ATOM      8  C6  PXY d   1      -0.887   1.326   1.908  0.00  0.00     0.003 A 
ENDROOT
TORSDOF 0
ENDMDL
