MODEL 1
REMARK minimizedAffinity -6.24208164
REMARK minimizedRMSD -1
REMARK  0 active torsions:
REMARK  status: ('A' for Active; 'I' for Inactive)
ROOT
ATOM      1  C4' PXY d   1       0.651  -3.755  -1.625  0.00  0.00     0.077 C 
ATOM      2  C1' PXY d   1       0.720   1.995  -2.219  0.00  0.00     0.077 C 
ATOM      3  C1  PXY d   1       0.694   0.486  -2.073  0.00  0.00    -0.082 A 
ATOM      4  C2  PXY d   1       0.920  -0.061  -0.890  0.00  0.00     0.003 A 
ATOM      5  C3  PXY d   1       0.932  -1.425  -0.747  0.00  0.00     0.003 A 
ATOM      6  C4  PXY d   1       0.658  -2.236  -1.816  0.00  0.00    -0.082 A 
ATOM      7  C5  PXY d   1       0.416  -1.685  -3.024  0.00  0.00     0.003 A 
ATOM      8  C6  PXY d   1       0.449  -0.300  -3.157  0.00  0.00     0.003 A 
ENDROOT
TORSDOF 0
ENDMDL
