MODEL 1
REMARK minimizedAffinity -5.37095308
REMARK minimizedRMSD -1
REMARK  0 active torsions:
REMARK  status: ('A' for Active; 'I' for Inactive)
ROOT
ATOM      1  C4' PXY d   1       0.515  -1.159  -1.145  0.00  0.00     0.077 C 
ATOM      2  C1' PXY d   1      -2.463   2.948   1.626  0.00  0.00     0.077 C 
ATOM      3  C1  PXY d   1      -1.677   1.867   0.911  0.00  0.00    -0.082 A 
ATOM      4  C2  PXY d   1      -1.394   2.006  -0.374  0.00  0.00     0.003 A 
ATOM      5  C3  PXY d   1      -0.712   1.023  -1.045  0.00  0.00     0.003 A 
ATOM      6  C4  PXY d   1      -0.268  -0.089  -0.380  0.00  0.00    -0.082 A 
ATOM      7  C5  PXY d   1      -0.544  -0.233   0.933  0.00  0.00     0.003 A 
ATOM      8  C6  PXY d   1      -1.273   0.757   1.586  0.00  0.00     0.003 A 
ENDROOT
TORSDOF 0
ENDMDL
