MODEL 1
REMARK minimizedAffinity -5.2250309
REMARK minimizedRMSD -1
REMARK  0 active torsions:
REMARK  status: ('A' for Active; 'I' for Inactive)
ROOT
ATOM      1  C4' PXY d   1       0.024  -0.677   0.365  0.00  0.00     0.077 C 
ATOM      2  C1' PXY d   1      -2.521   4.463   1.089  0.00  0.00     0.077 C 
ATOM      3  C1  PXY d   1      -1.857   3.111   0.911  0.00  0.00    -0.082 A 
ATOM      4  C2  PXY d   1      -0.883   2.972   0.027  0.00  0.00     0.003 A 
ATOM      5  C3  PXY d   1      -0.294   1.750  -0.170  0.00  0.00     0.003 A 
ATOM      6  C4  PXY d   1      -0.669   0.671   0.585  0.00  0.00    -0.082 A 
ATOM      7  C5  PXY d   1      -1.654   0.807   1.497  0.00  0.00     0.003 A 
ATOM      8  C6  PXY d   1      -2.268   2.047   1.652  0.00  0.00     0.003 A 
ENDROOT
TORSDOF 0
ENDMDL
