MODEL 1
REMARK minimizedAffinity -5.46685362
REMARK minimizedRMSD -1
REMARK  0 active torsions:
REMARK  status: ('A' for Active; 'I' for Inactive)
ROOT
ATOM      1  C4' PXY d   1       0.999  -0.720  -0.245  0.00  0.00     0.077 C 
ATOM      2  C1' PXY d   1      -1.949   4.153   0.744  0.00  0.00     0.077 C 
ATOM      3  C1  PXY d   1      -1.177   2.872   0.497  0.00  0.00    -0.082 A 
ATOM      4  C2  PXY d   1      -0.396   2.774  -0.566  0.00  0.00     0.003 A 
ATOM      5  C3  PXY d   1       0.285   1.611  -0.821  0.00  0.00     0.003 A 
ATOM      6  C4  PXY d   1       0.207   0.557   0.049  0.00  0.00    -0.082 A 
ATOM      7  C5  PXY d   1      -0.579   0.653   1.142  0.00  0.00     0.003 A 
ATOM      8  C6  PXY d   1      -1.295   1.827   1.361  0.00  0.00     0.003 A 
ENDROOT
TORSDOF 0
ENDMDL
