MODEL 1
REMARK minimizedAffinity -4.54136086
REMARK minimizedRMSD -1
REMARK  0 active torsions:
REMARK  status: ('A' for Active; 'I' for Inactive)
ROOT
ATOM      1  C4' PXY d   1      -2.454   4.017   1.209  0.00  0.00     0.077 C 
ATOM      2  C1' PXY d   1       0.802  -0.416  -0.569  0.00  0.00     0.077 C 
ATOM      3  C1  PXY d   1      -0.043   0.755  -0.108  0.00  0.00    -0.082 A 
ATOM      4  C2  PXY d   1      -0.866   0.604   0.917  0.00  0.00     0.003 A 
ATOM      5  C3  PXY d   1      -1.661   1.644   1.327  0.00  0.00     0.003 A 
ATOM      6  C4  PXY d   1      -1.575   2.865   0.715  0.00  0.00    -0.082 A 
ATOM      7  C5  PXY d   1      -0.730   3.030  -0.325  0.00  0.00     0.003 A 
ATOM      8  C6  PXY d   1       0.039   1.951  -0.752  0.00  0.00     0.003 A 
ENDROOT
TORSDOF 0
ENDMDL
