MODEL 1
REMARK minimizedAffinity -5.10701513
REMARK minimizedRMSD -1
REMARK  0 active torsions:
REMARK  status: ('A' for Active; 'I' for Inactive)
ROOT
ATOM      1  C4' PXY d   1       1.130  -1.167  -1.038  0.00  0.00     0.077 C 
ATOM      2  C1' PXY d   1      -2.287   3.031   0.991  0.00  0.00     0.077 C 
ATOM      3  C1  PXY d   1      -1.389   1.925   0.471  0.00  0.00    -0.082 A 
ATOM      4  C2  PXY d   1      -0.766   2.079  -0.686  0.00  0.00     0.003 A 
ATOM      5  C3  PXY d   1       0.025   1.076  -1.186  0.00  0.00     0.003 A 
ATOM      6  C4  PXY d   1       0.221  -0.074  -0.470  0.00  0.00    -0.082 A 
ATOM      7  C5  PXY d   1      -0.403  -0.234   0.717  0.00  0.00     0.003 A 
ATOM      8  C6  PXY d   1      -1.234   0.779   1.188  0.00  0.00     0.003 A 
ENDROOT
TORSDOF 0
ENDMDL
