MODEL 1
REMARK minimizedAffinity -3.98681235
REMARK minimizedRMSD -1
REMARK  0 active torsions:
REMARK  status: ('A' for Active; 'I' for Inactive)
ROOT
ATOM      1  C4' PXY d   1      -0.549   4.453  -0.366  0.00  0.00     0.077 C 
ATOM      2  C1' PXY d   1      -1.020  -1.027   1.414  0.00  0.00     0.077 C 
ATOM      3  C1  PXY d   1      -0.908   0.413   0.952  0.00  0.00    -0.082 A 
ATOM      4  C2  PXY d   1      -0.115   0.715  -0.063  0.00  0.00     0.003 A 
ATOM      5  C3  PXY d   1       0.023   2.016  -0.473  0.00  0.00     0.003 A 
ATOM      6  C4  PXY d   1      -0.700   3.011   0.128  0.00  0.00    -0.082 A 
ATOM      7  C5  PXY d   1      -1.520   2.710   1.157  0.00  0.00     0.003 A 
ATOM      8  C6  PXY d   1      -1.614   1.389   1.585  0.00  0.00     0.003 A 
ENDROOT
TORSDOF 0
ENDMDL
