MODEL 1
REMARK minimizedAffinity -3.94788408
REMARK minimizedRMSD -1
REMARK  0 active torsions:
REMARK  status: ('A' for Active; 'I' for Inactive)
ROOT
ATOM      1  C4' PXY d   1       0.079   3.404  -0.783  0.00  0.00     0.077 C 
ATOM      2  C1' PXY d   1      -0.040  -1.523   2.237  0.00  0.00     0.077 C 
ATOM      3  C1  PXY d   1      -0.020  -0.228   1.450  0.00  0.00    -0.082 A 
ATOM      4  C2  PXY d   1       0.700  -0.146   0.343  0.00  0.00     0.003 A 
ATOM      5  C3  PXY d   1       0.754   1.028  -0.364  0.00  0.00     0.003 A 
ATOM      6  C4  PXY d   1       0.022   2.113   0.038  0.00  0.00    -0.082 A 
ATOM      7  C5  PXY d   1      -0.723   2.034   1.161  0.00  0.00     0.003 A 
ATOM      8  C6  PXY d   1      -0.732   0.847   1.886  0.00  0.00     0.003 A 
ENDROOT
TORSDOF 0
ENDMDL
