MODEL 1
REMARK minimizedAffinity -3.95332241
REMARK minimizedRMSD -1
REMARK  0 active torsions:
REMARK  status: ('A' for Active; 'I' for Inactive)
ROOT
ATOM      1  C4' PXY d   1       0.724  -3.118  -1.809  0.00  0.00     0.077 C 
ATOM      2  C1' PXY d   1      -0.322   1.810   1.026  0.00  0.00     0.077 C 
ATOM      3  C1  PXY d   1      -0.037   0.523   0.277  0.00  0.00    -0.082 A 
ATOM      4  C2  PXY d   1      -1.028  -0.312   0.011  0.00  0.00     0.003 A 
ATOM      5  C3  PXY d   1      -0.783  -1.496  -0.637  0.00  0.00     0.003 A 
ATOM      6  C4  PXY d   1       0.481  -1.803  -1.064  0.00  0.00    -0.082 A 
ATOM      7  C5  PXY d   1       1.496  -0.951  -0.806  0.00  0.00     0.003 A 
ATOM      8  C6  PXY d   1       1.233   0.226  -0.110  0.00  0.00     0.003 A 
ENDROOT
TORSDOF 0
ENDMDL
