MODEL 1
REMARK minimizedAffinity 1.74430501
REMARK minimizedRMSD -1
REMARK  0 active torsions:
REMARK  status: ('A' for Active; 'I' for Inactive)
ROOT
ATOM      1  C   UNL d   1       1.147   0.077  -0.416  0.00  0.00     0.020 A 
ATOM      2  C1  UNL d   1       1.006   0.942   0.668  0.00  0.00     0.020 A 
ATOM      3  C2  UNL d   1       0.906   2.318   0.456  0.00  0.00     0.034 A 
ATOM      4  C3  UNL d   1       0.948   2.834  -0.845  0.00  0.00     0.017 A 
ATOM      5  C4  UNL d   1       1.090   1.966  -1.933  0.00  0.00     0.017 A 
ATOM      6  C5  UNL d   1       1.189   0.588  -1.714  0.00  0.00     0.034 A 
ATOM      7 Cl   UNL d   1       1.149   2.528  -3.566  0.00  0.00    -0.070 Cl
ATOM      8 Cl1  UNL d   1       0.819   4.547  -1.034  0.00  0.00    -0.070 Cl
ENDROOT
TORSDOF 0
ENDMDL
