MODEL 1
REMARK minimizedAffinity -4.34594679
REMARK minimizedRMSD -1
REMARK  0 active torsions:
REMARK  status: ('A' for Active; 'I' for Inactive)
ROOT
ATOM      1  C   UNL d   1       1.219  -0.310  -2.264  0.00  0.00     0.020 A 
ATOM      2  C1  UNL d   1       0.995  -0.844  -0.996  0.00  0.00     0.020 A 
ATOM      3  C2  UNL d   1       0.963  -0.004   0.119  0.00  0.00     0.034 A 
ATOM      4  C3  UNL d   1       1.155   1.374  -0.031  0.00  0.00     0.017 A 
ATOM      5  C4  UNL d   1       1.380   1.909  -1.305  0.00  0.00     0.017 A 
ATOM      6  C5  UNL d   1       1.411   1.064  -2.418  0.00  0.00     0.034 A 
ATOM      7 Cl   UNL d   1       1.626   3.599  -1.570  0.00  0.00    -0.070 Cl
ATOM      8 Cl1  UNL d   1       1.103   2.353   1.391  0.00  0.00    -0.070 Cl
ENDROOT
TORSDOF 0
ENDMDL
