MODEL 1
REMARK minimizedAffinity -0.216926068
REMARK minimizedRMSD -1
REMARK  0 active torsions:
REMARK  status: ('A' for Active; 'I' for Inactive)
ROOT
ATOM      1  C   UNL d   1       2.292  -0.118  -1.447  0.00  0.00     0.020 A 
ATOM      2  C1  UNL d   1       1.963   1.049  -2.135  0.00  0.00     0.020 A 
ATOM      3  C2  UNL d   1       1.488   2.161  -1.436  0.00  0.00     0.034 A 
ATOM      4  C3  UNL d   1       1.341   2.108  -0.045  0.00  0.00     0.017 A 
ATOM      5  C4  UNL d   1       1.671   0.935   0.644  0.00  0.00     0.017 A 
ATOM      6  C5  UNL d   1       2.146  -0.175  -0.060  0.00  0.00     0.034 A 
ATOM      7 Cl   UNL d   1       1.516   0.794   2.360  0.00  0.00    -0.070 Cl
ATOM      8 Cl1  UNL d   1       0.749   3.520   0.755  0.00  0.00    -0.070 Cl
ENDROOT
TORSDOF 0
ENDMDL
