MODEL 1
REMARK minimizedAffinity -1.03037655
REMARK minimizedRMSD -1
REMARK  0 active torsions:
REMARK  status: ('A' for Active; 'I' for Inactive)
ROOT
ATOM      1  C   UNL d   1       0.872   0.339  -0.544  0.00  0.00     0.020 A 
ATOM      2  C1  UNL d   1       1.317   0.747  -1.801  0.00  0.00     0.020 A 
ATOM      3  C2  UNL d   1       1.790   2.048  -1.986  0.00  0.00     0.034 A 
ATOM      4  C3  UNL d   1       1.820   2.945  -0.912  0.00  0.00     0.017 A 
ATOM      5  C4  UNL d   1       1.374   2.534   0.349  0.00  0.00     0.017 A 
ATOM      6  C5  UNL d   1       0.900   1.231   0.528  0.00  0.00     0.034 A 
ATOM      7 Cl   UNL d   1       1.381   3.585   1.722  0.00  0.00    -0.070 Cl
ATOM      8 Cl1  UNL d   1       2.419   4.538  -1.212  0.00  0.00    -0.070 Cl
ENDROOT
TORSDOF 0
ENDMDL
