MODEL 1
REMARK minimizedAffinity -2.94519114
REMARK minimizedRMSD -1
REMARK  0 active torsions:
REMARK  status: ('A' for Active; 'I' for Inactive)
ROOT
ATOM      1  C   UNL d   1       0.966  -0.038  -0.637  0.00  0.00     0.020 A 
ATOM      2  C1  UNL d   1       1.325   0.404  -1.910  0.00  0.00     0.020 A 
ATOM      3  C2  UNL d   1       1.510   1.767  -2.149  0.00  0.00     0.034 A 
ATOM      4  C3  UNL d   1       1.335   2.693  -1.114  0.00  0.00     0.017 A 
ATOM      5  C4  UNL d   1       0.975   2.248   0.163  0.00  0.00     0.017 A 
ATOM      6  C5  UNL d   1       0.791   0.882   0.397  0.00  0.00     0.034 A 
ATOM      7 Cl   UNL d   1       0.741   3.331   1.490  0.00  0.00    -0.070 Cl
ATOM      8 Cl1  UNL d   1       1.580   4.364  -1.482  0.00  0.00    -0.070 Cl
ENDROOT
TORSDOF 0
ENDMDL
