MODEL 1
REMARK minimizedAffinity 0.980396748
REMARK minimizedRMSD -1
REMARK  0 active torsions:
REMARK  status: ('A' for Active; 'I' for Inactive)
ROOT
ATOM      1  C   UNL d   1       1.002  -0.315  -0.366  0.00  0.00     0.020 A 
ATOM      2  C1  UNL d   1       1.435   0.664   0.528  0.00  0.00     0.020 A 
ATOM      3  C2  UNL d   1       1.832   1.916   0.054  0.00  0.00     0.034 A 
ATOM      4  C3  UNL d   1       1.796   2.193  -1.318  0.00  0.00     0.017 A 
ATOM      5  C4  UNL d   1       1.361   1.210  -2.214  0.00  0.00     0.017 A 
ATOM      6  C5  UNL d   1       0.965  -0.042  -1.734  0.00  0.00     0.034 A 
ATOM      7 Cl   UNL d   1       1.290   1.477  -3.920  0.00  0.00    -0.070 Cl
ATOM      8 Cl1  UNL d   1       2.301   3.763  -1.834  0.00  0.00    -0.070 Cl
ENDROOT
TORSDOF 0
ENDMDL
