MODEL 1
REMARK minimizedAffinity -2.41115856
REMARK minimizedRMSD -1
REMARK  0 active torsions:
REMARK  status: ('A' for Active; 'I' for Inactive)
ROOT
ATOM      1  C   UNL d   1       1.085  -0.090   0.025  0.00  0.00     0.020 A 
ATOM      2  C1  UNL d   1       1.274   0.009  -1.353  0.00  0.00     0.020 A 
ATOM      3  C2  UNL d   1       1.458   1.261  -1.944  0.00  0.00     0.034 A 
ATOM      4  C3  UNL d   1       1.454   2.418  -1.157  0.00  0.00     0.017 A 
ATOM      5  C4  UNL d   1       1.264   2.317   0.226  0.00  0.00     0.017 A 
ATOM      6  C5  UNL d   1       1.080   1.061   0.812  0.00  0.00     0.034 A 
ATOM      7 Cl   UNL d   1       1.246   3.700   1.263  0.00  0.00    -0.070 Cl
ATOM      8 Cl1  UNL d   1       1.688   3.933  -1.954  0.00  0.00    -0.070 Cl
ENDROOT
TORSDOF 0
ENDMDL
