MODEL 1
REMARK minimizedAffinity 5.4331851
REMARK minimizedRMSD -1
REMARK  0 active torsions:
REMARK  status: ('A' for Active; 'I' for Inactive)
ROOT
ATOM      1  C   UNL d   1       1.692   3.078  -1.775  0.00  0.00     0.020 A 
ATOM      2  C1  UNL d   1       1.389   4.379  -1.374  0.00  0.00     0.020 A 
ATOM      3  C2  UNL d   1       1.477   4.732  -0.026  0.00  0.00     0.034 A 
ATOM      4  C3  UNL d   1       1.868   3.783   0.926  0.00  0.00     0.017 A 
ATOM      5  C4  UNL d   1       2.172   2.478   0.522  0.00  0.00     0.017 A 
ATOM      6  C5  UNL d   1       2.082   2.130  -0.829  0.00  0.00     0.034 A 
ATOM      7 Cl   UNL d   1       2.662   1.253   1.639  0.00  0.00    -0.070 Cl
ATOM      8 Cl1  UNL d   1       1.956   4.289   2.576  0.00  0.00    -0.070 Cl
ENDROOT
TORSDOF 0
ENDMDL
