MODEL 1
REMARK minimizedAffinity -0.13924922
REMARK minimizedRMSD -1
REMARK  0 active torsions:
REMARK  status: ('A' for Active; 'I' for Inactive)
ROOT
ATOM      1  C   UNL d   1       1.836   0.006  -1.543  0.00  0.00     0.020 A 
ATOM      2  C1  UNL d   1       1.258   1.001  -2.329  0.00  0.00     0.020 A 
ATOM      3  C2  UNL d   1       1.017   2.266  -1.788  0.00  0.00     0.034 A 
ATOM      4  C3  UNL d   1       1.355   2.538  -0.457  0.00  0.00     0.017 A 
ATOM      5  C4  UNL d   1       1.936   1.538   0.331  0.00  0.00     0.017 A 
ATOM      6  C5  UNL d   1       2.175   0.274  -0.216  0.00  0.00     0.034 A 
ATOM      7 Cl   UNL d   1       2.380   1.799   1.981  0.00  0.00    -0.070 Cl
ATOM      8 Cl1  UNL d   1       1.029   4.125   0.146  0.00  0.00    -0.070 Cl
ENDROOT
TORSDOF 0
ENDMDL
