MODEL 1
REMARK minimizedAffinity -1.98895526
REMARK minimizedRMSD -1
REMARK  0 active torsions:
REMARK  status: ('A' for Active; 'I' for Inactive)
ROOT
ATOM      1  C   UNL d   1       1.614   0.968  -2.576  0.00  0.00     0.020 A 
ATOM      2  C1  UNL d   1       1.230  -0.059  -1.715  0.00  0.00     0.020 A 
ATOM      3  C2  UNL d   1       0.804   0.240  -0.419  0.00  0.00     0.034 A 
ATOM      4  C3  UNL d   1       0.762   1.568   0.020  0.00  0.00     0.017 A 
ATOM      5  C4  UNL d   1       1.147   2.598  -0.846  0.00  0.00     0.017 A 
ATOM      6  C5  UNL d   1       1.572   2.294  -2.143  0.00  0.00     0.034 A 
ATOM      7 Cl   UNL d   1       1.121   4.261  -0.376  0.00  0.00    -0.070 Cl
ATOM      8 Cl1  UNL d   1       0.225   1.864   1.635  0.00  0.00    -0.070 Cl
ENDROOT
TORSDOF 0
ENDMDL
