MODEL 1
REMARK minimizedAffinity 0.491960317
REMARK minimizedRMSD -1
REMARK  0 active torsions:
REMARK  status: ('A' for Active; 'I' for Inactive)
ROOT
ATOM      1  C   UNL d   1       1.200  -1.148  -0.395  0.00  0.00     0.020 A 
ATOM      2  C1  UNL d   1       1.160  -0.986  -1.780  0.00  0.00     0.020 A 
ATOM      3  C2  UNL d   1       1.159   0.296  -2.333  0.00  0.00     0.034 A 
ATOM      4  C3  UNL d   1       1.198   1.421  -1.502  0.00  0.00     0.017 A 
ATOM      5  C4  UNL d   1       1.238   1.258  -0.112  0.00  0.00     0.017 A 
ATOM      6  C5  UNL d   1       1.239  -0.028   0.436  0.00  0.00     0.034 A 
ATOM      7 Cl   UNL d   1       1.287   2.598   0.978  0.00  0.00    -0.070 Cl
ATOM      8 Cl1  UNL d   1       1.194   2.977  -2.254  0.00  0.00    -0.070 Cl
ENDROOT
TORSDOF 0
ENDMDL
