MODEL 1
REMARK minimizedAffinity 2.79397202
REMARK minimizedRMSD -1
REMARK  0 active torsions:
REMARK  status: ('A' for Active; 'I' for Inactive)
ROOT
ATOM      1  C   UNL d   1       1.040  -0.051  -0.987  0.00  0.00     0.020 A 
ATOM      2  C1  UNL d   1       0.736  -0.216   0.363  0.00  0.00     0.020 A 
ATOM      3  C2  UNL d   1       1.008   0.810   1.270  0.00  0.00     0.034 A 
ATOM      4  C3  UNL d   1       1.585   2.006   0.828  0.00  0.00     0.017 A 
ATOM      5  C4  UNL d   1       1.890   2.171  -0.528  0.00  0.00     0.017 A 
ATOM      6  C5  UNL d   1       1.615   1.140  -1.432  0.00  0.00     0.034 A 
ATOM      7 Cl   UNL d   1       2.603   3.618  -1.149  0.00  0.00    -0.070 Cl
ATOM      8 Cl1  UNL d   1       1.893   3.233   2.005  0.00  0.00    -0.070 Cl
ENDROOT
TORSDOF 0
ENDMDL
