MODEL 1
REMARK minimizedAffinity 2.25795841
REMARK minimizedRMSD -1
REMARK  0 active torsions:
REMARK  status: ('A' for Active; 'I' for Inactive)
ROOT
ATOM      1  C   UNL d   1      -3.681   2.909   1.148  0.00  0.00     0.020 A 
ATOM      2  C1  UNL d   1      -4.058   1.803   1.910  0.00  0.00     0.020 A 
ATOM      3  C2  UNL d   1      -3.688   1.723   3.254  0.00  0.00     0.034 A 
ATOM      4  C3  UNL d   1      -2.940   2.749   3.841  0.00  0.00     0.017 A 
ATOM      5  C4  UNL d   1      -2.562   3.859   3.076  0.00  0.00     0.017 A 
ATOM      6  C5  UNL d   1      -2.934   3.934   1.730  0.00  0.00     0.034 A 
ATOM      7 Cl   UNL d   1      -1.638   5.165   3.730  0.00  0.00    -0.070 Cl
ATOM      8 Cl1  UNL d   1      -2.518   2.584   5.509  0.00  0.00    -0.070 Cl
ENDROOT
TORSDOF 0
ENDMDL
