MODEL 1
REMARK minimizedAffinity 1.99174368
REMARK minimizedRMSD -1
REMARK  0 active torsions:
REMARK  status: ('A' for Active; 'I' for Inactive)
ROOT
ATOM      1  C   UNL d   1       1.444   2.568  -2.845  0.00  0.00     0.020 A 
ATOM      2  C1  UNL d   1       1.321   1.600  -1.849  0.00  0.00     0.020 A 
ATOM      3  C2  UNL d   1       1.251   1.984  -0.508  0.00  0.00     0.034 A 
ATOM      4  C3  UNL d   1       1.303   3.339  -0.160  0.00  0.00     0.017 A 
ATOM      5  C4  UNL d   1       1.426   4.309  -1.160  0.00  0.00     0.017 A 
ATOM      6  C5  UNL d   1       1.496   3.919  -2.502  0.00  0.00     0.034 A 
ATOM      7 Cl   UNL d   1       1.496   6.000  -0.808  0.00  0.00    -0.070 Cl
ATOM      8 Cl1  UNL d   1       1.210   3.741   1.518  0.00  0.00    -0.070 Cl
ENDROOT
TORSDOF 0
ENDMDL
