MODEL 1
REMARK minimizedAffinity 0.825326145
REMARK minimizedRMSD -1
REMARK  0 active torsions:
REMARK  status: ('A' for Active; 'I' for Inactive)
ROOT
ATOM      1  C   UNL d   1       1.222  -2.197  -0.731  0.00  0.00     0.020 A 
ATOM      2  C1  UNL d   1       1.186  -1.906  -2.094  0.00  0.00     0.020 A 
ATOM      3  C2  UNL d   1       1.229  -0.578  -2.525  0.00  0.00     0.034 A 
ATOM      4  C3  UNL d   1       1.309   0.463  -1.592  0.00  0.00     0.017 A 
ATOM      5  C4  UNL d   1       1.346   0.169  -0.224  0.00  0.00     0.017 A 
ATOM      6  C5  UNL d   1       1.302  -1.163   0.202  0.00  0.00     0.034 A 
ATOM      7 Cl   UNL d   1       1.445   1.399   0.986  0.00  0.00    -0.070 Cl
ATOM      8 Cl1  UNL d   1       1.360   2.081  -2.196  0.00  0.00    -0.070 Cl
ENDROOT
TORSDOF 0
ENDMDL
