MODEL 1
REMARK minimizedAffinity -0.949567258
REMARK minimizedRMSD -1
REMARK  0 active torsions:
REMARK  status: ('A' for Active; 'I' for Inactive)
ROOT
ATOM      1  C   UNL d   1       1.309   1.990  -1.968  0.00  0.00     0.020 A 
ATOM      2  C1  UNL d   1       1.082   1.421  -0.715  0.00  0.00     0.020 A 
ATOM      3  C2  UNL d   1       1.162   2.211   0.435  0.00  0.00     0.034 A 
ATOM      4  C3  UNL d   1       1.470   3.572   0.334  0.00  0.00     0.017 A 
ATOM      5  C4  UNL d   1       1.697   4.142  -0.924  0.00  0.00     0.017 A 
ATOM      6  C5  UNL d   1       1.615   3.347  -2.072  0.00  0.00     0.034 A 
ATOM      7 Cl   UNL d   1       2.081   5.814  -1.129  0.00  0.00    -0.070 Cl
ATOM      8 Cl1  UNL d   1       1.552   4.488   1.796  0.00  0.00    -0.070 Cl
ENDROOT
TORSDOF 0
ENDMDL
