MODEL 1
REMARK minimizedAffinity -3.10071397
REMARK minimizedRMSD -1
REMARK  0 active torsions:
REMARK  status: ('A' for Active; 'I' for Inactive)
ROOT
ATOM      1  C   UNL d   1       1.387   3.753  -1.727  0.00  0.00     0.020 A 
ATOM      2  C1  UNL d   1       1.544   4.261  -0.438  0.00  0.00     0.020 A 
ATOM      3  C2  UNL d   1       1.450   3.409   0.665  0.00  0.00     0.034 A 
ATOM      4  C3  UNL d   1       1.199   2.044   0.480  0.00  0.00     0.017 A 
ATOM      5  C4  UNL d   1       1.041   1.536  -0.814  0.00  0.00     0.017 A 
ATOM      6  C5  UNL d   1       1.137   2.393  -1.915  0.00  0.00     0.034 A 
ATOM      7 Cl   UNL d   1       0.729  -0.136  -1.122  0.00  0.00    -0.070 Cl
ATOM      8 Cl1  UNL d   1       1.095   1.049   1.888  0.00  0.00    -0.070 Cl
ENDROOT
TORSDOF 0
ENDMDL
