MODEL 1
REMARK minimizedAffinity 0.5956406
REMARK minimizedRMSD -1
REMARK  0 active torsions:
REMARK  status: ('A' for Active; 'I' for Inactive)
ROOT
ATOM      1  C   UNL d   1       1.530   2.694  -0.000  0.00  0.00    -0.002 A 
ATOM      2  C1  UNL d   1       0.285   2.355  -0.513  0.00  0.00     0.010 A 
ATOM      3  C2  UNL d   1      -0.393   1.229  -0.044  0.00  0.00     0.041 A 
ATOM      4  C3  UNL d   1       0.205   0.442   0.960  0.00  0.00    -0.075 A 
ATOM      5  S   UNL d   1      -0.440  -0.981   1.688  0.00  0.00     0.015 SA
ATOM      6  C4  UNL d   1       0.920  -1.172   2.698  0.00  0.00     0.022 A 
ATOM      7  C5  UNL d   1       1.853  -0.183   2.497  0.00  0.00     0.026 A 
ATOM      8  C6  UNL d   1       1.457   0.764   1.493  0.00  0.00    -0.082 A 
ATOM      9  C7  UNL d   1       2.119   1.912   0.996  0.00  0.00     0.045 A 
ENDROOT
TORSDOF 0
ENDMDL
