MODEL 1
REMARK minimizedAffinity 18.545578
REMARK minimizedRMSD -1
REMARK  0 active torsions:
REMARK  status: ('A' for Active; 'I' for Inactive)
ROOT
ATOM      1  C   UNL d   1      -0.497   4.203   0.458  0.00  0.00    -0.002 A 
ATOM      2  C1  UNL d   1      -1.523   3.284   0.627  0.00  0.00     0.010 A 
ATOM      3  C2  UNL d   1      -1.272   1.914   0.532  0.00  0.00     0.041 A 
ATOM      4  C3  UNL d   1       0.041   1.479   0.265  0.00  0.00    -0.075 A 
ATOM      5  S   UNL d   1       0.584  -0.150   0.107  0.00  0.00     0.015 SA
ATOM      6  C4  UNL d   1       2.191   0.336  -0.188  0.00  0.00     0.022 A 
ATOM      7  C5  UNL d   1       2.328   1.703  -0.170  0.00  0.00     0.026 A 
ATOM      8  C6  UNL d   1       1.091   2.385   0.092  0.00  0.00    -0.082 A 
ATOM      9  C7  UNL d   1       0.804   3.767   0.192  0.00  0.00     0.045 A 
ENDROOT
TORSDOF 0
ENDMDL
