MODEL 1
REMARK minimizedAffinity 12.8870945
REMARK minimizedRMSD -1
REMARK  0 active torsions:
REMARK  status: ('A' for Active; 'I' for Inactive)
ROOT
ATOM      1  C   UNL d   1       1.430   3.244  -0.385  0.00  0.00    -0.002 A 
ATOM      2  C1  UNL d   1       2.500   2.491   0.077  0.00  0.00     0.010 A 
ATOM      3  C2  UNL d   1       2.320   1.161   0.462  0.00  0.00     0.041 A 
ATOM      4  C3  UNL d   1       1.033   0.594   0.371  0.00  0.00    -0.075 A 
ATOM      5  S   UNL d   1       0.575  -1.016   0.785  0.00  0.00     0.015 SA
ATOM      6  C4  UNL d   1      -1.052  -0.743   0.357  0.00  0.00     0.022 A 
ATOM      7  C5  UNL d   1      -1.258   0.540  -0.092  0.00  0.00     0.026 A 
ATOM      8  C6  UNL d   1      -0.060   1.331  -0.092  0.00  0.00    -0.082 A 
ATOM      9  C7  UNL d   1       0.155   2.678  -0.473  0.00  0.00     0.045 A 
ENDROOT
TORSDOF 0
ENDMDL
