MODEL 1
REMARK minimizedAffinity 12.4837112
REMARK minimizedRMSD -1
REMARK  0 active torsions:
REMARK  status: ('A' for Active; 'I' for Inactive)
ROOT
ATOM      1  C   UNL d   1      -2.993   0.880  -4.112  0.00  0.00    -0.002 A 
ATOM      2  C1  UNL d   1      -3.376  -0.395  -4.503  0.00  0.00     0.010 A 
ATOM      3  C2  UNL d   1      -4.301  -1.122  -3.750  0.00  0.00     0.041 A 
ATOM      4  C3  UNL d   1      -4.841  -0.539  -2.587  0.00  0.00    -0.075 A 
ATOM      5  S   UNL d   1      -5.990  -1.240  -1.510  0.00  0.00     0.015 SA
ATOM      6  C4  UNL d   1      -6.000   0.136  -0.505  0.00  0.00     0.022 A 
ATOM      7  C5  UNL d   1      -5.153   1.117  -0.965  0.00  0.00     0.026 A 
ATOM      8  C6  UNL d   1      -4.472   0.744  -2.173  0.00  0.00    -0.082 A 
ATOM      9  C7  UNL d   1      -3.531   1.455  -2.957  0.00  0.00     0.045 A 
ENDROOT
TORSDOF 0
ENDMDL
