MODEL 1
REMARK minimizedAffinity 14.3828154
REMARK minimizedRMSD -1
REMARK  0 active torsions:
REMARK  status: ('A' for Active; 'I' for Inactive)
ROOT
ATOM      1  C1  DEN d   1       1.449  -3.546   0.118  0.00  0.00     0.130 A 
ATOM      2  C2  DEN d   1       2.905  -3.484   0.209  0.00  0.00    -0.031 A 
ATOM      3  C3  DEN d   1       3.258  -2.412   1.161  0.00  0.00     0.027 A 
ATOM      4  C4  DEN d   1       1.700  -0.854   2.501  0.00  0.00     0.027 A 
ATOM      5  C5  DEN d   1       0.386  -0.522   2.747  0.00  0.00    -0.003 A 
ATOM      6  C6  DEN d   1      -0.656  -1.146   2.114  0.00  0.00     0.001 A 
ATOM      7  C7  DEN d   1      -0.403  -2.167   1.236  0.00  0.00     0.017 A 
ATOM      8  C8  DEN d   1       0.919  -2.503   0.977  0.00  0.00    -0.094 A 
ATOM      9  C9  DEN d   1       1.958  -1.868   1.637  0.00  0.00    -0.072 A 
ENDROOT
TORSDOF 0
ENDMDL
