MODEL 1
REMARK minimizedAffinity 14.5262699
REMARK minimizedRMSD -1
REMARK  0 active torsions:
REMARK  status: ('A' for Active; 'I' for Inactive)
ROOT
ATOM      1  C1  DEN d   1      -1.368  -3.912   2.476  0.00  0.00     0.130 A 
ATOM      2  C2  DEN d   1      -2.211  -2.923   3.143  0.00  0.00    -0.031 A 
ATOM      3  C3  DEN d   1      -1.423  -1.684   3.301  0.00  0.00     0.027 A 
ATOM      4  C4  DEN d   1       1.006  -1.203   2.580  0.00  0.00     0.027 A 
ATOM      5  C5  DEN d   1       2.128  -1.739   1.987  0.00  0.00    -0.003 A 
ATOM      6  C6  DEN d   1       2.174  -3.036   1.550  0.00  0.00     0.001 A 
ATOM      7  C7  DEN d   1       1.062  -3.829   1.659  0.00  0.00     0.017 A 
ATOM      8  C8  DEN d   1      -0.070  -3.298   2.262  0.00  0.00    -0.094 A 
ATOM      9  C9  DEN d   1      -0.101  -1.980   2.686  0.00  0.00    -0.072 A 
ENDROOT
TORSDOF 0
ENDMDL
