MODEL 1
REMARK minimizedAffinity 17.8521519
REMARK minimizedRMSD -1
REMARK  0 active torsions:
REMARK  status: ('A' for Active; 'I' for Inactive)
ROOT
ATOM      1  C1  DEN d   1      -3.615   2.107  -1.119  0.00  0.00     0.130 A 
ATOM      2  C2  DEN d   1      -2.978   1.423  -2.241  0.00  0.00    -0.031 A 
ATOM      3  C3  DEN d   1      -2.998  -0.027  -1.961  0.00  0.00     0.027 A 
ATOM      4  C4  DEN d   1      -3.953  -1.272   0.086  0.00  0.00     0.027 A 
ATOM      5  C5  DEN d   1      -4.581  -1.117   1.302  0.00  0.00    -0.003 A 
ATOM      6  C6  DEN d   1      -4.898   0.116   1.808  0.00  0.00     0.001 A 
ATOM      7  C7  DEN d   1      -4.628   1.241   1.073  0.00  0.00     0.017 A 
ATOM      8  C8  DEN d   1      -3.988   1.092  -0.150  0.00  0.00    -0.094 A 
ATOM      9  C9  DEN d   1      -3.687  -0.163  -0.650  0.00  0.00    -0.072 A 
ENDROOT
TORSDOF 0
ENDMDL
