MODEL 1
REMARK minimizedAffinity 3.04333758
REMARK minimizedRMSD -1
REMARK  0 active torsions:
REMARK  status: ('A' for Active; 'I' for Inactive)
ROOT
ATOM      1  C1  DEN d   1      -0.011  -1.117   2.845  0.00  0.00     0.130 A 
ATOM      2  C2  DEN d   1      -1.154  -1.883   3.334  0.00  0.00    -0.031 A 
ATOM      3  C3  DEN d   1      -1.000  -3.278   2.873  0.00  0.00     0.027 A 
ATOM      4  C4  DEN d   1       0.891  -4.321   1.462  0.00  0.00     0.027 A 
ATOM      5  C5  DEN d   1       2.073  -4.063   0.803  0.00  0.00    -0.003 A 
ATOM      6  C6  DEN d   1       2.621  -2.809   0.750  0.00  0.00     0.001 A 
ATOM      7  C7  DEN d   1       2.009  -1.773   1.405  0.00  0.00     0.017 A 
ATOM      8  C8  DEN d   1       0.814  -2.023   2.066  0.00  0.00    -0.094 A 
ATOM      9  C9  DEN d   1       0.282  -3.301   2.119  0.00  0.00    -0.072 A 
ENDROOT
TORSDOF 0
ENDMDL
