MODEL 1
REMARK minimizedAffinity 15.6679583
REMARK minimizedRMSD -1
REMARK  0 active torsions:
REMARK  status: ('A' for Active; 'I' for Inactive)
ROOT
ATOM      1  C1  DEN d   1      -2.595   2.370  -2.263  0.00  0.00     0.130 A 
ATOM      2  C2  DEN d   1      -2.927   0.949  -2.325  0.00  0.00    -0.031 A 
ATOM      3  C3  DEN d   1      -4.008   0.776  -3.317  0.00  0.00     0.027 A 
ATOM      4  C4  DEN d   1      -5.188   2.560  -4.758  0.00  0.00     0.027 A 
ATOM      5  C5  DEN d   1      -5.256   3.905  -5.046  0.00  0.00    -0.003 A 
ATOM      6  C6  DEN d   1      -4.472   4.829  -4.408  0.00  0.00     0.001 A 
ATOM      7  C7  DEN d   1      -3.553   4.415  -3.480  0.00  0.00     0.017 A 
ATOM      8  C8  DEN d   1      -3.484   3.061  -3.179  0.00  0.00    -0.094 A 
ATOM      9  C9  DEN d   1      -4.277   2.141  -3.844  0.00  0.00    -0.072 A 
ENDROOT
TORSDOF 0
ENDMDL
