MODEL 1
REMARK minimizedAffinity 7.37168026
REMARK minimizedRMSD -1
REMARK  0 active torsions:
REMARK  status: ('A' for Active; 'I' for Inactive)
ROOT
ATOM      1  C1  DEN d   1       3.363  -2.307   1.989  0.00  0.00     0.130 A 
ATOM      2  C2  DEN d   1       3.489  -3.165   0.814  0.00  0.00    -0.031 A 
ATOM      3  C3  DEN d   1       2.160  -3.268   0.178  0.00  0.00     0.027 A 
ATOM      4  C4  DEN d   1      -0.068  -2.181   0.891  0.00  0.00     0.027 A 
ATOM      5  C5  DEN d   1      -0.674  -1.377   1.831  0.00  0.00    -0.003 A 
ATOM      6  C6  DEN d   1       0.009  -0.858   2.898  0.00  0.00     0.001 A 
ATOM      7  C7  DEN d   1       1.351  -1.101   3.028  0.00  0.00     0.017 A 
ATOM      8  C8  DEN d   1       1.968  -1.917   2.090  0.00  0.00    -0.094 A 
ATOM      9  C9  DEN d   1       1.263  -2.422   1.011  0.00  0.00    -0.072 A 
ENDROOT
TORSDOF 0
ENDMDL
