MODEL 1
REMARK minimizedAffinity 11.3759212
REMARK minimizedRMSD -1
REMARK  0 active torsions:
REMARK  status: ('A' for Active; 'I' for Inactive)
ROOT
ATOM      1  C1  DEN d   1       3.254  -2.560   1.178  0.00  0.00     0.130 A 
ATOM      2  C2  DEN d   1       2.601  -3.521   0.292  0.00  0.00    -0.031 A 
ATOM      3  C3  DEN d   1       1.142  -3.397   0.480  0.00  0.00     0.027 A 
ATOM      4  C4  DEN d   1      -0.165  -1.815   2.043  0.00  0.00     0.027 A 
ATOM      5  C5  DEN d   1      -0.045  -0.826   2.995  0.00  0.00    -0.003 A 
ATOM      6  C6  DEN d   1       1.173  -0.374   3.429  0.00  0.00     0.001 A 
ATOM      7  C7  DEN d   1       2.320  -0.880   2.877  0.00  0.00     0.017 A 
ATOM      8  C8  DEN d   1       2.208  -1.882   1.923  0.00  0.00    -0.094 A 
ATOM      9  C9  DEN d   1       0.968  -2.317   1.488  0.00  0.00    -0.072 A 
ENDROOT
TORSDOF 0
ENDMDL
