MODEL 1
REMARK minimizedAffinity 14.3979073
REMARK minimizedRMSD -1
REMARK  0 active torsions:
REMARK  status: ('A' for Active; 'I' for Inactive)
ROOT
ATOM      1  C1  DEN d   1      -0.098  -2.160   1.121  0.00  0.00     0.130 A 
ATOM      2  C2  DEN d   1       0.072  -1.085   2.094  0.00  0.00    -0.031 A 
ATOM      3  C3  DEN d   1       1.498  -1.035   2.475  0.00  0.00     0.027 A 
ATOM      4  C4  DEN d   1       3.450  -2.507   1.652  0.00  0.00     0.027 A 
ATOM      5  C5  DEN d   1       3.794  -3.560   0.834  0.00  0.00    -0.003 A 
ATOM      6  C6  DEN d   1       2.867  -4.237   0.086  0.00  0.00     0.001 A 
ATOM      7  C7  DEN d   1       1.557  -3.839   0.107  0.00  0.00     0.017 A 
ATOM      8  C8  DEN d   1       1.201  -2.782   0.935  0.00  0.00    -0.094 A 
ATOM      9  C9  DEN d   1       2.154  -2.103   1.674  0.00  0.00    -0.072 A 
ENDROOT
TORSDOF 0
ENDMDL
