MODEL 1
REMARK minimizedAffinity 2.83422971
REMARK minimizedRMSD -1
REMARK  0 active torsions:
REMARK  status: ('A' for Active; 'I' for Inactive)
ROOT
ATOM      1  C1  DEN d   1      -3.007   1.642  -5.319  0.00  0.00     0.130 A 
ATOM      2  C2  DEN d   1      -1.723   1.907  -4.677  0.00  0.00    -0.031 A 
ATOM      3  C3  DEN d   1      -1.643   3.355  -4.395  0.00  0.00     0.027 A 
ATOM      4  C4  DEN d   1      -3.377   5.201  -4.884  0.00  0.00     0.027 A 
ATOM      5  C5  DEN d   1      -4.615   5.462  -5.428  0.00  0.00    -0.003 A 
ATOM      6  C6  DEN d   1      -5.383   4.482  -5.999  0.00  0.00     0.001 A 
ATOM      7  C7  DEN d   1      -4.940   3.186  -6.000  0.00  0.00     0.017 A 
ATOM      8  C8  DEN d   1      -3.689   2.916  -5.460  0.00  0.00    -0.094 A 
ATOM      9  C9  DEN d   1      -2.933   3.918  -4.876  0.00  0.00    -0.072 A 
ENDROOT
TORSDOF 0
ENDMDL
