MODEL 1
REMARK minimizedAffinity 15.4501619
REMARK minimizedRMSD -1
REMARK  0 active torsions:
REMARK  status: ('A' for Active; 'I' for Inactive)
ROOT
ATOM      1  C1  DEN d   1       4.388  -2.715  -0.114  0.00  0.00     0.130 A 
ATOM      2  C2  DEN d   1       5.158  -1.862   0.787  0.00  0.00    -0.031 A 
ATOM      3  C3  DEN d   1       4.205  -1.054   1.575  0.00  0.00     0.027 A 
ATOM      4  C4  DEN d   1       1.627  -1.044   1.490  0.00  0.00     0.027 A 
ATOM      5  C5  DEN d   1       0.522  -1.589   0.874  0.00  0.00    -0.003 A 
ATOM      6  C6  DEN d   1       0.629  -2.515  -0.130  0.00  0.00     0.001 A 
ATOM      7  C7  DEN d   1       1.866  -2.957  -0.517  0.00  0.00     0.017 A 
ATOM      8  C8  DEN d   1       2.985  -2.407   0.094  0.00  0.00    -0.094 A 
ATOM      9  C9  DEN d   1       2.856  -1.481   1.116  0.00  0.00    -0.072 A 
ENDROOT
TORSDOF 0
ENDMDL
