MODEL 1
REMARK minimizedAffinity -0.92386353
REMARK minimizedRMSD -1
REMARK  0 active torsions:
REMARK  status: ('A' for Active; 'I' for Inactive)
ROOT
ATOM      1  C   UNL d   1      -0.761  -0.380   1.118  0.00  0.00     0.172 C 
ATOM      2  N   UNL d   1      -0.203  -0.043  -0.171  0.00  0.00    -0.070 N 
ATOM      3  C1  UNL d   1       1.128  -0.054  -0.493  0.00  0.00    -0.004 A 
ATOM      4  C2  UNL d   1       1.246   0.326  -1.812  0.00  0.00    -0.047 A 
ATOM      5  C3  UNL d   1      -0.058   0.576  -2.299  0.00  0.00    -0.047 A 
ATOM      6  C4  UNL d   1      -0.936   0.340  -1.263  0.00  0.00    -0.004 A 
ENDROOT
TORSDOF 0
ENDMDL
