MODEL 1
REMARK minimizedAffinity -2.34529567
REMARK minimizedRMSD -1
REMARK  0 active torsions:
REMARK  status: ('A' for Active; 'I' for Inactive)
ROOT
ATOM      1  C   UNL d   1      -1.033  -0.074   1.194  0.00  0.00     0.172 C 
ATOM      2  N   UNL d   1      -0.019  -0.011   0.168  0.00  0.00    -0.070 N 
ATOM      3  C1  UNL d   1       0.567  -1.088  -0.442  0.00  0.00    -0.004 A 
ATOM      4  C2  UNL d   1       1.478  -0.609  -1.359  0.00  0.00    -0.047 A 
ATOM      5  C3  UNL d   1       1.439   0.804  -1.297  0.00  0.00    -0.047 A 
ATOM      6  C4  UNL d   1       0.503   1.147  -0.344  0.00  0.00    -0.004 A 
ENDROOT
TORSDOF 0
ENDMDL
