MODEL 1
REMARK minimizedAffinity -3.3688488
REMARK minimizedRMSD -1
REMARK  0 active torsions:
REMARK  status: ('A' for Active; 'I' for Inactive)
ROOT
ATOM      1  C   UNL d   1       1.201   0.826  -2.372  0.00  0.00     0.172 C 
ATOM      2  N   UNL d   1       1.259  -0.589  -2.087  0.00  0.00    -0.070 N 
ATOM      3  C1  UNL d   1       2.049  -1.502  -2.733  0.00  0.00    -0.004 A 
ATOM      4  C2  UNL d   1       1.815  -2.737  -2.168  0.00  0.00    -0.047 A 
ATOM      5  C3  UNL d   1       0.851  -2.560  -1.148  0.00  0.00    -0.047 A 
ATOM      6  C4  UNL d   1       0.524  -1.221  -1.119  0.00  0.00    -0.004 A 
ENDROOT
TORSDOF 0
ENDMDL
