MODEL 1
REMARK minimizedAffinity -3.54053903
REMARK minimizedRMSD -1
REMARK  0 active torsions:
REMARK  status: ('A' for Active; 'I' for Inactive)
ROOT
ATOM      1  C   UNL d   1       1.204   0.727  -2.494  0.00  0.00     0.172 C 
ATOM      2  N   UNL d   1       1.301  -0.679  -2.182  0.00  0.00    -0.070 N 
ATOM      3  C1  UNL d   1       2.335  -1.505  -2.535  0.00  0.00    -0.004 A 
ATOM      4  C2  UNL d   1       2.052  -2.765  -2.051  0.00  0.00    -0.047 A 
ATOM      5  C3  UNL d   1       0.805  -2.693  -1.386  0.00  0.00    -0.047 A 
ATOM      6  C4  UNL d   1       0.363  -1.391  -1.482  0.00  0.00    -0.004 A 
ENDROOT
TORSDOF 0
ENDMDL
