MODEL 1
REMARK minimizedAffinity -1.76981664
REMARK minimizedRMSD -1
REMARK  0 active torsions:
REMARK  status: ('A' for Active; 'I' for Inactive)
ROOT
ATOM      1  C   UNL d   1      -0.227   0.390   0.692  0.00  0.00     0.172 C 
ATOM      2  N   UNL d   1      -1.627   0.340   1.043  0.00  0.00    -0.070 N 
ATOM      3  C1  UNL d   1      -2.315   1.309   1.721  0.00  0.00    -0.004 A 
ATOM      4  C2  UNL d   1      -3.620   0.885   1.856  0.00  0.00    -0.047 A 
ATOM      5  C3  UNL d   1      -3.718  -0.384   1.238  0.00  0.00    -0.047 A 
ATOM      6  C4  UNL d   1      -2.470  -0.698   0.743  0.00  0.00    -0.004 A 
ENDROOT
TORSDOF 0
ENDMDL
