MODEL 1
REMARK minimizedAffinity -3.27212739
REMARK minimizedRMSD -1
REMARK  0 active torsions:
REMARK  status: ('A' for Active; 'I' for Inactive)
ROOT
ATOM      1  C   UNL d   1      -0.538  -1.045   0.883  0.00  0.00     0.172 C 
ATOM      2  N   UNL d   1       0.165  -0.583  -0.290  0.00  0.00    -0.070 N 
ATOM      3  C1  UNL d   1       0.988   0.510  -0.349  0.00  0.00    -0.004 A 
ATOM      4  C2  UNL d   1       1.462   0.611  -1.639  0.00  0.00    -0.047 A 
ATOM      5  C3  UNL d   1       0.905  -0.457  -2.381  0.00  0.00    -0.047 A 
ATOM      6  C4  UNL d   1       0.106  -1.181  -1.522  0.00  0.00    -0.004 A 
ENDROOT
TORSDOF 0
ENDMDL
