MODEL 1
REMARK minimizedAffinity -3.79382563
REMARK minimizedRMSD -1
REMARK  0 active torsions:
REMARK  status: ('A' for Active; 'I' for Inactive)
ROOT
ATOM      1  C   UNL d   1       1.034   1.091   0.350  0.00  0.00     0.172 C 
ATOM      2  N   UNL d   1       1.143   0.234  -0.807  0.00  0.00    -0.070 N 
ATOM      3  C1  UNL d   1       0.911  -1.116  -0.826  0.00  0.00    -0.004 A 
ATOM      4  C2  UNL d   1       1.121  -1.562  -2.112  0.00  0.00    -0.047 A 
ATOM      5  C3  UNL d   1       1.494  -0.443  -2.894  0.00  0.00    -0.047 A 
ATOM      6  C4  UNL d   1       1.500   0.656  -2.060  0.00  0.00    -0.004 A 
ENDROOT
TORSDOF 0
ENDMDL
