MODEL 1
REMARK minimizedAffinity -1.669034
REMARK minimizedRMSD -1
REMARK  0 active torsions:
REMARK  status: ('A' for Active; 'I' for Inactive)
ROOT
ATOM      1  C   UNL d   1       1.773   0.290  -3.124  0.00  0.00     0.172 C 
ATOM      2  N   UNL d   1       1.131   0.480  -1.845  0.00  0.00    -0.070 N 
ATOM      3  C1  UNL d   1       0.942  -0.488  -0.895  0.00  0.00    -0.004 A 
ATOM      4  C2  UNL d   1       0.296   0.091   0.175  0.00  0.00    -0.047 A 
ATOM      5  C3  UNL d   1       0.087   1.454  -0.143  0.00  0.00    -0.047 A 
ATOM      6  C4  UNL d   1       0.614   1.667  -1.399  0.00  0.00    -0.004 A 
ENDROOT
TORSDOF 0
ENDMDL
