MODEL 1
REMARK minimizedAffinity -3.41135216
REMARK minimizedRMSD -1
REMARK  0 active torsions:
REMARK  status: ('A' for Active; 'I' for Inactive)
ROOT
ATOM      1  C   UNL d   1      -0.848  -0.183   0.274  0.00  0.00     0.172 C 
ATOM      2  N   UNL d   1       0.095   0.152  -0.767  0.00  0.00    -0.070 N 
ATOM      3  C1  UNL d   1       0.609  -0.721  -1.689  0.00  0.00    -0.004 A 
ATOM      4  C2  UNL d   1       1.468  -0.016  -2.504  0.00  0.00    -0.047 A 
ATOM      5  C3  UNL d   1       1.470   1.327  -2.056  0.00  0.00    -0.047 A 
ATOM      6  C4  UNL d   1       0.612   1.402  -0.980  0.00  0.00    -0.004 A 
ENDROOT
TORSDOF 0
ENDMDL
