MODEL 1
REMARK minimizedAffinity -2.59025002
REMARK minimizedRMSD -1
REMARK  0 active torsions:
REMARK  status: ('A' for Active; 'I' for Inactive)
ROOT
ATOM      1  C   UNL d   1       0.379   1.066  -0.318  0.00  0.00     0.172 C 
ATOM      2  N   UNL d   1       0.794  -0.060  -1.122  0.00  0.00    -0.070 N 
ATOM      3  C1  UNL d   1       1.767  -0.037  -2.085  0.00  0.00    -0.004 A 
ATOM      4  C2  UNL d   1       1.862  -1.304  -2.618  0.00  0.00    -0.047 A 
ATOM      5  C3  UNL d   1       0.913  -2.116  -1.953  0.00  0.00    -0.047 A 
ATOM      6  C4  UNL d   1       0.265  -1.320  -1.032  0.00  0.00    -0.004 A 
ENDROOT
TORSDOF 0
ENDMDL
