MODEL 1
REMARK minimizedAffinity -3.75223947
REMARK minimizedRMSD -1
REMARK  0 active torsions:
REMARK  status: ('A' for Active; 'I' for Inactive)
ROOT
ATOM      1  C   UNL d   1      -0.938  -0.020   1.212  0.00  0.00     0.172 C 
ATOM      2  N   UNL d   1      -0.160   0.053  -0.003  0.00  0.00    -0.070 N 
ATOM      3  C1  UNL d   1       0.050  -0.978  -0.879  0.00  0.00    -0.004 A 
ATOM      4  C2  UNL d   1       0.840  -0.506  -1.905  0.00  0.00    -0.047 A 
ATOM      5  C3  UNL d   1       1.115   0.856  -1.636  0.00  0.00    -0.047 A 
ATOM      6  C4  UNL d   1       0.483   1.176  -0.452  0.00  0.00    -0.004 A 
ENDROOT
TORSDOF 0
ENDMDL
