MODEL 1
REMARK minimizedAffinity -3.33707237
REMARK minimizedRMSD -1
REMARK  0 active torsions:
REMARK  status: ('A' for Active; 'I' for Inactive)
ROOT
ATOM      1  C   UNL d   1      -0.889  -0.274   0.672  0.00  0.00     0.172 C 
ATOM      2  N   UNL d   1      -0.079  -0.021  -0.495  0.00  0.00    -0.070 N 
ATOM      3  C1  UNL d   1       0.135  -0.898  -1.524  0.00  0.00    -0.004 A 
ATOM      4  C2  UNL d   1       0.960  -0.281  -2.440  0.00  0.00    -0.047 A 
ATOM      5  C3  UNL d   1       1.252   1.011  -1.944  0.00  0.00    -0.047 A 
ATOM      6  C4  UNL d   1       0.596   1.146  -0.739  0.00  0.00    -0.004 A 
ENDROOT
TORSDOF 0
ENDMDL
