MODEL 1
REMARK minimizedAffinity -2.59428239
REMARK minimizedRMSD -1
REMARK  0 active torsions:
REMARK  status: ('A' for Active; 'I' for Inactive)
ROOT
ATOM      1  C   UNL d   1       1.831   0.224  -2.767  0.00  0.00     0.172 C 
ATOM      2  N   UNL d   1       1.073   0.239  -1.538  0.00  0.00    -0.070 N 
ATOM      3  C1  UNL d   1       1.052   1.260  -0.626  0.00  0.00    -0.004 A 
ATOM      4  C2  UNL d   1       0.212   0.890   0.402  0.00  0.00    -0.047 A 
ATOM      5  C3  UNL d   1      -0.289  -0.398   0.097  0.00  0.00    -0.047 A 
ATOM      6  C4  UNL d   1       0.260  -0.777  -1.110  0.00  0.00    -0.004 A 
ENDROOT
TORSDOF 0
ENDMDL
