MODEL 1
REMARK minimizedAffinity -3.59626532
REMARK minimizedRMSD -1
REMARK  0 active torsions:
REMARK  status: ('A' for Active; 'I' for Inactive)
ROOT
ATOM      1  C   UNL d   1      -0.347   0.031   1.325  0.00  0.00     0.172 C 
ATOM      2  N   UNL d   1      -0.013  -0.582   0.060  0.00  0.00    -0.070 N 
ATOM      3  C1  UNL d   1       0.323   0.087  -1.086  0.00  0.00    -0.004 A 
ATOM      4  C2  UNL d   1       0.569  -0.852  -2.065  0.00  0.00    -0.047 A 
ATOM      5  C3  UNL d   1       0.372  -2.128  -1.487  0.00  0.00    -0.047 A 
ATOM      6  C4  UNL d   1       0.012  -1.932  -0.170  0.00  0.00    -0.004 A 
ENDROOT
TORSDOF 0
ENDMDL
