MODEL 1
REMARK minimizedAffinity -2.52923536
REMARK minimizedRMSD -1
REMARK  0 active torsions:
REMARK  status: ('A' for Active; 'I' for Inactive)
ROOT
ATOM      1  C   UNL d   1      -0.295   0.119  -0.006  0.00  0.00     0.172 C 
ATOM      2  N   UNL d   1      -1.473  -0.043   0.813  0.00  0.00    -0.070 N 
ATOM      3  C1  UNL d   1      -1.536  -0.729   1.996  0.00  0.00    -0.004 A 
ATOM      4  C2  UNL d   1      -2.830  -0.649   2.462  0.00  0.00    -0.047 A 
ATOM      5  C3  UNL d   1      -3.571   0.111   1.527  0.00  0.00    -0.047 A 
ATOM      6  C4  UNL d   1      -2.707   0.474   0.516  0.00  0.00    -0.004 A 
ENDROOT
TORSDOF 0
ENDMDL
