MODEL 1
REMARK minimizedAffinity -3.20316768
REMARK minimizedRMSD -1
REMARK  0 active torsions:
REMARK  status: ('A' for Active; 'I' for Inactive)
ROOT
ATOM      1  C   UNL d   1       1.041   0.463  -2.779  0.00  0.00     0.172 C 
ATOM      2  N   UNL d   1       0.472   0.329  -1.458  0.00  0.00    -0.070 N 
ATOM      3  C1  UNL d   1      -0.184  -0.773  -0.980  0.00  0.00    -0.004 A 
ATOM      4  C2  UNL d   1      -0.572  -0.505   0.315  0.00  0.00    -0.047 A 
ATOM      5  C3  UNL d   1      -0.134   0.805   0.625  0.00  0.00    -0.047 A 
ATOM      6  C4  UNL d   1       0.509   1.298  -0.490  0.00  0.00    -0.004 A 
ENDROOT
TORSDOF 0
ENDMDL
