MODEL 1
REMARK minimizedAffinity 9.89226532
REMARK minimizedRMSD -1
REMARK  0 active torsions:
REMARK  status: ('A' for Active; 'I' for Inactive)
ROOT
ATOM      1  C   UNL d   1      -0.810   2.211  -0.742  0.00  0.00     0.023 A 
ATOM      2  C1  UNL d   1      -1.278   2.061   0.564  0.00  0.00     0.003 A 
ATOM      3  C2  UNL d   1      -1.848   3.147   1.231  0.00  0.00     0.048 A 
ATOM      4  C3  UNL d   1      -1.946   4.380   0.587  0.00  0.00     0.023 A 
ATOM      5  C4  UNL d   1      -1.480   4.535  -0.719  0.00  0.00     0.048 A 
ATOM      6  C5  UNL d   1      -0.911   3.446  -1.382  0.00  0.00     0.003 A 
ATOM      7  I   UNL d   1      -2.793   5.999   1.579  0.00  0.00    -0.146 I 
ENDROOT
TORSDOF 0
ENDMDL
