MODEL 1
REMARK minimizedAffinity 11.1337528
REMARK minimizedRMSD -1
REMARK  0 active torsions:
REMARK  status: ('A' for Active; 'I' for Inactive)
ROOT
ATOM      1  C   UNL d   1      -0.958   2.093   2.408  0.00  0.00     0.023 A 
ATOM      2  C1  UNL d   1      -1.634   2.857   1.456  0.00  0.00     0.003 A 
ATOM      3  C2  UNL d   1      -0.946   3.373   0.356  0.00  0.00     0.048 A 
ATOM      4  C3  UNL d   1       0.418   3.122   0.214  0.00  0.00     0.023 A 
ATOM      5  C4  UNL d   1       1.099   2.358   1.163  0.00  0.00     0.048 A 
ATOM      6  C5  UNL d   1       0.407   1.844   2.262  0.00  0.00     0.003 A 
ATOM      7  I   UNL d   1       1.445   3.890  -1.422  0.00  0.00    -0.146 I 
ENDROOT
TORSDOF 0
ENDMDL
