MODEL 1
REMARK minimizedAffinity 21.1467094
REMARK minimizedRMSD -1
REMARK  0 active torsions:
REMARK  status: ('A' for Active; 'I' for Inactive)
ROOT
ATOM      1  C   UNL d   1      -0.506   2.109   0.358  0.00  0.00     0.023 A 
ATOM      2  C1  UNL d   1       0.534   1.743  -0.496  0.00  0.00     0.003 A 
ATOM      3  C2  UNL d   1       1.058   2.671  -1.398  0.00  0.00     0.048 A 
ATOM      4  C3  UNL d   1       0.537   3.964  -1.440  0.00  0.00     0.023 A 
ATOM      5  C4  UNL d   1      -0.503   4.335  -0.587  0.00  0.00     0.048 A 
ATOM      6  C5  UNL d   1      -1.024   3.403   0.313  0.00  0.00     0.003 A 
ATOM      7  I   UNL d   1       1.315   5.347  -2.782  0.00  0.00    -0.146 I 
ENDROOT
TORSDOF 0
ENDMDL
