MODEL 1
REMARK minimizedAffinity 13.2684031
REMARK minimizedRMSD -1
REMARK  0 active torsions:
REMARK  status: ('A' for Active; 'I' for Inactive)
ROOT
ATOM      1  C   UNL d   1       0.003   2.645  -1.010  0.00  0.00     0.023 A 
ATOM      2  C1  UNL d   1      -0.017   2.605   0.385  0.00  0.00     0.003 A 
ATOM      3  C2  UNL d   1      -0.756   3.550   1.100  0.00  0.00     0.048 A 
ATOM      4  C3  UNL d   1      -1.473   4.530   0.416  0.00  0.00     0.023 A 
ATOM      5  C4  UNL d   1      -1.456   4.573  -0.980  0.00  0.00     0.048 A 
ATOM      6  C5  UNL d   1      -0.716   3.627  -1.691  0.00  0.00     0.003 A 
ATOM      7  I   UNL d   1      -2.573   5.937   1.479  0.00  0.00    -0.146 I 
ENDROOT
TORSDOF 0
ENDMDL
