MODEL 1
REMARK minimizedAffinity 10.7200899
REMARK minimizedRMSD -1
REMARK  0 active torsions:
REMARK  status: ('A' for Active; 'I' for Inactive)
ROOT
ATOM      1  C   UNL d   1      -1.380   2.759  -0.873  0.00  0.00     0.023 A 
ATOM      2  C1  UNL d   1      -0.277   1.972  -1.206  0.00  0.00     0.003 A 
ATOM      3  C2  UNL d   1       0.630   1.584  -0.217  0.00  0.00     0.048 A 
ATOM      4  C3  UNL d   1       0.427   1.986   1.103  0.00  0.00     0.023 A 
ATOM      5  C4  UNL d   1      -0.676   2.773   1.441  0.00  0.00     0.048 A 
ATOM      6  C5  UNL d   1      -1.579   3.158   0.449  0.00  0.00     0.003 A 
ATOM      7  I   UNL d   1       1.775   1.410   2.576  0.00  0.00    -0.146 I 
ENDROOT
TORSDOF 0
ENDMDL
