MODEL 1
REMARK minimizedAffinity 4.91357374
REMARK minimizedRMSD -1
REMARK  0 active torsions:
REMARK  status: ('A' for Active; 'I' for Inactive)
ROOT
ATOM      1  C   UNL d   1      -0.931  -0.536  -1.016  0.00  0.00     0.023 A 
ATOM      2  C1  UNL d   1       0.444  -0.491  -1.252  0.00  0.00     0.003 A 
ATOM      3  C2  UNL d   1       1.094   0.740  -1.361  0.00  0.00     0.048 A 
ATOM      4  C3  UNL d   1       0.365   1.922  -1.232  0.00  0.00     0.023 A 
ATOM      5  C4  UNL d   1      -1.010   1.881  -0.995  0.00  0.00     0.048 A 
ATOM      6  C5  UNL d   1      -1.656   0.649  -0.888  0.00  0.00     0.003 A 
ATOM      7  I   UNL d   1       1.332   3.754  -1.395  0.00  0.00    -0.146 I 
ENDROOT
TORSDOF 0
ENDMDL
