MODEL 1
REMARK minimizedAffinity 11.3477783
REMARK minimizedRMSD -1
REMARK  0 active torsions:
REMARK  status: ('A' for Active; 'I' for Inactive)
ROOT
ATOM      1  C   UNL d   1      -4.397   1.287  -1.518  0.00  0.00     0.023 A 
ATOM      2  C1  UNL d   1      -4.011   2.626  -1.580  0.00  0.00     0.003 A 
ATOM      3  C2  UNL d   1      -2.786   3.027  -1.043  0.00  0.00     0.048 A 
ATOM      4  C3  UNL d   1      -1.951   2.083  -0.446  0.00  0.00     0.023 A 
ATOM      5  C4  UNL d   1      -2.333   0.742  -0.382  0.00  0.00     0.048 A 
ATOM      6  C5  UNL d   1      -3.559   0.346  -0.920  0.00  0.00     0.003 A 
ATOM      7  I   UNL d   1      -0.127   2.676   0.353  0.00  0.00    -0.146 I 
ENDROOT
TORSDOF 0
ENDMDL
