MODEL 1
REMARK minimizedAffinity 11.7991371
REMARK minimizedRMSD -1
REMARK  0 active torsions:
REMARK  status: ('A' for Active; 'I' for Inactive)
ROOT
ATOM      1  C   UNL d   1       0.873   3.125   0.002  0.00  0.00     0.023 A 
ATOM      2  C1  UNL d   1      -0.439   2.903   0.419  0.00  0.00     0.003 A 
ATOM      3  C2  UNL d   1      -1.506   3.254  -0.411  0.00  0.00     0.048 A 
ATOM      4  C3  UNL d   1      -1.253   3.825  -1.658  0.00  0.00     0.023 A 
ATOM      5  C4  UNL d   1       0.059   4.048  -2.080  0.00  0.00     0.048 A 
ATOM      6  C5  UNL d   1       1.122   3.696  -1.246  0.00  0.00     0.003 A 
ATOM      7  I   UNL d   1      -2.839   4.348  -2.895  0.00  0.00    -0.146 I 
ENDROOT
TORSDOF 0
ENDMDL
