MODEL 1
REMARK minimizedAffinity 5.67966938
REMARK minimizedRMSD -1
REMARK  0 active torsions:
REMARK  status: ('A' for Active; 'I' for Inactive)
ROOT
ATOM      1  C   UNL d   1      -1.113   2.385   2.863  0.00  0.00     0.023 A 
ATOM      2  C1  UNL d   1       0.240   2.211   2.572  0.00  0.00     0.003 A 
ATOM      3  C2  UNL d   1       0.724   2.503   1.295  0.00  0.00     0.048 A 
ATOM      4  C3  UNL d   1      -0.150   2.968   0.314  0.00  0.00     0.023 A 
ATOM      5  C4  UNL d   1      -1.505   3.145   0.600  0.00  0.00     0.048 A 
ATOM      6  C5  UNL d   1      -1.985   2.851   1.878  0.00  0.00     0.003 A 
ATOM      7  I   UNL d   1       0.568   3.403  -1.588  0.00  0.00    -0.146 I 
ENDROOT
TORSDOF 0
ENDMDL
