MODEL 1
REMARK minimizedAffinity 20.1821938
REMARK minimizedRMSD -1
REMARK  0 active torsions:
REMARK  status: ('A' for Active; 'I' for Inactive)
ROOT
ATOM      1  C   UNL d   1       2.724   2.286  -3.004  0.00  0.00    -0.002 A 
ATOM      2  C1  UNL d   1       3.007   1.548  -1.863  0.00  0.00     0.010 A 
ATOM      3  C2  UNL d   1       3.959   1.995  -0.946  0.00  0.00     0.041 A 
ATOM      4  C3  UNL d   1       4.627   3.210  -1.195  0.00  0.00    -0.075 A 
ATOM      5  S   UNL d   1       5.831   3.956  -0.211  0.00  0.00     0.015 SA
ATOM      6  C4  UNL d   1       5.997   5.272  -1.281  0.00  0.00     0.022 A 
ATOM      7  C5  UNL d   1       5.162   5.161  -2.368  0.00  0.00     0.026 A 
ATOM      8  C6  UNL d   1       4.359   3.972  -2.336  0.00  0.00    -0.082 A 
ATOM      9  C7  UNL d   1       3.388   3.490  -3.248  0.00  0.00     0.045 A 
ENDROOT
TORSDOF 0
ENDMDL
