MODEL 1
REMARK minimizedAffinity 27.8023643
REMARK minimizedRMSD -1
REMARK  0 active torsions:
REMARK  status: ('A' for Active; 'I' for Inactive)
ROOT
ATOM      1  C   UNL d   1      -5.983  -5.246  -5.390  0.00  0.00    -0.002 A 
ATOM      2  C1  UNL d   1      -6.000  -3.909  -5.018  0.00  0.00     0.010 A 
ATOM      3  C2  UNL d   1      -4.852  -3.299  -4.508  0.00  0.00     0.041 A 
ATOM      4  C3  UNL d   1      -3.675  -4.063  -4.379  0.00  0.00    -0.075 A 
ATOM      5  S   UNL d   1      -2.149  -3.527  -3.781  0.00  0.00     0.015 SA
ATOM      6  C4  UNL d   1      -1.439  -5.060  -4.006  0.00  0.00     0.022 A 
ATOM      7  C5  UNL d   1      -2.330  -5.970  -4.524  0.00  0.00     0.026 A 
ATOM      8  C6  UNL d   1      -3.633  -5.410  -4.748  0.00  0.00    -0.082 A 
ATOM      9  C7  UNL d   1      -4.814  -6.000  -5.260  0.00  0.00     0.045 A 
ENDROOT
TORSDOF 0
ENDMDL
