MODEL 1
REMARK minimizedAffinity 8.47731495
REMARK minimizedRMSD -1
REMARK  0 active torsions:
REMARK  status: ('A' for Active; 'I' for Inactive)
ROOT
ATOM      1  C   UNL d   1      -2.491  -2.478   1.052  0.00  0.00    -0.002 A 
ATOM      2  C1  UNL d   1      -2.218  -3.749   0.567  0.00  0.00     0.010 A 
ATOM      3  C2  UNL d   1      -1.008  -4.379   0.867  0.00  0.00     0.041 A 
ATOM      4  C3  UNL d   1      -0.070  -3.703   1.671  0.00  0.00    -0.075 A 
ATOM      5  S   UNL d   1       1.478  -4.278   2.169  0.00  0.00     0.015 SA
ATOM      6  C4  UNL d   1       1.812  -2.850   3.037  0.00  0.00     0.022 A 
ATOM      7  C5  UNL d   1       0.780  -1.946   2.960  0.00  0.00     0.026 A 
ATOM      8  C6  UNL d   1      -0.322  -2.423   2.172  0.00  0.00    -0.082 A 
ATOM      9  C7  UNL d   1      -1.558  -1.811   1.850  0.00  0.00     0.045 A 
ENDROOT
TORSDOF 0
ENDMDL
