MODEL 1
REMARK minimizedAffinity 27.2337894
REMARK minimizedRMSD -1
REMARK  0 active torsions:
REMARK  status: ('A' for Active; 'I' for Inactive)
ROOT
ATOM      1  C   UNL d   1       5.999   5.367  -4.121  0.00  0.00    -0.002 A 
ATOM      2  C1  UNL d   1       5.477   5.999  -3.001  0.00  0.00     0.010 A 
ATOM      3  C2  UNL d   1       4.460   5.399  -2.256  0.00  0.00     0.041 A 
ATOM      4  C3  UNL d   1       3.974   4.139  -2.658  0.00  0.00    -0.075 A 
ATOM      5  S   UNL d   1       2.734   3.213  -1.898  0.00  0.00     0.015 SA
ATOM      6  C4  UNL d   1       2.868   1.956  -3.041  0.00  0.00     0.022 A 
ATOM      7  C5  UNL d   1       3.831   2.220  -3.987  0.00  0.00     0.026 A 
ATOM      8  C6  UNL d   1       4.484   3.482  -3.781  0.00  0.00    -0.082 A 
ATOM      9  C7  UNL d   1       5.513   4.118  -4.516  0.00  0.00     0.045 A 
ENDROOT
TORSDOF 0
ENDMDL
