MODEL 1
REMARK minimizedAffinity 21.8587551
REMARK minimizedRMSD -1
REMARK  0 active torsions:
REMARK  status: ('A' for Active; 'I' for Inactive)
ROOT
ATOM      1  C   UNL d   1       1.675   2.984  -3.742  0.00  0.00    -0.002 A 
ATOM      2  C1  UNL d   1       2.238   2.984  -5.010  0.00  0.00     0.010 A 
ATOM      3  C2  UNL d   1       3.575   3.346  -5.194  0.00  0.00     0.041 A 
ATOM      4  C3  UNL d   1       4.343   3.709  -4.071  0.00  0.00    -0.075 A 
ATOM      5  S   UNL d   1       6.000   4.186  -4.055  0.00  0.00     0.015 SA
ATOM      6  C4  UNL d   1       5.999   4.401  -2.364  0.00  0.00     0.022 A 
ATOM      7  C5  UNL d   1       4.774   4.120  -1.809  0.00  0.00     0.026 A 
ATOM      8  C6  UNL d   1       3.799   3.715  -2.783  0.00  0.00    -0.082 A 
ATOM      9  C7  UNL d   1       2.441   3.345  -2.630  0.00  0.00     0.045 A 
ENDROOT
TORSDOF 0
ENDMDL
