MODEL 1
REMARK minimizedAffinity 18.9117718
REMARK minimizedRMSD -1
REMARK  0 active torsions:
REMARK  status: ('A' for Active; 'I' for Inactive)
ROOT
ATOM      1  C   UNL d   1       4.212   4.136  -5.327  0.00  0.00    -0.002 A 
ATOM      2  C1  UNL d   1       5.110   4.574  -4.363  0.00  0.00     0.010 A 
ATOM      3  C2  UNL d   1       4.949   4.211  -3.025  0.00  0.00     0.041 A 
ATOM      4  C3  UNL d   1       3.861   3.391  -2.668  0.00  0.00    -0.075 A 
ATOM      5  S   UNL d   1       3.464   2.819  -1.090  0.00  0.00     0.015 SA
ATOM      6  C4  UNL d   1       2.094   1.978  -1.658  0.00  0.00     0.022 A 
ATOM      7  C5  UNL d   1       1.929   2.120  -3.015  0.00  0.00     0.026 A 
ATOM      8  C6  UNL d   1       2.944   2.936  -3.620  0.00  0.00    -0.082 A 
ATOM      9  C7  UNL d   1       3.134   3.322  -4.968  0.00  0.00     0.045 A 
ENDROOT
TORSDOF 0
ENDMDL
