MODEL 1
REMARK minimizedAffinity 23.2368641
REMARK minimizedRMSD -1
REMARK  0 active torsions:
REMARK  status: ('A' for Active; 'I' for Inactive)
ROOT
ATOM      1  C   UNL d   1       6.000   3.850   0.601  0.00  0.00    -0.002 A 
ATOM      2  C1  UNL d   1       5.903   3.381   1.904  0.00  0.00     0.010 A 
ATOM      3  C2  UNL d   1       4.879   2.504   2.268  0.00  0.00     0.041 A 
ATOM      4  C3  UNL d   1       3.946   2.102   1.292  0.00  0.00    -0.075 A 
ATOM      5  S   UNL d   1       2.609   1.036   1.509  0.00  0.00     0.015 SA
ATOM      6  C4  UNL d   1       2.135   1.177  -0.122  0.00  0.00     0.022 A 
ATOM      7  C5  UNL d   1       2.966   2.015  -0.829  0.00  0.00     0.026 A 
ATOM      8  C6  UNL d   1       4.023   2.561  -0.026  0.00  0.00    -0.082 A 
ATOM      9  C7  UNL d   1       5.072   3.449  -0.364  0.00  0.00     0.045 A 
ENDROOT
TORSDOF 0
ENDMDL
