MODEL 1
REMARK minimizedAffinity 27.6581478
REMARK minimizedRMSD -1
REMARK  0 active torsions:
REMARK  status: ('A' for Active; 'I' for Inactive)
ROOT
ATOM      1  C   UNL d   1       1.955   5.195  -2.132  0.00  0.00    -0.002 A 
ATOM      2  C1  UNL d   1       1.421   4.152  -2.876  0.00  0.00     0.010 A 
ATOM      3  C2  UNL d   1       2.224   3.423  -3.756  0.00  0.00     0.041 A 
ATOM      4  C3  UNL d   1       3.586   3.763  -3.875  0.00  0.00    -0.075 A 
ATOM      5  S   UNL d   1       4.759   3.009  -4.889  0.00  0.00     0.015 SA
ATOM      6  C4  UNL d   1       5.997   4.054  -4.358  0.00  0.00     0.022 A 
ATOM      7  C5  UNL d   1       5.544   4.961  -3.430  0.00  0.00     0.026 A 
ATOM      8  C6  UNL d   1       4.146   4.808  -3.136  0.00  0.00    -0.082 A 
ATOM      9  C7  UNL d   1       3.306   5.528  -2.253  0.00  0.00     0.045 A 
ENDROOT
TORSDOF 0
ENDMDL
