MODEL 1
REMARK minimizedAffinity 14.073308
REMARK minimizedRMSD -1
REMARK  0 active torsions:
REMARK  status: ('A' for Active; 'I' for Inactive)
ROOT
ATOM      1  C   UNL d   1       1.576   3.844  -2.672  0.00  0.00    -0.002 A 
ATOM      2  C1  UNL d   1       2.283   3.056  -3.569  0.00  0.00     0.010 A 
ATOM      3  C2  UNL d   1       3.659   3.228  -3.735  0.00  0.00     0.041 A 
ATOM      4  C3  UNL d   1       4.319   4.215  -2.976  0.00  0.00    -0.075 A 
ATOM      5  S   UNL d   1       5.998   4.603  -3.012  0.00  0.00     0.015 SA
ATOM      6  C4  UNL d   1       5.817   5.825  -1.837  0.00  0.00     0.022 A 
ATOM      7  C5  UNL d   1       4.514   5.947  -1.417  0.00  0.00     0.026 A 
ATOM      8  C6  UNL d   1       3.629   5.020  -2.066  0.00  0.00    -0.082 A 
ATOM      9  C7  UNL d   1       2.235   4.822  -1.921  0.00  0.00     0.045 A 
ENDROOT
TORSDOF 0
ENDMDL
