MODEL 1
REMARK minimizedAffinity 17.3726406
REMARK minimizedRMSD -1
REMARK  0 active torsions:
REMARK  status: ('A' for Active; 'I' for Inactive)
ROOT
ATOM      1  C   UNL d   1       0.981  -1.537   3.295  0.00  0.00    -0.002 A 
ATOM      2  C1  UNL d   1       1.441  -2.807   2.977  0.00  0.00     0.010 A 
ATOM      3  C2  UNL d   1       0.612  -3.718   2.320  0.00  0.00     0.041 A 
ATOM      4  C3  UNL d   1      -0.699  -3.328   1.983  0.00  0.00    -0.075 A 
ATOM      5  S   UNL d   1      -1.891  -4.276   1.176  0.00  0.00     0.015 SA
ATOM      6  C4  UNL d   1      -3.039  -3.017   1.234  0.00  0.00     0.022 A 
ATOM      7  C5  UNL d   1      -2.542  -1.894   1.850  0.00  0.00     0.026 A 
ATOM      8  C6  UNL d   1      -1.185  -2.054   2.292  0.00  0.00    -0.082 A 
ATOM      9  C7  UNL d   1      -0.320  -1.153   2.959  0.00  0.00     0.045 A 
ENDROOT
TORSDOF 0
ENDMDL
