MODEL 1
REMARK minimizedAffinity 0.150019526
REMARK minimizedRMSD -1
REMARK  0 active torsions:
REMARK  status: ('A' for Active; 'I' for Inactive)
ROOT
ATOM      1  C   UNL d   1       0.259  -0.783  -0.000  0.00  0.00     0.078 C 
ATOM      2  C1  UNL d   1       1.451   0.123  -0.082  0.00  0.00    -0.077 A 
ATOM      3  C2  UNL d   1       2.598  -0.255  -0.792  0.00  0.00    -0.001 A 
ATOM      4  C3  UNL d   1       3.703   0.594  -0.852  0.00  0.00     0.003 A 
ATOM      5  C4  UNL d   1       3.674   1.827  -0.203  0.00  0.00    -0.005 A 
ATOM      6  C5  UNL d   1       2.539   2.212   0.507  0.00  0.00     0.003 A 
ATOM      7  C6  UNL d   1       1.432   1.364   0.568  0.00  0.00    -0.001 A 
ENDROOT
TORSDOF 0
ENDMDL
