MODEL 1
REMARK minimizedAffinity 2.41144228
REMARK minimizedRMSD -1
REMARK  0 active torsions:
REMARK  status: ('A' for Active; 'I' for Inactive)
ROOT
ATOM      1  C   UNL d   1       2.588  -1.836  -0.090  0.00  0.00     0.078 C 
ATOM      2  C1  UNL d   1       3.067  -0.417  -0.023  0.00  0.00    -0.077 A 
ATOM      3  C2  UNL d   1       2.249   0.598   0.489  0.00  0.00    -0.001 A 
ATOM      4  C3  UNL d   1       2.705   1.916   0.535  0.00  0.00     0.003 A 
ATOM      5  C4  UNL d   1       3.979   2.233   0.070  0.00  0.00    -0.005 A 
ATOM      6  C5  UNL d   1       4.800   1.231  -0.444  0.00  0.00     0.003 A 
ATOM      7  C6  UNL d   1       4.346  -0.088  -0.491  0.00  0.00    -0.001 A 
ENDROOT
TORSDOF 0
ENDMDL
