MODEL 1
REMARK minimizedAffinity 5.73507977
REMARK minimizedRMSD -1
REMARK  0 active torsions:
REMARK  status: ('A' for Active; 'I' for Inactive)
ROOT
ATOM      1  C   UNL d   1       2.630  -2.607   0.287  0.00  0.00     0.078 C 
ATOM      2  C1  UNL d   1       2.588  -1.109   0.353  0.00  0.00    -0.077 A 
ATOM      3  C2  UNL d   1       3.767  -0.358   0.440  0.00  0.00    -0.001 A 
ATOM      4  C3  UNL d   1       3.713   1.035   0.510  0.00  0.00     0.003 A 
ATOM      5  C4  UNL d   1       2.483   1.689   0.494  0.00  0.00    -0.005 A 
ATOM      6  C5  UNL d   1       1.304   0.950   0.410  0.00  0.00     0.003 A 
ATOM      7  C6  UNL d   1       1.356  -0.443   0.340  0.00  0.00    -0.001 A 
ENDROOT
TORSDOF 0
ENDMDL
