MODEL 1
REMARK minimizedAffinity 1.01658583
REMARK minimizedRMSD -1
REMARK  0 active torsions:
REMARK  status: ('A' for Active; 'I' for Inactive)
ROOT
ATOM      1  C   UNL d   1       2.300  -2.121   0.060  0.00  0.00     0.078 C 
ATOM      2  C1  UNL d   1       2.663  -0.685   0.293  0.00  0.00    -0.077 A 
ATOM      3  C2  UNL d   1       3.999  -0.295   0.453  0.00  0.00    -0.001 A 
ATOM      4  C3  UNL d   1       4.322   1.044   0.679  0.00  0.00     0.003 A 
ATOM      5  C4  UNL d   1       3.315   2.004   0.748  0.00  0.00    -0.005 A 
ATOM      6  C5  UNL d   1       1.983   1.626   0.593  0.00  0.00     0.003 A 
ATOM      7  C6  UNL d   1       1.658   0.288   0.367  0.00  0.00    -0.001 A 
ENDROOT
TORSDOF 0
ENDMDL
