MODEL 1
REMARK minimizedAffinity 2.19167638
REMARK minimizedRMSD -1
REMARK  0 active torsions:
REMARK  status: ('A' for Active; 'I' for Inactive)
ROOT
ATOM      1  C   UNL d   1       3.152  -1.689  -0.096  0.00  0.00     0.078 C 
ATOM      2  C1  UNL d   1       2.962  -0.216   0.115  0.00  0.00    -0.077 A 
ATOM      3  C2  UNL d   1       1.825   0.279   0.764  0.00  0.00    -0.001 A 
ATOM      4  C3  UNL d   1       1.657   1.652   0.945  0.00  0.00     0.003 A 
ATOM      5  C4  UNL d   1       2.621   2.543   0.478  0.00  0.00    -0.005 A 
ATOM      6  C5  UNL d   1       3.756   2.060  -0.171  0.00  0.00     0.003 A 
ATOM      7  C6  UNL d   1       3.925   0.687  -0.353  0.00  0.00    -0.001 A 
ENDROOT
TORSDOF 0
ENDMDL
