MODEL 1
REMARK minimizedAffinity 5.34635115
REMARK minimizedRMSD -1
REMARK  0 active torsions:
REMARK  status: ('A' for Active; 'I' for Inactive)
ROOT
ATOM      1  C   UNL d   1       2.298  -2.097  -0.787  0.00  0.00     0.078 C 
ATOM      2  C1  UNL d   1       2.792  -0.932   0.018  0.00  0.00    -0.077 A 
ATOM      3  C2  UNL d   1       3.613  -1.125   1.136  0.00  0.00    -0.001 A 
ATOM      4  C3  UNL d   1       4.057  -0.032   1.882  0.00  0.00     0.003 A 
ATOM      5  C4  UNL d   1       3.685   1.261   1.519  0.00  0.00    -0.005 A 
ATOM      6  C5  UNL d   1       2.866   1.462   0.410  0.00  0.00     0.003 A 
ATOM      7  C6  UNL d   1       2.421   0.371  -0.337  0.00  0.00    -0.001 A 
ENDROOT
TORSDOF 0
ENDMDL
