MODEL 1
REMARK minimizedAffinity 1.54903781
REMARK minimizedRMSD -1
REMARK  0 active torsions:
REMARK  status: ('A' for Active; 'I' for Inactive)
ROOT
ATOM      1  C   UNL d   1       0.001   1.359  -0.392  0.00  0.00     0.078 C 
ATOM      2  C1  UNL d   1       1.389   0.841  -0.161  0.00  0.00    -0.077 A 
ATOM      3  C2  UNL d   1       1.687  -0.518  -0.317  0.00  0.00    -0.001 A 
ATOM      4  C3  UNL d   1       2.982  -0.987  -0.090  0.00  0.00     0.003 A 
ATOM      5  C4  UNL d   1       3.989  -0.104   0.295  0.00  0.00    -0.005 A 
ATOM      6  C5  UNL d   1       3.701   1.250   0.455  0.00  0.00     0.003 A 
ATOM      7  C6  UNL d   1       2.407   1.721   0.228  0.00  0.00    -0.001 A 
ENDROOT
TORSDOF 0
ENDMDL
