MODEL 1
REMARK minimizedAffinity -2.24633741
REMARK minimizedRMSD -1
REMARK  0 active torsions:
REMARK  status: ('A' for Active; 'I' for Inactive)
ROOT
ATOM      1  C   UNL d   1       3.209   0.452   0.376  0.00  0.00     0.078 C 
ATOM      2  C1  UNL d   1       1.836   0.867   0.814  0.00  0.00    -0.077 A 
ATOM      3  C2  UNL d   1       1.310   0.440   2.039  0.00  0.00    -0.001 A 
ATOM      4  C3  UNL d   1       0.027   0.827   2.430  0.00  0.00     0.003 A 
ATOM      5  C4  UNL d   1      -0.741   1.641   1.601  0.00  0.00    -0.005 A 
ATOM      6  C5  UNL d   1      -0.227   2.069   0.378  0.00  0.00     0.003 A 
ATOM      7  C6  UNL d   1       1.056   1.684  -0.014  0.00  0.00    -0.001 A 
ENDROOT
TORSDOF 0
ENDMDL
