MODEL 1
REMARK minimizedAffinity -2.98525357
REMARK minimizedRMSD -1
REMARK  3 active torsions:
REMARK  status: ('A' for Active; 'I' for Inactive)
REMARK    1  A    between atoms: C3'_2  and  C2'_3 
REMARK    2  A    between atoms: C2'_3  and  C1'_4 
REMARK    3  A    between atoms: C1'_4  and  C1_5 
ROOT
ATOM      1  C1  N4B d   1       0.108  -0.180  -0.565  0.00  0.00    -0.075 A 
ATOM      2  C2  N4B d   1      -1.196  -0.615  -0.238  0.00  0.00     0.002 A 
ATOM      3  C3  N4B d   1      -1.580  -0.704   1.077  0.00  0.00     0.002 A 
ATOM      4  C4  N4B d   1      -0.676  -0.382   2.079  0.00  0.00    -0.004 A 
ATOM      5  C5  N4B d   1       0.572   0.062   1.754  0.00  0.00     0.002 A 
ATOM      6  C6  N4B d   1       0.971   0.159   0.436  0.00  0.00     0.002 A 
ENDROOT
BRANCH   1   7
ATOM      7  C1' N4B d   1       0.601  -0.149  -1.986  0.00  0.00     0.057 C 
BRANCH   7   8
ATOM      8  C2' N4B d   1       0.229  -1.459  -2.674  0.00  0.00     0.009 C 
BRANCH   8   9
ATOM      9  C3' N4B d   1       1.251  -1.861  -3.724  0.00  0.00     0.004 C 
ATOM     10  C4' N4B d   1       2.656  -1.515  -3.328  0.00  0.00     0.003 C 
ENDBRANCH   8   9
ENDBRANCH   7   8
ENDBRANCH   1   7
TORSDOF 3
ENDMDL
