MODEL 1
REMARK minimizedAffinity -4.25463343
REMARK minimizedRMSD -1
REMARK  3 active torsions:
REMARK  status: ('A' for Active; 'I' for Inactive)
REMARK    1  A    between atoms: C3'_2  and  C2'_3 
REMARK    2  A    between atoms: C2'_3  and  C1'_4 
REMARK    3  A    between atoms: C1'_4  and  C1_5 
ROOT
ATOM      1  C1  N4B d   1      -0.141  -0.145   0.321  0.00  0.00    -0.075 A 
ATOM      2  C2  N4B d   1       0.923   0.324   1.122  0.00  0.00     0.002 A 
ATOM      3  C3  N4B d   1       0.900   0.124   2.480  0.00  0.00     0.002 A 
ATOM      4  C4  N4B d   1      -0.181  -0.523   3.060  0.00  0.00    -0.004 A 
ATOM      5  C5  N4B d   1      -1.193  -0.996   2.276  0.00  0.00     0.002 A 
ATOM      6  C6  N4B d   1      -1.181  -0.806   0.909  0.00  0.00     0.002 A 
ENDROOT
BRANCH   1   7
ATOM      7  C1' N4B d   1      -0.201   0.125  -1.158  0.00  0.00     0.057 C 
BRANCH   7   8
ATOM      8  C2' N4B d   1       0.970  -0.573  -1.843  0.00  0.00     0.009 C 
BRANCH   8   9
ATOM      9  C3' N4B d   1       0.535  -1.836  -2.566  0.00  0.00     0.004 C 
ATOM     10  C4' N4B d   1       1.558  -2.324  -3.548  0.00  0.00     0.003 C 
ENDBRANCH   8   9
ENDBRANCH   7   8
ENDBRANCH   1   7
TORSDOF 3
ENDMDL
