MODEL 1
REMARK minimizedAffinity -5.32372904
REMARK minimizedRMSD -1
REMARK  3 active torsions:
REMARK  status: ('A' for Active; 'I' for Inactive)
REMARK    1  A    between atoms: C3'_2  and  C2'_3 
REMARK    2  A    between atoms: C2'_3  and  C1'_4 
REMARK    3  A    between atoms: C1'_4  and  C1_5 
ROOT
ATOM      1  C1  N4B d   1      -0.100  -0.001   0.252  0.00  0.00    -0.075 A 
ATOM      2  C2  N4B d   1       0.741   0.127   1.379  0.00  0.00     0.002 A 
ATOM      3  C3  N4B d   1       0.265  -0.180   2.630  0.00  0.00     0.002 A 
ATOM      4  C4  N4B d   1      -1.050  -0.596   2.780  0.00  0.00    -0.004 A 
ATOM      5  C5  N4B d   1      -1.848  -0.741   1.683  0.00  0.00     0.002 A 
ATOM      6  C6  N4B d   1      -1.381  -0.440   0.419  0.00  0.00     0.002 A 
ENDROOT
BRANCH   1   7
ATOM      7  C1' N4B d   1       0.350   0.405  -1.125  0.00  0.00     0.057 C 
BRANCH   7   8
ATOM      8  C2' N4B d   1       0.279  -0.805  -2.052  0.00  0.00     0.009 C 
BRANCH   8   9
ATOM      9  C3' N4B d   1       1.421  -0.822  -3.054  0.00  0.00     0.004 C 
ATOM     10  C4' N4B d   1       1.322  -1.958  -4.028  0.00  0.00     0.003 C 
ENDBRANCH   8   9
ENDBRANCH   7   8
ENDBRANCH   1   7
TORSDOF 3
ENDMDL
