MODEL 1
REMARK minimizedAffinity -4.23166037
REMARK minimizedRMSD -1
REMARK  3 active torsions:
REMARK  status: ('A' for Active; 'I' for Inactive)
REMARK    1  A    between atoms: C3'_2  and  C2'_3 
REMARK    2  A    between atoms: C2'_3  and  C1'_4 
REMARK    3  A    between atoms: C1'_4  and  C1_5 
ROOT
ATOM      1  C1  N4B d   1      -0.286   0.060   0.446  0.00  0.00    -0.075 A 
ATOM      2  C2  N4B d   1       0.915   0.112   1.188  0.00  0.00     0.002 A 
ATOM      3  C3  N4B d   1       0.881  -0.001   2.557  0.00  0.00     0.002 A 
ATOM      4  C4  N4B d   1      -0.338  -0.146   3.203  0.00  0.00    -0.004 A 
ATOM      5  C5  N4B d   1      -1.490  -0.221   2.476  0.00  0.00     0.002 A 
ATOM      6  C6  N4B d   1      -1.471  -0.113   1.100  0.00  0.00     0.002 A 
ENDROOT
BRANCH   1   7
ATOM      7  C1' N4B d   1      -0.307   0.265  -1.044  0.00  0.00     0.057 C 
BRANCH   7   8
ATOM      8  C2' N4B d   1       1.126   0.406  -1.551  0.00  0.00     0.009 C 
BRANCH   8   9
ATOM      9  C3' N4B d   1       1.262  -0.033  -2.999  0.00  0.00     0.004 C 
ATOM     10  C4' N4B d   1       0.678  -1.391  -3.252  0.00  0.00     0.003 C 
ENDBRANCH   8   9
ENDBRANCH   7   8
ENDBRANCH   1   7
TORSDOF 3
ENDMDL
