MODEL 1
REMARK minimizedAffinity -3.70333886
REMARK minimizedRMSD -1
REMARK  3 active torsions:
REMARK  status: ('A' for Active; 'I' for Inactive)
REMARK    1  A    between atoms: C3'_2  and  C2'_3 
REMARK    2  A    between atoms: C2'_3  and  C1'_4 
REMARK    3  A    between atoms: C1'_4  and  C1_5 
ROOT
ATOM      1  C1  N4B d   1      -0.336   0.085   0.323  0.00  0.00    -0.075 A 
ATOM      2  C2  N4B d   1       0.954   0.158   0.894  0.00  0.00     0.002 A 
ATOM      3  C3  N4B d   1       1.114   0.009   2.250  0.00  0.00     0.002 A 
ATOM      4  C4  N4B d   1       0.003  -0.195   3.054  0.00  0.00    -0.004 A 
ATOM      5  C5  N4B d   1      -1.237  -0.290   2.492  0.00  0.00     0.002 A 
ATOM      6  C6  N4B d   1      -1.412  -0.146   1.130  0.00  0.00     0.002 A 
ENDROOT
BRANCH   1   7
ATOM      7  C1' N4B d   1      -0.571   0.327  -1.143  0.00  0.00     0.057 C 
BRANCH   7   8
ATOM      8  C2' N4B d   1       0.754   0.206  -1.889  0.00  0.00     0.009 C 
BRANCH   8   9
ATOM      9  C3' N4B d   1       0.716  -0.890  -2.940  0.00  0.00     0.004 C 
ATOM     10  C4' N4B d   1       2.073  -1.452  -3.243  0.00  0.00     0.003 C 
ENDBRANCH   8   9
ENDBRANCH   7   8
ENDBRANCH   1   7
TORSDOF 3
ENDMDL
