MODEL 1
REMARK minimizedAffinity -5.55119133
REMARK minimizedRMSD -1
REMARK  3 active torsions:
REMARK  status: ('A' for Active; 'I' for Inactive)
REMARK    1  A    between atoms: C3'_2  and  C2'_3 
REMARK    2  A    between atoms: C2'_3  and  C1'_4 
REMARK    3  A    between atoms: C1'_4  and  C1_5 
ROOT
ATOM      1  C1  N4B d   1      -0.461   0.392   0.224  0.00  0.00    -0.075 A 
ATOM      2  C2  N4B d   1      -1.510  -0.248   0.921  0.00  0.00     0.002 A 
ATOM      3  C3  N4B d   1      -1.277  -0.795   2.159  0.00  0.00     0.002 A 
ATOM      4  C4  N4B d   1      -0.006  -0.732   2.710  0.00  0.00    -0.004 A 
ATOM      5  C5  N4B d   1       0.995  -0.090   2.041  0.00  0.00     0.002 A 
ATOM      6  C6  N4B d   1       0.775   0.468   0.798  0.00  0.00     0.002 A 
ENDROOT
BRANCH   1   7
ATOM      7  C1' N4B d   1      -0.646   0.929  -1.169  0.00  0.00     0.057 C 
BRANCH   7   8
ATOM      8  C2' N4B d   1       0.392   0.297  -2.091  0.00  0.00     0.009 C 
BRANCH   8   9
ATOM      9  C3' N4B d   1      -0.200  -0.822  -2.931  0.00  0.00     0.004 C 
ATOM     10  C4' N4B d   1       0.785  -1.405  -3.899  0.00  0.00     0.003 C 
ENDBRANCH   8   9
ENDBRANCH   7   8
ENDBRANCH   1   7
TORSDOF 3
ENDMDL
