MODEL 1
REMARK minimizedAffinity -4.0879035
REMARK minimizedRMSD -1
REMARK  3 active torsions:
REMARK  status: ('A' for Active; 'I' for Inactive)
REMARK    1  A    between atoms: C3'_2  and  C2'_3 
REMARK    2  A    between atoms: C2'_3  and  C1'_4 
REMARK    3  A    between atoms: C1'_4  and  C1_5 
ROOT
ATOM      1  C1  N4B d   1      -0.999  -0.278   1.070  0.00  0.00    -0.075 A 
ATOM      2  C2  N4B d   1      -2.014   0.509   0.483  0.00  0.00     0.002 A 
ATOM      3  C3  N4B d   1      -1.853   1.000  -0.789  0.00  0.00     0.002 A 
ATOM      4  C4  N4B d   1      -0.682   0.735  -1.483  0.00  0.00    -0.004 A 
ATOM      5  C5  N4B d   1       0.283  -0.046  -0.919  0.00  0.00     0.002 A 
ATOM      6  C6  N4B d   1       0.133  -0.550   0.357  0.00  0.00     0.002 A 
ENDROOT
BRANCH   1   7
ATOM      7  C1' N4B d   1      -1.093  -0.765   2.490  0.00  0.00     0.057 C 
BRANCH   7   8
ATOM      8  C2' N4B d   1      -1.053   0.432   3.435  0.00  0.00     0.009 C 
BRANCH   8   9
ATOM      9  C3' N4B d   1       0.154   1.318   3.179  0.00  0.00     0.004 C 
ATOM     10  C4' N4B d   1       0.258   2.453   4.153  0.00  0.00     0.003 C 
ENDBRANCH   8   9
ENDBRANCH   7   8
ENDBRANCH   1   7
TORSDOF 3
ENDMDL
