MODEL 1
REMARK minimizedAffinity -4.15823841
REMARK minimizedRMSD -1
REMARK  3 active torsions:
REMARK  status: ('A' for Active; 'I' for Inactive)
REMARK    1  A    between atoms: C3'_2  and  C2'_3 
REMARK    2  A    between atoms: C2'_3  and  C1'_4 
REMARK    3  A    between atoms: C1'_4  and  C1_5 
ROOT
ATOM      1  C1  N4B d   1       0.278  -0.089  -2.245  0.00  0.00    -0.075 A 
ATOM      2  C2  N4B d   1       1.600   0.125  -2.693  0.00  0.00     0.002 A 
ATOM      3  C3  N4B d   1       2.146  -0.704  -3.642  0.00  0.00     0.002 A 
ATOM      4  C4  N4B d   1       1.398  -1.760  -4.142  0.00  0.00    -0.004 A 
ATOM      5  C5  N4B d   1       0.113  -1.944  -3.723  0.00  0.00     0.002 A 
ATOM      6  C6  N4B d   1      -0.450  -1.116  -2.773  0.00  0.00     0.002 A 
ENDROOT
BRANCH   1   7
ATOM      7  C1' N4B d   1      -0.332   0.739  -1.147  0.00  0.00     0.057 C 
BRANCH   7   8
ATOM      8  C2' N4B d   1      -0.509  -0.130   0.095  0.00  0.00     0.009 C 
BRANCH   8   9
ATOM      9  C3' N4B d   1       0.638   0.042   1.076  0.00  0.00     0.004 C 
ATOM     10  C4' N4B d   1       0.207  -0.106   2.505  0.00  0.00     0.003 C 
ENDBRANCH   8   9
ENDBRANCH   7   8
ENDBRANCH   1   7
TORSDOF 3
ENDMDL
