MODEL 1
REMARK minimizedAffinity -3.21357965
REMARK minimizedRMSD -1
REMARK  3 active torsions:
REMARK  status: ('A' for Active; 'I' for Inactive)
REMARK    1  A    between atoms: C3'_2  and  C2'_3 
REMARK    2  A    between atoms: C2'_3  and  C1'_4 
REMARK    3  A    between atoms: C1'_4  and  C1_5 
ROOT
ATOM      1  C1  N4B d   1       0.265   0.247  -0.731  0.00  0.00    -0.075 A 
ATOM      2  C2  N4B d   1      -1.071  -0.010  -0.353  0.00  0.00     0.002 A 
ATOM      3  C3  N4B d   1      -1.394  -0.149   0.974  0.00  0.00     0.002 A 
ATOM      4  C4  N4B d   1      -0.400  -0.056   1.936  0.00  0.00    -0.004 A 
ATOM      5  C5  N4B d   1       0.884   0.218   1.565  0.00  0.00     0.002 A 
ATOM      6  C6  N4B d   1       1.223   0.365   0.235  0.00  0.00     0.002 A 
ENDROOT
BRANCH   1   7
ATOM      7  C1' N4B d   1       0.682   0.323  -2.174  0.00  0.00     0.057 C 
BRANCH   7   8
ATOM      8  C2' N4B d   1       1.596  -0.857  -2.493  0.00  0.00     0.009 C 
BRANCH   8   9
ATOM      9  C3' N4B d   1       1.464  -1.304  -3.939  0.00  0.00     0.004 C 
ATOM     10  C4' N4B d   1       0.380  -2.321  -4.135  0.00  0.00     0.003 C 
ENDBRANCH   8   9
ENDBRANCH   7   8
ENDBRANCH   1   7
TORSDOF 3
ENDMDL
