MODEL 1
REMARK minimizedAffinity -5.32450771
REMARK minimizedRMSD -1
REMARK  1 active torsions:
REMARK  status: ('A' for Active; 'I' for Inactive)
REMARK    1  A    between atoms: C1_2  and  C2_3 
ROOT
ATOM      1  C2  UNL d   1       0.163  -0.106  -0.429  0.00  0.00    -0.081 A 
ATOM      2  C3  UNL d   1      -1.095   0.400  -0.079  0.00  0.00     0.006 A 
ATOM      3  C4  UNL d   1      -1.304   0.975   1.176  0.00  0.00     0.002 A 
ATOM      4  C5  UNL d   1      -0.257   1.061   2.100  0.00  0.00    -0.080 A 
ATOM      5  C6  UNL d   1      -0.459   1.704   3.440  0.00  0.00     0.076 C 
ATOM      6  C7  UNL d   1       0.996   0.541   1.758  0.00  0.00     0.002 A 
ATOM      7  C8  UNL d   1       1.205  -0.035   0.503  0.00  0.00     0.006 A 
ENDROOT
BRANCH   1   8
ATOM      8  C1  UNL d   1       0.407  -0.668  -1.806  0.00  0.00     0.054 C 
ATOM      9  C   UNL d   1       1.552   0.053  -2.503  0.00  0.00     0.018 C 
ENDBRANCH   1   8
TORSDOF 1
ENDMDL
