MODEL 1
REMARK minimizedAffinity -3.33179212
REMARK minimizedRMSD -1
REMARK  1 active torsions:
REMARK  status: ('A' for Active; 'I' for Inactive)
REMARK    1  A    between atoms: C1_2  and  C2_3 
ROOT
ATOM      1  C2  UNL d   1       0.704   0.278  -1.451  0.00  0.00    -0.081 A 
ATOM      2  C3  UNL d   1      -0.053  -0.855  -1.127  0.00  0.00     0.006 A 
ATOM      3  C4  UNL d   1      -0.786  -0.902   0.061  0.00  0.00     0.002 A 
ATOM      4  C5  UNL d   1      -0.780   0.185   0.942  0.00  0.00    -0.080 A 
ATOM      5  C6  UNL d   1      -1.586   0.160   2.206  0.00  0.00     0.076 C 
ATOM      6  C7  UNL d   1      -0.010   1.310   0.627  0.00  0.00     0.002 A 
ATOM      7  C8  UNL d   1       0.723   1.357  -0.561  0.00  0.00     0.006 A 
ENDROOT
BRANCH   1   8
ATOM      8  C1  UNL d   1       1.443   0.357  -2.762  0.00  0.00     0.054 C 
ATOM      9  C   UNL d   1       0.718   1.257  -3.752  0.00  0.00     0.018 C 
ENDBRANCH   1   8
TORSDOF 1
ENDMDL
