MODEL 1
REMARK minimizedAffinity -4.89034605
REMARK minimizedRMSD -1
REMARK  1 active torsions:
REMARK  status: ('A' for Active; 'I' for Inactive)
REMARK    1  A    between atoms: C1_2  and  C2_3 
ROOT
ATOM      1  C2  UNL d   1       0.789   0.559   1.402  0.00  0.00    -0.081 A 
ATOM      2  C3  UNL d   1      -0.330   1.068   2.072  0.00  0.00     0.006 A 
ATOM      3  C4  UNL d   1      -1.613   0.883   1.551  0.00  0.00     0.002 A 
ATOM      4  C5  UNL d   1      -1.798   0.179   0.356  0.00  0.00    -0.080 A 
ATOM      5  C6  UNL d   1      -3.172  -0.054  -0.198  0.00  0.00     0.076 C 
ATOM      6  C7  UNL d   1      -0.679  -0.315  -0.322  0.00  0.00     0.002 A 
ATOM      7  C8  UNL d   1       0.604  -0.129   0.198  0.00  0.00     0.006 A 
ENDROOT
BRANCH   1   8
ATOM      8  C1  UNL d   1       2.168   0.702   1.994  0.00  0.00     0.054 C 
ATOM      9  C   UNL d   1       2.933  -0.613   1.939  0.00  0.00     0.018 C 
ENDBRANCH   1   8
TORSDOF 1
ENDMDL
