MODEL 1
REMARK minimizedAffinity -2.98992872
REMARK minimizedRMSD -1
REMARK  1 active torsions:
REMARK  status: ('A' for Active; 'I' for Inactive)
REMARK    1  A    between atoms: C1_2  and  C2_3 
ROOT
ATOM      1  C2  UNL d   1       0.079  -0.148  -0.432  0.00  0.00    -0.081 A 
ATOM      2  C3  UNL d   1      -1.219  -0.136   0.094  0.00  0.00     0.006 A 
ATOM      3  C4  UNL d   1      -1.513   0.611   1.237  0.00  0.00     0.002 A 
ATOM      4  C5  UNL d   1      -0.517   1.363   1.869  0.00  0.00    -0.080 A 
ATOM      5  C6  UNL d   1      -0.826   2.193   3.080  0.00  0.00     0.076 C 
ATOM      6  C7  UNL d   1       0.784   1.337   1.354  0.00  0.00     0.002 A 
ATOM      7  C8  UNL d   1       1.078   0.590   0.211  0.00  0.00     0.006 A 
ENDROOT
BRANCH   1   8
ATOM      8  C1  UNL d   1       0.384  -0.900  -1.702  0.00  0.00     0.054 C 
ATOM      9  C   UNL d   1       1.047   0.001  -2.733  0.00  0.00     0.018 C 
ENDBRANCH   1   8
TORSDOF 1
ENDMDL
