MODEL 1
REMARK minimizedAffinity -4.49457788
REMARK minimizedRMSD -1
REMARK  1 active torsions:
REMARK  status: ('A' for Active; 'I' for Inactive)
REMARK    1  A    between atoms: C1_2  and  C2_3 
ROOT
ATOM      1  C2  UNL d   1       0.264  -0.508  -1.322  0.00  0.00    -0.081 A 
ATOM      2  C3  UNL d   1       1.053  -0.223  -0.200  0.00  0.00     0.006 A 
ATOM      3  C4  UNL d   1       0.458   0.094   1.023  0.00  0.00     0.002 A 
ATOM      4  C5  UNL d   1      -0.936   0.125   1.147  0.00  0.00    -0.080 A 
ATOM      5  C6  UNL d   1      -1.588   0.435   2.462  0.00  0.00     0.076 C 
ATOM      6  C7  UNL d   1      -1.724  -0.142   0.022  0.00  0.00     0.002 A 
ATOM      7  C8  UNL d   1      -1.129  -0.459  -1.201  0.00  0.00     0.006 A 
ENDROOT
BRANCH   1   8
ATOM      8  C1  UNL d   1       0.903  -0.914  -2.625  0.00  0.00     0.054 C 
ATOM      9  C   UNL d   1       1.117   0.288  -3.534  0.00  0.00     0.018 C 
ENDBRANCH   1   8
TORSDOF 1
ENDMDL
