MODEL 1
REMARK minimizedAffinity -3.20120621
REMARK minimizedRMSD -1
REMARK  1 active torsions:
REMARK  status: ('A' for Active; 'I' for Inactive)
REMARK    1  A    between atoms: C1_2  and  C2_3 
ROOT
ATOM      1  C2  UNL d   1      -1.895  -0.307   0.250  0.00  0.00    -0.081 A 
ATOM      2  C3  UNL d   1      -2.009   0.121   1.578  0.00  0.00     0.006 A 
ATOM      3  C4  UNL d   1      -0.884   0.568   2.277  0.00  0.00     0.002 A 
ATOM      4  C5  UNL d   1       0.369   0.603   1.656  0.00  0.00    -0.080 A 
ATOM      5  C6  UNL d   1       1.578   1.109   2.385  0.00  0.00     0.076 C 
ATOM      6  C7  UNL d   1       0.485   0.159   0.335  0.00  0.00     0.002 A 
ATOM      7  C8  UNL d   1      -0.638  -0.289  -0.364  0.00  0.00     0.006 A 
ENDROOT
BRANCH   1   8
ATOM      8  C1  UNL d   1      -3.117  -0.729  -0.526  0.00  0.00     0.054 C 
ATOM      9  C   UNL d   1      -4.214   0.323  -0.446  0.00  0.00     0.018 C 
ENDBRANCH   1   8
TORSDOF 1
ENDMDL
