MODEL 1
REMARK minimizedAffinity -2.7425139
REMARK minimizedRMSD -1
REMARK  1 active torsions:
REMARK  status: ('A' for Active; 'I' for Inactive)
REMARK    1  A    between atoms: C1_2  and  C2_3 
ROOT
ATOM      1  C2  UNL d   1      -0.186  -0.290  -0.766  0.00  0.00    -0.081 A 
ATOM      2  C3  UNL d   1      -1.435   0.039  -0.225  0.00  0.00     0.006 A 
ATOM      3  C4  UNL d   1      -1.525   0.660   1.023  0.00  0.00     0.002 A 
ATOM      4  C5  UNL d   1      -0.369   0.969   1.747  0.00  0.00    -0.080 A 
ATOM      5  C6  UNL d   1      -0.450   1.663   3.074  0.00  0.00     0.076 C 
ATOM      6  C7  UNL d   1       0.878   0.624   1.215  0.00  0.00     0.002 A 
ATOM      7  C8  UNL d   1       0.969   0.003  -0.033  0.00  0.00     0.006 A 
ENDROOT
BRANCH   1   8
ATOM      8  C1  UNL d   1      -0.083  -0.901  -2.140  0.00  0.00     0.054 C 
ATOM      9  C   UNL d   1       0.640   0.028  -3.105  0.00  0.00     0.018 C 
ENDBRANCH   1   8
TORSDOF 1
ENDMDL
