MODEL 1
REMARK minimizedAffinity 13.595459
REMARK minimizedRMSD -1
REMARK  0 active torsions:
REMARK  status: ('A' for Active; 'I' for Inactive)
ROOT
ATOM      1  C4' PXY d   1       6.000   3.230  -2.639  0.00  0.00     0.077 C 
ATOM      2  C1' PXY d   1       2.933  -0.557   0.471  0.00  0.00     0.077 C 
ATOM      3  C1  PXY d   1       3.740   0.443  -0.334  0.00  0.00    -0.082 A 
ATOM      4  C2  PXY d   1       3.486   0.603  -1.622  0.00  0.00     0.003 A 
ATOM      5  C3  PXY d   1       4.227   1.480  -2.372  0.00  0.00     0.003 A 
ATOM      6  C4  PXY d   1       5.204   2.239  -1.785  0.00  0.00    -0.082 A 
ATOM      7  C5  PXY d   1       5.463   2.089  -0.469  0.00  0.00     0.003 A 
ATOM      8  C6  PXY d   1       4.726   1.164   0.266  0.00  0.00     0.003 A 
ENDROOT
TORSDOF 0
ENDMDL
