MODEL 1
REMARK minimizedAffinity 6.98123741
REMARK minimizedRMSD -1
REMARK  0 active torsions:
REMARK  status: ('A' for Active; 'I' for Inactive)
ROOT
ATOM      1  C4' PXY d   1      -2.505  -0.395  -3.000  0.00  0.00     0.077 C 
ATOM      2  C1' PXY d   1       1.965   1.280   0.261  0.00  0.00     0.077 C 
ATOM      3  C1  PXY d   1       0.785   0.850  -0.589  0.00  0.00    -0.082 A 
ATOM      4  C2  PXY d   1       0.740  -0.382  -1.070  0.00  0.00     0.003 A 
ATOM      5  C3  PXY d   1      -0.303  -0.778  -1.867  0.00  0.00     0.003 A 
ATOM      6  C4  PXY d   1      -1.338   0.080  -2.129  0.00  0.00    -0.082 A 
ATOM      7  C5  PXY d   1      -1.304   1.335  -1.633  0.00  0.00     0.003 A 
ATOM      8  C6  PXY d   1      -0.216   1.730  -0.861  0.00  0.00     0.003 A 
ENDROOT
TORSDOF 0
ENDMDL
