MODEL 1
REMARK minimizedAffinity 0.0291287061
REMARK minimizedRMSD -1
REMARK  0 active torsions:
REMARK  status: ('A' for Active; 'I' for Inactive)
ROOT
ATOM      1  C4' PXY d   1      -0.349  -1.031  -1.777  0.00  0.00     0.077 C 
ATOM      2  C1' PXY d   1       0.635   3.863   1.138  0.00  0.00     0.077 C 
ATOM      3  C1  PXY d   1       0.389   2.576   0.375  0.00  0.00    -0.082 A 
ATOM      4  C2  PXY d   1      -0.598   2.515  -0.504  0.00  0.00     0.003 A 
ATOM      5  C3  PXY d   1      -0.854   1.349  -1.179  0.00  0.00     0.003 A 
ATOM      6  C4  PXY d   1      -0.059   0.251  -0.991  0.00  0.00    -0.082 A 
ATOM      7  C5  PXY d   1       0.957   0.309  -0.104  0.00  0.00     0.003 A 
ATOM      8  C6  PXY d   1       1.175   1.489   0.601  0.00  0.00     0.003 A 
ENDROOT
TORSDOF 0
ENDMDL
