MODEL 1
REMARK minimizedAffinity 9.34245586
REMARK minimizedRMSD -1
REMARK  0 active torsions:
REMARK  status: ('A' for Active; 'I' for Inactive)
ROOT
ATOM      1  C4' PXY d   1       0.555   5.855   2.086  0.00  0.00     0.077 C 
ATOM      2  C1' PXY d   1       1.773   0.924   4.845  0.00  0.00     0.077 C 
ATOM      3  C1  PXY d   1       1.466   2.219   4.119  0.00  0.00    -0.082 A 
ATOM      4  C2  PXY d   1       0.372   2.897   4.425  0.00  0.00     0.003 A 
ATOM      5  C3  PXY d   1       0.063   4.053   3.756  0.00  0.00     0.003 A 
ATOM      6  C4  PXY d   1       0.910   4.548   2.800  0.00  0.00    -0.082 A 
ATOM      7  C5  PXY d   1       2.033   3.868   2.490  0.00  0.00     0.003 A 
ATOM      8  C6  PXY d   1       2.308   2.674   3.152  0.00  0.00     0.003 A 
ENDROOT
TORSDOF 0
ENDMDL
