MODEL 1
REMARK minimizedAffinity 5.71931934
REMARK minimizedRMSD -1
REMARK  0 active torsions:
REMARK  status: ('A' for Active; 'I' for Inactive)
ROOT
ATOM      1  C4' PXY d   1       4.780   5.115   3.254  0.00  0.00     0.077 C 
ATOM      2  C1' PXY d   1       0.184   2.118   5.071  0.00  0.00     0.077 C 
ATOM      3  C1  PXY d   1       1.390   2.896   4.584  0.00  0.00    -0.082 A 
ATOM      4  C2  PXY d   1       2.137   3.557   5.453  0.00  0.00     0.003 A 
ATOM      5  C3  PXY d   1       3.212   4.292   5.026  0.00  0.00     0.003 A 
ATOM      6  C4  PXY d   1       3.559   4.308   3.702  0.00  0.00    -0.082 A 
ATOM      7  C5  PXY d   1       2.808   3.628   2.809  0.00  0.00     0.003 A 
ATOM      8  C6  PXY d   1       1.696   2.921   3.258  0.00  0.00     0.003 A 
ENDROOT
TORSDOF 0
ENDMDL
