MODEL 1
REMARK minimizedAffinity 7.11971998
REMARK minimizedRMSD -1
REMARK  0 active torsions:
REMARK  status: ('A' for Active; 'I' for Inactive)
ROOT
ATOM      1  C4' PXY d   1       6.000   3.301  -2.860  0.00  0.00     0.077 C 
ATOM      2  C1' PXY d   1       2.924  -0.758  -0.124  0.00  0.00     0.077 C 
ATOM      3  C1  PXY d   1       3.734   0.312  -0.830  0.00  0.00    -0.082 A 
ATOM      4  C2  PXY d   1       3.446   0.631  -2.081  0.00  0.00     0.003 A 
ATOM      5  C3  PXY d   1       4.188   1.574  -2.745  0.00  0.00     0.003 A 
ATOM      6  C4  PXY d   1       5.203   2.234  -2.105  0.00  0.00    -0.082 A 
ATOM      7  C5  PXY d   1       5.496   1.921  -0.825  0.00  0.00     0.003 A 
ATOM      8  C6  PXY d   1       4.757   0.932  -0.182  0.00  0.00     0.003 A 
ENDROOT
TORSDOF 0
ENDMDL
