MODEL 1
REMARK minimizedAffinity 9.635952
REMARK minimizedRMSD -1
REMARK  0 active torsions:
REMARK  status: ('A' for Active; 'I' for Inactive)
ROOT
ATOM      1  C4' PXY d   1       0.113   1.966   4.854  0.00  0.00     0.077 C 
ATOM      2  C1' PXY d   1       5.233   4.643   4.674  0.00  0.00     0.077 C 
ATOM      3  C1  PXY d   1       3.893   3.937   4.734  0.00  0.00    -0.082 A 
ATOM      4  C2  PXY d   1       3.286   3.591   3.610  0.00  0.00     0.003 A 
ATOM      5  C3  PXY d   1       2.059   2.980   3.645  0.00  0.00     0.003 A 
ATOM      6  C4  PXY d   1       1.472   2.672   4.843  0.00  0.00    -0.082 A 
ATOM      7  C5  PXY d   1       2.090   3.013   5.993  0.00  0.00     0.003 A 
ATOM      8  C6  PXY d   1       3.316   3.669   5.936  0.00  0.00     0.003 A 
ENDROOT
TORSDOF 0
ENDMDL
