MODEL 1
REMARK minimizedAffinity 4.32319975
REMARK minimizedRMSD -1
REMARK  0 active torsions:
REMARK  status: ('A' for Active; 'I' for Inactive)
ROOT
ATOM      1  C4' PXY d   1      -1.077   4.114   1.144  0.00  0.00     0.077 C 
ATOM      2  C1' PXY d   1      -1.923  -0.645  -2.026  0.00  0.00     0.077 C 
ATOM      3  C1  PXY d   1      -1.714   0.606  -1.196  0.00  0.00    -0.082 A 
ATOM      4  C2  PXY d   1      -0.500   1.122  -1.086  0.00  0.00     0.003 A 
ATOM      5  C3  PXY d   1      -0.288   2.235  -0.313  0.00  0.00     0.003 A 
ATOM      6  C4  PXY d   1      -1.336   2.857   0.309  0.00  0.00    -0.082 A 
ATOM      7  C5  PXY d   1      -2.579   2.343   0.192  0.00  0.00     0.003 A 
ATOM      8  C6  PXY d   1      -2.767   1.189  -0.563  0.00  0.00     0.003 A 
ENDROOT
TORSDOF 0
ENDMDL
