MODEL 1
REMARK minimizedAffinity 3.05120182
REMARK minimizedRMSD -1
REMARK  0 active torsions:
REMARK  status: ('A' for Active; 'I' for Inactive)
ROOT
ATOM      1  C4' PXY d   1      -1.836  -0.359  -2.018  0.00  0.00     0.077 C 
ATOM      2  C1' PXY d   1      -0.522   4.354   1.061  0.00  0.00     0.077 C 
ATOM      3  C1  PXY d   1      -0.855   3.119   0.247  0.00  0.00    -0.082 A 
ATOM      4  C2  PXY d   1      -2.119   2.761   0.089  0.00  0.00     0.003 A 
ATOM      5  C3  PXY d   1      -2.436   1.630  -0.617  0.00  0.00     0.003 A 
ATOM      6  C4  PXY d   1      -1.453   0.886  -1.212  0.00  0.00    -0.082 A 
ATOM      7  C5  PXY d   1      -0.162   1.251  -1.065  0.00  0.00     0.003 A 
ATOM      8  C6  PXY d   1       0.142   2.380  -0.310  0.00  0.00     0.003 A 
ENDROOT
TORSDOF 0
ENDMDL
