MODEL 1
REMARK minimizedAffinity -3.99399996
REMARK minimizedRMSD -1
REMARK  1 active torsions:
REMARK  status: ('A' for Active; 'I' for Inactive)
REMARK    1  A    between atoms: C1_2  and  C2_3 
ROOT
ATOM      1  C2  UNL d   1       0.001  -0.151  -0.873  0.00  0.00    -0.073 A 
ATOM      2  C3  UNL d   1       1.190  -0.413  -0.183  0.00  0.00    -0.002 A 
ATOM      3  C4  UNL d   1       1.241  -0.287   1.206  0.00  0.00     0.004 A 
ATOM      4  C5  UNL d   1       0.104   0.094   1.919  0.00  0.00    -0.004 A 
ATOM      5  C6  UNL d   1      -1.096   0.348   1.248  0.00  0.00    -0.075 A 
ATOM      6  C7  UNL d   1      -2.327   0.761   2.000  0.00  0.00     0.076 C 
ATOM      7  C8  UNL d   1      -1.139   0.222  -0.147  0.00  0.00     0.001 A 
ENDROOT
BRANCH   1   8
ATOM      8  C1  UNL d   1      -0.061  -0.292  -2.372  0.00  0.00     0.053 C 
ATOM      9  C   UNL d   1       1.123   0.373  -3.056  0.00  0.00     0.018 C 
ENDBRANCH   1   8
TORSDOF 1
ENDMDL
