MODEL 1
REMARK minimizedAffinity -5.42968369
REMARK minimizedRMSD -1
REMARK  1 active torsions:
REMARK  status: ('A' for Active; 'I' for Inactive)
REMARK    1  A    between atoms: C1_2  and  C2_3 
ROOT
ATOM      1  C2  UNL d   1      -0.631  -0.407  -3.336  0.00  0.00    -0.073 A 
ATOM      2  C3  UNL d   1       0.680  -0.891  -3.274  0.00  0.00    -0.002 A 
ATOM      3  C4  UNL d   1       1.275  -1.158  -2.040  0.00  0.00     0.004 A 
ATOM      4  C5  UNL d   1       0.564  -0.951  -0.858  0.00  0.00    -0.004 A 
ATOM      5  C6  UNL d   1      -0.752  -0.478  -0.900  0.00  0.00    -0.075 A 
ATOM      6  C7  UNL d   1      -1.530  -0.247   0.362  0.00  0.00     0.076 C 
ATOM      7  C8  UNL d   1      -1.341  -0.210  -2.143  0.00  0.00     0.001 A 
ENDROOT
BRANCH   1   8
ATOM      8  C1  UNL d   1      -1.280  -0.123  -4.666  0.00  0.00     0.053 C 
ATOM      9  C   UNL d   1      -2.198  -1.252  -5.105  0.00  0.00     0.018 C 
ENDBRANCH   1   8
TORSDOF 1
ENDMDL
