MODEL 1
REMARK minimizedAffinity -4.11359406
REMARK minimizedRMSD -1
REMARK  1 active torsions:
REMARK  status: ('A' for Active; 'I' for Inactive)
REMARK    1  A    between atoms: C1_2  and  C2_3 
ROOT
ATOM      1  C2  UNL d   1       0.107  -0.414  -0.054  0.00  0.00    -0.073 A 
ATOM      2  C3  UNL d   1       1.461  -0.712   0.139  0.00  0.00    -0.002 A 
ATOM      3  C4  UNL d   1       2.148  -0.188   1.235  0.00  0.00     0.004 A 
ATOM      4  C5  UNL d   1       1.489   0.631   2.151  0.00  0.00    -0.004 A 
ATOM      5  C6  UNL d   1       0.133   0.929   1.982  0.00  0.00    -0.075 A 
ATOM      6  C7  UNL d   1      -0.591   1.810   2.958  0.00  0.00     0.076 C 
ATOM      7  C8  UNL d   1      -0.550   0.402   0.877  0.00  0.00     0.001 A 
ENDROOT
BRANCH   1   8
ATOM      8  C1  UNL d   1      -0.641  -0.983  -1.233  0.00  0.00     0.053 C 
ATOM      9  C   UNL d   1      -1.394  -2.253  -0.871  0.00  0.00     0.018 C 
ENDBRANCH   1   8
TORSDOF 1
ENDMDL
