MODEL 1
REMARK minimizedAffinity -5.23775244
REMARK minimizedRMSD -1
REMARK  1 active torsions:
REMARK  status: ('A' for Active; 'I' for Inactive)
REMARK    1  A    between atoms: C1_2  and  C2_3 
ROOT
ATOM      1  C2  UNL d   1       0.239   0.183  -1.311  0.00  0.00    -0.073 A 
ATOM      2  C3  UNL d   1       1.450   0.823  -1.600  0.00  0.00    -0.002 A 
ATOM      3  C4  UNL d   1       1.793   1.121  -2.919  0.00  0.00     0.004 A 
ATOM      4  C5  UNL d   1       0.927   0.788  -3.962  0.00  0.00    -0.004 A 
ATOM      5  C6  UNL d   1      -0.292   0.159  -3.692  0.00  0.00    -0.075 A 
ATOM      6  C7  UNL d   1      -1.233  -0.207  -4.802  0.00  0.00     0.076 C 
ATOM      7  C8  UNL d   1      -0.628  -0.139  -2.365  0.00  0.00     0.001 A 
ENDROOT
BRANCH   1   8
ATOM      8  C1  UNL d   1      -0.138  -0.135   0.113  0.00  0.00     0.053 C 
ATOM      9  C   UNL d   1       0.626   0.722   1.109  0.00  0.00     0.018 C 
ENDBRANCH   1   8
TORSDOF 1
ENDMDL
