MODEL 1
REMARK minimizedAffinity -2.40028
REMARK minimizedRMSD -1
REMARK  0 active torsions:
REMARK  status: ('A' for Active; 'I' for Inactive)
ROOT
ATOM      1  C1  DEN d   1      -2.117  -1.432   0.920  0.00  0.00     0.130 A 
ATOM      2  C2  DEN d   1      -2.025  -1.686   2.355  0.00  0.00    -0.031 A 
ATOM      3  C3  DEN d   1      -0.783  -1.059   2.851  0.00  0.00     0.027 A 
ATOM      4  C4  DEN d   1       0.994   0.276   1.543  0.00  0.00     0.027 A 
ATOM      5  C5  DEN d   1       1.356   0.744   0.299  0.00  0.00    -0.003 A 
ATOM      6  C6  DEN d   1       0.609   0.493  -0.822  0.00  0.00     0.001 A 
ATOM      7  C7  DEN d   1      -0.562  -0.208  -0.713  0.00  0.00     0.017 A 
ATOM      8  C8  DEN d   1      -0.930  -0.690   0.536  0.00  0.00    -0.094 A 
ATOM      9  C9  DEN d   1      -0.168  -0.415   1.659  0.00  0.00    -0.072 A 
ENDROOT
TORSDOF 0
ENDMDL
