MODEL 1
REMARK minimizedAffinity -3.91122556
REMARK minimizedRMSD -1
REMARK  0 active torsions:
REMARK  status: ('A' for Active; 'I' for Inactive)
ROOT
ATOM      1  C1  DEN d   1      -1.744  -0.843   2.179  0.00  0.00     0.130 A 
ATOM      2  C2  DEN d   1      -1.037  -0.520   3.416  0.00  0.00    -0.031 A 
ATOM      3  C3  DEN d   1       0.282   0.037   3.055  0.00  0.00     0.027 A 
ATOM      4  C4  DEN d   1       1.291   0.433   0.714  0.00  0.00     0.027 A 
ATOM      5  C5  DEN d   1       1.071   0.304  -0.639  0.00  0.00    -0.003 A 
ATOM      6  C6  DEN d   1      -0.079  -0.243  -1.143  0.00  0.00     0.001 A 
ATOM      7  C7  DEN d   1      -1.073  -0.641  -0.289  0.00  0.00     0.017 A 
ATOM      8  C8  DEN d   1      -0.855  -0.521   1.078  0.00  0.00    -0.094 A 
ATOM      9  C9  DEN d   1       0.309   0.046   1.567  0.00  0.00    -0.072 A 
ENDROOT
TORSDOF 0
ENDMDL
