MODEL 1
REMARK minimizedAffinity -2.13644552
REMARK minimizedRMSD -1
REMARK  0 active torsions:
REMARK  status: ('A' for Active; 'I' for Inactive)
ROOT
ATOM      1  C1  DEN d   1      -1.367  -0.205  -0.718  0.00  0.00     0.130 A 
ATOM      2  C2  DEN d   1      -0.477  -0.017  -1.860  0.00  0.00    -0.031 A 
ATOM      3  C3  DEN d   1       0.883   0.234  -1.342  0.00  0.00     0.027 A 
ATOM      4  C4  DEN d   1       1.694   0.346   1.104  0.00  0.00     0.027 A 
ATOM      5  C5  DEN d   1       1.301   0.262   2.421  0.00  0.00    -0.003 A 
ATOM      6  C6  DEN d   1      -0.004   0.052   2.783  0.00  0.00     0.001 A 
ATOM      7  C7  DEN d   1      -0.956  -0.126   1.814  0.00  0.00     0.017 A 
ATOM      8  C8  DEN d   1      -0.569  -0.035   0.483  0.00  0.00    -0.094 A 
ATOM      9  C9  DEN d   1       0.757   0.165   0.139  0.00  0.00    -0.072 A 
ENDROOT
TORSDOF 0
ENDMDL
