MODEL 1
REMARK minimizedAffinity -3.06157374
REMARK minimizedRMSD -1
REMARK  0 active torsions:
REMARK  status: ('A' for Active; 'I' for Inactive)
ROOT
ATOM      1  C1  DEN d   1       0.461  -1.601  -2.390  0.00  0.00     0.130 A 
ATOM      2  C2  DEN d   1       1.628  -2.472  -2.277  0.00  0.00    -0.031 A 
ATOM      3  C3  DEN d   1       2.072  -2.459  -0.869  0.00  0.00     0.027 A 
ATOM      4  C4  DEN d   1       1.069  -1.186   1.138  0.00  0.00     0.027 A 
ATOM      5  C5  DEN d   1       0.081  -0.311   1.531  0.00  0.00    -0.003 A 
ATOM      6  C6  DEN d   1      -0.822   0.218   0.646  0.00  0.00     0.001 A 
ATOM      7  C7  DEN d   1      -0.782  -0.160  -0.670  0.00  0.00     0.017 A 
ATOM      8  C8  DEN d   1       0.216  -1.036  -1.076  0.00  0.00    -0.094 A 
ATOM      9  C9  DEN d   1       1.111  -1.568  -0.164  0.00  0.00    -0.072 A 
ENDROOT
TORSDOF 0
ENDMDL
