MODEL 1
REMARK minimizedAffinity -2.94060445
REMARK minimizedRMSD -1
REMARK  0 active torsions:
REMARK  status: ('A' for Active; 'I' for Inactive)
ROOT
ATOM      1  C1  DEN d   1      -1.520  -0.467   1.806  0.00  0.00     0.130 A 
ATOM      2  C2  DEN d   1      -0.958  -0.360   3.150  0.00  0.00    -0.031 A 
ATOM      3  C3  DEN d   1       0.490  -0.100   3.020  0.00  0.00     0.027 A 
ATOM      4  C4  DEN d   1       1.908   0.151   0.880  0.00  0.00     0.027 A 
ATOM      5  C5  DEN d   1       1.876   0.127  -0.497  0.00  0.00    -0.003 A 
ATOM      6  C6  DEN d   1       0.726  -0.128  -1.197  0.00  0.00     0.001 A 
ATOM      7  C7  DEN d   1      -0.449  -0.325  -0.522  0.00  0.00     0.017 A 
ATOM      8  C8  DEN d   1      -0.424  -0.310   0.867  0.00  0.00    -0.094 A 
ATOM      9  C9  DEN d   1       0.746  -0.038   1.555  0.00  0.00    -0.072 A 
ENDROOT
TORSDOF 0
ENDMDL
