MODEL 1
REMARK minimizedAffinity -4.12628889
REMARK minimizedRMSD -1
REMARK  0 active torsions:
REMARK  status: ('A' for Active; 'I' for Inactive)
ROOT
ATOM      1  C1  DEN d   1      -1.016  -1.444   2.351  0.00  0.00     0.130 A 
ATOM      2  C2  DEN d   1      -0.569  -0.688   3.518  0.00  0.00    -0.031 A 
ATOM      3  C3  DEN d   1       0.320   0.393   3.048  0.00  0.00     0.027 A 
ATOM      4  C4  DEN d   1       1.040   0.970   0.639  0.00  0.00     0.027 A 
ATOM      5  C5  DEN d   1       0.927   0.605  -0.684  0.00  0.00    -0.003 A 
ATOM      6  C6  DEN d   1       0.192  -0.480  -1.082  0.00  0.00     0.001 A 
ATOM      7  C7  DEN d   1      -0.496  -1.213  -0.150  0.00  0.00     0.017 A 
ATOM      8  C8  DEN d   1      -0.380  -0.855   1.186  0.00  0.00    -0.094 A 
ATOM      9  C9  DEN d   1       0.358   0.253   1.567  0.00  0.00    -0.072 A 
ENDROOT
TORSDOF 0
ENDMDL
