MODEL 1
REMARK minimizedAffinity -5.10254622
REMARK minimizedRMSD -1
REMARK  0 active torsions:
REMARK  status: ('A' for Active; 'I' for Inactive)
ROOT
ATOM      1  C1  DEN d   1      -1.580  -0.988   2.064  0.00  0.00     0.130 A 
ATOM      2  C2  DEN d   1      -0.688  -0.567   3.141  0.00  0.00    -0.031 A 
ATOM      3  C3  DEN d   1       0.400   0.234   2.546  0.00  0.00     0.027 A 
ATOM      4  C4  DEN d   1       0.786   0.866   0.076  0.00  0.00     0.027 A 
ATOM      5  C5  DEN d   1       0.302   0.730  -1.207  0.00  0.00    -0.003 A 
ATOM      6  C6  DEN d   1      -0.815  -0.010  -1.490  0.00  0.00     0.001 A 
ATOM      7  C7  DEN d   1      -1.512  -0.606  -0.472  0.00  0.00     0.017 A 
ATOM      8  C8  DEN d   1      -1.025  -0.479   0.822  0.00  0.00    -0.094 A 
ATOM      9  C9  DEN d   1       0.099   0.283   1.090  0.00  0.00    -0.072 A 
ENDROOT
TORSDOF 0
ENDMDL
