MODEL 1
REMARK minimizedAffinity -4.48817635
REMARK minimizedRMSD -1
REMARK  0 active torsions:
REMARK  status: ('A' for Active; 'I' for Inactive)
ROOT
ATOM      1  C1  DEN d   1       1.020   0.225  -0.083  0.00  0.00     0.130 A 
ATOM      2  C2  DEN d   1       0.222   0.465  -1.282  0.00  0.00    -0.031 A 
ATOM      3  C3  DEN d   1      -1.201   0.288  -0.927  0.00  0.00     0.027 A 
ATOM      4  C4  DEN d   1      -2.240  -0.327   1.352  0.00  0.00     0.027 A 
ATOM      5  C5  DEN d   1      -1.963  -0.639   2.664  0.00  0.00    -0.003 A 
ATOM      6  C6  DEN d   1      -0.681  -0.717   3.141  0.00  0.00     0.001 A 
ATOM      7  C7  DEN d   1       0.371  -0.437   2.310  0.00  0.00     0.017 A 
ATOM      8  C8  DEN d   1       0.100  -0.129   0.983  0.00  0.00    -0.094 A 
ATOM      9  C9  DEN d   1      -1.203  -0.042   0.523  0.00  0.00    -0.072 A 
ENDROOT
TORSDOF 0
ENDMDL
