MODEL 1
REMARK minimizedAffinity -1.33343029
REMARK minimizedRMSD -1
REMARK  0 active torsions:
REMARK  status: ('A' for Active; 'I' for Inactive)
ROOT
ATOM      1  C1  DEN d   1      -2.504   0.487   0.299  0.00  0.00     0.130 A 
ATOM      2  C2  DEN d   1      -2.163   1.211  -0.923  0.00  0.00    -0.031 A 
ATOM      3  C3  DEN d   1      -0.710   1.477  -0.906  0.00  0.00     0.027 A 
ATOM      4  C4  DEN d   1       1.036   0.838   0.882  0.00  0.00     0.027 A 
ATOM      5  C5  DEN d   1       1.220   0.227   2.103  0.00  0.00    -0.003 A 
ATOM      6  C6  DEN d   1       0.181  -0.305   2.818  0.00  0.00     0.001 A 
ATOM      7  C7  DEN d   1      -1.086  -0.277   2.297  0.00  0.00     0.017 A 
ATOM      8  C8  DEN d   1      -1.282   0.343   1.070  0.00  0.00    -0.094 A 
ATOM      9  C9  DEN d   1      -0.215   0.865   0.357  0.00  0.00    -0.072 A 
ENDROOT
TORSDOF 0
ENDMDL
