MODEL 1
REMARK minimizedAffinity -5.06069136
REMARK minimizedRMSD -1
REMARK  0 active torsions:
REMARK  status: ('A' for Active; 'I' for Inactive)
ROOT
ATOM      1  C1  DEN d   1       0.654  -0.182   1.810  0.00  0.00     0.130 A 
ATOM      2  C2  DEN d   1      -0.450  -0.578   2.681  0.00  0.00    -0.031 A 
ATOM      3  C3  DEN d   1      -1.684  -0.602   1.871  0.00  0.00     0.027 A 
ATOM      4  C4  DEN d   1      -1.991  -0.071  -0.635  0.00  0.00     0.027 A 
ATOM      5  C5  DEN d   1      -1.346   0.323  -1.786  0.00  0.00    -0.003 A 
ATOM      6  C6  DEN d   1      -0.006   0.607  -1.811  0.00  0.00     0.001 A 
ATOM      7  C7  DEN d   1       0.741   0.457  -0.673  0.00  0.00     0.017 A 
ATOM      8  C8  DEN d   1       0.096   0.067   0.493  0.00  0.00    -0.094 A 
ATOM      9  C9  DEN d   1      -1.257  -0.227   0.496  0.00  0.00    -0.072 A 
ENDROOT
TORSDOF 0
ENDMDL
