MODEL 1
REMARK minimizedAffinity -4.26176882
REMARK minimizedRMSD -1
REMARK  0 active torsions:
REMARK  status: ('A' for Active; 'I' for Inactive)
ROOT
ATOM      1  C1  DEN d   1      -1.163  -1.138   2.517  0.00  0.00     0.130 A 
ATOM      2  C2  DEN d   1      -0.598  -0.302   3.572  0.00  0.00    -0.031 A 
ATOM      3  C3  DEN d   1       0.383   0.613   2.955  0.00  0.00     0.027 A 
ATOM      4  C4  DEN d   1       1.074   0.819   0.478  0.00  0.00     0.027 A 
ATOM      5  C5  DEN d   1       0.876   0.315  -0.788  0.00  0.00    -0.003 A 
ATOM      6  C6  DEN d   1       0.017  -0.723  -1.035  0.00  0.00     0.001 A 
ATOM      7  C7  DEN d   1      -0.711  -1.261  -0.006  0.00  0.00     0.017 A 
ATOM      8  C8  DEN d   1      -0.511  -0.763   1.275  0.00  0.00    -0.094 A 
ATOM      9  C9  DEN d   1       0.353   0.295   1.501  0.00  0.00    -0.072 A 
ENDROOT
TORSDOF 0
ENDMDL
