MODEL 1
REMARK minimizedAffinity -3.75612879
REMARK minimizedRMSD -1
REMARK  0 active torsions:
REMARK  status: ('A' for Active; 'I' for Inactive)
ROOT
ATOM      1  C1  DEN d   1      -1.043  -1.256   2.368  0.00  0.00     0.130 A 
ATOM      2  C2  DEN d   1      -0.571  -0.425   3.472  0.00  0.00    -0.031 A 
ATOM      3  C3  DEN d   1       0.297   0.629   2.910  0.00  0.00     0.027 A 
ATOM      4  C4  DEN d   1       0.950   1.055   0.452  0.00  0.00     0.027 A 
ATOM      5  C5  DEN d   1       0.804   0.606  -0.842  0.00  0.00    -0.003 A 
ATOM      6  C6  DEN d   1       0.067  -0.507  -1.150  0.00  0.00     0.001 A 
ATOM      7  C7  DEN d   1      -0.591  -1.182  -0.156  0.00  0.00     0.017 A 
ATOM      8  C8  DEN d   1      -0.443  -0.739   1.152  0.00  0.00    -0.094 A 
ATOM      9  C9  DEN d   1       0.297   0.395   1.441  0.00  0.00    -0.072 A 
ENDROOT
TORSDOF 0
ENDMDL
