MODEL 1
REMARK minimizedAffinity -5.35015821
REMARK minimizedRMSD -1
REMARK  2 active torsions:
REMARK  status: ('A' for Active; 'I' for Inactive)
REMARK    1  A    between atoms: C2'_3  and  C1'_4 
REMARK    2  A    between atoms: C1'_4  and  C1_5 
ROOT
ATOM      1  C1  I4B d   1      -0.404  -0.207   0.432  0.00  0.00    -0.075 A 
ATOM      2  C2  I4B d   1       0.359  -1.223   0.951  0.00  0.00     0.003 A 
ATOM      3  C3  I4B d   1       1.685  -0.970   1.380  0.00  0.00     0.002 A 
ATOM      4  C4  I4B d   1       2.220   0.292   1.227  0.00  0.00    -0.004 A 
ATOM      5  C5  I4B d   1       1.437   1.326   0.722  0.00  0.00     0.002 A 
ATOM      6  C6  I4B d   1       0.112   1.079   0.334  0.00  0.00     0.003 A 
ENDROOT
BRANCH   1   7
ATOM      7  C1' I4B d   1      -1.789  -0.516  -0.042  0.00  0.00     0.060 C 
BRANCH   7   8
ATOM      8  C2' I4B d   1      -1.946   0.064  -1.433  0.00  0.00    -0.013 C 
ATOM      9  C4' I4B d   1      -2.062  -1.024  -2.467  0.00  0.00     0.013 C 
ATOM     10  C3' I4B d   1      -3.162   0.943  -1.433  0.00  0.00     0.013 C 
ENDBRANCH   7   8
ENDBRANCH   1   7
TORSDOF 2
ENDMDL
