MODEL 1
REMARK minimizedAffinity -3.00772095
REMARK minimizedRMSD -1
REMARK  2 active torsions:
REMARK  status: ('A' for Active; 'I' for Inactive)
REMARK    1  A    between atoms: C1_2  and  C2_3 
REMARK    2  A    between atoms: C2_3  and  C3_4 
ROOT
ATOM      1  C3  UNL d   1       0.186   0.140  -0.007  0.00  0.00    -0.075 A 
ATOM      2  C4  UNL d   1       1.401   0.424  -0.647  0.00  0.00     0.002 A 
ATOM      3  C5  UNL d   1       2.583  -0.187  -0.227  0.00  0.00     0.002 A 
ATOM      4  C6  UNL d   1       2.568  -1.080   0.842  0.00  0.00    -0.004 A 
ATOM      5  C7  UNL d   1       1.369  -1.357   1.496  0.00  0.00     0.002 A 
ATOM      6  C8  UNL d   1       0.184  -0.751   1.075  0.00  0.00     0.002 A 
ENDROOT
BRANCH   1   7
ATOM      7  C2  UNL d   1      -1.101   0.775  -0.475  0.00  0.00     0.056 C 
BRANCH   7   8
ATOM      8  C1  UNL d   1      -0.908   1.875  -1.525  0.00  0.00     0.007 C 
ATOM      9  C   UNL d   1      -2.062   1.970  -2.514  0.00  0.00     0.009 C 
ENDBRANCH   7   8
ENDBRANCH   1   7
TORSDOF 2
ENDMDL
