MODEL 1
REMARK minimizedAffinity -4.69869709
REMARK minimizedRMSD -1
REMARK  2 active torsions:
REMARK  status: ('A' for Active; 'I' for Inactive)
REMARK    1  A    between atoms: C1_2  and  C2_3 
REMARK    2  A    between atoms: C2_3  and  C3_4 
ROOT
ATOM      1  C3  UNL d   1       0.610   0.333  -0.140  0.00  0.00    -0.075 A 
ATOM      2  C4  UNL d   1       1.759   0.585  -0.903  0.00  0.00     0.002 A 
ATOM      3  C5  UNL d   1       2.828  -0.311  -0.892  0.00  0.00     0.002 A 
ATOM      4  C6  UNL d   1       2.767  -1.463  -0.111  0.00  0.00    -0.004 A 
ATOM      5  C7  UNL d   1       1.637  -1.715   0.664  0.00  0.00     0.002 A 
ATOM      6  C8  UNL d   1       0.564  -0.822   0.651  0.00  0.00     0.002 A 
ENDROOT
BRANCH   1   7
ATOM      7  C2  UNL d   1      -0.562   1.285  -0.171  0.00  0.00     0.056 C 
BRANCH   7   8
ATOM      8  C1  UNL d   1      -0.919   1.788  -1.573  0.00  0.00     0.007 C 
ATOM      9  C   UNL d   1      -1.871   0.863  -2.319  0.00  0.00     0.009 C 
ENDBRANCH   7   8
ENDBRANCH   1   7
TORSDOF 2
ENDMDL
