MODEL 1
REMARK minimizedAffinity -3.02562213
REMARK minimizedRMSD -1
REMARK  2 active torsions:
REMARK  status: ('A' for Active; 'I' for Inactive)
REMARK    1  A    between atoms: C1_2  and  C2_3 
REMARK    2  A    between atoms: C2_3  and  C3_4 
ROOT
ATOM      1  C3  UNL d   1      -0.763   1.305  -0.817  0.00  0.00    -0.075 A 
ATOM      2  C4  UNL d   1       0.196   0.335  -1.143  0.00  0.00     0.002 A 
ATOM      3  C5  UNL d   1       0.458  -0.722  -0.271  0.00  0.00     0.002 A 
ATOM      4  C6  UNL d   1      -0.225  -0.816   0.939  0.00  0.00    -0.004 A 
ATOM      5  C7  UNL d   1      -1.168   0.151   1.281  0.00  0.00     0.002 A 
ATOM      6  C8  UNL d   1      -1.436   1.207   0.408  0.00  0.00     0.002 A 
ENDROOT
BRANCH   1   7
ATOM      7  C2  UNL d   1      -1.073   2.435  -1.770  0.00  0.00     0.056 C 
BRANCH   7   8
ATOM      8  C1  UNL d   1      -1.749   1.987  -3.070  0.00  0.00     0.007 C 
ATOM      9  C   UNL d   1      -3.122   1.366  -2.850  0.00  0.00     0.009 C 
ENDBRANCH   7   8
ENDBRANCH   1   7
TORSDOF 2
ENDMDL
