MODEL 1
REMARK minimizedAffinity -4.73726654
REMARK minimizedRMSD -1
REMARK  2 active torsions:
REMARK  status: ('A' for Active; 'I' for Inactive)
REMARK    1  A    between atoms: C1_2  and  C2_3 
REMARK    2  A    between atoms: C2_3  and  C3_4 
ROOT
ATOM      1  C3  UNL d   1       0.277   0.221   0.329  0.00  0.00    -0.075 A 
ATOM      2  C4  UNL d   1       0.044  -1.024   0.931  0.00  0.00     0.002 A 
ATOM      3  C5  UNL d   1       1.084  -1.941   1.086  0.00  0.00     0.002 A 
ATOM      4  C6  UNL d   1       2.364  -1.631   0.632  0.00  0.00    -0.004 A 
ATOM      5  C7  UNL d   1       2.603  -0.403   0.018  0.00  0.00     0.002 A 
ATOM      6  C8  UNL d   1       1.566   0.518  -0.134  0.00  0.00     0.002 A 
ENDROOT
BRANCH   1   7
ATOM      7  C2  UNL d   1      -0.837   1.230   0.185  0.00  0.00     0.056 C 
BRANCH   7   8
ATOM      8  C1  UNL d   1      -0.902   1.895  -1.194  0.00  0.00     0.007 C 
ATOM      9  C   UNL d   1      -2.178   1.567  -1.959  0.00  0.00     0.009 C 
ENDBRANCH   7   8
ENDBRANCH   1   7
TORSDOF 2
ENDMDL
