MODEL 1
REMARK minimizedAffinity -5.73407364
REMARK minimizedRMSD -1
REMARK  2 active torsions:
REMARK  status: ('A' for Active; 'I' for Inactive)
REMARK    1  A    between atoms: C1_2  and  C2_3 
REMARK    2  A    between atoms: C2_3  and  C3_4 
ROOT
ATOM      1  C3  UNL d   1       0.823   0.294   0.095  0.00  0.00    -0.075 A 
ATOM      2  C4  UNL d   1       0.436  -0.964   0.579  0.00  0.00     0.002 A 
ATOM      3  C5  UNL d   1       1.394  -1.933   0.880  0.00  0.00     0.002 A 
ATOM      4  C6  UNL d   1       2.748  -1.660   0.692  0.00  0.00    -0.004 A 
ATOM      5  C7  UNL d   1       3.143  -0.420   0.196  0.00  0.00     0.002 A 
ATOM      6  C8  UNL d   1       2.186   0.552  -0.102  0.00  0.00     0.002 A 
ENDROOT
BRANCH   1   7
ATOM      7  C2  UNL d   1      -0.207   1.356  -0.206  0.00  0.00     0.056 C 
BRANCH   7   8
ATOM      8  C1  UNL d   1       0.309   2.491  -1.096  0.00  0.00     0.007 C 
ATOM      9  C   UNL d   1      -0.662   2.874  -2.205  0.00  0.00     0.009 C 
ENDBRANCH   7   8
ENDBRANCH   1   7
TORSDOF 2
ENDMDL
