MODEL 1
REMARK minimizedAffinity -5.04714489
REMARK minimizedRMSD -1
REMARK  2 active torsions:
REMARK  status: ('A' for Active; 'I' for Inactive)
REMARK    1  A    between atoms: C1_2  and  C2_3 
REMARK    2  A    between atoms: C2_3  and  C3_4 
ROOT
ATOM      1  C3  UNL d   1      -0.098  -2.165   1.100  0.00  0.00    -0.075 A 
ATOM      2  C4  UNL d   1      -1.104  -2.292   2.069  0.00  0.00     0.002 A 
ATOM      3  C5  UNL d   1      -2.065  -1.293   2.227  0.00  0.00     0.002 A 
ATOM      4  C6  UNL d   1      -2.027  -0.153   1.427  0.00  0.00    -0.004 A 
ATOM      5  C7  UNL d   1      -1.023  -0.009   0.472  0.00  0.00     0.002 A 
ATOM      6  C8  UNL d   1      -0.063  -1.009   0.309  0.00  0.00     0.002 A 
ENDROOT
BRANCH   1   7
ATOM      7  C2  UNL d   1       0.927  -3.256   0.904  0.00  0.00     0.056 C 
BRANCH   7   8
ATOM      8  C1  UNL d   1       2.072  -3.226   1.922  0.00  0.00     0.007 C 
ATOM      9  C   UNL d   1       2.760  -1.870   2.012  0.00  0.00     0.009 C 
ENDBRANCH   7   8
ENDBRANCH   1   7
TORSDOF 2
ENDMDL
