MODEL 1
REMARK minimizedAffinity -4.65681362
REMARK minimizedRMSD -1
REMARK  2 active torsions:
REMARK  status: ('A' for Active; 'I' for Inactive)
REMARK    1  A    between atoms: C1_2  and  C2_3 
REMARK    2  A    between atoms: C2_3  and  C3_4 
ROOT
ATOM      1  C3  UNL d   1       0.094  -0.408   0.094  0.00  0.00    -0.075 A 
ATOM      2  C4  UNL d   1      -0.393  -1.575   0.702  0.00  0.00     0.002 A 
ATOM      3  C5  UNL d   1       0.475  -2.445   1.362  0.00  0.00     0.002 A 
ATOM      4  C6  UNL d   1       1.839  -2.167   1.413  0.00  0.00    -0.004 A 
ATOM      5  C7  UNL d   1       2.336  -1.020   0.798  0.00  0.00     0.002 A 
ATOM      6  C8  UNL d   1       1.469  -0.145   0.142  0.00  0.00     0.002 A 
ENDROOT
BRANCH   1   7
ATOM      7  C2  UNL d   1      -0.845   0.553  -0.595  0.00  0.00     0.056 C 
BRANCH   7   8
ATOM      8  C1  UNL d   1      -1.445   0.012  -1.897  0.00  0.00     0.007 C 
ATOM      9  C   UNL d   1      -2.350   1.014  -2.603  0.00  0.00     0.009 C 
ENDBRANCH   7   8
ENDBRANCH   1   7
TORSDOF 2
ENDMDL
