MODEL 1
REMARK minimizedAffinity -3.53733397
REMARK minimizedRMSD -1
REMARK  2 active torsions:
REMARK  status: ('A' for Active; 'I' for Inactive)
REMARK    1  A    between atoms: C1_2  and  C2_3 
REMARK    2  A    between atoms: C2_3  and  C3_4 
ROOT
ATOM      1  C3  UNL d   1      -0.411   0.821  -0.313  0.00  0.00    -0.075 A 
ATOM      2  C4  UNL d   1       0.944   0.719  -0.661  0.00  0.00     0.002 A 
ATOM      3  C5  UNL d   1       1.714  -0.350  -0.203  0.00  0.00     0.002 A 
ATOM      4  C6  UNL d   1       1.143  -1.324   0.615  0.00  0.00    -0.004 A 
ATOM      5  C7  UNL d   1      -0.198  -1.224   0.979  0.00  0.00     0.002 A 
ATOM      6  C8  UNL d   1      -0.972  -0.157   0.519  0.00  0.00     0.002 A 
ENDROOT
BRANCH   1   7
ATOM      7  C2  UNL d   1      -1.258   1.960  -0.830  0.00  0.00     0.056 C 
BRANCH   7   8
ATOM      8  C1  UNL d   1      -2.530   1.512  -1.557  0.00  0.00     0.007 C 
ATOM      9  C   UNL d   1      -2.285   1.121  -3.009  0.00  0.00     0.009 C 
ENDBRANCH   7   8
ENDBRANCH   1   7
TORSDOF 2
ENDMDL
