MODEL 1
REMARK minimizedAffinity 19.180048
REMARK minimizedRMSD -1
REMARK  3 active torsions:
REMARK  status: ('A' for Active; 'I' for Inactive)
REMARK    1  A    between atoms: C3'_2  and  C2'_3 
REMARK    2  A    between atoms: C2'_3  and  C1'_4 
REMARK    3  A    between atoms: C1'_4  and  C1_5 
ROOT
ATOM      1  C1  N4B d   1       4.279  -2.003   1.674  0.00  0.00    -0.075 A 
ATOM      2  C2  N4B d   1       3.547  -2.357   0.519  0.00  0.00     0.002 A 
ATOM      3  C3  N4B d   1       2.269  -1.887   0.345  0.00  0.00     0.002 A 
ATOM      4  C4  N4B d   1       1.696  -1.081   1.317  0.00  0.00    -0.004 A 
ATOM      5  C5  N4B d   1       2.418  -0.723   2.418  0.00  0.00     0.002 A 
ATOM      6  C6  N4B d   1       3.706  -1.185   2.604  0.00  0.00     0.002 A 
ENDROOT
BRANCH   1   7
ATOM      7  C1' N4B d   1       5.648  -2.562   1.949  0.00  0.00     0.057 C 
BRANCH   7   8
ATOM      8  C2' N4B d   1       5.998  -3.584   0.871  0.00  0.00     0.009 C 
BRANCH   8   9
ATOM      9  C3' N4B d   1       5.973  -5.005   1.407  0.00  0.00     0.004 C 
ATOM     10  C4' N4B d   1       5.474  -5.997   0.398  0.00  0.00     0.003 C 
ENDBRANCH   8   9
ENDBRANCH   7   8
ENDBRANCH   1   7
TORSDOF 3
ENDMDL
