MODEL 1
REMARK minimizedAffinity 13.0311213
REMARK minimizedRMSD -1
REMARK  3 active torsions:
REMARK  status: ('A' for Active; 'I' for Inactive)
REMARK    1  A    between atoms: C3'_2  and  C2'_3 
REMARK    2  A    between atoms: C2'_3  and  C1'_4 
REMARK    3  A    between atoms: C1'_4  and  C1_5 
ROOT
ATOM      1  C1  N4B d   1       3.523  -2.504   1.015  0.00  0.00    -0.075 A 
ATOM      2  C2  N4B d   1       3.627  -3.889   1.271  0.00  0.00     0.002 A 
ATOM      3  C3  N4B d   1       4.861  -4.459   1.470  0.00  0.00     0.002 A 
ATOM      4  C4  N4B d   1       6.000  -3.671   1.399  0.00  0.00    -0.004 A 
ATOM      5  C5  N4B d   1       5.888  -2.330   1.176  0.00  0.00     0.002 A 
ATOM      6  C6  N4B d   1       4.655  -1.743   0.979  0.00  0.00     0.002 A 
ENDROOT
BRANCH   1   7
ATOM      7  C1' N4B d   1       2.203  -1.851   0.706  0.00  0.00     0.057 C 
BRANCH   7   8
ATOM      8  C2' N4B d   1       1.754  -2.266  -0.692  0.00  0.00     0.009 C 
BRANCH   8   9
ATOM      9  C3' N4B d   1       1.513  -3.762  -0.790  0.00  0.00     0.004 C 
ATOM     10  C4' N4B d   1       1.667  -4.284  -2.188  0.00  0.00     0.003 C 
ENDBRANCH   8   9
ENDBRANCH   7   8
ENDBRANCH   1   7
TORSDOF 3
ENDMDL
