MODEL 1
REMARK minimizedAffinity 12.8675432
REMARK minimizedRMSD -1
REMARK  3 active torsions:
REMARK  status: ('A' for Active; 'I' for Inactive)
REMARK    1  A    between atoms: C3'_2  and  C2'_3 
REMARK    2  A    between atoms: C2'_3  and  C1'_4 
REMARK    3  A    between atoms: C1'_4  and  C1_5 
ROOT
ATOM      1  C1  N4B d   1       3.401  -2.522   0.499  0.00  0.00    -0.075 A 
ATOM      2  C2  N4B d   1       3.810  -3.873   0.527  0.00  0.00     0.002 A 
ATOM      3  C3  N4B d   1       5.100  -4.194   0.874  0.00  0.00     0.002 A 
ATOM      4  C4  N4B d   1       5.999  -3.183   1.177  0.00  0.00    -0.004 A 
ATOM      5  C5  N4B d   1       5.590  -1.882   1.173  0.00  0.00     0.002 A 
ATOM      6  C6  N4B d   1       4.295  -1.545   0.830  0.00  0.00     0.002 A 
ENDROOT
BRANCH   1   7
ATOM      7  C1' N4B d   1       2.026  -2.117   0.043  0.00  0.00     0.057 C 
BRANCH   7   8
ATOM      8  C2' N4B d   1       1.308  -3.337  -0.527  0.00  0.00     0.009 C 
BRANCH   8   9
ATOM      9  C3' N4B d   1       1.931  -3.806  -1.830  0.00  0.00     0.004 C 
ATOM     10  C4' N4B d   1       1.518  -5.198  -2.204  0.00  0.00     0.003 C 
ENDBRANCH   8   9
ENDBRANCH   7   8
ENDBRANCH   1   7
TORSDOF 3
ENDMDL
