MODEL 1
REMARK minimizedAffinity 15.9543839
REMARK minimizedRMSD -1
REMARK  3 active torsions:
REMARK  status: ('A' for Active; 'I' for Inactive)
REMARK    1  A    between atoms: C3'_2  and  C2'_3 
REMARK    2  A    between atoms: C2'_3  and  C1'_4 
REMARK    3  A    between atoms: C1'_4  and  C1_5 
ROOT
ATOM      1  C1  N4B d   1       4.488  -4.790  -2.309  0.00  0.00    -0.075 A 
ATOM      2  C2  N4B d   1       3.160  -4.903  -1.841  0.00  0.00     0.002 A 
ATOM      3  C3  N4B d   1       2.126  -4.373  -2.574  0.00  0.00     0.002 A 
ATOM      4  C4  N4B d   1       2.396  -3.713  -3.763  0.00  0.00    -0.004 A 
ATOM      5  C5  N4B d   1       3.679  -3.631  -4.221  0.00  0.00     0.002 A 
ATOM      6  C6  N4B d   1       4.727  -4.162  -3.497  0.00  0.00     0.002 A 
ENDROOT
BRANCH   1   7
ATOM      7  C1' N4B d   1       5.659  -5.278  -1.501  0.00  0.00     0.057 C 
BRANCH   7   8
ATOM      8  C2' N4B d   1       5.152  -5.851  -0.180  0.00  0.00     0.009 C 
BRANCH   8   9
ATOM      9  C3' N4B d   1       5.639  -5.046   1.012  0.00  0.00     0.004 C 
ATOM     10  C4' N4B d   1       5.279  -5.677   2.324  0.00  0.00     0.003 C 
ENDBRANCH   8   9
ENDBRANCH   7   8
ENDBRANCH   1   7
TORSDOF 3
ENDMDL
