MODEL 1
REMARK minimizedAffinity 6.27864695
REMARK minimizedRMSD -1
REMARK  3 active torsions:
REMARK  status: ('A' for Active; 'I' for Inactive)
REMARK    1  A    between atoms: C3'_2  and  C2'_3 
REMARK    2  A    between atoms: C2'_3  and  C1'_4 
REMARK    3  A    between atoms: C1'_4  and  C1_5 
ROOT
ATOM      1  C1  N4B d   1      -2.296   3.803  -3.963  0.00  0.00    -0.075 A 
ATOM      2  C2  N4B d   1      -3.385   2.967  -4.297  0.00  0.00     0.002 A 
ATOM      3  C3  N4B d   1      -4.440   3.470  -5.018  0.00  0.00     0.002 A 
ATOM      4  C4  N4B d   1      -4.438   4.804  -5.398  0.00  0.00    -0.004 A 
ATOM      5  C5  N4B d   1      -3.371   5.597  -5.093  0.00  0.00     0.002 A 
ATOM      6  C6  N4B d   1      -2.302   5.104  -4.373  0.00  0.00     0.002 A 
ENDROOT
BRANCH   1   7
ATOM      7  C1' N4B d   1      -1.160   3.321  -3.103  0.00  0.00     0.057 C 
BRANCH   7   8
ATOM      8  C2' N4B d   1      -1.711   2.871  -1.753  0.00  0.00     0.009 C 
BRANCH   8   9
ATOM      9  C3' N4B d   1      -0.622   2.782  -0.697  0.00  0.00     0.004 C 
ATOM     10  C4' N4B d   1      -1.079   2.085   0.550  0.00  0.00     0.003 C 
ENDBRANCH   8   9
ENDBRANCH   7   8
ENDBRANCH   1   7
TORSDOF 3
ENDMDL
