MODEL 1
REMARK minimizedAffinity 13.0382242
REMARK minimizedRMSD -1
REMARK  3 active torsions:
REMARK  status: ('A' for Active; 'I' for Inactive)
REMARK    1  A    between atoms: C3'_2  and  C2'_3 
REMARK    2  A    between atoms: C2'_3  and  C1'_4 
REMARK    3  A    between atoms: C1'_4  and  C1_5 
ROOT
ATOM      1  C1  N4B d   1       3.455  -2.777   0.751  0.00  0.00    -0.075 A 
ATOM      2  C2  N4B d   1       3.698  -4.156   0.931  0.00  0.00     0.002 A 
ATOM      3  C3  N4B d   1       4.960  -4.596   1.245  0.00  0.00     0.002 A 
ATOM      4  C4  N4B d   1       5.995  -3.681   1.365  0.00  0.00    -0.004 A 
ATOM      5  C5  N4B d   1       5.748  -2.348   1.213  0.00  0.00     0.002 A 
ATOM      6  C6  N4B d   1       4.483  -1.892   0.902  0.00  0.00     0.002 A 
ENDROOT
BRANCH   1   7
ATOM      7  C1' N4B d   1       2.110  -2.256   0.322  0.00  0.00     0.057 C 
BRANCH   7   8
ATOM      8  C2' N4B d   1       1.271  -3.415  -0.208  0.00  0.00     0.009 C 
BRANCH   8   9
ATOM      9  C3' N4B d   1       1.595  -3.735  -1.657  0.00  0.00     0.004 C 
ATOM     10  C4' N4B d   1       1.939  -5.179  -1.870  0.00  0.00     0.003 C 
ENDBRANCH   8   9
ENDBRANCH   7   8
ENDBRANCH   1   7
TORSDOF 3
ENDMDL
