MODEL 1
REMARK minimizedAffinity 11.1547747
REMARK minimizedRMSD -1
REMARK  3 active torsions:
REMARK  status: ('A' for Active; 'I' for Inactive)
REMARK    1  A    between atoms: C3'_2  and  C2'_3 
REMARK    2  A    between atoms: C2'_3  and  C1'_4 
REMARK    3  A    between atoms: C1'_4  and  C1_5 
ROOT
ATOM      1  C1  N4B d   1       0.010   0.029   1.909  0.00  0.00    -0.075 A 
ATOM      2  C2  N4B d   1      -0.228   1.285   1.310  0.00  0.00     0.002 A 
ATOM      3  C3  N4B d   1      -1.393   1.962   1.574  0.00  0.00     0.002 A 
ATOM      4  C4  N4B d   1      -2.339   1.396   2.415  0.00  0.00    -0.004 A 
ATOM      5  C5  N4B d   1      -2.091   0.194   3.010  0.00  0.00     0.002 A 
ATOM      6  C6  N4B d   1      -0.922  -0.496   2.757  0.00  0.00     0.002 A 
ENDROOT
BRANCH   1   7
ATOM      7  C1' N4B d   1       1.231  -0.787   1.584  0.00  0.00     0.057 C 
BRANCH   7   8
ATOM      8  C2' N4B d   1       0.804  -2.210   1.234  0.00  0.00     0.009 C 
BRANCH   8   9
ATOM      9  C3' N4B d   1       1.931  -3.000   0.591  0.00  0.00     0.004 C 
ATOM     10  C4' N4B d   1       1.472  -3.821  -0.577  0.00  0.00     0.003 C 
ENDBRANCH   8   9
ENDBRANCH   7   8
ENDBRANCH   1   7
TORSDOF 3
ENDMDL
