MODEL 1
REMARK minimizedAffinity 7.42064714
REMARK minimizedRMSD -1
REMARK  3 active torsions:
REMARK  status: ('A' for Active; 'I' for Inactive)
REMARK    1  A    between atoms: C3'_2  and  C2'_3 
REMARK    2  A    between atoms: C2'_3  and  C1'_4 
REMARK    3  A    between atoms: C1'_4  and  C1_5 
ROOT
ATOM      1  C1  N4B d   1       3.957  -3.973  -0.012  0.00  0.00    -0.075 A 
ATOM      2  C2  N4B d   1       4.153  -4.890  -1.068  0.00  0.00     0.002 A 
ATOM      3  C3  N4B d   1       5.076  -5.899  -0.939  0.00  0.00     0.002 A 
ATOM      4  C4  N4B d   1       5.825  -5.999   0.224  0.00  0.00    -0.004 A 
ATOM      5  C5  N4B d   1       5.611  -5.125   1.249  0.00  0.00     0.002 A 
ATOM      6  C6  N4B d   1       4.685  -4.108   1.135  0.00  0.00     0.002 A 
ENDROOT
BRANCH   1   7
ATOM      7  C1' N4B d   1       3.022  -2.802  -0.140  0.00  0.00     0.057 C 
BRANCH   7   8
ATOM      8  C2' N4B d   1       3.230  -1.863   1.043  0.00  0.00     0.009 C 
BRANCH   8   9
ATOM      9  C3' N4B d   1       1.938  -1.184   1.465  0.00  0.00     0.004 C 
ATOM     10  C4' N4B d   1       2.095  -0.356   2.705  0.00  0.00     0.003 C 
ENDBRANCH   8   9
ENDBRANCH   7   8
ENDBRANCH   1   7
TORSDOF 3
ENDMDL
