MODEL 1
REMARK minimizedAffinity 11.4885225
REMARK minimizedRMSD -1
REMARK  3 active torsions:
REMARK  status: ('A' for Active; 'I' for Inactive)
REMARK    1  A    between atoms: C3'_2  and  C2'_3 
REMARK    2  A    between atoms: C2'_3  and  C1'_4 
REMARK    3  A    between atoms: C1'_4  and  C1_5 
ROOT
ATOM      1  C1  N4B d   1      -1.051   2.677  -1.792  0.00  0.00    -0.075 A 
ATOM      2  C2  N4B d   1      -0.610   4.018  -1.766  0.00  0.00     0.002 A 
ATOM      3  C3  N4B d   1       0.044   4.504  -0.660  0.00  0.00     0.002 A 
ATOM      4  C4  N4B d   1       0.249   3.677   0.434  0.00  0.00    -0.004 A 
ATOM      5  C5  N4B d   1      -0.158   2.376   0.390  0.00  0.00     0.002 A 
ATOM      6  C6  N4B d   1      -0.812   1.872  -0.716  0.00  0.00     0.002 A 
ENDROOT
BRANCH   1   7
ATOM      7  C1' N4B d   1      -1.845   2.125  -2.944  0.00  0.00     0.057 C 
BRANCH   7   8
ATOM      8  C2' N4B d   1      -3.164   1.564  -2.420  0.00  0.00     0.009 C 
BRANCH   8   9
ATOM      9  C3' N4B d   1      -2.990   0.187  -1.803  0.00  0.00     0.004 C 
ATOM     10  C4' N4B d   1      -4.040  -0.127  -0.779  0.00  0.00     0.003 C 
ENDBRANCH   8   9
ENDBRANCH   7   8
ENDBRANCH   1   7
TORSDOF 3
ENDMDL
