MODEL 1
REMARK minimizedAffinity 12.2524099
REMARK minimizedRMSD -1
REMARK  1 active torsions:
REMARK  status: ('A' for Active; 'I' for Inactive)
REMARK    1  A    between atoms: C1_2  and  C2_3 
ROOT
ATOM      1  C2  UNL d   1      -0.617  -5.923   1.541  0.00  0.00    -0.077 A 
ATOM      2  C3  UNL d   1       0.457  -5.883   0.641  0.00  0.00     0.002 A 
ATOM      3  C4  UNL d   1       1.773  -5.900   1.109  0.00  0.00     0.002 A 
ATOM      4  C5  UNL d   1       2.026  -5.962   2.478  0.00  0.00    -0.004 A 
ATOM      5  C6  UNL d   1       0.964  -6.000   3.381  0.00  0.00     0.002 A 
ATOM      6  C7  UNL d   1      -0.351  -5.981   2.915  0.00  0.00     0.002 A 
ENDROOT
BRANCH   1   7
ATOM      7  C1  UNL d   1      -2.035  -5.954   1.035  0.00  0.00     0.055 C 
ATOM      8  C   UNL d   1      -2.436  -4.618   0.427  0.00  0.00     0.019 C 
ENDBRANCH   1   7
TORSDOF 1
ENDMDL
