MODEL 1
REMARK minimizedAffinity 5.97745275
REMARK minimizedRMSD -1
REMARK  1 active torsions:
REMARK  status: ('A' for Active; 'I' for Inactive)
REMARK    1  A    between atoms: C1_2  and  C2_3 
ROOT
ATOM      1  C2  UNL d   1      -2.836   0.960   0.080  0.00  0.00    -0.077 A 
ATOM      2  C3  UNL d   1      -1.867   1.532  -0.757  0.00  0.00     0.002 A 
ATOM      3  C4  UNL d   1      -1.452   0.868  -1.913  0.00  0.00     0.002 A 
ATOM      4  C5  UNL d   1      -2.002  -0.369  -2.244  0.00  0.00    -0.004 A 
ATOM      5  C6  UNL d   1      -2.965  -0.946  -1.417  0.00  0.00     0.002 A 
ATOM      6  C7  UNL d   1      -3.381  -0.284  -0.261  0.00  0.00     0.002 A 
ENDROOT
BRANCH   1   7
ATOM      7  C1  UNL d   1      -3.322   1.697   1.300  0.00  0.00     0.055 C 
ATOM      8  C   UNL d   1      -4.827   1.555   1.471  0.00  0.00     0.019 C 
ENDBRANCH   1   7
TORSDOF 1
ENDMDL
