MODEL 1
REMARK minimizedAffinity 3.1888206
REMARK minimizedRMSD -1
REMARK  1 active torsions:
REMARK  status: ('A' for Active; 'I' for Inactive)
REMARK    1  A    between atoms: C1_2  and  C2_3 
ROOT
ATOM      1  C2  UNL d   1      -2.006   0.947  -4.275  0.00  0.00    -0.077 A 
ATOM      2  C3  UNL d   1      -2.485   0.575  -3.010  0.00  0.00     0.002 A 
ATOM      3  C4  UNL d   1      -1.762   0.896  -1.859  0.00  0.00     0.002 A 
ATOM      4  C5  UNL d   1      -0.560   1.592  -1.961  0.00  0.00    -0.004 A 
ATOM      5  C6  UNL d   1      -0.074   1.964  -3.214  0.00  0.00     0.002 A 
ATOM      6  C7  UNL d   1      -0.794   1.644  -4.365  0.00  0.00     0.002 A 
ENDROOT
BRANCH   1   7
ATOM      7  C1  UNL d   1      -2.808   0.645  -5.514  0.00  0.00     0.055 C 
ATOM      8  C   UNL d   1      -2.575  -0.781  -5.990  0.00  0.00     0.019 C 
ENDBRANCH   1   7
TORSDOF 1
ENDMDL
