MODEL 1
REMARK minimizedAffinity -0.424987227
REMARK minimizedRMSD -1
REMARK  1 active torsions:
REMARK  status: ('A' for Active; 'I' for Inactive)
REMARK    1  A    between atoms: C1_2  and  C2_3 
ROOT
ATOM      1  C2  UNL d   1      -3.714   0.059   3.642  0.00  0.00    -0.077 A 
ATOM      2  C3  UNL d   1      -3.257  -0.373   4.895  0.00  0.00     0.002 A 
ATOM      3  C4  UNL d   1      -4.118  -0.385   5.994  0.00  0.00     0.002 A 
ATOM      4  C5  UNL d   1      -5.441   0.028   5.850  0.00  0.00    -0.004 A 
ATOM      5  C6  UNL d   1      -5.904   0.462   4.608  0.00  0.00     0.002 A 
ATOM      6  C7  UNL d   1      -5.044   0.476   3.509  0.00  0.00     0.002 A 
ENDROOT
BRANCH   1   7
ATOM      7  C1  UNL d   1      -2.800   0.027   2.444  0.00  0.00     0.055 C 
ATOM      8  C   UNL d   1      -3.410   0.767   1.263  0.00  0.00     0.019 C 
ENDBRANCH   1   7
TORSDOF 1
ENDMDL
