MODEL 1
REMARK minimizedAffinity 8.63038063
REMARK minimizedRMSD -1
REMARK  1 active torsions:
REMARK  status: ('A' for Active; 'I' for Inactive)
REMARK    1  A    between atoms: C1_2  and  C2_3 
ROOT
ATOM      1  C2  UNL d   1      -0.839  -4.861   1.132  0.00  0.00    -0.077 A 
ATOM      2  C3  UNL d   1      -0.025  -3.720   1.161  0.00  0.00     0.002 A 
ATOM      3  C4  UNL d   1       1.167  -3.721   1.889  0.00  0.00     0.002 A 
ATOM      4  C5  UNL d   1       1.556  -4.861   2.590  0.00  0.00    -0.004 A 
ATOM      5  C6  UNL d   1       0.752  -6.000   2.569  0.00  0.00     0.002 A 
ATOM      6  C7  UNL d   1      -0.440  -6.000   1.843  0.00  0.00     0.002 A 
ENDROOT
BRANCH   1   7
ATOM      7  C1  UNL d   1      -2.100  -4.878   0.308  0.00  0.00     0.055 C 
ATOM      8  C   UNL d   1      -3.032  -5.999   0.744  0.00  0.00     0.019 C 
ENDBRANCH   1   7
TORSDOF 1
ENDMDL
