MODEL 1
REMARK minimizedAffinity 0.153026968
REMARK minimizedRMSD -1
REMARK  1 active torsions:
REMARK  status: ('A' for Active; 'I' for Inactive)
REMARK    1  A    between atoms: C1_2  and  C2_3 
ROOT
ATOM      1  C2  UNL d   1      -1.504   0.939  -1.423  0.00  0.00    -0.077 A 
ATOM      2  C3  UNL d   1      -1.510   1.967  -2.376  0.00  0.00     0.002 A 
ATOM      3  C4  UNL d   1      -1.880   1.705  -3.696  0.00  0.00     0.002 A 
ATOM      4  C5  UNL d   1      -2.250   0.416  -4.074  0.00  0.00    -0.004 A 
ATOM      5  C6  UNL d   1      -2.245  -0.614  -3.135  0.00  0.00     0.002 A 
ATOM      6  C7  UNL d   1      -1.875  -0.354  -1.815  0.00  0.00     0.002 A 
ENDROOT
BRANCH   1   7
ATOM      7  C1  UNL d   1      -1.153   1.231   0.013  0.00  0.00     0.055 C 
ATOM      8  C   UNL d   1      -2.403   1.406   0.863  0.00  0.00     0.019 C 
ENDBRANCH   1   7
TORSDOF 1
ENDMDL
