MODEL 1
REMARK minimizedAffinity 9.89065456
REMARK minimizedRMSD -1
REMARK  1 active torsions:
REMARK  status: ('A' for Active; 'I' for Inactive)
REMARK    1  A    between atoms: C1_2  and  C2_3 
ROOT
ATOM      1  C2  UNL d   1      -4.841   1.924   3.743  0.00  0.00    -0.077 A 
ATOM      2  C3  UNL d   1      -3.668   2.115   2.999  0.00  0.00     0.002 A 
ATOM      3  C4  UNL d   1      -3.657   1.876   1.624  0.00  0.00     0.002 A 
ATOM      4  C5  UNL d   1      -4.816   1.448   0.980  0.00  0.00    -0.004 A 
ATOM      5  C6  UNL d   1      -5.987   1.253   1.711  0.00  0.00     0.002 A 
ATOM      6  C7  UNL d   1      -6.000   1.491   3.086  0.00  0.00     0.002 A 
ENDROOT
BRANCH   1   7
ATOM      7  C1  UNL d   1      -4.868   2.229   5.218  0.00  0.00     0.055 C 
ATOM      8  C   UNL d   1      -5.580   1.133   5.997  0.00  0.00     0.019 C 
ENDBRANCH   1   7
TORSDOF 1
ENDMDL
