MODEL 1
REMARK minimizedAffinity -3.77649665
REMARK minimizedRMSD -1
REMARK  1 active torsions:
REMARK  status: ('A' for Active; 'I' for Inactive)
REMARK    1  A    between atoms: C1_2  and  C2_3 
ROOT
ATOM      1  C2  UNL d   1      -0.139   0.164  -3.619  0.00  0.00    -0.077 A 
ATOM      2  C3  UNL d   1       0.072   1.376  -2.946  0.00  0.00     0.002 A 
ATOM      3  C4  UNL d   1       1.348   1.722  -2.497  0.00  0.00     0.002 A 
ATOM      4  C5  UNL d   1       2.423   0.864  -2.721  0.00  0.00    -0.004 A 
ATOM      5  C6  UNL d   1       2.223  -0.344  -3.387  0.00  0.00     0.002 A 
ATOM      6  C7  UNL d   1       0.948  -0.692  -3.836  0.00  0.00     0.002 A 
ENDROOT
BRANCH   1   7
ATOM      7  C1  UNL d   1      -1.505  -0.188  -4.147  0.00  0.00     0.055 C 
ATOM      8  C   UNL d   1      -2.178   1.017  -4.789  0.00  0.00     0.019 C 
ENDBRANCH   1   7
TORSDOF 1
ENDMDL
