MODEL 1
REMARK minimizedAffinity -1.42944002
REMARK minimizedRMSD -1
REMARK  1 active torsions:
REMARK  status: ('A' for Active; 'I' for Inactive)
REMARK    1  A    between atoms: C1_2  and  C2_3 
ROOT
ATOM      1  C2  UNL d   1       1.225  -0.295  -3.213  0.00  0.00    -0.077 A 
ATOM      2  C3  UNL d   1      -0.141  -0.319  -3.529  0.00  0.00     0.002 A 
ATOM      3  C4  UNL d   1      -0.949   0.786  -3.254  0.00  0.00     0.002 A 
ATOM      4  C5  UNL d   1      -0.400   1.923  -2.665  0.00  0.00    -0.004 A 
ATOM      5  C6  UNL d   1       0.956   1.956  -2.345  0.00  0.00     0.002 A 
ATOM      6  C7  UNL d   1       1.765   0.853  -2.619  0.00  0.00     0.002 A 
ENDROOT
BRANCH   1   7
ATOM      7  C1  UNL d   1       2.108  -1.466  -3.555  0.00  0.00     0.055 C 
ATOM      8  C   UNL d   1       3.268  -1.044  -4.445  0.00  0.00     0.019 C 
ENDBRANCH   1   7
TORSDOF 1
ENDMDL
