MODEL 1
REMARK minimizedAffinity -3.265347
REMARK minimizedRMSD -1
REMARK  1 active torsions:
REMARK  status: ('A' for Active; 'I' for Inactive)
REMARK    1  A    between atoms: C1_2  and  C2_3 
ROOT
ATOM      1  C2  UNL d   1      -0.165   0.024  -3.672  0.00  0.00    -0.077 A 
ATOM      2  C3  UNL d   1      -0.034   1.169  -2.874  0.00  0.00     0.002 A 
ATOM      3  C4  UNL d   1       1.152   1.413  -2.178  0.00  0.00     0.002 A 
ATOM      4  C5  UNL d   1       2.216   0.519  -2.277  0.00  0.00    -0.004 A 
ATOM      5  C6  UNL d   1       2.094  -0.624  -3.067  0.00  0.00     0.002 A 
ATOM      6  C7  UNL d   1       0.909  -0.870  -3.761  0.00  0.00     0.002 A 
ENDROOT
BRANCH   1   7
ATOM      7  C1  UNL d   1      -1.426  -0.216  -4.461  0.00  0.00     0.055 C 
ATOM      8  C   UNL d   1      -1.908   1.061  -5.135  0.00  0.00     0.019 C 
ENDBRANCH   1   7
TORSDOF 1
ENDMDL
