MODEL 1
REMARK minimizedAffinity -1.65402067
REMARK minimizedRMSD -1
REMARK  1 active torsions:
REMARK  status: ('A' for Active; 'I' for Inactive)
REMARK    1  A    between atoms: C1_2  and  C2_3 
ROOT
ATOM      1  C2  UNL d   1       0.877   0.087  -3.500  0.00  0.00    -0.077 A 
ATOM      2  C3  UNL d   1      -0.437  -0.334  -3.751  0.00  0.00     0.002 A 
ATOM      3  C4  UNL d   1      -1.504   0.553  -3.598  0.00  0.00     0.002 A 
ATOM      4  C5  UNL d   1      -1.269   1.866  -3.196  0.00  0.00    -0.004 A 
ATOM      5  C6  UNL d   1       0.034   2.293  -2.942  0.00  0.00     0.002 A 
ATOM      6  C7  UNL d   1       1.102   1.408  -3.094  0.00  0.00     0.002 A 
ENDROOT
BRANCH   1   7
ATOM      7  C1  UNL d   1       2.034  -0.854  -3.712  0.00  0.00     0.055 C 
ATOM      8  C   UNL d   1       3.264  -0.114  -4.216  0.00  0.00     0.019 C 
ENDBRANCH   1   7
TORSDOF 1
ENDMDL
