MODEL 1
REMARK minimizedAffinity 5.52153254
REMARK minimizedRMSD -1
REMARK  0 active torsions:
REMARK  status: ('A' for Active; 'I' for Inactive)
ROOT
ATOM      1  O1  BZF d   1      -2.002   1.833   1.461  0.00  0.00    -0.204 OA
ATOM      2  C2  BZF d   1      -2.355   0.517   1.234  0.00  0.00     0.174 A 
ATOM      3  C3  BZF d   1      -1.604  -0.316   1.982  0.00  0.00    -0.012 A 
ATOM      4  C3A BZF d   1      -0.789   0.537   2.792  0.00  0.00    -0.107 A 
ATOM      5  C4  BZF d   1       0.154   0.301   3.751  0.00  0.00     0.055 A 
ATOM      6  C5  BZF d   1       0.818   1.353   4.298  0.00  0.00    -0.016 A 
ATOM      7  C6  BZF d   1       0.568   2.652   3.906  0.00  0.00     0.022 A 
ATOM      8  C7  BZF d   1      -0.362   2.936   2.962  0.00  0.00     0.029 A 
ATOM      9  C7A BZF d   1      -1.057   1.878   2.431  0.00  0.00     0.058 A 
ENDROOT
TORSDOF 0
ENDMDL
