MODEL 1
REMARK minimizedAffinity 11.185955
REMARK minimizedRMSD -1
REMARK  0 active torsions:
REMARK  status: ('A' for Active; 'I' for Inactive)
ROOT
ATOM      1  O1  BZF d   1      -5.429   0.376   3.564  0.00  0.00    -0.204 OA
ATOM      2  C2  BZF d   1      -5.006   0.342   4.878  0.00  0.00     0.174 A 
ATOM      3  C3  BZF d   1      -3.662   0.269   4.947  0.00  0.00    -0.012 A 
ATOM      4  C3A BZF d   1      -3.211   0.349   3.592  0.00  0.00    -0.107 A 
ATOM      5  C4  BZF d   1      -1.974   0.345   3.012  0.00  0.00     0.055 A 
ATOM      6  C5  BZF d   1      -1.880   0.363   1.656  0.00  0.00    -0.016 A 
ATOM      7  C6  BZF d   1      -3.000   0.381   0.851  0.00  0.00     0.022 A 
ATOM      8  C7  BZF d   1      -4.248   0.390   1.380  0.00  0.00     0.029 A 
ATOM      9  C7A BZF d   1      -4.346   0.405   2.750  0.00  0.00     0.058 A 
ENDROOT
TORSDOF 0
ENDMDL
