MODEL 1
REMARK minimizedAffinity 3.83887053
REMARK minimizedRMSD -1
REMARK  0 active torsions:
REMARK  status: ('A' for Active; 'I' for Inactive)
ROOT
ATOM      1  O1  BZF d   1      -4.656   3.397   2.927  0.00  0.00    -0.204 OA
ATOM      2  C2  BZF d   1      -3.452   3.791   2.374  0.00  0.00     0.174 A 
ATOM      3  C3  BZF d   1      -2.949   4.855   3.034  0.00  0.00    -0.012 A 
ATOM      4  C3A BZF d   1      -3.851   5.086   4.120  0.00  0.00    -0.107 A 
ATOM      5  C4  BZF d   1      -3.880   5.995   5.138  0.00  0.00     0.055 A 
ATOM      6  C5  BZF d   1      -4.939   5.998   5.990  0.00  0.00    -0.016 A 
ATOM      7  C6  BZF d   1      -5.986   5.111   5.851  0.00  0.00     0.022 A 
ATOM      8  C7  BZF d   1      -5.999   4.187   4.859  0.00  0.00     0.029 A 
ATOM      9  C7A BZF d   1      -4.914   4.160   4.016  0.00  0.00     0.058 A 
ENDROOT
TORSDOF 0
ENDMDL
