MODEL 1
REMARK minimizedAffinity 3.10561132
REMARK minimizedRMSD -1
REMARK  0 active torsions:
REMARK  status: ('A' for Active; 'I' for Inactive)
ROOT
ATOM      1  O1  BZF d   1      -3.490  -5.269  -5.953  0.00  0.00    -0.204 OA
ATOM      2  C2  BZF d   1      -4.837  -4.962  -5.950  0.00  0.00     0.174 A 
ATOM      3  C3  BZF d   1      -5.024  -3.627  -5.903  0.00  0.00    -0.012 A 
ATOM      4  C3A BZF d   1      -3.712  -3.061  -5.969  0.00  0.00    -0.107 A 
ATOM      5  C4  BZF d   1      -3.242  -1.779  -5.979  0.00  0.00     0.055 A 
ATOM      6  C5  BZF d   1      -1.899  -1.568  -5.976  0.00  0.00    -0.016 A 
ATOM      7  C6  BZF d   1      -1.000  -2.613  -5.958  0.00  0.00     0.022 A 
ATOM      8  C7  BZF d   1      -1.418  -3.902  -5.953  0.00  0.00     0.029 A 
ATOM      9  C7A BZF d   1      -2.774  -4.119  -5.989  0.00  0.00     0.058 A 
ENDROOT
TORSDOF 0
ENDMDL
