MODEL 1
REMARK minimizedAffinity 2.88245583
REMARK minimizedRMSD -1
REMARK  0 active torsions:
REMARK  status: ('A' for Active; 'I' for Inactive)
ROOT
ATOM      1  O1  BZF d   1      -1.783  -3.107  -5.958  0.00  0.00    -0.204 OA
ATOM      2  C2  BZF d   1      -1.798  -1.725  -5.947  0.00  0.00     0.174 A 
ATOM      3  C3  BZF d   1      -3.062  -1.260  -5.999  0.00  0.00    -0.012 A 
ATOM      4  C3A BZF d   1      -3.894  -2.424  -5.953  0.00  0.00    -0.107 A 
ATOM      5  C4  BZF d   1      -5.246  -2.612  -5.956  0.00  0.00     0.055 A 
ATOM      6  C5  BZF d   1      -5.736  -3.880  -5.977  0.00  0.00    -0.016 A 
ATOM      7  C6  BZF d   1      -4.904  -4.980  -6.000  0.00  0.00     0.022 A 
ATOM      8  C7  BZF d   1      -3.556  -4.843  -5.992  0.00  0.00     0.029 A 
ATOM      9  C7A BZF d   1      -3.058  -3.564  -5.938  0.00  0.00     0.058 A 
ENDROOT
TORSDOF 0
ENDMDL
