MODEL 1
REMARK minimizedAffinity 14.5507088
REMARK minimizedRMSD -1
REMARK  0 active torsions:
REMARK  status: ('A' for Active; 'I' for Inactive)
ROOT
ATOM      1  O1  BZF d   1      -2.833  -4.436  -5.932  0.00  0.00    -0.204 OA
ATOM      2  C2  BZF d   1      -4.177  -4.755  -5.937  0.00  0.00     0.174 A 
ATOM      3  C3  BZF d   1      -4.933  -3.639  -5.907  0.00  0.00    -0.012 A 
ATOM      4  C3A BZF d   1      -4.004  -2.553  -5.976  0.00  0.00    -0.107 A 
ATOM      5  C4  BZF d   1      -4.147  -1.195  -6.000  0.00  0.00     0.055 A 
ATOM      6  C5  BZF d   1      -3.035  -0.413  -5.996  0.00  0.00    -0.016 A 
ATOM      7  C6  BZF d   1      -1.767  -0.955  -5.962  0.00  0.00     0.022 A 
ATOM      8  C7  BZF d   1      -1.575  -2.297  -5.943  0.00  0.00     0.029 A 
ATOM      9  C7A BZF d   1      -2.696  -3.090  -5.980  0.00  0.00     0.058 A 
ENDROOT
TORSDOF 0
ENDMDL
