MODEL 1
REMARK minimizedAffinity 10.9249001
REMARK minimizedRMSD -1
REMARK  0 active torsions:
REMARK  status: ('A' for Active; 'I' for Inactive)
ROOT
ATOM      1  O1  BZF d   1      -5.516   4.691   6.000  0.00  0.00    -0.204 OA
ATOM      2  C2  BZF d   1      -4.936   5.550   5.087  0.00  0.00     0.174 A 
ATOM      3  C3  BZF d   1      -4.530   4.880   3.990  0.00  0.00    -0.012 A 
ATOM      4  C3A BZF d   1      -4.961   3.531   4.192  0.00  0.00    -0.107 A 
ATOM      5  C4  BZF d   1      -4.866   2.392   3.444  0.00  0.00     0.055 A 
ATOM      6  C5  BZF d   1      -5.325   1.222   3.960  0.00  0.00    -0.016 A 
ATOM      7  C6  BZF d   1      -5.880   1.153   5.222  0.00  0.00     0.022 A 
ATOM      8  C7  BZF d   1      -6.000   2.256   5.999  0.00  0.00     0.029 A 
ATOM      9  C7A BZF d   1      -5.567   3.446   5.467  0.00  0.00     0.058 A 
ENDROOT
TORSDOF 0
ENDMDL
