MODEL 1
REMARK minimizedAffinity -2.16394782
REMARK minimizedRMSD -1
REMARK  0 active torsions:
REMARK  status: ('A' for Active; 'I' for Inactive)
ROOT
ATOM      1  O1  BZF d   1      -3.196   1.814   1.633  0.00  0.00    -0.204 OA
ATOM      2  C2  BZF d   1      -3.415   0.594   1.022  0.00  0.00     0.174 A 
ATOM      3  C3  BZF d   1      -2.457  -0.292   1.365  0.00  0.00    -0.012 A 
ATOM      4  C3A BZF d   1      -1.637   0.391   2.318  0.00  0.00    -0.107 A 
ATOM      5  C4  BZF d   1      -0.533   0.031   3.036  0.00  0.00     0.055 A 
ATOM      6  C5  BZF d   1       0.073   0.956   3.825  0.00  0.00    -0.016 A 
ATOM      7  C6  BZF d   1      -0.394   2.251   3.917  0.00  0.00     0.022 A 
ATOM      8  C7  BZF d   1      -1.490   2.654   3.227  0.00  0.00     0.029 A 
ATOM      9  C7A BZF d   1      -2.124   1.712   2.454  0.00  0.00     0.058 A 
ENDROOT
TORSDOF 0
ENDMDL
