MODEL 1
REMARK minimizedAffinity 5.91122293
REMARK minimizedRMSD -1
REMARK  0 active torsions:
REMARK  status: ('A' for Active; 'I' for Inactive)
ROOT
ATOM      1  O1  BZF d   1       2.284  -3.757   1.859  0.00  0.00    -0.204 OA
ATOM      2  C2  BZF d   1       1.560  -4.934   1.861  0.00  0.00     0.174 A 
ATOM      3  C3  BZF d   1       2.376  -5.997   2.012  0.00  0.00    -0.012 A 
ATOM      4  C3A BZF d   1       3.682  -5.445   2.202  0.00  0.00    -0.107 A 
ATOM      5  C4  BZF d   1       4.912  -5.997   2.419  0.00  0.00     0.055 A 
ATOM      6  C5  BZF d   1       5.999  -5.183   2.489  0.00  0.00    -0.016 A 
ATOM      7  C6  BZF d   1       5.892  -3.815   2.340  0.00  0.00     0.022 A 
ATOM      8  C7  BZF d   1       4.692  -3.222   2.128  0.00  0.00     0.029 A 
ATOM      9  C7A BZF d   1       3.589  -4.038   2.090  0.00  0.00     0.058 A 
ENDROOT
TORSDOF 0
ENDMDL
