MODEL 1
REMARK minimizedAffinity 12.266613
REMARK minimizedRMSD -1
REMARK  0 active torsions:
REMARK  status: ('A' for Active; 'I' for Inactive)
ROOT
ATOM      1  O1  BZF d   1      -2.424   1.095   1.455  0.00  0.00    -0.204 OA
ATOM      2  C2  BZF d   1      -1.167   1.032   2.025  0.00  0.00     0.174 A 
ATOM      3  C3  BZF d   1      -0.735  -0.244   2.092  0.00  0.00    -0.012 A 
ATOM      4  C3A BZF d   1      -1.749  -1.019   1.443  0.00  0.00    -0.107 A 
ATOM      5  C4  BZF d   1      -1.887  -2.351   1.178  0.00  0.00     0.055 A 
ATOM      6  C5  BZF d   1      -3.031  -2.793   0.594  0.00  0.00    -0.016 A 
ATOM      7  C6  BZF d   1      -4.059  -1.933   0.267  0.00  0.00     0.022 A 
ATOM      8  C7  BZF d   1      -3.966  -0.602   0.506  0.00  0.00     0.029 A 
ATOM      9  C7A BZF d   1      -2.797  -0.148   1.066  0.00  0.00     0.058 A 
ENDROOT
TORSDOF 0
ENDMDL
