MODEL 1
REMARK minimizedAffinity 8.24009418
REMARK minimizedRMSD -1
REMARK  0 active torsions:
REMARK  status: ('A' for Active; 'I' for Inactive)
ROOT
ATOM      1  O1  BZF d   1       4.450   0.726  -4.703  0.00  0.00    -0.204 OA
ATOM      2  C2  BZF d   1       4.350   0.120  -5.940  0.00  0.00     0.174 A 
ATOM      3  C3  BZF d   1       3.265  -0.679  -5.995  0.00  0.00    -0.012 A 
ATOM      4  C3A BZF d   1       2.597  -0.494  -4.743  0.00  0.00    -0.107 A 
ATOM      5  C4  BZF d   1       1.450  -1.005  -4.206  0.00  0.00     0.055 A 
ATOM      6  C5  BZF d   1       1.115  -0.677  -2.930  0.00  0.00    -0.016 A 
ATOM      7  C6  BZF d   1       1.905   0.154  -2.163  0.00  0.00     0.022 A 
ATOM      8  C7  BZF d   1       3.049   0.689  -2.654  0.00  0.00     0.029 A 
ATOM      9  C7A BZF d   1       3.373   0.386  -3.954  0.00  0.00     0.058 A 
ENDROOT
TORSDOF 0
ENDMDL
