MODEL 1
REMARK minimizedAffinity 10.1467228
REMARK minimizedRMSD -1
REMARK  0 active torsions:
REMARK  status: ('A' for Active; 'I' for Inactive)
ROOT
ATOM      1  O1  BZF d   1       5.825  -2.479   2.734  0.00  0.00    -0.204 OA
ATOM      2  C2  BZF d   1       5.805  -1.281   3.420  0.00  0.00     0.174 A 
ATOM      3  C3  BZF d   1       5.766  -1.492   4.752  0.00  0.00    -0.012 A 
ATOM      4  C3A BZF d   1       5.855  -2.911   4.910  0.00  0.00    -0.107 A 
ATOM      5  C4  BZF d   1       5.881  -3.735   5.999  0.00  0.00     0.055 A 
ATOM      6  C5  BZF d   1       5.898  -5.080   5.810  0.00  0.00    -0.016 A 
ATOM      7  C6  BZF d   1       5.885  -5.636   4.547  0.00  0.00     0.022 A 
ATOM      8  C7  BZF d   1       5.864  -4.860   3.436  0.00  0.00     0.029 A 
ATOM      9  C7A BZF d   1       5.880  -3.499   3.624  0.00  0.00     0.058 A 
ENDROOT
TORSDOF 0
ENDMDL
