MODEL 1
REMARK minimizedAffinity 12.5733919
REMARK minimizedRMSD -1
REMARK  0 active torsions:
REMARK  status: ('A' for Active; 'I' for Inactive)
ROOT
ATOM      1  O1  BZF d   1       5.943  -1.603   4.799  0.00  0.00    -0.204 OA
ATOM      2  C2  BZF d   1       5.937  -0.829   5.943  0.00  0.00     0.174 A 
ATOM      3  C3  BZF d   1       5.998   0.483   5.633  0.00  0.00    -0.012 A 
ATOM      4  C3A BZF d   1       5.953   0.535   4.204  0.00  0.00    -0.107 A 
ATOM      5  C4  BZF d   1       5.964   1.559   3.301  0.00  0.00     0.055 A 
ATOM      6  C5  BZF d   1       5.982   1.269   1.974  0.00  0.00    -0.016 A 
ATOM      7  C6  BZF d   1       5.996  -0.032   1.515  0.00  0.00     0.022 A 
ATOM      8  C7  BZF d   1       5.981  -1.081   2.372  0.00  0.00     0.029 A 
ATOM      9  C7A BZF d   1       5.929  -0.792   3.714  0.00  0.00     0.058 A 
ENDROOT
TORSDOF 0
ENDMDL
