MODEL 1
REMARK minimizedAffinity 6.95504379
REMARK minimizedRMSD -1
REMARK  0 active torsions:
REMARK  status: ('A' for Active; 'I' for Inactive)
ROOT
ATOM      1  O1  BZF d   1      -1.831   1.500   1.942  0.00  0.00    -0.204 OA
ATOM      2  C2  BZF d   1      -0.499   1.263   2.224  0.00  0.00     0.174 A 
ATOM      3  C3  BZF d   1      -0.150   0.012   1.862  0.00  0.00    -0.012 A 
ATOM      4  C3A BZF d   1      -1.313  -0.538   1.236  0.00  0.00    -0.107 A 
ATOM      5  C4  BZF d   1      -1.586  -1.743   0.654  0.00  0.00     0.055 A 
ATOM      6  C5  BZF d   1      -2.843  -1.989   0.202  0.00  0.00    -0.016 A 
ATOM      7  C6  BZF d   1      -3.853  -1.056   0.320  0.00  0.00     0.022 A 
ATOM      8  C7  BZF d   1      -3.629   0.155   0.885  0.00  0.00     0.029 A 
ATOM      9  C7A BZF d   1      -2.351   0.419   1.313  0.00  0.00     0.058 A 
ENDROOT
TORSDOF 0
ENDMDL
