MODEL 1
REMARK minimizedAffinity 7.46420193
REMARK minimizedRMSD -1
REMARK  0 active torsions:
REMARK  status: ('A' for Active; 'I' for Inactive)
ROOT
ATOM      1  O1  BZF d   1      -2.638   1.465   1.819  0.00  0.00    -0.204 OA
ATOM      2  C2  BZF d   1      -1.420   0.945   2.212  0.00  0.00     0.174 A 
ATOM      3  C3  BZF d   1      -1.368  -0.382   1.977  0.00  0.00    -0.012 A 
ATOM      4  C3A BZF d   1      -2.598  -0.695   1.315  0.00  0.00    -0.107 A 
ATOM      5  C4  BZF d   1      -3.126  -1.850   0.814  0.00  0.00     0.055 A 
ATOM      6  C5  BZF d   1      -4.382  -1.831   0.295  0.00  0.00    -0.016 A 
ATOM      7  C6  BZF d   1      -5.138  -0.677   0.266  0.00  0.00     0.022 A 
ATOM      8  C7  BZF d   1      -4.654   0.494   0.747  0.00  0.00     0.029 A 
ATOM      9  C7A BZF d   1      -3.373   0.485   1.242  0.00  0.00     0.058 A 
ENDROOT
TORSDOF 0
ENDMDL
