MODEL 1
REMARK minimizedAffinity 5.92959452
REMARK minimizedRMSD -1
REMARK  0 active torsions:
REMARK  status: ('A' for Active; 'I' for Inactive)
ROOT
ATOM      1  O1  BZF d   1      -2.230  -4.497  -5.990  0.00  0.00    -0.204 OA
ATOM      2  C2  BZF d   1      -3.519  -4.993  -5.999  0.00  0.00     0.174 A 
ATOM      3  C3  BZF d   1      -4.418  -3.991  -5.929  0.00  0.00    -0.012 A 
ATOM      4  C3A BZF d   1      -3.644  -2.788  -5.966  0.00  0.00    -0.107 A 
ATOM      5  C4  BZF d   1      -3.969  -1.461  -5.944  0.00  0.00     0.055 A 
ATOM      6  C5  BZF d   1      -2.972  -0.538  -5.919  0.00  0.00    -0.016 A 
ATOM      7  C6  BZF d   1      -1.642  -0.905  -5.909  0.00  0.00     0.022 A 
ATOM      8  C7  BZF d   1      -1.271  -2.208  -5.935  0.00  0.00     0.029 A 
ATOM      9  C7A BZF d   1      -2.276  -3.143  -5.994  0.00  0.00     0.058 A 
ENDROOT
TORSDOF 0
ENDMDL
