MODEL 1
REMARK minimizedAffinity 5.29181862
REMARK minimizedRMSD -1
REMARK  0 active torsions:
REMARK  status: ('A' for Active; 'I' for Inactive)
ROOT
ATOM      1  O1  BZF d   1      -1.410   0.083   3.706  0.00  0.00    -0.204 OA
ATOM      2  C2  BZF d   1      -0.526   0.360   2.681  0.00  0.00     0.174 A 
ATOM      3  C3  BZF d   1      -1.189   0.665   1.547  0.00  0.00    -0.012 A 
ATOM      4  C3A BZF d   1      -2.573   0.664   1.909  0.00  0.00    -0.107 A 
ATOM      5  C4  BZF d   1      -3.724   0.911   1.217  0.00  0.00     0.055 A 
ATOM      6  C5  BZF d   1      -4.919   0.755   1.845  0.00  0.00    -0.016 A 
ATOM      7  C6  BZF d   1      -4.999   0.348   3.161  0.00  0.00     0.022 A 
ATOM      8  C7  BZF d   1      -3.885   0.096   3.890  0.00  0.00     0.029 A 
ATOM      9  C7A BZF d   1      -2.675   0.285   3.267  0.00  0.00     0.058 A 
ENDROOT
TORSDOF 0
ENDMDL
