MODEL 1
REMARK minimizedAffinity 14.1910152
REMARK minimizedRMSD -1
REMARK  0 active torsions:
REMARK  status: ('A' for Active; 'I' for Inactive)
ROOT
ATOM      1  O1  BZF d   1      -6.000   0.353   3.213  0.00  0.00    -0.204 OA
ATOM      2  C2  BZF d   1      -5.573   0.443   4.523  0.00  0.00     0.174 A 
ATOM      3  C3  BZF d   1      -4.243   0.659   4.580  0.00  0.00    -0.012 A 
ATOM      4  C3A BZF d   1      -3.827   0.800   3.218  0.00  0.00    -0.107 A 
ATOM      5  C4  BZF d   1      -2.621   1.045   2.625  0.00  0.00     0.055 A 
ATOM      6  C5  BZF d   1      -2.541   1.049   1.269  0.00  0.00    -0.016 A 
ATOM      7  C6  BZF d   1      -3.643   0.808   0.475  0.00  0.00     0.022 A 
ATOM      8  C7  BZF d   1      -4.861   0.565   1.017  0.00  0.00     0.029 A 
ATOM      9  C7A BZF d   1      -4.952   0.592   2.388  0.00  0.00     0.058 A 
ENDROOT
TORSDOF 0
ENDMDL
