MODEL 1
REMARK minimizedAffinity 3.7558887
REMARK minimizedRMSD -1
REMARK  0 active torsions:
REMARK  status: ('A' for Active; 'I' for Inactive)
ROOT
ATOM      1  O1  BZF d   1      -1.897   1.468   2.493  0.00  0.00    -0.204 OA
ATOM      2  C2  BZF d   1      -2.162   2.503   3.370  0.00  0.00     0.174 A 
ATOM      3  C3  BZF d   1      -1.062   2.819   4.083  0.00  0.00    -0.012 A 
ATOM      4  C3A BZF d   1      -0.022   1.987   3.559  0.00  0.00    -0.107 A 
ATOM      5  C4  BZF d   1       1.306   1.850   3.849  0.00  0.00     0.055 A 
ATOM      6  C5  BZF d   1       2.027   0.896   3.204  0.00  0.00    -0.016 A 
ATOM      7  C6  BZF d   1       1.453   0.060   2.269  0.00  0.00     0.022 A 
ATOM      8  C7  BZF d   1       0.141   0.161   1.945  0.00  0.00     0.029 A 
ATOM      9  C7A BZF d   1      -0.583   1.146   2.571  0.00  0.00     0.058 A 
ENDROOT
TORSDOF 0
ENDMDL
