MODEL 1
REMARK minimizedAffinity 1.878878
REMARK minimizedRMSD -1
REMARK  0 active torsions:
REMARK  status: ('A' for Active; 'I' for Inactive)
ROOT
ATOM      1  N1  IND d   1      -2.969   1.705   3.742  0.00  0.00    -0.196 N 
ATOM      2  C2  IND d   1      -2.823   2.016   5.065  0.00  0.00     0.054 A 
ATOM      3  C3  IND d   1      -3.530   1.156   5.832  0.00  0.00    -0.031 A 
ATOM      4  C4  IND d   1      -4.917  -0.897   5.133  0.00  0.00     0.051 A 
ATOM      5  C5  IND d   1      -5.376  -1.563   4.031  0.00  0.00    -0.031 A 
ATOM      6  C6  IND d   1      -5.047  -1.167   2.751  0.00  0.00     0.015 A 
ATOM      7  C7  IND d   1      -4.234  -0.093   2.524  0.00  0.00    -0.016 A 
ATOM      8  C8  IND d   1      -3.772   0.590   3.640  0.00  0.00    -0.047 A 
ATOM      9  C9  IND d   1      -4.137   0.219   4.941  0.00  0.00    -0.096 A 
ATOM     10  HN1 IND d   1      -2.618   2.133   3.084  0.00  0.00     0.298 HD
ENDROOT
TORSDOF 0
ENDMDL
