MODEL 1
REMARK minimizedAffinity 9.13175583
REMARK minimizedRMSD -1
REMARK  0 active torsions:
REMARK  status: ('A' for Active; 'I' for Inactive)
ROOT
ATOM      1  N1  IND d   1      -3.724   0.427   5.542  0.00  0.00    -0.196 N 
ATOM      2  C2  IND d   1      -2.847   1.260   4.904  0.00  0.00     0.054 A 
ATOM      3  C3  IND d   1      -2.733   0.915   3.602  0.00  0.00    -0.031 A 
ATOM      4  C4  IND d   1      -3.968  -0.918   2.281  0.00  0.00     0.051 A 
ATOM      5  C5  IND d   1      -4.839  -1.959   2.440  0.00  0.00    -0.031 A 
ATOM      6  C6  IND d   1      -5.397  -2.262   3.666  0.00  0.00     0.015 A 
ATOM      7  C7  IND d   1      -5.111  -1.525   4.780  0.00  0.00    -0.016 A 
ATOM      8  C8  IND d   1      -4.221  -0.472   4.624  0.00  0.00    -0.047 A 
ATOM      9  C9  IND d   1      -3.619  -0.186   3.392  0.00  0.00    -0.096 A 
ATOM     10  HN1 IND d   1      -3.930   0.459   6.376  0.00  0.00     0.298 HD
ENDROOT
TORSDOF 0
ENDMDL
