MODEL 1
REMARK minimizedAffinity 16.3369579
REMARK minimizedRMSD -1
REMARK  0 active torsions:
REMARK  status: ('A' for Active; 'I' for Inactive)
ROOT
ATOM      1  N1  IND d   1      -5.894  -2.668   4.431  0.00  0.00    -0.196 N 
ATOM      2  C2  IND d   1      -5.966  -2.305   5.747  0.00  0.00     0.054 A 
ATOM      3  C3  IND d   1      -5.521  -1.038   5.910  0.00  0.00    -0.031 A 
ATOM      4  C4  IND d   1      -4.727   0.656   4.142  0.00  0.00     0.051 A 
ATOM      5  C5  IND d   1      -4.451   0.772   2.808  0.00  0.00    -0.031 A 
ATOM      6  C6  IND d   1      -4.649  -0.273   1.929  0.00  0.00     0.015 A 
ATOM      7  C7  IND d   1      -5.143  -1.475   2.351  0.00  0.00    -0.016 A 
ATOM      8  C8  IND d   1      -5.417  -1.599   3.706  0.00  0.00    -0.047 A 
ATOM      9  C9  IND d   1      -5.178  -0.555   4.610  0.00  0.00    -0.096 A 
ATOM     10  HN1 IND d   1      -6.111  -3.436   4.111  0.00  0.00     0.298 HD
ENDROOT
TORSDOF 0
ENDMDL
