MODEL 1
REMARK minimizedAffinity -2.3012898
REMARK minimizedRMSD -1
REMARK  0 active torsions:
REMARK  status: ('A' for Active; 'I' for Inactive)
ROOT
ATOM      1  N1  IND d   1       6.000  -4.298   0.184  0.00  0.00    -0.196 N 
ATOM      2  C2  IND d   1       5.760  -5.622  -0.059  0.00  0.00     0.054 A 
ATOM      3  C3  IND d   1       4.480  -5.804  -0.455  0.00  0.00    -0.031 A 
ATOM      4  C4  IND d   1       2.634  -4.059  -0.871  0.00  0.00     0.051 A 
ATOM      5  C5  IND d   1       2.366  -2.724  -0.751  0.00  0.00    -0.031 A 
ATOM      6  C6  IND d   1       3.316  -1.827  -0.308  0.00  0.00     0.015 A 
ATOM      7  C7  IND d   1       4.578  -2.232   0.024  0.00  0.00    -0.016 A 
ATOM      8  C8  IND d   1       4.851  -3.588  -0.090  0.00  0.00    -0.047 A 
ATOM      9  C9  IND d   1       3.878  -4.509  -0.499  0.00  0.00    -0.096 A 
ATOM     10  HN1 IND d   1       6.742  -3.965   0.460  0.00  0.00     0.298 HD
ENDROOT
TORSDOF 0
ENDMDL
