MODEL 1
REMARK minimizedAffinity -2.19733191
REMARK minimizedRMSD -1
REMARK  0 active torsions:
REMARK  status: ('A' for Active; 'I' for Inactive)
ROOT
ATOM      1  N1  IND d   1       3.540  -5.429   0.058  0.00  0.00    -0.196 N 
ATOM      2  C2  IND d   1       4.626  -5.152  -0.725  0.00  0.00     0.054 A 
ATOM      3  C3  IND d   1       4.514  -3.917  -1.264  0.00  0.00    -0.031 A 
ATOM      4  C4  IND d   1       2.685  -2.139  -0.915  0.00  0.00     0.051 A 
ATOM      5  C5  IND d   1       1.472  -1.945  -0.315  0.00  0.00    -0.031 A 
ATOM      6  C6  IND d   1       0.877  -2.920   0.458  0.00  0.00     0.015 A 
ATOM      7  C7  IND d   1       1.479  -4.128   0.670  0.00  0.00    -0.016 A 
ATOM      8  C8  IND d   1       2.707  -4.332   0.056  0.00  0.00    -0.047 A 
ATOM      9  C9  IND d   1       3.297  -3.361  -0.764  0.00  0.00    -0.096 A 
ATOM     10  HN1 IND d   1       3.401  -6.165   0.481  0.00  0.00     0.298 HD
ENDROOT
TORSDOF 0
ENDMDL
