MODEL 1
REMARK minimizedAffinity -4.84811687
REMARK minimizedRMSD -1
REMARK  0 active torsions:
REMARK  status: ('A' for Active; 'I' for Inactive)
ROOT
ATOM      1  N1  IND d   1       2.099  -4.752   0.757  0.00  0.00    -0.196 N 
ATOM      2  C2  IND d   1       1.603  -3.612   0.188  0.00  0.00     0.054 A 
ATOM      3  C3  IND d   1       2.512  -3.071  -0.654  0.00  0.00    -0.031 A 
ATOM      4  C4  IND d   1       4.838  -3.944  -1.327  0.00  0.00     0.051 A 
ATOM      5  C5  IND d   1       5.743  -4.929  -1.044  0.00  0.00    -0.031 A 
ATOM      6  C6  IND d   1       5.473  -5.927  -0.130  0.00  0.00     0.015 A 
ATOM      7  C7  IND d   1       4.278  -5.983   0.530  0.00  0.00    -0.016 A 
ATOM      8  C8  IND d   1       3.360  -4.981   0.250  0.00  0.00    -0.047 A 
ATOM      9  C9  IND d   1       3.645  -3.942  -0.645  0.00  0.00    -0.096 A 
ATOM     10  HN1 IND d   1       1.693  -5.242   1.334  0.00  0.00     0.298 HD
ENDROOT
TORSDOF 0
ENDMDL
