MODEL 1
REMARK minimizedAffinity -2.82592726
REMARK minimizedRMSD -1
REMARK  0 active torsions:
REMARK  status: ('A' for Active; 'I' for Inactive)
ROOT
ATOM      1  N1  IND d   1       5.994  -5.219  -1.131  0.00  0.00    -0.196 N 
ATOM      2  C2  IND d   1       5.934  -5.999  -0.010  0.00  0.00     0.054 A 
ATOM      3  C3  IND d   1       4.864  -5.658   0.743  0.00  0.00    -0.031 A 
ATOM      4  C4  IND d   1       3.023  -3.920   0.277  0.00  0.00     0.051 A 
ATOM      5  C5  IND d   1       2.668  -2.937  -0.603  0.00  0.00    -0.031 A 
ATOM      6  C6  IND d   1       3.417  -2.660  -1.728  0.00  0.00     0.015 A 
ATOM      7  C7  IND d   1       4.548  -3.368  -2.023  0.00  0.00    -0.016 A 
ATOM      8  C8  IND d   1       4.915  -4.362  -1.128  0.00  0.00    -0.047 A 
ATOM      9  C9  IND d   1       4.183  -4.619   0.038  0.00  0.00    -0.096 A 
ATOM     10  HN1 IND d   1       6.603  -5.257  -1.737  0.00  0.00     0.298 HD
ENDROOT
TORSDOF 0
ENDMDL
