MODEL 1
REMARK minimizedAffinity -1.50603712
REMARK minimizedRMSD -1
REMARK  0 active torsions:
REMARK  status: ('A' for Active; 'I' for Inactive)
ROOT
ATOM      1  N1  IND d   1       1.398  -1.562   0.368  0.00  0.00    -0.196 N 
ATOM      2  C2  IND d   1       1.043  -2.605   1.177  0.00  0.00     0.054 A 
ATOM      3  C3  IND d   1       1.697  -3.730   0.811  0.00  0.00    -0.031 A 
ATOM      4  C4  IND d   1       3.473  -4.064  -1.023  0.00  0.00     0.051 A 
ATOM      5  C5  IND d   1       4.100  -3.412  -2.048  0.00  0.00    -0.031 A 
ATOM      6  C6  IND d   1       3.855  -2.082  -2.323  0.00  0.00     0.015 A 
ATOM      7  C7  IND d   1       2.979  -1.349  -1.574  0.00  0.00    -0.016 A 
ATOM      8  C8  IND d   1       2.335  -2.010  -0.537  0.00  0.00    -0.047 A 
ATOM      9  C9  IND d   1       2.548  -3.370  -0.279  0.00  0.00    -0.096 A 
ATOM     10  HN1 IND d   1       1.088  -0.762   0.416  0.00  0.00     0.298 HD
ENDROOT
TORSDOF 0
ENDMDL
