MODEL 1
REMARK minimizedAffinity -3.68168592
REMARK minimizedRMSD -1
REMARK  0 active torsions:
REMARK  status: ('A' for Active; 'I' for Inactive)
ROOT
ATOM      1  N1  IND d   1       4.965  -4.959   0.025  0.00  0.00    -0.196 N 
ATOM      2  C2  IND d   1       5.852  -4.914  -1.014  0.00  0.00     0.054 A 
ATOM      3  C3  IND d   1       5.419  -4.056  -1.965  0.00  0.00    -0.031 A 
ATOM      4  C4  IND d   1       3.335  -2.543  -1.977  0.00  0.00     0.051 A 
ATOM      5  C5  IND d   1       2.205  -2.262  -1.262  0.00  0.00    -0.031 A 
ATOM      6  C6  IND d   1       1.932  -2.875  -0.057  0.00  0.00     0.015 A 
ATOM      7  C7  IND d   1       2.790  -3.789   0.488  0.00  0.00    -0.016 A 
ATOM      8  C8  IND d   1       3.936  -4.082  -0.238  0.00  0.00    -0.047 A 
ATOM      9  C9  IND d   1       4.197  -3.495  -1.483  0.00  0.00    -0.096 A 
ATOM     10  HN1 IND d   1       5.038  -5.452   0.726  0.00  0.00     0.298 HD
ENDROOT
TORSDOF 0
ENDMDL
