MODEL 1
REMARK minimizedAffinity -2.62034321
REMARK minimizedRMSD -1
REMARK  0 active torsions:
REMARK  status: ('A' for Active; 'I' for Inactive)
ROOT
ATOM      1  N1  IND d   1       6.000  -5.155  -1.114  0.00  0.00    -0.196 N 
ATOM      2  C2  IND d   1       5.449  -5.999  -0.190  0.00  0.00     0.054 A 
ATOM      3  C3  IND d   1       4.223  -5.562   0.175  0.00  0.00    -0.031 A 
ATOM      4  C4  IND d   1       2.883  -3.541  -0.691  0.00  0.00     0.051 A 
ATOM      5  C5  IND d   1       2.984  -2.453  -1.512  0.00  0.00    -0.031 A 
ATOM      6  C6  IND d   1       4.118  -2.207  -2.259  0.00  0.00     0.015 A 
ATOM      7  C7  IND d   1       5.193  -3.049  -2.222  0.00  0.00    -0.016 A 
ATOM      8  C8  IND d   1       5.096  -4.151  -1.384  0.00  0.00    -0.047 A 
ATOM      9  C9  IND d   1       3.965  -4.383  -0.591  0.00  0.00    -0.096 A 
ATOM     10  HN1 IND d   1       6.780  -5.237  -1.466  0.00  0.00     0.298 HD
ENDROOT
TORSDOF 0
ENDMDL
