MODEL 1
REMARK minimizedAffinity -1.48007607
REMARK minimizedRMSD -1
REMARK  0 active torsions:
REMARK  status: ('A' for Active; 'I' for Inactive)
ROOT
ATOM      1  N1  IND d   1       4.148  -5.598  -1.295  0.00  0.00    -0.196 N 
ATOM      2  C2  IND d   1       5.181  -4.988  -1.950  0.00  0.00     0.054 A 
ATOM      3  C3  IND d   1       4.988  -3.650  -1.988  0.00  0.00    -0.031 A 
ATOM      4  C4  IND d   1       3.099  -2.239  -0.953  0.00  0.00     0.051 A 
ATOM      5  C5  IND d   1       1.910  -2.353  -0.290  0.00  0.00    -0.031 A 
ATOM      6  C6  IND d   1       1.396  -3.579   0.082  0.00  0.00     0.015 A 
ATOM      7  C7  IND d   1       2.062  -4.741  -0.187  0.00  0.00    -0.016 A 
ATOM      8  C8  IND d   1       3.267  -4.630  -0.866  0.00  0.00    -0.047 A 
ATOM      9  C9  IND d   1       3.772  -3.392  -1.283  0.00  0.00    -0.096 A 
ATOM     10  HN1 IND d   1       4.062  -6.445  -1.172  0.00  0.00     0.298 HD
ENDROOT
TORSDOF 0
ENDMDL
