MODEL 1
REMARK minimizedAffinity 5.83148336
REMARK minimizedRMSD -1
REMARK  0 active torsions:
REMARK  status: ('A' for Active; 'I' for Inactive)
ROOT
ATOM      1  N1  IND d   1      -2.849   0.632  -0.828  0.00  0.00    -0.196 N 
ATOM      2  C2  IND d   1      -3.367   1.686  -0.128  0.00  0.00     0.054 A 
ATOM      3  C3  IND d   1      -3.168   1.514   1.198  0.00  0.00    -0.031 A 
ATOM      4  C4  IND d   1      -1.926  -0.371   2.434  0.00  0.00     0.051 A 
ATOM      5  C5  IND d   1      -1.312  -1.575   2.225  0.00  0.00    -0.031 A 
ATOM      6  C6  IND d   1      -1.175  -2.113   0.962  0.00  0.00     0.015 A 
ATOM      7  C7  IND d   1      -1.637  -1.460  -0.145  0.00  0.00    -0.016 A 
ATOM      8  C8  IND d   1      -2.267  -0.242   0.064  0.00  0.00    -0.047 A 
ATOM      9  C9  IND d   1      -2.447   0.290   1.347  0.00  0.00    -0.096 A 
ATOM     10  HN1 IND d   1      -2.881   0.532  -1.681  0.00  0.00     0.298 HD
ENDROOT
TORSDOF 0
ENDMDL
