MODEL 1
REMARK minimizedAffinity 11.1173334
REMARK minimizedRMSD -1
REMARK  0 active torsions:
REMARK  status: ('A' for Active; 'I' for Inactive)
ROOT
ATOM      1  N1  IND d   1       0.661   3.909  -4.601  0.00  0.00    -0.196 N 
ATOM      2  C2  IND d   1      -0.224   4.946  -4.705  0.00  0.00     0.054 A 
ATOM      3  C3  IND d   1      -0.546   5.414  -3.478  0.00  0.00    -0.031 A 
ATOM      4  C4  IND d   1       0.338   4.694  -1.169  0.00  0.00     0.051 A 
ATOM      5  C5  IND d   1       1.134   3.763  -0.563  0.00  0.00    -0.031 A 
ATOM      6  C6  IND d   1       1.829   2.816  -1.286  0.00  0.00     0.015 A 
ATOM      7  C7  IND d   1       1.763   2.772  -2.650  0.00  0.00    -0.016 A 
ATOM      8  C8  IND d   1       0.950   3.711  -3.269  0.00  0.00    -0.047 A 
ATOM      9  C9  IND d   1       0.208   4.647  -2.537  0.00  0.00    -0.096 A 
ATOM     10  HN1 IND d   1       0.983   3.457  -5.258  0.00  0.00     0.298 HD
ENDROOT
TORSDOF 0
ENDMDL
