MODEL 1
REMARK minimizedAffinity 12.7226934
REMARK minimizedRMSD -1
REMARK  0 active torsions:
REMARK  status: ('A' for Active; 'I' for Inactive)
ROOT
ATOM      1  N1  IND d   1      -2.067   3.848   0.862  0.00  0.00    -0.196 N 
ATOM      2  C2  IND d   1      -2.675   4.599  -0.106  0.00  0.00     0.054 A 
ATOM      3  C3  IND d   1      -3.673   3.896  -0.689  0.00  0.00    -0.031 A 
ATOM      4  C4  IND d   1      -4.549   1.538  -0.141  0.00  0.00     0.051 A 
ATOM      5  C5  IND d   1      -4.290   0.448   0.641  0.00  0.00    -0.031 A 
ATOM      6  C6  IND d   1      -3.258   0.435   1.557  0.00  0.00     0.015 A 
ATOM      7  C7  IND d   1      -2.449   1.523   1.733  0.00  0.00    -0.016 A 
ATOM      8  C8  IND d   1      -2.705   2.630   0.936  0.00  0.00    -0.047 A 
ATOM      9  C9  IND d   1      -3.724   2.632  -0.025  0.00  0.00    -0.096 A 
ATOM     10  HN1 IND d   1      -1.399   4.096   1.343  0.00  0.00     0.298 HD
ENDROOT
TORSDOF 0
ENDMDL
