MODEL 1
REMARK minimizedAffinity -1.05311263
REMARK minimizedRMSD -1
REMARK  0 active torsions:
REMARK  status: ('A' for Active; 'I' for Inactive)
ROOT
ATOM      1  N1  IND d   1       3.462  -5.526  -0.310  0.00  0.00    -0.196 N 
ATOM      2  C2  IND d   1       4.794  -5.246  -0.438  0.00  0.00     0.054 A 
ATOM      3  C3  IND d   1       5.017  -3.926  -0.254  0.00  0.00    -0.031 A 
ATOM      4  C4  IND d   1       3.359  -2.057   0.367  0.00  0.00     0.051 A 
ATOM      5  C5  IND d   1       2.026  -1.819   0.556  0.00  0.00    -0.031 A 
ATOM      6  C6  IND d   1       1.086  -2.824   0.466  0.00  0.00     0.015 A 
ATOM      7  C7  IND d   1       1.445  -4.114   0.195  0.00  0.00    -0.016 A 
ATOM      8  C8  IND d   1       2.797  -4.359  -0.004  0.00  0.00    -0.047 A 
ATOM      9  C9  IND d   1       3.751  -3.335   0.043  0.00  0.00    -0.096 A 
ATOM     10  HN1 IND d   1       3.100  -6.300  -0.405  0.00  0.00     0.298 HD
ENDROOT
TORSDOF 0
ENDMDL
