MODEL 1
REMARK minimizedAffinity 9.69285774
REMARK minimizedRMSD -1
REMARK  0 active torsions:
REMARK  status: ('A' for Active; 'I' for Inactive)
ROOT
ATOM      1  N1  IND d   1       3.790   5.067   1.692  0.00  0.00    -0.196 N 
ATOM      2  C2  IND d   1       4.782   6.000   1.573  0.00  0.00     0.054 A 
ATOM      3  C3  IND d   1       5.621   5.667   0.567  0.00  0.00    -0.031 A 
ATOM      4  C4  IND d   1       5.500   3.692  -1.080  0.00  0.00     0.051 A 
ATOM      5  C5  IND d   1       4.794   2.552  -1.344  0.00  0.00    -0.031 A 
ATOM      6  C6  IND d   1       3.693   2.186  -0.597  0.00  0.00     0.015 A 
ATOM      7  C7  IND d   1       3.249   2.956   0.440  0.00  0.00    -0.016 A 
ATOM      8  C8  IND d   1       3.967   4.111   0.716  0.00  0.00    -0.047 A 
ATOM      9  C9  IND d   1       5.110   4.465  -0.012  0.00  0.00    -0.096 A 
ATOM     10  HN1 IND d   1       3.160   5.076   2.278  0.00  0.00     0.298 HD
ENDROOT
TORSDOF 0
ENDMDL
