MODEL 1
REMARK minimizedAffinity 3.92235899
REMARK minimizedRMSD -1
REMARK  0 active torsions:
REMARK  status: ('A' for Active; 'I' for Inactive)
ROOT
ATOM      1  N1  IND d   1       2.134   5.999   1.864  0.00  0.00    -0.196 N 
ATOM      2  C2  IND d   1       1.057   5.254   1.470  0.00  0.00     0.054 A 
ATOM      3  C3  IND d   1       1.426   4.355   0.530  0.00  0.00    -0.031 A 
ATOM      4  C4  IND d   1       3.760   3.863  -0.437  0.00  0.00     0.051 A 
ATOM      5  C5  IND d   1       5.052   4.308  -0.412  0.00  0.00    -0.031 A 
ATOM      6  C6  IND d   1       5.446   5.359   0.390  0.00  0.00     0.015 A 
ATOM      7  C7  IND d   1       4.561   5.999   1.211  0.00  0.00    -0.016 A 
ATOM      8  C8  IND d   1       3.247   5.555   1.183  0.00  0.00    -0.047 A 
ATOM      9  C9  IND d   1       2.832   4.516   0.339  0.00  0.00    -0.096 A 
ATOM     10  HN1 IND d   1       2.119   6.637   2.440  0.00  0.00     0.298 HD
ENDROOT
TORSDOF 0
ENDMDL
