MODEL 1
REMARK minimizedAffinity -1.13711464
REMARK minimizedRMSD -1
REMARK  0 active torsions:
REMARK  status: ('A' for Active; 'I' for Inactive)
ROOT
ATOM      1  C   UNL d   1      -3.032   2.052   4.939  0.00  0.00     0.078 C 
ATOM      2  C1  UNL d   1      -3.759   0.848   4.418  0.00  0.00    -0.077 A 
ATOM      3  C2  UNL d   1      -3.827   0.585   3.044  0.00  0.00    -0.001 A 
ATOM      4  C3  UNL d   1      -4.515  -0.534   2.573  0.00  0.00     0.003 A 
ATOM      5  C4  UNL d   1      -5.141  -1.399   3.469  0.00  0.00    -0.005 A 
ATOM      6  C5  UNL d   1      -5.080  -1.144   4.837  0.00  0.00     0.003 A 
ATOM      7  C6  UNL d   1      -4.393  -0.025   5.310  0.00  0.00    -0.001 A 
ENDROOT
TORSDOF 0
ENDMDL
