MODEL 1
REMARK minimizedAffinity 7.9520359
REMARK minimizedRMSD -1
REMARK  0 active torsions:
REMARK  status: ('A' for Active; 'I' for Inactive)
ROOT
ATOM      1  C   UNL d   1      -4.390   0.778   2.030  0.00  0.00     0.078 C 
ATOM      2  C1  UNL d   1      -4.897  -0.135   3.106  0.00  0.00    -0.077 A 
ATOM      3  C2  UNL d   1      -5.026   0.309   4.428  0.00  0.00    -0.001 A 
ATOM      4  C3  UNL d   1      -5.490  -0.554   5.421  0.00  0.00     0.003 A 
ATOM      5  C4  UNL d   1      -5.829  -1.868   5.104  0.00  0.00    -0.005 A 
ATOM      6  C5  UNL d   1      -5.702  -2.320   3.792  0.00  0.00     0.003 A 
ATOM      7  C6  UNL d   1      -5.238  -1.458   2.797  0.00  0.00    -0.001 A 
ENDROOT
TORSDOF 0
ENDMDL
