MODEL 1
REMARK minimizedAffinity 3.78061581
REMARK minimizedRMSD -1
REMARK  0 active torsions:
REMARK  status: ('A' for Active; 'I' for Inactive)
ROOT
ATOM      1  C   UNL d   1      -3.698   0.992   5.214  0.00  0.00     0.078 C 
ATOM      2  C1  UNL d   1      -4.152  -0.151   4.356  0.00  0.00    -0.077 A 
ATOM      3  C2  UNL d   1      -4.867  -1.224   4.903  0.00  0.00    -0.001 A 
ATOM      4  C3  UNL d   1      -5.275  -2.286   4.095  0.00  0.00     0.003 A 
ATOM      5  C4  UNL d   1      -4.973  -2.286   2.734  0.00  0.00    -0.005 A 
ATOM      6  C5  UNL d   1      -4.260  -1.224   2.181  0.00  0.00     0.003 A 
ATOM      7  C6  UNL d   1      -3.851  -0.161   2.989  0.00  0.00    -0.001 A 
ENDROOT
TORSDOF 0
ENDMDL
