MODEL 1
REMARK minimizedAffinity 9.7311058
REMARK minimizedRMSD -1
REMARK  0 active torsions:
REMARK  status: ('A' for Active; 'I' for Inactive)
ROOT
ATOM      1  C   UNL d   1       0.418  -0.998   3.983  0.00  0.00     0.078 C 
ATOM      2  C1  UNL d   1      -0.142  -1.791   2.840  0.00  0.00    -0.077 A 
ATOM      3  C2  UNL d   1      -1.351  -1.429   2.235  0.00  0.00    -0.001 A 
ATOM      4  C3  UNL d   1      -1.866  -2.182   1.178  0.00  0.00     0.003 A 
ATOM      5  C4  UNL d   1      -1.178  -3.303   0.718  0.00  0.00    -0.005 A 
ATOM      6  C5  UNL d   1       0.026  -3.672   1.315  0.00  0.00     0.003 A 
ATOM      7  C6  UNL d   1       0.542  -2.921   2.372  0.00  0.00    -0.001 A 
ENDROOT
TORSDOF 0
ENDMDL
