MODEL 1
REMARK minimizedAffinity 6.14146757
REMARK minimizedRMSD -1
REMARK  0 active torsions:
REMARK  status: ('A' for Active; 'I' for Inactive)
ROOT
ATOM      1  C   UNL d   1      -2.589  -0.293   1.700  0.00  0.00     0.078 C 
ATOM      2  C1  UNL d   1      -1.594  -1.390   1.467  0.00  0.00    -0.077 A 
ATOM      3  C2  UNL d   1      -1.984  -2.608   0.898  0.00  0.00    -0.001 A 
ATOM      4  C3  UNL d   1      -1.048  -3.624   0.696  0.00  0.00     0.003 A 
ATOM      5  C4  UNL d   1       0.283  -3.432   1.060  0.00  0.00    -0.005 A 
ATOM      6  C5  UNL d   1       0.680  -2.224   1.629  0.00  0.00     0.003 A 
ATOM      7  C6  UNL d   1      -0.254  -1.207   1.832  0.00  0.00    -0.001 A 
ENDROOT
TORSDOF 0
ENDMDL
