MODEL 1
REMARK minimizedAffinity -2.8137517
REMARK minimizedRMSD -1
REMARK  0 active torsions:
REMARK  status: ('A' for Active; 'I' for Inactive)
ROOT
ATOM      1  C   UNL d   1       5.097  -5.666  -0.381  0.00  0.00     0.078 C 
ATOM      2  C1  UNL d   1       4.434  -4.321  -0.361  0.00  0.00    -0.077 A 
ATOM      3  C2  UNL d   1       5.113  -3.189   0.107  0.00  0.00    -0.001 A 
ATOM      4  C3  UNL d   1       4.481  -1.945   0.129  0.00  0.00     0.003 A 
ATOM      5  C4  UNL d   1       3.166  -1.821  -0.314  0.00  0.00    -0.005 A 
ATOM      6  C5  UNL d   1       2.481  -2.942  -0.779  0.00  0.00     0.003 A 
ATOM      7  C6  UNL d   1       3.112  -4.187  -0.802  0.00  0.00    -0.001 A 
ENDROOT
TORSDOF 0
ENDMDL
