MODEL 1
REMARK minimizedAffinity -2.27625108
REMARK minimizedRMSD -1
REMARK  0 active torsions:
REMARK  status: ('A' for Active; 'I' for Inactive)
ROOT
ATOM      1  C   UNL d   1      -0.236  -1.643   2.357  0.00  0.00     0.078 C 
ATOM      2  C1  UNL d   1       0.601  -2.424   1.388  0.00  0.00    -0.077 A 
ATOM      3  C2  UNL d   1       0.451  -3.811   1.261  0.00  0.00    -0.001 A 
ATOM      4  C3  UNL d   1       1.243  -4.527   0.362  0.00  0.00     0.003 A 
ATOM      5  C4  UNL d   1       2.191  -3.865  -0.416  0.00  0.00    -0.005 A 
ATOM      6  C5  UNL d   1       2.348  -2.486  -0.295  0.00  0.00     0.003 A 
ATOM      7  C6  UNL d   1       1.557  -1.768   0.603  0.00  0.00    -0.001 A 
ENDROOT
TORSDOF 0
ENDMDL
