MODEL 1
REMARK minimizedAffinity -3.45990396
REMARK minimizedRMSD -1
REMARK  0 active torsions:
REMARK  status: ('A' for Active; 'I' for Inactive)
ROOT
ATOM      1  C   UNL d   1       5.994  -5.722   0.009  0.00  0.00     0.078 C 
ATOM      2  C1  UNL d   1       5.261  -4.629  -0.710  0.00  0.00    -0.077 A 
ATOM      3  C2  UNL d   1       3.880  -4.460  -0.550  0.00  0.00    -0.001 A 
ATOM      4  C3  UNL d   1       3.209  -3.445  -1.233  0.00  0.00     0.003 A 
ATOM      5  C4  UNL d   1       3.910  -2.590  -2.081  0.00  0.00    -0.005 A 
ATOM      6  C5  UNL d   1       5.284  -2.751  -2.248  0.00  0.00     0.003 A 
ATOM      7  C6  UNL d   1       5.957  -3.766  -1.566  0.00  0.00    -0.001 A 
ENDROOT
TORSDOF 0
ENDMDL
