MODEL 1
REMARK minimizedAffinity -3.15454078
REMARK minimizedRMSD -1
REMARK  0 active torsions:
REMARK  status: ('A' for Active; 'I' for Inactive)
ROOT
ATOM      1  C   UNL d   1       1.473  -2.820   0.673  0.00  0.00     0.078 C 
ATOM      2  C1  UNL d   1       2.665  -3.270  -0.116  0.00  0.00    -0.077 A 
ATOM      3  C2  UNL d   1       3.513  -4.275   0.367  0.00  0.00    -0.001 A 
ATOM      4  C3  UNL d   1       4.625  -4.677  -0.374  0.00  0.00     0.003 A 
ATOM      5  C4  UNL d   1       4.900  -4.080  -1.603  0.00  0.00    -0.005 A 
ATOM      6  C5  UNL d   1       4.064  -3.078  -2.091  0.00  0.00     0.003 A 
ATOM      7  C6  UNL d   1       2.951  -2.674  -1.351  0.00  0.00    -0.001 A 
ENDROOT
TORSDOF 0
ENDMDL
