MODEL 1
REMARK minimizedAffinity -4.46520615
REMARK minimizedRMSD -1
REMARK  0 active torsions:
REMARK  status: ('A' for Active; 'I' for Inactive)
ROOT
ATOM      1  C   UNL d   1       1.539  -4.039   0.399  0.00  0.00     0.078 C 
ATOM      2  C1  UNL d   1       2.916  -4.349  -0.106  0.00  0.00    -0.077 A 
ATOM      3  C2  UNL d   1       3.703  -5.334   0.504  0.00  0.00    -0.001 A 
ATOM      4  C3  UNL d   1       4.988  -5.605   0.030  0.00  0.00     0.003 A 
ATOM      5  C4  UNL d   1       5.497  -4.895  -1.055  0.00  0.00    -0.005 A 
ATOM      6  C5  UNL d   1       4.723  -3.911  -1.667  0.00  0.00     0.003 A 
ATOM      7  C6  UNL d   1       3.438  -3.639  -1.194  0.00  0.00    -0.001 A 
ENDROOT
TORSDOF 0
ENDMDL
