MODEL 1
REMARK minimizedAffinity -3.80578995
REMARK minimizedRMSD -1
REMARK  0 active torsions:
REMARK  status: ('A' for Active; 'I' for Inactive)
ROOT
ATOM      1  C   UNL d   1       1.748  -2.975   0.164  0.00  0.00     0.078 C 
ATOM      2  C1  UNL d   1       3.056  -3.404  -0.432  0.00  0.00    -0.077 A 
ATOM      3  C2  UNL d   1       3.997  -4.111   0.326  0.00  0.00    -0.001 A 
ATOM      4  C3  UNL d   1       5.214  -4.496  -0.239  0.00  0.00     0.003 A 
ATOM      5  C4  UNL d   1       5.502  -4.176  -1.564  0.00  0.00    -0.005 A 
ATOM      6  C5  UNL d   1       4.573  -3.471  -2.326  0.00  0.00     0.003 A 
ATOM      7  C6  UNL d   1       3.355  -3.085  -1.763  0.00  0.00    -0.001 A 
ENDROOT
TORSDOF 0
ENDMDL
