MODEL 1
REMARK minimizedAffinity -2.31181335
REMARK minimizedRMSD -1
REMARK  0 active torsions:
REMARK  status: ('A' for Active; 'I' for Inactive)
ROOT
ATOM      1  C   UNL d   1       1.123  -2.613   1.059  0.00  0.00     0.078 C 
ATOM      2  C1  UNL d   1       2.104  -2.639  -0.074  0.00  0.00    -0.077 A 
ATOM      3  C2  UNL d   1       2.798  -3.811  -0.400  0.00  0.00    -0.001 A 
ATOM      4  C3  UNL d   1       3.716  -3.819  -1.451  0.00  0.00     0.003 A 
ATOM      5  C4  UNL d   1       3.950  -2.657  -2.185  0.00  0.00    -0.005 A 
ATOM      6  C5  UNL d   1       3.265  -1.486  -1.867  0.00  0.00     0.003 A 
ATOM      7  C6  UNL d   1       2.347  -1.476  -0.816  0.00  0.00    -0.001 A 
ENDROOT
TORSDOF 0
ENDMDL
