MODEL 1
REMARK minimizedAffinity 0.881221056
REMARK minimizedRMSD -1
REMARK  0 active torsions:
REMARK  status: ('A' for Active; 'I' for Inactive)
ROOT
ATOM      1  C   UNL d   1       1.137  -5.353  -6.000  0.00  0.00     0.078 C 
ATOM      2  C1  UNL d   1      -0.222  -5.160  -5.397  0.00  0.00    -0.077 A 
ATOM      3  C2  UNL d   1      -0.685  -6.000  -4.376  0.00  0.00    -0.001 A 
ATOM      4  C3  UNL d   1      -1.956  -5.815  -3.831  0.00  0.00     0.003 A 
ATOM      5  C4  UNL d   1      -2.776  -4.791  -4.300  0.00  0.00    -0.005 A 
ATOM      6  C5  UNL d   1      -2.326  -3.951  -5.317  0.00  0.00     0.003 A 
ATOM      7  C6  UNL d   1      -1.055  -4.135  -5.864  0.00  0.00    -0.001 A 
ENDROOT
TORSDOF 0
ENDMDL
