MODEL 1
REMARK minimizedAffinity 1.78062618
REMARK minimizedRMSD -1
REMARK  0 active torsions:
REMARK  status: ('A' for Active; 'I' for Inactive)
ROOT
ATOM      1  C   UNL d   1       5.995  -5.048  -2.692  0.00  0.00     0.078 C 
ATOM      2  C1  UNL d   1       5.999  -4.884  -1.202  0.00  0.00    -0.077 A 
ATOM      3  C2  UNL d   1       5.999  -5.999  -0.354  0.00  0.00    -0.001 A 
ATOM      4  C3  UNL d   1       5.993  -5.831   1.032  0.00  0.00     0.003 A 
ATOM      5  C4  UNL d   1       5.987  -4.551   1.582  0.00  0.00    -0.005 A 
ATOM      6  C5  UNL d   1       5.985  -3.436   0.746  0.00  0.00     0.003 A 
ATOM      7  C6  UNL d   1       5.991  -3.601  -0.639  0.00  0.00    -0.001 A 
ENDROOT
TORSDOF 0
ENDMDL
