MODEL 1
REMARK minimizedAffinity 9.52622509
REMARK minimizedRMSD -1
REMARK  0 active torsions:
REMARK  status: ('A' for Active; 'I' for Inactive)
ROOT
ATOM      1  C   UNL d   1      -2.370   3.813   0.779  0.00  0.00     0.078 C 
ATOM      2  C1  UNL d   1      -2.953   2.435   0.876  0.00  0.00    -0.077 A 
ATOM      3  C2  UNL d   1      -2.405   1.479   1.740  0.00  0.00    -0.001 A 
ATOM      4  C3  UNL d   1      -2.952   0.197   1.812  0.00  0.00     0.003 A 
ATOM      5  C4  UNL d   1      -4.049  -0.142   1.022  0.00  0.00    -0.005 A 
ATOM      6  C5  UNL d   1      -4.600   0.802   0.158  0.00  0.00     0.003 A 
ATOM      7  C6  UNL d   1      -4.054   2.085   0.084  0.00  0.00    -0.001 A 
ENDROOT
TORSDOF 0
ENDMDL
