MODEL 1
REMARK minimizedAffinity 5.74470568
REMARK minimizedRMSD -1
REMARK  0 active torsions:
REMARK  status: ('A' for Active; 'I' for Inactive)
ROOT
ATOM      1  C   UNL d   1      -0.129   4.979  -4.630  0.00  0.00     0.078 C 
ATOM      2  C1  UNL d   1       0.411   4.407  -3.353  0.00  0.00    -0.077 A 
ATOM      3  C2  UNL d   1       0.043   4.940  -2.112  0.00  0.00    -0.001 A 
ATOM      4  C3  UNL d   1       0.561   4.403  -0.932  0.00  0.00     0.003 A 
ATOM      5  C4  UNL d   1       1.451   3.332  -0.982  0.00  0.00    -0.005 A 
ATOM      6  C5  UNL d   1       1.824   2.796  -2.213  0.00  0.00     0.003 A 
ATOM      7  C6  UNL d   1       1.307   3.332  -3.394  0.00  0.00    -0.001 A 
ENDROOT
TORSDOF 0
ENDMDL
