MODEL 1
REMARK minimizedAffinity -2.28052855
REMARK minimizedRMSD -1
REMARK  0 active torsions:
REMARK  status: ('A' for Active; 'I' for Inactive)
ROOT
ATOM      1  C   UNL d   1       4.360  -5.176  -0.238  0.00  0.00     0.078 C 
ATOM      2  C1  UNL d   1       3.359  -4.093   0.033  0.00  0.00    -0.077 A 
ATOM      3  C2  UNL d   1       3.762  -2.761   0.188  0.00  0.00    -0.001 A 
ATOM      4  C3  UNL d   1       2.821  -1.764   0.450  0.00  0.00     0.003 A 
ATOM      5  C4  UNL d   1       1.470  -2.090   0.561  0.00  0.00    -0.005 A 
ATOM      6  C5  UNL d   1       1.060  -3.413   0.411  0.00  0.00     0.003 A 
ATOM      7  C6  UNL d   1       2.000  -4.410   0.149  0.00  0.00    -0.001 A 
ENDROOT
TORSDOF 0
ENDMDL
