MODEL 1
REMARK minimizedAffinity 0.96600914
REMARK minimizedRMSD -1
REMARK  0 active torsions:
REMARK  status: ('A' for Active; 'I' for Inactive)
ROOT
ATOM      1  C   UNL d   1       4.134   2.958  -1.441  0.00  0.00     0.078 C 
ATOM      2  C1  UNL d   1       4.087   4.025  -0.388  0.00  0.00    -0.077 A 
ATOM      3  C2  UNL d   1       5.157   4.910  -0.211  0.00  0.00    -0.001 A 
ATOM      4  C3  UNL d   1       5.104   5.892   0.780  0.00  0.00     0.003 A 
ATOM      5  C4  UNL d   1       3.984   5.997   1.602  0.00  0.00    -0.005 A 
ATOM      6  C5  UNL d   1       2.915   5.118   1.434  0.00  0.00     0.003 A 
ATOM      7  C6  UNL d   1       2.967   4.136   0.444  0.00  0.00    -0.001 A 
ENDROOT
TORSDOF 0
ENDMDL
