MODEL 1
REMARK minimizedAffinity -0.00360623677
REMARK minimizedRMSD -1
REMARK  2 active torsions:
REMARK  status: ('A' for Active; 'I' for Inactive)
REMARK    1  A    between atoms: C1_2  and  C2_3 
REMARK    2  A    between atoms: C2_3  and  C3_4 
ROOT
ATOM      1  C3  UNL d   1       1.658   0.914   0.651  0.00  0.00    -0.075 A 
ATOM      2  C4  UNL d   1       1.375  -0.152  -0.216  0.00  0.00     0.002 A 
ATOM      3  C5  UNL d   1       2.109  -1.337  -0.144  0.00  0.00     0.002 A 
ATOM      4  C6  UNL d   1       3.138  -1.467   0.785  0.00  0.00    -0.004 A 
ATOM      5  C7  UNL d   1       3.438  -0.409   1.640  0.00  0.00     0.002 A 
ATOM      6  C8  UNL d   1       2.703   0.776   1.574  0.00  0.00     0.002 A 
ENDROOT
BRANCH   1   7
ATOM      7  C2  UNL d   1       0.849   2.188   0.598  0.00  0.00     0.056 C 
BRANCH   7   8
ATOM      8  C1  UNL d   1       0.632   2.846   1.965  0.00  0.00     0.007 C 
ATOM      9  C   UNL d   1       0.498   4.361   1.887  0.00  0.00     0.009 C 
ENDBRANCH   7   8
ENDBRANCH   1   7
TORSDOF 2
ENDMDL
