MODEL 1
REMARK minimizedAffinity 5.70437002
REMARK minimizedRMSD -1
REMARK  2 active torsions:
REMARK  status: ('A' for Active; 'I' for Inactive)
REMARK    1  A    between atoms: C1_2  and  C2_3 
REMARK    2  A    between atoms: C2_3  and  C3_4 
ROOT
ATOM      1  C3  UNL d   1       0.301  -0.609   1.192  0.00  0.00    -0.075 A 
ATOM      2  C4  UNL d   1      -0.565  -1.678   1.463  0.00  0.00     0.002 A 
ATOM      3  C5  UNL d   1      -1.241  -2.322   0.427  0.00  0.00     0.002 A 
ATOM      4  C6  UNL d   1      -1.069  -1.900  -0.889  0.00  0.00    -0.004 A 
ATOM      5  C7  UNL d   1      -0.224  -0.828  -1.169  0.00  0.00     0.002 A 
ATOM      6  C8  UNL d   1       0.457  -0.185  -0.134  0.00  0.00     0.002 A 
ENDROOT
BRANCH   1   7
ATOM      7  C2  UNL d   1       1.059   0.074   2.306  0.00  0.00     0.056 C 
BRANCH   7   8
ATOM      8  C1  UNL d   1       1.130  -0.741   3.602  0.00  0.00     0.007 C 
ATOM      9  C   UNL d   1       1.271   0.124   4.847  0.00  0.00     0.009 C 
ENDBRANCH   7   8
ENDBRANCH   1   7
TORSDOF 2
ENDMDL
