MODEL 1
REMARK minimizedAffinity 3.67262888
REMARK minimizedRMSD -1
REMARK  2 active torsions:
REMARK  status: ('A' for Active; 'I' for Inactive)
REMARK    1  A    between atoms: C1_2  and  C2_3 
REMARK    2  A    between atoms: C2_3  and  C3_4 
ROOT
ATOM      1  C3  UNL d   1       0.359  -0.331  -0.691  0.00  0.00    -0.075 A 
ATOM      2  C4  UNL d   1      -0.752  -0.895  -1.334  0.00  0.00     0.002 A 
ATOM      3  C5  UNL d   1      -0.802  -2.266  -1.588  0.00  0.00     0.002 A 
ATOM      4  C6  UNL d   1       0.259  -3.087  -1.212  0.00  0.00    -0.004 A 
ATOM      5  C7  UNL d   1       1.375  -2.534  -0.587  0.00  0.00     0.002 A 
ATOM      6  C8  UNL d   1       1.426  -1.164  -0.328  0.00  0.00     0.002 A 
ENDROOT
BRANCH   1   7
ATOM      7  C2  UNL d   1       0.407   1.148  -0.387  0.00  0.00     0.056 C 
BRANCH   7   8
ATOM      8  C1  UNL d   1       1.822   1.694  -0.168  0.00  0.00     0.007 C 
ATOM      9  C   UNL d   1       2.042   2.248   1.233  0.00  0.00     0.009 C 
ENDBRANCH   7   8
ENDBRANCH   1   7
TORSDOF 2
ENDMDL
