MODEL 1
REMARK minimizedAffinity 13.7451296
REMARK minimizedRMSD -1
REMARK  0 active torsions:
REMARK  status: ('A' for Active; 'I' for Inactive)
ROOT
ATOM      1  C   UNL d   1       2.625   6.000   1.875  0.00  0.00     0.172 C 
ATOM      2  N   UNL d   1       1.882   5.352   0.820  0.00  0.00    -0.070 N 
ATOM      3  C1  UNL d   1       0.842   4.479   0.996  0.00  0.00    -0.004 A 
ATOM      4  C2  UNL d   1       0.405   4.086  -0.251  0.00  0.00    -0.047 A 
ATOM      5  C3  UNL d   1       1.211   4.745  -1.209  0.00  0.00    -0.047 A 
ATOM      6  C4  UNL d   1       2.117   5.522  -0.519  0.00  0.00    -0.004 A 
ENDROOT
TORSDOF 0
ENDMDL
