MODEL 1
REMARK minimizedAffinity 6.1287055
REMARK minimizedRMSD -1
REMARK  0 active torsions:
REMARK  status: ('A' for Active; 'I' for Inactive)
ROOT
ATOM      1  C   UNL d   1      -0.662  -3.758  -1.844  0.00  0.00     0.172 C 
ATOM      2  N   UNL d   1       0.259  -2.688  -1.542  0.00  0.00    -0.070 N 
ATOM      3  C1  UNL d   1       1.021  -2.585  -0.409  0.00  0.00    -0.004 A 
ATOM      4  C2  UNL d   1       1.762  -1.427  -0.502  0.00  0.00    -0.047 A 
ATOM      5  C3  UNL d   1       1.433  -0.812  -1.733  0.00  0.00    -0.047 A 
ATOM      6  C4  UNL d   1       0.501  -1.613  -2.357  0.00  0.00    -0.004 A 
ENDROOT
TORSDOF 0
ENDMDL
