MODEL 1
REMARK minimizedAffinity 7.90918398
REMARK minimizedRMSD -1
REMARK  0 active torsions:
REMARK  status: ('A' for Active; 'I' for Inactive)
ROOT
ATOM      1  C   UNL d   1       3.478   0.731  -0.910  0.00  0.00     0.172 C 
ATOM      2  N   UNL d   1       2.691  -0.462  -1.117  0.00  0.00    -0.070 N 
ATOM      3  C1  UNL d   1       1.499  -0.526  -1.788  0.00  0.00    -0.004 A 
ATOM      4  C2  UNL d   1       1.072  -1.837  -1.766  0.00  0.00    -0.047 A 
ATOM      5  C3  UNL d   1       2.041  -2.586  -1.056  0.00  0.00    -0.047 A 
ATOM      6  C4  UNL d   1       3.032  -1.710  -0.666  0.00  0.00    -0.004 A 
ENDROOT
TORSDOF 0
ENDMDL
