MODEL 1
REMARK minimizedAffinity 10.0535841
REMARK minimizedRMSD -1
REMARK  0 active torsions:
REMARK  status: ('A' for Active; 'I' for Inactive)
ROOT
ATOM      1  C   UNL d   1       5.236  -1.782   0.229  0.00  0.00     0.172 C 
ATOM      2  N   UNL d   1       4.719  -0.518  -0.241  0.00  0.00    -0.070 N 
ATOM      3  C1  UNL d   1       5.355   0.691  -0.142  0.00  0.00    -0.004 A 
ATOM      4  C2  UNL d   1       4.536   1.645  -0.706  0.00  0.00    -0.047 A 
ATOM      5  C3  UNL d   1       3.368   0.988  -1.158  0.00  0.00    -0.047 A 
ATOM      6  C4  UNL d   1       3.507  -0.351  -0.858  0.00  0.00    -0.004 A 
ENDROOT
TORSDOF 0
ENDMDL
