MODEL 1
REMARK minimizedAffinity 0.472020447
REMARK minimizedRMSD -1
REMARK  0 active torsions:
REMARK  status: ('A' for Active; 'I' for Inactive)
ROOT
ATOM      1  C   UNL d   1      -5.007   1.988   5.923  0.00  0.00     0.172 C 
ATOM      2  N   UNL d   1      -4.878   0.959   4.917  0.00  0.00    -0.070 N 
ATOM      3  C1  UNL d   1      -4.083   1.026   3.804  0.00  0.00    -0.004 A 
ATOM      4  C2  UNL d   1      -4.240  -0.149   3.103  0.00  0.00    -0.047 A 
ATOM      5  C3  UNL d   1      -5.162  -0.950   3.818  0.00  0.00    -0.047 A 
ATOM      6  C4  UNL d   1      -5.541  -0.239   4.937  0.00  0.00    -0.004 A 
ENDROOT
TORSDOF 0
ENDMDL
