MODEL 1
REMARK minimizedAffinity 6.8878417
REMARK minimizedRMSD -1
REMARK  0 active torsions:
REMARK  status: ('A' for Active; 'I' for Inactive)
ROOT
ATOM      1  C   UNL d   1       2.233   0.065  -1.157  0.00  0.00     0.172 C 
ATOM      2  N   UNL d   1       2.575  -1.332  -1.296  0.00  0.00    -0.070 N 
ATOM      3  C1  UNL d   1       3.772  -1.899  -0.949  0.00  0.00    -0.004 A 
ATOM      4  C2  UNL d   1       3.700  -3.245  -1.235  0.00  0.00    -0.047 A 
ATOM      5  C3  UNL d   1       2.415  -3.495  -1.774  0.00  0.00    -0.047 A 
ATOM      6  C4  UNL d   1       1.740  -2.293  -1.800  0.00  0.00    -0.004 A 
ENDROOT
TORSDOF 0
ENDMDL
