MODEL 1
REMARK minimizedAffinity 7.55166769
REMARK minimizedRMSD -1
REMARK  0 active torsions:
REMARK  status: ('A' for Active; 'I' for Inactive)
ROOT
ATOM      1  C   UNL d   1       1.193   2.568   1.449  0.00  0.00     0.172 C 
ATOM      2  N   UNL d   1       1.136   3.573   0.414  0.00  0.00    -0.070 N 
ATOM      3  C1  UNL d   1       1.298   3.349  -0.927  0.00  0.00    -0.004 A 
ATOM      4  C2  UNL d   1       1.172   4.559  -1.575  0.00  0.00    -0.047 A 
ATOM      5  C3  UNL d   1       0.928   5.544  -0.589  0.00  0.00    -0.047 A 
ATOM      6  C4  UNL d   1       0.911   4.907   0.633  0.00  0.00    -0.004 A 
ENDROOT
TORSDOF 0
ENDMDL
