MODEL 1
REMARK minimizedAffinity 1.92201841
REMARK minimizedRMSD -1
REMARK  0 active torsions:
REMARK  status: ('A' for Active; 'I' for Inactive)
ROOT
ATOM      1  C   UNL d   1      -3.191  -3.971  -3.753  0.00  0.00     0.172 C 
ATOM      2  N   UNL d   1      -4.304  -4.082  -4.666  0.00  0.00    -0.070 N 
ATOM      3  C1  UNL d   1      -5.030  -3.036  -5.170  0.00  0.00    -0.004 A 
ATOM      4  C2  UNL d   1      -6.000  -3.556  -6.000  0.00  0.00    -0.047 A 
ATOM      5  C3  UNL d   1      -5.852  -4.964  -5.993  0.00  0.00    -0.047 A 
ATOM      6  C4  UNL d   1      -4.795  -5.262  -5.159  0.00  0.00    -0.004 A 
ENDROOT
TORSDOF 0
ENDMDL
