MODEL 1
REMARK minimizedAffinity -0.923549473
REMARK minimizedRMSD -1
REMARK  0 active torsions:
REMARK  status: ('A' for Active; 'I' for Inactive)
ROOT
ATOM      1  C   UNL d   1       1.879  -5.543  -2.779  0.00  0.00     0.172 C 
ATOM      2  N   UNL d   1       2.241  -4.332  -2.081  0.00  0.00    -0.070 N 
ATOM      3  C1  UNL d   1       1.441  -3.231  -1.927  0.00  0.00    -0.004 A 
ATOM      4  C2  UNL d   1       2.148  -2.294  -1.204  0.00  0.00    -0.047 A 
ATOM      5  C3  UNL d   1       3.416  -2.850  -0.915  0.00  0.00    -0.047 A 
ATOM      6  C4  UNL d   1       3.447  -4.113  -1.470  0.00  0.00    -0.004 A 
ENDROOT
TORSDOF 0
ENDMDL
