MODEL 1
REMARK minimizedAffinity 13.6500444
REMARK minimizedRMSD -1
REMARK  0 active torsions:
REMARK  status: ('A' for Active; 'I' for Inactive)
ROOT
ATOM      1  C   UNL d   1      -3.571  -3.313  -3.501  0.00  0.00     0.172 C 
ATOM      2  N   UNL d   1      -2.396  -2.644  -2.994  0.00  0.00    -0.070 N 
ATOM      3  C1  UNL d   1      -2.313  -1.319  -2.658  0.00  0.00    -0.004 A 
ATOM      4  C2  UNL d   1      -1.030  -1.074  -2.219  0.00  0.00    -0.047 A 
ATOM      5  C3  UNL d   1      -0.316  -2.294  -2.295  0.00  0.00    -0.047 A 
ATOM      6  C4  UNL d   1      -1.185  -3.249  -2.778  0.00  0.00    -0.004 A 
ENDROOT
TORSDOF 0
ENDMDL
