MODEL 1
REMARK minimizedAffinity 5.24420357
REMARK minimizedRMSD -1
REMARK  0 active torsions:
REMARK  status: ('A' for Active; 'I' for Inactive)
ROOT
ATOM      1  C   UNL d   1      -1.921  -0.574  -3.636  0.00  0.00     0.172 C 
ATOM      2  N   UNL d   1      -1.964  -1.979  -3.306  0.00  0.00    -0.070 N 
ATOM      3  C1  UNL d   1      -2.926  -2.865  -3.712  0.00  0.00    -0.004 A 
ATOM      4  C2  UNL d   1      -2.609  -4.100  -3.190  0.00  0.00    -0.047 A 
ATOM      5  C3  UNL d   1      -1.417  -3.952  -2.443  0.00  0.00    -0.047 A 
ATOM      6  C4  UNL d   1      -1.039  -2.628  -2.532  0.00  0.00    -0.004 A 
ENDROOT
TORSDOF 0
ENDMDL
