MODEL 1
REMARK minimizedAffinity 2.89083385
REMARK minimizedRMSD -1
REMARK  0 active torsions:
REMARK  status: ('A' for Active; 'I' for Inactive)
ROOT
ATOM      1  C   UNL d   1      -4.345  -0.158   2.909  0.00  0.00     0.172 C 
ATOM      2  N   UNL d   1      -3.463   0.929   3.264  0.00  0.00    -0.070 N 
ATOM      3  C1  UNL d   1      -3.817   2.047   3.970  0.00  0.00    -0.004 A 
ATOM      4  C2  UNL d   1      -2.696   2.837   4.100  0.00  0.00    -0.047 A 
ATOM      5  C3  UNL d   1      -1.630   2.171   3.449  0.00  0.00    -0.047 A 
ATOM      6  C4  UNL d   1      -2.133   0.992   2.941  0.00  0.00    -0.004 A 
ENDROOT
TORSDOF 0
ENDMDL
