MODEL 1
REMARK minimizedAffinity 9.6594944
REMARK minimizedRMSD -1
REMARK  0 active torsions:
REMARK  status: ('A' for Active; 'I' for Inactive)
ROOT
ATOM      1  C   UNL d   1      -3.426  -0.046  -6.000  0.00  0.00     0.172 C 
ATOM      2  N   UNL d   1      -2.933   1.150  -5.359  0.00  0.00    -0.070 N 
ATOM      3  C1  UNL d   1      -2.637   1.278  -4.028  0.00  0.00    -0.004 A 
ATOM      4  C2  UNL d   1      -2.196   2.567  -3.816  0.00  0.00    -0.047 A 
ATOM      5  C3  UNL d   1      -2.230   3.236  -5.062  0.00  0.00    -0.047 A 
ATOM      6  C4  UNL d   1      -2.689   2.336  -6.000  0.00  0.00    -0.004 A 
ENDROOT
TORSDOF 0
ENDMDL
