MODEL 1
REMARK minimizedAffinity 4.26413202
REMARK minimizedRMSD -1
REMARK  0 active torsions:
REMARK  status: ('A' for Active; 'I' for Inactive)
ROOT
ATOM      1  C   UNL d   1       3.259  -3.572  -1.320  0.00  0.00     0.172 C 
ATOM      2  N   UNL d   1       2.448  -2.377  -1.332  0.00  0.00    -0.070 N 
ATOM      3  C1  UNL d   1       1.171  -2.274  -0.848  0.00  0.00    -0.004 A 
ATOM      4  C2  UNL d   1       0.749  -0.977  -1.044  0.00  0.00    -0.047 A 
ATOM      5  C3  UNL d   1       1.808  -0.277  -1.668  0.00  0.00    -0.047 A 
ATOM      6  C4  UNL d   1       2.848  -1.168  -1.835  0.00  0.00    -0.004 A 
ENDROOT
TORSDOF 0
ENDMDL
