MODEL 1
REMARK minimizedAffinity 7.47182941
REMARK minimizedRMSD -1
REMARK  0 active torsions:
REMARK  status: ('A' for Active; 'I' for Inactive)
ROOT
ATOM      1  C   UNL d   1       2.324   2.163  -2.244  0.00  0.00     0.124 A 
ATOM      2  C1  UNL d   1       1.132   1.578  -1.839  0.00  0.00     0.062 A 
ATOM      3  C2  UNL d   1       1.104   0.241  -1.455  0.00  0.00     0.162 A 
ATOM      4  C3  UNL d   1       2.272  -0.521  -1.472  0.00  0.00    -0.034 A 
ATOM      5  C4  UNL d   1       3.467   0.074  -1.881  0.00  0.00     0.162 A 
ATOM      6  C5  UNL d   1       3.490   1.411  -2.264  0.00  0.00     0.062 A 
ATOM      7  F   UNL d   1       4.642   1.975  -2.654  0.00  0.00    -0.097 F 
ATOM      8  F1  UNL d   1       4.608  -0.630  -1.909  0.00  0.00    -0.096 F 
ATOM      9  I   UNL d   1       2.234  -2.521  -0.898  0.00  0.00    -0.060 I 
ATOM     10  F2  UNL d   1      -0.062  -0.299  -1.069  0.00  0.00    -0.096 F 
ATOM     11  F3  UNL d   1       0.004   2.303  -1.820  0.00  0.00    -0.097 F 
ATOM     12  F4  UNL d   1       2.348   3.450  -2.614  0.00  0.00    -0.092 F 
ENDROOT
TORSDOF 0
ENDMDL
