MODEL 1
REMARK minimizedAffinity 14.5431786
REMARK minimizedRMSD -1
REMARK  0 active torsions:
REMARK  status: ('A' for Active; 'I' for Inactive)
ROOT
ATOM      1  C   UNL d   1       0.391   0.239  -1.384  0.00  0.00     0.124 A 
ATOM      2  C1  UNL d   1       1.107  -0.948  -1.457  0.00  0.00     0.062 A 
ATOM      3  C2  UNL d   1       2.425  -0.944  -1.906  0.00  0.00     0.162 A 
ATOM      4  C3  UNL d   1       3.036   0.252  -2.284  0.00  0.00    -0.034 A 
ATOM      5  C4  UNL d   1       2.308   1.442  -2.208  0.00  0.00     0.162 A 
ATOM      6  C5  UNL d   1       0.992   1.432  -1.759  0.00  0.00     0.062 A 
ATOM      7  F   UNL d   1       0.301   2.579  -1.689  0.00  0.00    -0.097 F 
ATOM      8  F1  UNL d   1       2.865   2.609  -2.564  0.00  0.00    -0.096 F 
ATOM      9  I   UNL d   1       5.006   0.263  -2.954  0.00  0.00    -0.060 I 
ATOM     10  F2  UNL d   1       3.093  -2.105  -1.966  0.00  0.00    -0.096 F 
ATOM     11  F3  UNL d   1       0.528  -2.102  -1.096  0.00  0.00    -0.097 F 
ATOM     12  F4  UNL d   1      -0.877   0.231  -0.953  0.00  0.00    -0.092 F 
ENDROOT
TORSDOF 0
ENDMDL
