MODEL 1
REMARK minimizedAffinity 19.1940975
REMARK minimizedRMSD -1
REMARK  0 active torsions:
REMARK  status: ('A' for Active; 'I' for Inactive)
ROOT
ATOM      1  C   UNL d   1       0.457  -1.446  -0.863  0.00  0.00     0.124 A 
ATOM      2  C1  UNL d   1      -0.507  -0.450  -0.941  0.00  0.00     0.062 A 
ATOM      3  C2  UNL d   1      -0.180   0.802  -1.455  0.00  0.00     0.162 A 
ATOM      4  C3  UNL d   1       1.117   1.064  -1.897  0.00  0.00    -0.034 A 
ATOM      5  C4  UNL d   1       2.081   0.058  -1.815  0.00  0.00     0.162 A 
ATOM      6  C5  UNL d   1       1.749  -1.191  -1.300  0.00  0.00     0.062 A 
ATOM      7  F   UNL d   1       2.681  -2.152  -1.226  0.00  0.00    -0.097 F 
ATOM      8  F1  UNL d   1       3.337   0.276  -2.231  0.00  0.00    -0.096 F 
ATOM      9  I   UNL d   1       1.609   2.934  -2.666  0.00  0.00    -0.060 I 
ATOM     10  F2  UNL d   1      -1.131   1.745  -1.518  0.00  0.00    -0.096 F 
ATOM     11  F3  UNL d   1      -1.756  -0.693  -0.519  0.00  0.00    -0.097 F 
ATOM     12  F4  UNL d   1       0.140  -2.649  -0.367  0.00  0.00    -0.092 F 
ENDROOT
TORSDOF 0
ENDMDL
