MODEL 1
REMARK minimizedAffinity 12.0073643
REMARK minimizedRMSD -1
REMARK  0 active torsions:
REMARK  status: ('A' for Active; 'I' for Inactive)
ROOT
ATOM      1  C   UNL d   1      -4.395   0.016   4.668  0.00  0.00     0.124 A 
ATOM      2  C1  UNL d   1      -5.208   0.721   3.792  0.00  0.00     0.062 A 
ATOM      3  C2  UNL d   1      -5.203   0.417   2.434  0.00  0.00     0.162 A 
ATOM      4  C3  UNL d   1      -4.383  -0.598   1.943  0.00  0.00    -0.034 A 
ATOM      5  C4  UNL d   1      -3.567  -1.303   2.830  0.00  0.00     0.162 A 
ATOM      6  C5  UNL d   1      -3.575  -0.995   4.187  0.00  0.00     0.062 A 
ATOM      7  F   UNL d   1      -2.789  -1.678   5.031  0.00  0.00    -0.097 F 
ATOM      8  F1  UNL d   1      -2.767  -2.286   2.392  0.00  0.00    -0.096 F 
ATOM      9  I   UNL d   1      -4.374  -1.056  -0.087  0.00  0.00    -0.060 I 
ATOM     10  F2  UNL d   1      -5.999   1.116   1.611  0.00  0.00    -0.096 F 
ATOM     11  F3  UNL d   1      -6.000   1.699   4.255  0.00  0.00    -0.097 F 
ATOM     12  F4  UNL d   1      -4.400   0.311   5.975  0.00  0.00    -0.092 F 
ENDROOT
TORSDOF 0
ENDMDL
