MODEL 1
REMARK minimizedAffinity 13.4352951
REMARK minimizedRMSD -1
REMARK  0 active torsions:
REMARK  status: ('A' for Active; 'I' for Inactive)
ROOT
ATOM      1  C   UNL d   1       1.309   2.039  -2.422  0.00  0.00     0.124 A 
ATOM      2  C1  UNL d   1       0.258   1.782  -1.552  0.00  0.00     0.062 A 
ATOM      3  C2  UNL d   1       0.149   0.539  -0.935  0.00  0.00     0.162 A 
ATOM      4  C3  UNL d   1       1.094  -0.456  -1.184  0.00  0.00    -0.034 A 
ATOM      5  C4  UNL d   1       2.148  -0.190  -2.060  0.00  0.00     0.162 A 
ATOM      6  C5  UNL d   1       2.252   1.054  -2.675  0.00  0.00     0.062 A 
ATOM      7  F   UNL d   1       3.268   1.301  -3.515  0.00  0.00    -0.097 F 
ATOM      8  F1  UNL d   1       3.074  -1.124  -2.322  0.00  0.00    -0.096 F 
ATOM      9  I   UNL d   1       0.935  -2.315  -0.262  0.00  0.00    -0.060 I 
ATOM     10  F2  UNL d   1      -0.876   0.318  -0.099  0.00  0.00    -0.096 F 
ATOM     11  F3  UNL d   1      -0.655   2.732  -1.306  0.00  0.00    -0.097 F 
ATOM     12  F4  UNL d   1       1.411   3.236  -3.016  0.00  0.00    -0.092 F 
ENDROOT
TORSDOF 0
ENDMDL
