MODEL 1
REMARK minimizedAffinity 14.6289253
REMARK minimizedRMSD -1
REMARK  0 active torsions:
REMARK  status: ('A' for Active; 'I' for Inactive)
ROOT
ATOM      1  C   UNL d   1       1.169   0.919  -2.047  0.00  0.00     0.124 A 
ATOM      2  C1  UNL d   1       1.103  -0.142  -1.155  0.00  0.00     0.062 A 
ATOM      3  C2  UNL d   1       0.967  -1.445  -1.626  0.00  0.00     0.162 A 
ATOM      4  C3  UNL d   1       0.898  -1.694  -2.997  0.00  0.00    -0.034 A 
ATOM      5  C4  UNL d   1       0.964  -0.621  -3.888  0.00  0.00     0.162 A 
ATOM      6  C5  UNL d   1       1.100   0.679  -3.412  0.00  0.00     0.062 A 
ATOM      7  F   UNL d   1       1.164   1.703  -4.275  0.00  0.00    -0.097 F 
ATOM      8  F1  UNL d   1       0.901  -0.825  -5.212  0.00  0.00    -0.096 F 
ATOM      9  I   UNL d   1       0.695  -3.640  -3.705  0.00  0.00    -0.060 I 
ATOM     10  F2  UNL d   1       0.906  -2.451  -0.742  0.00  0.00    -0.096 F 
ATOM     11  F3  UNL d   1       1.169   0.087   0.164  0.00  0.00    -0.097 F 
ATOM     12  F4  UNL d   1       1.299   2.172  -1.591  0.00  0.00    -0.092 F 
ENDROOT
TORSDOF 0
ENDMDL
