MODEL 1
REMARK minimizedAffinity 7.45027494
REMARK minimizedRMSD -1
REMARK  0 active torsions:
REMARK  status: ('A' for Active; 'I' for Inactive)
ROOT
ATOM      1  C   UNL d   1       0.909  -0.756  -4.112  0.00  0.00     0.124 A 
ATOM      2  C1  UNL d   1       0.880   0.357  -3.283  0.00  0.00     0.062 A 
ATOM      3  C2  UNL d   1       0.853   0.200  -1.900  0.00  0.00     0.162 A 
ATOM      4  C3  UNL d   1       0.855  -1.077  -1.337  0.00  0.00    -0.034 A 
ATOM      5  C4  UNL d   1       0.883  -2.191  -2.177  0.00  0.00     0.162 A 
ATOM      6  C5  UNL d   1       0.910  -2.028  -3.558  0.00  0.00     0.062 A 
ATOM      7  F   UNL d   1       0.938  -3.105  -4.357  0.00  0.00    -0.097 F 
ATOM      8  F1  UNL d   1       0.886  -3.432  -1.669  0.00  0.00    -0.096 F 
ATOM      9  I   UNL d   1       0.814  -1.316   0.730  0.00  0.00    -0.060 I 
ATOM     10  F2  UNL d   1       0.825   1.293  -1.123  0.00  0.00    -0.096 F 
ATOM     11  F3  UNL d   1       0.877   1.588  -3.815  0.00  0.00    -0.097 F 
ATOM     12  F4  UNL d   1       0.934  -0.602  -5.442  0.00  0.00    -0.092 F 
ENDROOT
TORSDOF 0
ENDMDL
