MODEL 1
REMARK minimizedAffinity 12.2269201
REMARK minimizedRMSD -1
REMARK  0 active torsions:
REMARK  status: ('A' for Active; 'I' for Inactive)
ROOT
ATOM      1  C   UNL d   1       1.557  -0.689  -3.177  0.00  0.00     0.124 A 
ATOM      2  C1  UNL d   1       2.514  -0.517  -2.186  0.00  0.00     0.062 A 
ATOM      3  C2  UNL d   1       2.623  -1.440  -1.150  0.00  0.00     0.162 A 
ATOM      4  C3  UNL d   1       1.773  -2.545  -1.100  0.00  0.00    -0.034 A 
ATOM      5  C4  UNL d   1       0.812  -2.711  -2.099  0.00  0.00     0.162 A 
ATOM      6  C5  UNL d   1       0.707  -1.785  -3.133  0.00  0.00     0.062 A 
ATOM      7  F   UNL d   1      -0.218  -1.953  -4.089  0.00  0.00    -0.097 F 
ATOM      8  F1  UNL d   1      -0.021  -3.762  -2.082  0.00  0.00    -0.096 F 
ATOM      9  I   UNL d   1       1.933  -3.928   0.447  0.00  0.00    -0.060 I 
ATOM     10  F2  UNL d   1       3.556  -1.249  -0.207  0.00  0.00    -0.096 F 
ATOM     11  F3  UNL d   1       3.335   0.542  -2.226  0.00  0.00    -0.097 F 
ATOM     12  F4  UNL d   1       1.453   0.202  -4.172  0.00  0.00    -0.092 F 
ENDROOT
TORSDOF 0
ENDMDL
