MODEL 1
REMARK minimizedAffinity 11.1832047
REMARK minimizedRMSD -1
REMARK  0 active torsions:
REMARK  status: ('A' for Active; 'I' for Inactive)
ROOT
ATOM      1  C   UNL d   1       2.519   0.867  -2.371  0.00  0.00     0.124 A 
ATOM      2  C1  UNL d   1       2.772  -0.184  -1.501  0.00  0.00     0.062 A 
ATOM      3  C2  UNL d   1       2.117  -1.401  -1.665  0.00  0.00     0.162 A 
ATOM      4  C3  UNL d   1       1.203  -1.574  -2.705  0.00  0.00    -0.034 A 
ATOM      5  C4  UNL d   1       0.954  -0.512  -3.576  0.00  0.00     0.162 A 
ATOM      6  C5  UNL d   1       1.611   0.703  -3.407  0.00  0.00     0.062 A 
ATOM      7  F   UNL d   1       1.365   1.717  -4.249  0.00  0.00    -0.097 F 
ATOM      8  F1  UNL d   1       0.081  -0.644  -4.586  0.00  0.00    -0.096 F 
ATOM      9  I   UNL d   1       0.222  -3.393  -2.954  0.00  0.00    -0.060 I 
ATOM     10  F2  UNL d   1       2.380  -2.400  -0.810  0.00  0.00    -0.096 F 
ATOM     11  F3  UNL d   1       3.648  -0.027  -0.499  0.00  0.00    -0.097 F 
ATOM     12  F4  UNL d   1       3.150   2.038  -2.210  0.00  0.00    -0.092 F 
ENDROOT
TORSDOF 0
ENDMDL
