MODEL 1
REMARK minimizedAffinity 11.8803158
REMARK minimizedRMSD -1
REMARK  0 active torsions:
REMARK  status: ('A' for Active; 'I' for Inactive)
ROOT
ATOM      1  C   UNL d   1       0.847   1.889  -2.436  0.00  0.00     0.124 A 
ATOM      2  C1  UNL d   1      -0.274   1.329  -1.840  0.00  0.00     0.062 A 
ATOM      3  C2  UNL d   1      -0.202   0.064  -1.265  0.00  0.00     0.162 A 
ATOM      4  C3  UNL d   1       0.996  -0.651  -1.282  0.00  0.00    -0.034 A 
ATOM      5  C4  UNL d   1       2.119  -0.081  -1.884  0.00  0.00     0.162 A 
ATOM      6  C5  UNL d   1       2.042   1.184  -2.458  0.00  0.00     0.062 A 
ATOM      7  F   UNL d   1       3.127   1.723  -3.033  0.00  0.00    -0.097 F 
ATOM      8  F1  UNL d   1       3.287  -0.740  -1.918  0.00  0.00    -0.096 F 
ATOM      9  I   UNL d   1       1.107  -2.543  -0.422  0.00  0.00    -0.060 I 
ATOM     10  F2  UNL d   1      -1.302  -0.453  -0.695  0.00  0.00    -0.096 F 
ATOM     11  F3  UNL d   1      -1.430   2.008  -1.819  0.00  0.00    -0.097 F 
ATOM     12  F4  UNL d   1       0.776   3.106  -2.990  0.00  0.00    -0.092 F 
ENDROOT
TORSDOF 0
ENDMDL
