MODEL 1
REMARK minimizedAffinity 15.1017618
REMARK minimizedRMSD -1
REMARK  0 active torsions:
REMARK  status: ('A' for Active; 'I' for Inactive)
ROOT
ATOM      1  C   UNL d   1       1.815  -2.183  -1.637  0.00  0.00     0.124 A 
ATOM      2  C1  UNL d   1       2.507  -1.035  -1.276  0.00  0.00     0.062 A 
ATOM      3  C2  UNL d   1       2.403   0.117  -2.051  0.00  0.00     0.162 A 
ATOM      4  C3  UNL d   1       1.603   0.127  -3.193  0.00  0.00    -0.034 A 
ATOM      5  C4  UNL d   1       0.911  -1.032  -3.550  0.00  0.00     0.162 A 
ATOM      6  C5  UNL d   1       1.019  -2.181  -2.773  0.00  0.00     0.062 A 
ATOM      7  F   UNL d   1       0.350  -3.289  -3.122  0.00  0.00    -0.097 F 
ATOM      8  F1  UNL d   1       0.133  -1.057  -4.642  0.00  0.00    -0.096 F 
ATOM      9  I   UNL d   1       1.445   1.847  -4.354  0.00  0.00    -0.060 I 
ATOM     10  F2  UNL d   1       3.082   1.212  -1.679  0.00  0.00    -0.096 F 
ATOM     11  F3  UNL d   1       3.278  -1.035  -0.179  0.00  0.00    -0.097 F 
ATOM     12  F4  UNL d   1       1.918  -3.290  -0.890  0.00  0.00    -0.092 F 
ENDROOT
TORSDOF 0
ENDMDL
