MODEL 1
REMARK minimizedAffinity 12.3727131
REMARK minimizedRMSD -1
REMARK  0 active torsions:
REMARK  status: ('A' for Active; 'I' for Inactive)
ROOT
ATOM      1  C   UNL d   1       1.653  -1.268  -2.026  0.00  0.00     0.124 A 
ATOM      2  C1  UNL d   1       0.362  -1.426  -1.542  0.00  0.00     0.062 A 
ATOM      3  C2  UNL d   1      -0.428  -0.310  -1.281  0.00  0.00     0.162 A 
ATOM      4  C3  UNL d   1       0.070   0.973  -1.505  0.00  0.00    -0.034 A 
ATOM      5  C4  UNL d   1       1.370   1.124  -1.991  0.00  0.00     0.162 A 
ATOM      6  C5  UNL d   1       2.156   0.005  -2.250  0.00  0.00     0.062 A 
ATOM      7  F   UNL d   1       3.404   0.159  -2.718  0.00  0.00    -0.097 F 
ATOM      8  F1  UNL d   1       1.881   2.343  -2.217  0.00  0.00    -0.096 F 
ATOM      9  I   UNL d   1      -1.109   2.644  -1.116  0.00  0.00    -0.060 I 
ATOM     10  F2  UNL d   1      -1.672  -0.492  -0.814  0.00  0.00    -0.096 F 
ATOM     11  F3  UNL d   1      -0.126  -2.656  -1.324  0.00  0.00    -0.097 F 
ATOM     12  F4  UNL d   1       2.412  -2.344  -2.275  0.00  0.00    -0.092 F 
ENDROOT
TORSDOF 0
ENDMDL
