MODEL 1
REMARK minimizedAffinity 11.269825
REMARK minimizedRMSD -1
REMARK  0 active torsions:
REMARK  status: ('A' for Active; 'I' for Inactive)
ROOT
ATOM      1  C   UNL d   1      -0.016   3.357  -2.255  0.00  0.00     0.124 A 
ATOM      2  C1  UNL d   1       0.778   2.726  -3.203  0.00  0.00     0.062 A 
ATOM      3  C2  UNL d   1       1.397   1.516  -2.905  0.00  0.00     0.162 A 
ATOM      4  C3  UNL d   1       1.225   0.927  -1.652  0.00  0.00    -0.034 A 
ATOM      5  C4  UNL d   1       0.425   1.567  -0.703  0.00  0.00     0.162 A 
ATOM      6  C5  UNL d   1      -0.192   2.777  -1.006  0.00  0.00     0.062 A 
ATOM      7  F   UNL d   1      -0.958   3.384  -0.089  0.00  0.00    -0.097 F 
ATOM      8  F1  UNL d   1       0.238   1.029   0.511  0.00  0.00    -0.096 F 
ATOM      9  I   UNL d   1       2.149  -0.882  -1.202  0.00  0.00    -0.060 I 
ATOM     10  F2  UNL d   1       2.159   0.930  -3.840  0.00  0.00    -0.096 F 
ATOM     11  F3  UNL d   1       0.950   3.285  -4.410  0.00  0.00    -0.097 F 
ATOM     12  F4  UNL d   1      -0.610   4.521  -2.544  0.00  0.00    -0.092 F 
ENDROOT
TORSDOF 0
ENDMDL
