MODEL 1
REMARK minimizedAffinity 8.80833149
REMARK minimizedRMSD -1
REMARK  0 active torsions:
REMARK  status: ('A' for Active; 'I' for Inactive)
ROOT
ATOM      1  C   UNL d   1       1.988   2.293  -2.522  0.00  0.00     0.124 A 
ATOM      2  C1  UNL d   1       0.821   1.852  -1.914  0.00  0.00     0.062 A 
ATOM      3  C2  UNL d   1       0.709   0.531  -1.489  0.00  0.00     0.162 A 
ATOM      4  C3  UNL d   1       1.768  -0.359  -1.670  0.00  0.00    -0.034 A 
ATOM      5  C4  UNL d   1       2.939   0.092  -2.283  0.00  0.00     0.162 A 
ATOM      6  C5  UNL d   1       3.046   1.413  -2.706  0.00  0.00     0.062 A 
ATOM      7  F   UNL d   1       4.174   1.837  -3.294  0.00  0.00    -0.097 F 
ATOM      8  F1  UNL d   1       3.976  -0.737  -2.473  0.00  0.00    -0.096 F 
ATOM      9  I   UNL d   1       1.605  -2.334  -1.036  0.00  0.00    -0.060 I 
ATOM     10  F2  UNL d   1      -0.430   0.132  -0.904  0.00  0.00    -0.096 F 
ATOM     11  F3  UNL d   1      -0.202   2.700  -1.735  0.00  0.00    -0.097 F 
ATOM     12  F4  UNL d   1       2.093   3.564  -2.931  0.00  0.00    -0.092 F 
ENDROOT
TORSDOF 0
ENDMDL
