MODEL 1
REMARK minimizedAffinity 14.4086351
REMARK minimizedRMSD -1
REMARK  0 active torsions:
REMARK  status: ('A' for Active; 'I' for Inactive)
ROOT
ATOM      1  C   UNL d   1       2.461  -1.231  -0.735  0.00  0.00     0.124 A 
ATOM      2  C1  UNL d   1       1.748  -0.155  -1.245  0.00  0.00     0.062 A 
ATOM      3  C2  UNL d   1       0.366  -0.234  -1.384  0.00  0.00     0.162 A 
ATOM      4  C3  UNL d   1      -0.314  -1.394  -1.013  0.00  0.00    -0.034 A 
ATOM      5  C4  UNL d   1       0.410  -2.473  -0.502  0.00  0.00     0.162 A 
ATOM      6  C5  UNL d   1       1.792  -2.389  -0.364  0.00  0.00     0.062 A 
ATOM      7  F   UNL d   1       2.479  -3.429   0.129  0.00  0.00    -0.097 F 
ATOM      8  F1  UNL d   1      -0.212  -3.603  -0.134  0.00  0.00    -0.096 F 
ATOM      9  I   UNL d   1      -2.381  -1.516  -1.220  0.00  0.00    -0.060 I 
ATOM     10  F2  UNL d   1      -0.297   0.822  -1.880  0.00  0.00    -0.096 F 
ATOM     11  F3  UNL d   1       2.393   0.965  -1.605  0.00  0.00    -0.097 F 
ATOM     12  F4  UNL d   1       3.792  -1.152  -0.602  0.00  0.00    -0.092 F 
ENDROOT
TORSDOF 0
ENDMDL
