MODEL 1
REMARK minimizedAffinity 3.72256017
REMARK minimizedRMSD -1
REMARK  2 active torsions:
REMARK  status: ('A' for Active; 'I' for Inactive)
REMARK    1  A    between atoms: C2'_3  and  C1'_4 
REMARK    2  A    between atoms: C1'_4  and  C1_5 
ROOT
ATOM      1  C1  I4B d   1      -3.611   0.974   5.115  0.00  0.00    -0.075 A 
ATOM      2  C2  I4B d   1      -4.982   1.039   5.138  0.00  0.00     0.003 A 
ATOM      3  C3  I4B d   1      -5.740  -0.061   5.609  0.00  0.00     0.002 A 
ATOM      4  C4  I4B d   1      -5.093  -1.216   5.996  0.00  0.00    -0.004 A 
ATOM      5  C5  I4B d   1      -3.702  -1.273   5.993  0.00  0.00     0.002 A 
ATOM      6  C6  I4B d   1      -2.956  -0.166   5.561  0.00  0.00     0.003 A 
ENDROOT
BRANCH   1   7
ATOM      7  C1' I4B d   1      -2.843   2.141   4.581  0.00  0.00     0.060 C 
BRANCH   7   8
ATOM      8  C2' I4B d   1      -1.802   1.612   3.616  0.00  0.00    -0.013 C 
ATOM      9  C4' I4B d   1      -2.395   1.370   2.253  0.00  0.00     0.013 C 
ATOM     10  C3' I4B d   1      -0.683   2.609   3.550  0.00  0.00     0.013 C 
ENDBRANCH   7   8
ENDBRANCH   1   7
TORSDOF 2
ENDMDL
