MODEL 1
REMARK minimizedAffinity 11.5995646
REMARK minimizedRMSD -1
REMARK  2 active torsions:
REMARK  status: ('A' for Active; 'I' for Inactive)
REMARK    1  A    between atoms: C2'_3  and  C1'_4 
REMARK    2  A    between atoms: C1'_4  and  C1_5 
ROOT
ATOM      1  C1  I4B d   1       0.274   0.758   1.922  0.00  0.00    -0.075 A 
ATOM      2  C2  I4B d   1       0.854   1.611   2.828  0.00  0.00     0.003 A 
ATOM      3  C3  I4B d   1       0.066   2.568   3.512  0.00  0.00     0.002 A 
ATOM      4  C4  I4B d   1      -1.280   2.669   3.225  0.00  0.00    -0.004 A 
ATOM      5  C5  I4B d   1      -1.871   1.788   2.324  0.00  0.00     0.002 A 
ATOM      6  C6  I4B d   1      -1.091   0.818   1.677  0.00  0.00     0.003 A 
ENDROOT
BRANCH   1   7
ATOM      7  C1' I4B d   1       1.142  -0.218   1.193  0.00  0.00     0.060 C 
BRANCH   7   8
ATOM      8  C2' I4B d   1       2.521   0.397   1.054  0.00  0.00    -0.013 C 
ATOM      9  C4' I4B d   1       3.598  -0.649   1.171  0.00  0.00     0.013 C 
ATOM     10  C3' I4B d   1       2.585   1.094  -0.272  0.00  0.00     0.013 C 
ENDBRANCH   7   8
ENDBRANCH   1   7
TORSDOF 2
ENDMDL
