MODEL 1
REMARK minimizedAffinity 6.03234053
REMARK minimizedRMSD -1
REMARK  2 active torsions:
REMARK  status: ('A' for Active; 'I' for Inactive)
REMARK    1  A    between atoms: C2'_3  and  C1'_4 
REMARK    2  A    between atoms: C1'_4  and  C1_5 
ROOT
ATOM      1  C1  I4B d   1       3.146   0.701  -4.398  0.00  0.00    -0.075 A 
ATOM      2  C2  I4B d   1       2.373   1.217  -3.388  0.00  0.00     0.003 A 
ATOM      3  C3  I4B d   1       1.739   2.473  -3.546  0.00  0.00     0.002 A 
ATOM      4  C4  I4B d   1       1.945   3.198  -4.702  0.00  0.00    -0.004 A 
ATOM      5  C5  I4B d   1       2.710   2.663  -5.735  0.00  0.00     0.002 A 
ATOM      6  C6  I4B d   1       3.305   1.401  -5.587  0.00  0.00     0.003 A 
ENDROOT
BRANCH   1   7
ATOM      7  C1' I4B d   1       3.827  -0.614  -4.185  0.00  0.00     0.060 C 
BRANCH   7   8
ATOM      8  C2' I4B d   1       2.800  -1.709  -4.384  0.00  0.00    -0.013 C 
ATOM      9  C4' I4B d   1       2.679  -2.085  -5.838  0.00  0.00     0.013 C 
ATOM     10  C3' I4B d   1       3.213  -2.888  -3.554  0.00  0.00     0.013 C 
ENDBRANCH   7   8
ENDBRANCH   1   7
TORSDOF 2
ENDMDL
