MODEL 1
REMARK minimizedAffinity 9.85964775
REMARK minimizedRMSD -1
REMARK  2 active torsions:
REMARK  status: ('A' for Active; 'I' for Inactive)
REMARK    1  A    between atoms: C2'_3  and  C1'_4 
REMARK    2  A    between atoms: C1'_4  and  C1_5 
ROOT
ATOM      1  C1  I4B d   1      -2.253   0.982   3.579  0.00  0.00    -0.075 A 
ATOM      2  C2  I4B d   1      -1.930   2.301   3.373  0.00  0.00     0.003 A 
ATOM      3  C3  I4B d   1      -0.611   2.663   3.007  0.00  0.00     0.002 A 
ATOM      4  C4  I4B d   1       0.359   1.686   2.908  0.00  0.00    -0.004 A 
ATOM      5  C5  I4B d   1       0.024   0.348   3.095  0.00  0.00     0.002 A 
ATOM      6  C6  I4B d   1      -1.293  -0.008   3.420  0.00  0.00     0.003 A 
ENDROOT
BRANCH   1   7
ATOM      7  C1' I4B d   1      -3.648   0.639   3.996  0.00  0.00     0.060 C 
BRANCH   7   8
ATOM      8  C2' I4B d   1      -3.702   0.665   5.510  0.00  0.00    -0.013 C 
ATOM      9  C4' I4B d   1      -4.880   1.466   6.000  0.00  0.00     0.013 C 
ATOM     10  C3' I4B d   1      -3.772  -0.752   5.996  0.00  0.00     0.013 C 
ENDBRANCH   7   8
ENDBRANCH   1   7
TORSDOF 2
ENDMDL
