MODEL 1
REMARK minimizedAffinity 5.40302229
REMARK minimizedRMSD -1
REMARK  2 active torsions:
REMARK  status: ('A' for Active; 'I' for Inactive)
REMARK    1  A    between atoms: C2'_3  and  C1'_4 
REMARK    2  A    between atoms: C1'_4  and  C1_5 
ROOT
ATOM      1  C1  I4B d   1       2.319   0.570  -4.878  0.00  0.00    -0.075 A 
ATOM      2  C2  I4B d   1       3.190   0.808  -3.844  0.00  0.00     0.003 A 
ATOM      3  C3  I4B d   1       3.652  -0.263  -3.041  0.00  0.00     0.002 A 
ATOM      4  C4  I4B d   1       3.181  -1.539  -3.273  0.00  0.00    -0.004 A 
ATOM      5  C5  I4B d   1       2.317  -1.782  -4.336  0.00  0.00     0.002 A 
ATOM      6  C6  I4B d   1       1.892  -0.723  -5.152  0.00  0.00     0.003 A 
ENDROOT
BRANCH   1   7
ATOM      7  C1' I4B d   1       1.826   1.728  -5.686  0.00  0.00     0.060 C 
BRANCH   7   8
ATOM      8  C2' I4B d   1       2.275   3.002  -4.999  0.00  0.00    -0.013 C 
ATOM      9  C4' I4B d   1       2.538   4.098  -5.998  0.00  0.00     0.013 C 
ATOM     10  C3' I4B d   1       1.208   3.402  -4.024  0.00  0.00     0.013 C 
ENDBRANCH   7   8
ENDBRANCH   1   7
TORSDOF 2
ENDMDL
