MODEL 1
REMARK minimizedAffinity 5.11031294
REMARK minimizedRMSD -1
REMARK  2 active torsions:
REMARK  status: ('A' for Active; 'I' for Inactive)
REMARK    1  A    between atoms: C2'_3  and  C1'_4 
REMARK    2  A    between atoms: C1'_4  and  C1_5 
ROOT
ATOM      1  C1  I4B d   1      -1.779   0.928   2.409  0.00  0.00    -0.075 A 
ATOM      2  C2  I4B d   1      -0.902  -0.093   2.139  0.00  0.00     0.003 A 
ATOM      3  C3  I4B d   1       0.488   0.091   2.338  0.00  0.00     0.002 A 
ATOM      4  C4  I4B d   1       0.959   1.319   2.756  0.00  0.00    -0.004 A 
ATOM      5  C5  I4B d   1       0.066   2.345   3.050  0.00  0.00     0.002 A 
ATOM      6  C6  I4B d   1      -1.312   2.146   2.888  0.00  0.00     0.003 A 
ENDROOT
BRANCH   1   7
ATOM      7  C1' I4B d   1      -3.237   0.711   2.156  0.00  0.00     0.060 C 
BRANCH   7   8
ATOM      8  C2' I4B d   1      -3.951   0.739   3.493  0.00  0.00    -0.013 C 
ATOM      9  C4' I4B d   1      -5.399   0.350   3.345  0.00  0.00     0.013 C 
ATOM     10  C3' I4B d   1      -3.232  -0.194   4.421  0.00  0.00     0.013 C 
ENDBRANCH   7   8
ENDBRANCH   1   7
TORSDOF 2
ENDMDL
