MODEL 1
REMARK minimizedAffinity 11.4088745
REMARK minimizedRMSD -1
REMARK  2 active torsions:
REMARK  status: ('A' for Active; 'I' for Inactive)
REMARK    1  A    between atoms: C2'_3  and  C1'_4 
REMARK    2  A    between atoms: C1'_4  and  C1_5 
ROOT
ATOM      1  C1  I4B d   1      -1.490   1.190   1.921  0.00  0.00    -0.075 A 
ATOM      2  C2  I4B d   1      -0.440   0.334   1.699  0.00  0.00     0.003 A 
ATOM      3  C3  I4B d   1       0.745   0.446   2.466  0.00  0.00     0.002 A 
ATOM      4  C4  I4B d   1       0.856   1.454   3.402  0.00  0.00    -0.004 A 
ATOM      5  C5  I4B d   1      -0.218   2.307   3.641  0.00  0.00     0.002 A 
ATOM      6  C6  I4B d   1      -1.403   2.166   2.905  0.00  0.00     0.003 A 
ENDROOT
BRANCH   1   7
ATOM      7  C1' I4B d   1      -2.715   1.064   1.071  0.00  0.00     0.060 C 
BRANCH   7   8
ATOM      8  C2' I4B d   1      -2.336   0.303  -0.183  0.00  0.00    -0.013 C 
ATOM      9  C4' I4B d   1      -3.092  -0.996  -0.281  0.00  0.00     0.013 C 
ATOM     10  C3' I4B d   1      -2.619   1.184  -1.362  0.00  0.00     0.013 C 
ENDBRANCH   7   8
ENDBRANCH   1   7
TORSDOF 2
ENDMDL
