MODEL 1
REMARK minimizedAffinity 10.640151
REMARK minimizedRMSD -1
REMARK  2 active torsions:
REMARK  status: ('A' for Active; 'I' for Inactive)
REMARK    1  A    between atoms: C2'_3  and  C1'_4 
REMARK    2  A    between atoms: C1'_4  and  C1_5 
ROOT
ATOM      1  C1  I4B d   1      -4.719   1.637   3.600  0.00  0.00    -0.075 A 
ATOM      2  C2  I4B d   1      -5.478   0.493   3.584  0.00  0.00     0.003 A 
ATOM      3  C3  I4B d   1      -6.000  -0.033   4.790  0.00  0.00     0.002 A 
ATOM      4  C4  I4B d   1      -5.698   0.583   5.987  0.00  0.00    -0.004 A 
ATOM      5  C5  I4B d   1      -4.947   1.755   6.000  0.00  0.00     0.002 A 
ATOM      6  C6  I4B d   1      -4.464   2.292   4.797  0.00  0.00     0.003 A 
ENDROOT
BRANCH   1   7
ATOM      7  C1' I4B d   1      -4.156   2.147   2.311  0.00  0.00     0.060 C 
BRANCH   7   8
ATOM      8  C2' I4B d   1      -2.830   1.452   2.073  0.00  0.00    -0.013 C 
ATOM      9  C4' I4B d   1      -2.668   1.069   0.626  0.00  0.00     0.013 C 
ATOM     10  C3' I4B d   1      -1.737   2.378   2.514  0.00  0.00     0.013 C 
ENDBRANCH   7   8
ENDBRANCH   1   7
TORSDOF 2
ENDMDL
