MODEL 1
REMARK minimizedAffinity 4.09870481
REMARK minimizedRMSD -1
REMARK  2 active torsions:
REMARK  status: ('A' for Active; 'I' for Inactive)
REMARK    1  A    between atoms: C2'_3  and  C1'_4 
REMARK    2  A    between atoms: C1'_4  and  C1_5 
ROOT
ATOM      1  C1  I4B d   1      -2.468   1.881   2.717  0.00  0.00    -0.075 A 
ATOM      2  C2  I4B d   1      -3.025   1.211   1.657  0.00  0.00     0.003 A 
ATOM      3  C3  I4B d   1      -2.201   0.509   0.744  0.00  0.00     0.002 A 
ATOM      4  C4  I4B d   1      -0.831   0.545   0.900  0.00  0.00    -0.004 A 
ATOM      5  C5  I4B d   1      -0.269   1.205   1.988  0.00  0.00     0.002 A 
ATOM      6  C6  I4B d   1      -1.093   1.868   2.910  0.00  0.00     0.003 A 
ENDROOT
BRANCH   1   7
ATOM      7  C1' I4B d   1      -3.365   2.640   3.642  0.00  0.00     0.060 C 
BRANCH   7   8
ATOM      8  C2' I4B d   1      -4.312   1.650   4.290  0.00  0.00    -0.013 C 
ATOM      9  C4' I4B d   1      -4.440   1.906   5.769  0.00  0.00     0.013 C 
ATOM     10  C3' I4B d   1      -5.641   1.764   3.604  0.00  0.00     0.013 C 
ENDBRANCH   7   8
ENDBRANCH   1   7
TORSDOF 2
ENDMDL
