MODEL 1
REMARK minimizedAffinity 6.16927671
REMARK minimizedRMSD -1
REMARK  2 active torsions:
REMARK  status: ('A' for Active; 'I' for Inactive)
REMARK    1  A    between atoms: C2'_3  and  C1'_4 
REMARK    2  A    between atoms: C1'_4  and  C1_5 
ROOT
ATOM      1  C1  I4B d   1      -2.708   1.384   3.321  0.00  0.00    -0.075 A 
ATOM      2  C2  I4B d   1      -1.388   1.010   3.378  0.00  0.00     0.003 A 
ATOM      3  C3  I4B d   1      -0.697   0.652   2.195  0.00  0.00     0.002 A 
ATOM      4  C4  I4B d   1      -1.373   0.635   0.992  0.00  0.00    -0.004 A 
ATOM      5  C5  I4B d   1      -2.704   1.037   0.933  0.00  0.00     0.002 A 
ATOM      6  C6  I4B d   1      -3.373   1.426   2.103  0.00  0.00     0.003 A 
ENDROOT
BRANCH   1   7
ATOM      7  C1' I4B d   1      -3.416   1.724   4.594  0.00  0.00     0.060 C 
BRANCH   7   8
ATOM      8  C2' I4B d   1      -4.217   0.511   5.021  0.00  0.00    -0.013 C 
ATOM      9  C4' I4B d   1      -3.444  -0.336   5.998  0.00  0.00     0.013 C 
ATOM     10  C3' I4B d   1      -5.503   0.993   5.622  0.00  0.00     0.013 C 
ENDBRANCH   7   8
ENDBRANCH   1   7
TORSDOF 2
ENDMDL
