MODEL 1
REMARK minimizedAffinity 19.6937332
REMARK minimizedRMSD -1
REMARK  2 active torsions:
REMARK  status: ('A' for Active; 'I' for Inactive)
REMARK    1  A    between atoms: C2'_3  and  C1'_4 
REMARK    2  A    between atoms: C1'_4  and  C1_5 
ROOT
ATOM      1  C1  I4B d   1      -3.593   3.332  -5.694  0.00  0.00    -0.075 A 
ATOM      2  C2  I4B d   1      -3.590   4.620  -5.219  0.00  0.00     0.003 A 
ATOM      3  C3  I4B d   1      -4.809   5.318  -5.045  0.00  0.00     0.002 A 
ATOM      4  C4  I4B d   1      -5.996   4.713  -5.404  0.00  0.00    -0.004 A 
ATOM      5  C5  I4B d   1      -5.999   3.400  -5.864  0.00  0.00     0.002 A 
ATOM      6  C6  I4B d   1      -4.791   2.700  -5.998  0.00  0.00     0.003 A 
ENDROOT
BRANCH   1   7
ATOM      7  C1' I4B d   1      -2.285   2.635  -5.896  0.00  0.00     0.060 C 
BRANCH   7   8
ATOM      8  C2' I4B d   1      -1.558   2.611  -4.567  0.00  0.00    -0.013 C 
ATOM      9  C4' I4B d   1      -1.484   1.214  -4.011  0.00  0.00     0.013 C 
ATOM     10  C3' I4B d   1      -0.188   3.183  -4.779  0.00  0.00     0.013 C 
ENDBRANCH   7   8
ENDBRANCH   1   7
TORSDOF 2
ENDMDL
