MODEL 1
REMARK minimizedAffinity 6.98697281
REMARK minimizedRMSD -1
REMARK  2 active torsions:
REMARK  status: ('A' for Active; 'I' for Inactive)
REMARK    1  A    between atoms: C2'_3  and  C1'_4 
REMARK    2  A    between atoms: C1'_4  and  C1_5 
ROOT
ATOM      1  C1  I4B d   1       4.023   1.970   1.515  0.00  0.00    -0.075 A 
ATOM      2  C2  I4B d   1       3.489   2.613   2.604  0.00  0.00     0.003 A 
ATOM      3  C3  I4B d   1       3.515   1.998   3.879  0.00  0.00     0.002 A 
ATOM      4  C4  I4B d   1       4.036   0.727   4.009  0.00  0.00    -0.004 A 
ATOM      5  C5  I4B d   1       4.598   0.086   2.909  0.00  0.00     0.002 A 
ATOM      6  C6  I4B d   1       4.603   0.716   1.656  0.00  0.00     0.003 A 
ENDROOT
BRANCH   1   7
ATOM      7  C1' I4B d   1       3.949   2.635   0.177  0.00  0.00     0.060 C 
BRANCH   7   8
ATOM      8  C2' I4B d   1       5.261   3.355  -0.060  0.00  0.00    -0.013 C 
ATOM      9  C4' I4B d   1       6.000   2.770  -1.234  0.00  0.00     0.013 C 
ATOM     10  C3' I4B d   1       4.959   4.807  -0.279  0.00  0.00     0.013 C 
ENDBRANCH   7   8
ENDBRANCH   1   7
TORSDOF 2
ENDMDL
