MODEL 1
REMARK minimizedAffinity 13.4851055
REMARK minimizedRMSD -1
REMARK  2 active torsions:
REMARK  status: ('A' for Active; 'I' for Inactive)
REMARK    1  A    between atoms: C2'_3  and  C1'_4 
REMARK    2  A    between atoms: C1'_4  and  C1_5 
ROOT
ATOM      1  C1  I4B d   1      -2.763  -0.628   1.628  0.00  0.00    -0.075 A 
ATOM      2  C2  I4B d   1      -2.545   0.727   1.640  0.00  0.00     0.003 A 
ATOM      3  C3  I4B d   1      -2.397   1.414   2.870  0.00  0.00     0.002 A 
ATOM      4  C4  I4B d   1      -2.524   0.720   4.056  0.00  0.00    -0.004 A 
ATOM      5  C5  I4B d   1      -2.723  -0.658   4.041  0.00  0.00     0.002 A 
ATOM      6  C6  I4B d   1      -2.831  -1.339   2.819  0.00  0.00     0.003 A 
ENDROOT
BRANCH   1   7
ATOM      7  C1' I4B d   1      -2.947  -1.316   0.312  0.00  0.00     0.060 C 
BRANCH   7   8
ATOM      8  C2' I4B d   1      -1.601  -1.366  -0.381  0.00  0.00    -0.013 C 
ATOM      9  C4' I4B d   1      -0.907  -2.679  -0.131  0.00  0.00     0.013 C 
ATOM     10  C3' I4B d   1      -1.826  -1.143  -1.847  0.00  0.00     0.013 C 
ENDBRANCH   7   8
ENDBRANCH   1   7
TORSDOF 2
ENDMDL
