MODEL 1
REMARK minimizedAffinity 17.6676064
REMARK minimizedRMSD -1
REMARK  2 active torsions:
REMARK  status: ('A' for Active; 'I' for Inactive)
REMARK    1  A    between atoms: C2'_3  and  C1'_4 
REMARK    2  A    between atoms: C1'_4  and  C1_5 
ROOT
ATOM      1  C1  I4B d   1      -3.589   3.959  -2.130  0.00  0.00    -0.075 A 
ATOM      2  C2  I4B d   1      -3.791   5.032  -1.299  0.00  0.00     0.003 A 
ATOM      3  C3  I4B d   1      -4.333   4.840  -0.005  0.00  0.00     0.002 A 
ATOM      4  C4  I4B d   1      -4.702   3.572   0.395  0.00  0.00    -0.004 A 
ATOM      5  C5  I4B d   1      -4.475   2.482  -0.440  0.00  0.00     0.002 A 
ATOM      6  C6  I4B d   1      -3.903   2.675  -1.706  0.00  0.00     0.003 A 
ENDROOT
BRANCH   1   7
ATOM      7  C1' I4B d   1      -3.045   4.203  -3.502  0.00  0.00     0.060 C 
BRANCH   7   8
ATOM      8  C2' I4B d   1      -2.669   2.862  -4.100  0.00  0.00    -0.013 C 
ATOM      9  C4' I4B d   1      -3.620   2.470  -5.200  0.00  0.00     0.013 C 
ATOM     10  C3' I4B d   1      -1.263   2.961  -4.610  0.00  0.00     0.013 C 
ENDBRANCH   7   8
ENDBRANCH   1   7
TORSDOF 2
ENDMDL
