MODEL 1
REMARK minimizedAffinity 8.01059914
REMARK minimizedRMSD -1
REMARK  2 active torsions:
REMARK  status: ('A' for Active; 'I' for Inactive)
REMARK    1  A    between atoms: C2'_3  and  C1'_4 
REMARK    2  A    between atoms: C1'_4  and  C1_5 
ROOT
ATOM      1  C1  I4B d   1      -0.971  -3.224   1.345  0.00  0.00    -0.075 A 
ATOM      2  C2  I4B d   1      -2.073  -2.726   1.995  0.00  0.00     0.003 A 
ATOM      3  C3  I4B d   1      -2.984  -1.885   1.311  0.00  0.00     0.002 A 
ATOM      4  C4  I4B d   1      -2.730  -1.529   0.003  0.00  0.00    -0.004 A 
ATOM      5  C5  I4B d   1      -1.624  -2.053  -0.661  0.00  0.00     0.002 A 
ATOM      6  C6  I4B d   1      -0.746  -2.915   0.010  0.00  0.00     0.003 A 
ENDROOT
BRANCH   1   7
ATOM      7  C1' I4B d   1      -0.012  -4.082   2.107  0.00  0.00     0.060 C 
BRANCH   7   8
ATOM      8  C2' I4B d   1      -0.437  -5.526   1.932  0.00  0.00    -0.013 C 
ATOM      9  C4' I4B d   1      -1.262  -5.997   3.100  0.00  0.00     0.013 C 
ATOM     10  C3' I4B d   1      -1.206  -5.629   0.649  0.00  0.00     0.013 C 
ENDBRANCH   7   8
ENDBRANCH   1   7
TORSDOF 2
ENDMDL
