MODEL 1
REMARK minimizedAffinity 16.8343792
REMARK minimizedRMSD -1
REMARK  2 active torsions:
REMARK  status: ('A' for Active; 'I' for Inactive)
REMARK    1  A    between atoms: C2'_3  and  C1'_4 
REMARK    2  A    between atoms: C1'_4  and  C1_5 
ROOT
ATOM      1  C1  I4B d   1       4.140   2.217   2.634  0.00  0.00    -0.075 A 
ATOM      2  C2  I4B d   1       4.047   2.935   1.468  0.00  0.00     0.003 A 
ATOM      3  C3  I4B d   1       4.933   2.670   0.395  0.00  0.00     0.002 A 
ATOM      4  C4  I4B d   1       5.922   1.720   0.549  0.00  0.00    -0.004 A 
ATOM      5  C5  I4B d   1       6.000   0.977   1.723  0.00  0.00     0.002 A 
ATOM      6  C6  I4B d   1       5.096   1.218   2.768  0.00  0.00     0.003 A 
ENDROOT
BRANCH   1   7
ATOM      7  C1' I4B d   1       3.210   2.545   3.758  0.00  0.00     0.060 C 
BRANCH   7   8
ATOM      8  C2' I4B d   1       3.918   2.222   5.059  0.00  0.00    -0.013 C 
ATOM      9  C4' I4B d   1       3.897   3.399   5.998  0.00  0.00     0.013 C 
ATOM     10  C3' I4B d   1       3.243   1.030   5.669  0.00  0.00     0.013 C 
ENDBRANCH   7   8
ENDBRANCH   1   7
TORSDOF 2
ENDMDL
