MODEL 1
REMARK minimizedAffinity 11.987874
REMARK minimizedRMSD -1
REMARK  2 active torsions:
REMARK  status: ('A' for Active; 'I' for Inactive)
REMARK    1  A    between atoms: C2'_3  and  C1'_4 
REMARK    2  A    between atoms: C1'_4  and  C1_5 
ROOT
ATOM      1  C1  I4B d   1       4.776   2.629   1.297  0.00  0.00    -0.075 A 
ATOM      2  C2  I4B d   1       5.580   1.578   0.933  0.00  0.00     0.003 A 
ATOM      3  C3  I4B d   1       5.997   0.631   1.899  0.00  0.00     0.002 A 
ATOM      4  C4  I4B d   1       5.631   0.800   3.218  0.00  0.00    -0.004 A 
ATOM      5  C5  I4B d   1       4.797   1.853   3.582  0.00  0.00     0.002 A 
ATOM      6  C6  I4B d   1       4.356   2.766   2.614  0.00  0.00     0.003 A 
ENDROOT
BRANCH   1   7
ATOM      7  C1' I4B d   1       4.381   3.629   0.258  0.00  0.00     0.060 C 
BRANCH   7   8
ATOM      8  C2' I4B d   1       5.420   4.732   0.253  0.00  0.00    -0.013 C 
ATOM      9  C4' I4B d   1       6.000   4.929  -1.123  0.00  0.00     0.013 C 
ATOM     10  C3' I4B d   1       4.766   5.987   0.749  0.00  0.00     0.013 C 
ENDBRANCH   7   8
ENDBRANCH   1   7
TORSDOF 2
ENDMDL
