MODEL 1
REMARK minimizedAffinity 20.4085236
REMARK minimizedRMSD -1
REMARK  2 active torsions:
REMARK  status: ('A' for Active; 'I' for Inactive)
REMARK    1  A    between atoms: C2'_3  and  C1'_4 
REMARK    2  A    between atoms: C1'_4  and  C1_5 
ROOT
ATOM      1  C1  I4B d   1      -0.751  -1.383  -2.453  0.00  0.00    -0.075 A 
ATOM      2  C2  I4B d   1       0.058  -0.699  -3.326  0.00  0.00     0.003 A 
ATOM      3  C3  I4B d   1      -0.223  -0.708  -4.714  0.00  0.00     0.002 A 
ATOM      4  C4  I4B d   1      -1.285  -1.451  -5.187  0.00  0.00    -0.004 A 
ATOM      5  C5  I4B d   1      -2.117  -2.125  -4.298  0.00  0.00     0.002 A 
ATOM      6  C6  I4B d   1      -1.856  -2.081  -2.921  0.00  0.00     0.003 A 
ENDROOT
BRANCH   1   7
ATOM      7  C1' I4B d   1      -0.406  -1.378  -0.997  0.00  0.00     0.060 C 
BRANCH   7   8
ATOM      8  C2' I4B d   1      -1.462  -2.182  -0.265  0.00  0.00    -0.013 C 
ATOM      9  C4' I4B d   1      -0.835  -3.168   0.685  0.00  0.00     0.013 C 
ATOM     10  C3' I4B d   1      -2.353  -1.220   0.463  0.00  0.00     0.013 C 
ENDBRANCH   7   8
ENDBRANCH   1   7
TORSDOF 2
ENDMDL
