MODEL 1
REMARK minimizedAffinity 7.71422958
REMARK minimizedRMSD -1
REMARK  2 active torsions:
REMARK  status: ('A' for Active; 'I' for Inactive)
REMARK    1  A    between atoms: C2'_3  and  C1'_4 
REMARK    2  A    between atoms: C1'_4  and  C1_5 
ROOT
ATOM      1  C1  I4B d   1      -1.500  -3.001   0.368  0.00  0.00    -0.075 A 
ATOM      2  C2  I4B d   1      -0.740  -3.642   1.314  0.00  0.00     0.003 A 
ATOM      3  C3  I4B d   1      -1.227  -3.798   2.634  0.00  0.00     0.002 A 
ATOM      4  C4  I4B d   1      -2.450  -3.257   2.976  0.00  0.00    -0.004 A 
ATOM      5  C5  I4B d   1      -3.229  -2.627   2.010  0.00  0.00     0.002 A 
ATOM      6  C6  I4B d   1      -2.757  -2.508   0.695  0.00  0.00     0.003 A 
ENDROOT
BRANCH   1   7
ATOM      7  C1' I4B d   1      -0.941  -2.824  -1.008  0.00  0.00     0.060 C 
BRANCH   7   8
ATOM      8  C2' I4B d   1      -0.980  -1.347  -1.342  0.00  0.00    -0.013 C 
ATOM      9  C4' I4B d   1       0.386  -0.837  -1.719  0.00  0.00     0.013 C 
ATOM     10  C3' I4B d   1      -1.959  -1.151  -2.461  0.00  0.00     0.013 C 
ENDBRANCH   7   8
ENDBRANCH   1   7
TORSDOF 2
ENDMDL
