MODEL 1
REMARK minimizedAffinity 15.2125292
REMARK minimizedRMSD -1
REMARK  2 active torsions:
REMARK  status: ('A' for Active; 'I' for Inactive)
REMARK    1  A    between atoms: C2'_3  and  C1'_4 
REMARK    2  A    between atoms: C1'_4  and  C1_5 
ROOT
ATOM      1  C1  I4B d   1       4.833   3.509   0.872  0.00  0.00    -0.075 A 
ATOM      2  C2  I4B d   1       4.464   4.671   1.502  0.00  0.00     0.003 A 
ATOM      3  C3  I4B d   1       4.851   5.924   0.969  0.00  0.00     0.002 A 
ATOM      4  C4  I4B d   1       5.645   5.967  -0.159  0.00  0.00    -0.004 A 
ATOM      5  C5  I4B d   1       6.000   4.788  -0.809  0.00  0.00     0.002 A 
ATOM      6  C6  I4B d   1       5.581   3.551  -0.297  0.00  0.00     0.003 A 
ENDROOT
BRANCH   1   7
ATOM      7  C1' I4B d   1       4.434   2.202   1.481  0.00  0.00     0.060 C 
BRANCH   7   8
ATOM      8  C2' I4B d   1       5.004   2.146   2.883  0.00  0.00    -0.013 C 
ATOM      9  C4' I4B d   1       3.924   2.324   3.918  0.00  0.00     0.013 C 
ATOM     10  C3' I4B d   1       5.700   0.828   3.048  0.00  0.00     0.013 C 
ENDBRANCH   7   8
ENDBRANCH   1   7
TORSDOF 2
ENDMDL
