MODEL 1
REMARK minimizedAffinity 11.8304424
REMARK minimizedRMSD -1
REMARK  2 active torsions:
REMARK  status: ('A' for Active; 'I' for Inactive)
REMARK    1  A    between atoms: C2'_3  and  C1'_4 
REMARK    2  A    between atoms: C1'_4  and  C1_5 
ROOT
ATOM      1  C1  I4B d   1      -3.558  -0.445   5.609  0.00  0.00    -0.075 A 
ATOM      2  C2  I4B d   1      -3.179   0.873   5.637  0.00  0.00     0.003 A 
ATOM      3  C3  I4B d   1      -4.141   1.888   5.860  0.00  0.00     0.002 A 
ATOM      4  C4  I4B d   1      -5.471   1.544   6.000  0.00  0.00    -0.004 A 
ATOM      5  C5  I4B d   1      -5.850   0.205   5.994  0.00  0.00     0.002 A 
ATOM      6  C6  I4B d   1      -4.887  -0.797   5.810  0.00  0.00     0.003 A 
ENDROOT
BRANCH   1   7
ATOM      7  C1' I4B d   1      -2.521  -1.488   5.338  0.00  0.00     0.060 C 
BRANCH   7   8
ATOM      8  C2' I4B d   1      -2.975  -2.298   4.140  0.00  0.00    -0.013 C 
ATOM      9  C4' I4B d   1      -2.972  -1.465   2.886  0.00  0.00     0.013 C 
ATOM     10  C3' I4B d   1      -2.062  -3.480   4.007  0.00  0.00     0.013 C 
ENDBRANCH   7   8
ENDBRANCH   1   7
TORSDOF 2
ENDMDL
