MODEL 1
REMARK minimizedAffinity 16.7423191
REMARK minimizedRMSD -1
REMARK  2 active torsions:
REMARK  status: ('A' for Active; 'I' for Inactive)
REMARK    1  A    between atoms: C2'_3  and  C1'_4 
REMARK    2  A    between atoms: C1'_4  and  C1_5 
ROOT
ATOM      1  C1  I4B d   1      -0.305  -0.678  -2.082  0.00  0.00    -0.075 A 
ATOM      2  C2  I4B d   1       0.459   0.067  -1.219  0.00  0.00     0.003 A 
ATOM      3  C3  I4B d   1       1.761   0.479  -1.594  0.00  0.00     0.002 A 
ATOM      4  C4  I4B d   1       2.274   0.084  -2.813  0.00  0.00    -0.004 A 
ATOM      5  C5  I4B d   1       1.490  -0.653  -3.696  0.00  0.00     0.002 A 
ATOM      6  C6  I4B d   1       0.187  -1.026  -3.334  0.00  0.00     0.003 A 
ENDROOT
BRANCH   1   7
ATOM      7  C1' I4B d   1      -1.663  -1.124  -1.641  0.00  0.00     0.060 C 
BRANCH   7   8
ATOM      8  C2' I4B d   1      -1.553  -1.608  -0.209  0.00  0.00    -0.013 C 
ATOM      9  C4' I4B d   1      -2.902  -1.642   0.460  0.00  0.00     0.013 C 
ATOM     10  C3' I4B d   1      -0.923  -2.968  -0.227  0.00  0.00     0.013 C 
ENDBRANCH   7   8
ENDBRANCH   1   7
TORSDOF 2
ENDMDL
