MODEL 1
REMARK minimizedAffinity -2.19975758
REMARK minimizedRMSD -1
REMARK  0 active torsions:
REMARK  status: ('A' for Active; 'I' for Inactive)
ROOT
ATOM      1  C   UNL d   1      -1.073   1.367   2.978  0.00  0.00     0.020 A 
ATOM      2  C1  UNL d   1       0.213   1.872   3.167  0.00  0.00     0.020 A 
ATOM      3  C2  UNL d   1       1.223   1.572   2.251  0.00  0.00     0.034 A 
ATOM      4  C3  UNL d   1       0.949   0.764   1.141  0.00  0.00     0.017 A 
ATOM      5  C4  UNL d   1      -0.341   0.258   0.952  0.00  0.00     0.017 A 
ATOM      6  C5  UNL d   1      -1.349   0.562   1.872  0.00  0.00     0.034 A 
ATOM      7 Cl   UNL d   1      -0.756  -0.745  -0.393  0.00  0.00    -0.070 Cl
ATOM      8 Cl1  UNL d   1       2.247   0.433   0.048  0.00  0.00    -0.070 Cl
ENDROOT
TORSDOF 0
ENDMDL
