MODEL 1
REMARK minimizedAffinity -1.28763795
REMARK minimizedRMSD -1
REMARK  0 active torsions:
REMARK  status: ('A' for Active; 'I' for Inactive)
ROOT
ATOM      1  C   UNL d   1      -0.561   1.736   3.256  0.00  0.00     0.020 A 
ATOM      2  C1  UNL d   1      -1.543   0.784   2.986  0.00  0.00     0.020 A 
ATOM      3  C2  UNL d   1      -1.424  -0.045   1.868  0.00  0.00     0.034 A 
ATOM      4  C3  UNL d   1      -0.320   0.077   1.017  0.00  0.00     0.017 A 
ATOM      5  C4  UNL d   1       0.666   1.032   1.289  0.00  0.00     0.017 A 
ATOM      6  C5  UNL d   1       0.541   1.859   2.409  0.00  0.00     0.034 A 
ATOM      7 Cl   UNL d   1       2.057   1.241   0.284  0.00  0.00    -0.070 Cl
ATOM      8 Cl1  UNL d   1      -0.237  -0.981  -0.347  0.00  0.00    -0.070 Cl
ENDROOT
TORSDOF 0
ENDMDL
