MODEL 1
REMARK minimizedAffinity -0.0387529768
REMARK minimizedRMSD -1
REMARK  0 active torsions:
REMARK  status: ('A' for Active; 'I' for Inactive)
ROOT
ATOM      1  C   UNL d   1       0.752   2.191   2.994  0.00  0.00     0.020 A 
ATOM      2  C1  UNL d   1       1.425   1.939   1.800  0.00  0.00     0.020 A 
ATOM      3  C2  UNL d   1       0.961   0.949   0.932  0.00  0.00     0.034 A 
ATOM      4  C3  UNL d   1      -0.180   0.207   1.257  0.00  0.00     0.017 A 
ATOM      5  C4  UNL d   1      -0.856   0.460   2.456  0.00  0.00     0.017 A 
ATOM      6  C5  UNL d   1      -0.387   1.453   3.321  0.00  0.00     0.034 A 
ATOM      7 Cl   UNL d   1      -2.271  -0.414   2.925  0.00  0.00    -0.070 Cl
ATOM      8 Cl1  UNL d   1      -0.699  -1.002   0.136  0.00  0.00    -0.070 Cl
ENDROOT
TORSDOF 0
ENDMDL
