MODEL 1
REMARK minimizedAffinity 1.69469023
REMARK minimizedRMSD -1
REMARK  0 active torsions:
REMARK  status: ('A' for Active; 'I' for Inactive)
ROOT
ATOM      1  C   UNL d   1       0.079   1.625   3.112  0.00  0.00     0.020 A 
ATOM      2  C1  UNL d   1      -0.924   0.740   3.506  0.00  0.00     0.020 A 
ATOM      3  C2  UNL d   1      -1.660   0.044   2.544  0.00  0.00     0.034 A 
ATOM      4  C3  UNL d   1      -1.394   0.233   1.183  0.00  0.00     0.017 A 
ATOM      5  C4  UNL d   1      -0.387   1.121   0.788  0.00  0.00     0.017 A 
ATOM      6  C5  UNL d   1       0.347   1.815   1.756  0.00  0.00     0.034 A 
ATOM      7 Cl   UNL d   1      -0.001   1.406  -0.872  0.00  0.00    -0.070 Cl
ATOM      8 Cl1  UNL d   1      -2.342  -0.660   0.048  0.00  0.00    -0.070 Cl
ENDROOT
TORSDOF 0
ENDMDL
