MODEL 1
REMARK minimizedAffinity -2.91937637
REMARK minimizedRMSD -1
REMARK  0 active torsions:
REMARK  status: ('A' for Active; 'I' for Inactive)
ROOT
ATOM      1  C   UNL d   1      -0.922  -1.110   0.075  0.00  0.00     0.020 A 
ATOM      2  C1  UNL d   1      -2.010  -0.649   0.816  0.00  0.00     0.020 A 
ATOM      3  C2  UNL d   1      -1.816   0.301   1.822  0.00  0.00     0.034 A 
ATOM      4  C3  UNL d   1      -0.533   0.792   2.089  0.00  0.00     0.017 A 
ATOM      5  C4  UNL d   1       0.557   0.328   1.344  0.00  0.00     0.017 A 
ATOM      6  C5  UNL d   1       0.358  -0.623   0.338  0.00  0.00     0.034 A 
ATOM      7 Cl   UNL d   1       2.170   0.887   1.616  0.00  0.00    -0.070 Cl
ATOM      8 Cl1  UNL d   1      -0.368   1.965   3.347  0.00  0.00    -0.070 Cl
ENDROOT
TORSDOF 0
ENDMDL
