MODEL 1
REMARK minimizedAffinity 1.22413838
REMARK minimizedRMSD -1
REMARK  0 active torsions:
REMARK  status: ('A' for Active; 'I' for Inactive)
ROOT
ATOM      1  C   UNL d   1       0.319   2.148   1.596  0.00  0.00     0.020 A 
ATOM      2  C1  UNL d   1      -0.115   2.144   2.921  0.00  0.00     0.020 A 
ATOM      3  C2  UNL d   1      -1.057   1.204   3.344  0.00  0.00     0.034 A 
ATOM      4  C3  UNL d   1      -1.568   0.264   2.441  0.00  0.00     0.017 A 
ATOM      5  C4  UNL d   1      -1.131   0.269   1.112  0.00  0.00     0.017 A 
ATOM      6  C5  UNL d   1      -0.188   1.212   0.693  0.00  0.00     0.034 A 
ATOM      7 Cl   UNL d   1      -1.716  -0.860  -0.060  0.00  0.00    -0.070 Cl
ATOM      8 Cl1  UNL d   1      -2.730  -0.870   3.034  0.00  0.00    -0.070 Cl
ENDROOT
TORSDOF 0
ENDMDL
