MODEL 1
REMARK minimizedAffinity 1.8442055
REMARK minimizedRMSD -1
REMARK  0 active torsions:
REMARK  status: ('A' for Active; 'I' for Inactive)
ROOT
ATOM      1  C   UNL d   1       0.289   1.814   2.504  0.00  0.00     0.020 A 
ATOM      2  C1  UNL d   1      -0.622   0.996   3.170  0.00  0.00     0.020 A 
ATOM      3  C2  UNL d   1      -1.512   0.204   2.441  0.00  0.00     0.034 A 
ATOM      4  C3  UNL d   1      -1.492   0.228   1.042  0.00  0.00     0.017 A 
ATOM      5  C4  UNL d   1      -0.577   1.050   0.374  0.00  0.00     0.017 A 
ATOM      6  C5  UNL d   1       0.312   1.841   1.109  0.00  0.00     0.034 A 
ATOM      7 Cl   UNL d   1      -0.493   1.134  -1.350  0.00  0.00    -0.070 Cl
ATOM      8 Cl1  UNL d   1      -2.621  -0.777   0.205  0.00  0.00    -0.070 Cl
ENDROOT
TORSDOF 0
ENDMDL
