MODEL 1
REMARK minimizedAffinity 3.47651577
REMARK minimizedRMSD -1
REMARK  0 active torsions:
REMARK  status: ('A' for Active; 'I' for Inactive)
ROOT
ATOM      1  C   UNL d   1      -0.089   0.386   0.409  0.00  0.00     0.020 A 
ATOM      2  C1  UNL d   1      -1.407   0.192  -0.001  0.00  0.00     0.020 A 
ATOM      3  C2  UNL d   1      -2.322  -0.421   0.858  0.00  0.00     0.034 A 
ATOM      4  C3  UNL d   1      -1.919  -0.843   2.131  0.00  0.00     0.017 A 
ATOM      5  C4  UNL d   1      -0.596  -0.648   2.541  0.00  0.00     0.017 A 
ATOM      6  C5  UNL d   1       0.316  -0.033   1.677  0.00  0.00     0.034 A 
ATOM      7 Cl   UNL d   1      -0.025  -1.141   4.096  0.00  0.00    -0.070 Cl
ATOM      8 Cl1  UNL d   1      -3.104  -1.593   3.140  0.00  0.00    -0.070 Cl
ENDROOT
TORSDOF 0
ENDMDL
