MODEL 1
REMARK minimizedAffinity -5.78897524
REMARK minimizedRMSD -1
REMARK  0 active torsions:
REMARK  status: ('A' for Active; 'I' for Inactive)
ROOT
ATOM      1  C2' OXE d   1       0.123  -0.042   1.707  0.00  0.00     0.078 C 
ATOM      2  C1' OXE d   1       0.484   0.407  -1.040  0.00  0.00     0.078 C 
ATOM      3  C1  OXE d   1      -0.105   1.525  -0.216  0.00  0.00    -0.078 A 
ATOM      4  C2  OXE d   1      -0.321   1.280   1.119  0.00  0.00    -0.078 A 
ATOM      5  C3  OXE d   1      -0.811   2.295   1.935  0.00  0.00     0.003 A 
ATOM      6  C4  OXE d   1      -1.229   3.511   1.381  0.00  0.00    -0.002 A 
ATOM      7  C5  OXE d   1      -1.054   3.767   0.017  0.00  0.00    -0.002 A 
ATOM      8  C6  OXE d   1      -0.455   2.802  -0.786  0.00  0.00     0.003 A 
ENDROOT
TORSDOF 0
ENDMDL
