MODEL 1
REMARK minimizedAffinity 6.77094126
REMARK minimizedRMSD -1
REMARK  0 active torsions:
REMARK  status: ('A' for Active; 'I' for Inactive)
ROOT
ATOM      1  C2' OXE d   1       3.741  -0.563  -1.058  0.00  0.00     0.078 C 
ATOM      2  C1' OXE d   1       1.506  -0.516   0.639  0.00  0.00     0.078 C 
ATOM      3  C1  OXE d   1       2.873  -0.498   1.276  0.00  0.00    -0.078 A 
ATOM      4  C2  OXE d   1       3.961  -0.569   0.439  0.00  0.00    -0.078 A 
ATOM      5  C3  OXE d   1       5.245  -0.500   0.972  0.00  0.00     0.003 A 
ATOM      6  C4  OXE d   1       5.439  -0.515   2.358  0.00  0.00    -0.002 A 
ATOM      7  C5  OXE d   1       4.345  -0.484   3.229  0.00  0.00    -0.002 A 
ATOM      8  C6  OXE d   1       3.058  -0.432   2.704  0.00  0.00     0.003 A 
ENDROOT
TORSDOF 0
ENDMDL
