MODEL 1
REMARK minimizedAffinity -2.99281454
REMARK minimizedRMSD -1
REMARK  0 active torsions:
REMARK  status: ('A' for Active; 'I' for Inactive)
ROOT
ATOM      1  C2' OXE d   1       0.250  -0.533  -1.077  0.00  0.00     0.078 C 
ATOM      2  C1' OXE d   1      -0.678   1.928  -2.058  0.00  0.00     0.078 C 
ATOM      3  C1  OXE d   1      -0.467   1.799  -0.570  0.00  0.00    -0.078 A 
ATOM      4  C2  OXE d   1      -0.057   0.576  -0.094  0.00  0.00    -0.078 A 
ATOM      5  C3  OXE d   1       0.205   0.418   1.264  0.00  0.00     0.003 A 
ATOM      6  C4  OXE d   1      -0.091   1.446   2.168  0.00  0.00    -0.002 A 
ATOM      7  C5  OXE d   1      -0.547   2.686   1.708  0.00  0.00    -0.002 A 
ATOM      8  C6  OXE d   1      -0.699   2.892   0.341  0.00  0.00     0.003 A 
ENDROOT
TORSDOF 0
ENDMDL
