MODEL 1
REMARK minimizedAffinity -5.37200594
REMARK minimizedRMSD -1
REMARK  0 active torsions:
REMARK  status: ('A' for Active; 'I' for Inactive)
ROOT
ATOM      1  C2' OXE d   1      -1.561   2.795   1.783  0.00  0.00     0.078 C 
ATOM      2  C1' OXE d   1      -0.909   2.041  -0.841  0.00  0.00     0.078 C 
ATOM      3  C1  OXE d   1      -0.130   1.411   0.286  0.00  0.00    -0.078 A 
ATOM      4  C2  OXE d   1      -0.424   1.821   1.564  0.00  0.00    -0.078 A 
ATOM      5  C3  OXE d   1       0.227   1.231   2.644  0.00  0.00     0.003 A 
ATOM      6  C4  OXE d   1       1.284   0.338   2.433  0.00  0.00    -0.002 A 
ATOM      7  C5  OXE d   1       1.626  -0.063   1.137  0.00  0.00    -0.002 A 
ATOM      8  C6  OXE d   1       0.902   0.430   0.057  0.00  0.00     0.003 A 
ENDROOT
TORSDOF 0
ENDMDL
