MODEL 1
REMARK minimizedAffinity -1.70466888
REMARK minimizedRMSD -1
REMARK  0 active torsions:
REMARK  status: ('A' for Active; 'I' for Inactive)
ROOT
ATOM      1  C2' OXE d   1      -0.913   1.950  -1.555  0.00  0.00     0.078 C 
ATOM      2  C1' OXE d   1      -1.290   2.380   1.193  0.00  0.00     0.078 C 
ATOM      3  C1  OXE d   1      -0.219   1.404   0.775  0.00  0.00    -0.078 A 
ATOM      4  C2  OXE d   1      -0.073   1.165  -0.571  0.00  0.00    -0.078 A 
ATOM      5  C3  OXE d   1       0.937   0.315  -1.014  0.00  0.00     0.003 A 
ATOM      6  C4  OXE d   1       1.703  -0.414  -0.097  0.00  0.00    -0.002 A 
ATOM      7  C5  OXE d   1       1.543  -0.216   1.279  0.00  0.00    -0.002 A 
ATOM      8  C6  OXE d   1       0.618   0.720   1.729  0.00  0.00     0.003 A 
ENDROOT
TORSDOF 0
ENDMDL
