MODEL 1
REMARK minimizedAffinity -3.57133651
REMARK minimizedRMSD -1
REMARK  0 active torsions:
REMARK  status: ('A' for Active; 'I' for Inactive)
ROOT
ATOM      1  C2' OXE d   1       1.759  -0.186   0.903  0.00  0.00     0.078 C 
ATOM      2  C1' OXE d   1      -0.089  -1.259  -0.918  0.00  0.00     0.078 C 
ATOM      3  C1  OXE d   1      -0.489  -0.019  -0.157  0.00  0.00    -0.078 A 
ATOM      4  C2  OXE d   1       0.403   0.472   0.766  0.00  0.00    -0.078 A 
ATOM      5  C3  OXE d   1       0.106   1.644   1.455  0.00  0.00     0.003 A 
ATOM      6  C4  OXE d   1      -1.154   2.241   1.330  0.00  0.00    -0.002 A 
ATOM      7  C5  OXE d   1      -2.093   1.734   0.424  0.00  0.00    -0.002 A 
ATOM      8  C6  OXE d   1      -1.760   0.632  -0.356  0.00  0.00     0.003 A 
ENDROOT
TORSDOF 0
ENDMDL
