MODEL 1
REMARK minimizedAffinity -2.52146769
REMARK minimizedRMSD -1
REMARK  0 active torsions:
REMARK  status: ('A' for Active; 'I' for Inactive)
ROOT
ATOM      1  O1  BZF d   1       1.084   0.173   1.623  0.00  0.00    -0.204 OA
ATOM      2  C2  BZF d   1       0.974  -0.597   0.481  0.00  0.00     0.174 A 
ATOM      3  C3  BZF d   1       1.643  -0.031  -0.544  0.00  0.00    -0.012 A 
ATOM      4  C3A BZF d   1       2.283   1.121   0.015  0.00  0.00    -0.107 A 
ATOM      5  C4  BZF d   1       3.104   2.082  -0.502  0.00  0.00     0.055 A 
ATOM      6  C5  BZF d   1       3.498   3.111   0.293  0.00  0.00    -0.016 A 
ATOM      7  C6  BZF d   1       3.085   3.214   1.606  0.00  0.00     0.022 A 
ATOM      8  C7  BZF d   1       2.275   2.282   2.164  0.00  0.00     0.029 A 
ATOM      9  C7A BZF d   1       1.902   1.223   1.373  0.00  0.00     0.058 A 
ENDROOT
TORSDOF 0
ENDMDL
