MODEL 1
REMARK minimizedAffinity -0.318170249
REMARK minimizedRMSD -1
REMARK  0 active torsions:
REMARK  status: ('A' for Active; 'I' for Inactive)
ROOT
ATOM      1  O1  BZF d   1       1.487  -0.318   0.069  0.00  0.00    -0.204 OA
ATOM      2  C2  BZF d   1       1.820   0.896   0.638  0.00  0.00     0.174 A 
ATOM      3  C3  BZF d   1       0.877   1.823   0.373  0.00  0.00    -0.012 A 
ATOM      4  C3A BZF d   1      -0.151   1.123  -0.332  0.00  0.00    -0.107 A 
ATOM      5  C4  BZF d   1      -1.357   1.499  -0.851  0.00  0.00     0.055 A 
ATOM      6  C5  BZF d   1      -2.090   0.589  -1.545  0.00  0.00    -0.016 A 
ATOM      7  C6  BZF d   1      -1.646  -0.702  -1.744  0.00  0.00     0.022 A 
ATOM      8  C7  BZF d   1      -0.459  -1.123  -1.244  0.00  0.00     0.029 A 
ATOM      9  C7A BZF d   1       0.269  -0.215  -0.514  0.00  0.00     0.058 A 
ENDROOT
TORSDOF 0
ENDMDL
