MODEL 1
REMARK minimizedAffinity -3.26673222
REMARK minimizedRMSD -1
REMARK  0 active torsions:
REMARK  status: ('A' for Active; 'I' for Inactive)
ROOT
ATOM      1  O1  BZF d   1      -0.421   0.698   0.499  0.00  0.00    -0.204 OA
ATOM      2  C2  BZF d   1      -0.450   0.005  -0.696  0.00  0.00     0.174 A 
ATOM      3  C3  BZF d   1       0.781  -0.060  -1.242  0.00  0.00    -0.012 A 
ATOM      4  C3A BZF d   1       1.649   0.557  -0.287  0.00  0.00    -0.107 A 
ATOM      5  C4  BZF d   1       2.996   0.783  -0.250  0.00  0.00     0.055 A 
ATOM      6  C5  BZF d   1       3.521   1.476   0.794  0.00  0.00    -0.016 A 
ATOM      7  C6  BZF d   1       2.730   1.962   1.815  0.00  0.00     0.022 A 
ATOM      8  C7  BZF d   1       1.390   1.758   1.825  0.00  0.00     0.029 A 
ATOM      9  C7A BZF d   1       0.860   1.030   0.788  0.00  0.00     0.058 A 
ENDROOT
TORSDOF 0
ENDMDL
