MODEL 1
REMARK minimizedAffinity -2.74742985
REMARK minimizedRMSD -1
REMARK  0 active torsions:
REMARK  status: ('A' for Active; 'I' for Inactive)
ROOT
ATOM      1  O1  BZF d   1       0.988  -0.406   0.648  0.00  0.00    -0.204 OA
ATOM      2  C2  BZF d   1       0.986   0.536  -0.363  0.00  0.00     0.174 A 
ATOM      3  C3  BZF d   1      -0.073   0.358  -1.179  0.00  0.00    -0.012 A 
ATOM      4  C3A BZF d   1      -0.827  -0.707  -0.592  0.00  0.00    -0.107 A 
ATOM      5  C4  BZF d   1      -1.994  -1.330  -0.931  0.00  0.00     0.055 A 
ATOM      6  C5  BZF d   1      -2.421  -2.384  -0.186  0.00  0.00    -0.016 A 
ATOM      7  C6  BZF d   1      -1.704  -2.843   0.899  0.00  0.00     0.022 A 
ATOM      8  C7  BZF d   1      -0.544  -2.254   1.278  0.00  0.00     0.029 A 
ATOM      9  C7A BZF d   1      -0.127  -1.168   0.547  0.00  0.00     0.058 A 
ENDROOT
TORSDOF 0
ENDMDL
