MODEL 1
REMARK minimizedAffinity -1.89765096
REMARK minimizedRMSD -1
REMARK  0 active torsions:
REMARK  status: ('A' for Active; 'I' for Inactive)
ROOT
ATOM      1  O1  BZF d   1       0.963  -0.636  -0.442  0.00  0.00    -0.204 OA
ATOM      2  C2  BZF d   1      -0.265  -0.170  -0.871  0.00  0.00     0.174 A 
ATOM      3  C3  BZF d   1      -0.461   1.102  -0.468  0.00  0.00    -0.012 A 
ATOM      4  C3A BZF d   1       0.757   1.484   0.179  0.00  0.00    -0.107 A 
ATOM      5  C4  BZF d   1       1.181   2.637   0.776  0.00  0.00     0.055 A 
ATOM      6  C5  BZF d   1       2.400   2.659   1.377  0.00  0.00    -0.016 A 
ATOM      7  C6  BZF d   1       3.216   1.547   1.405  0.00  0.00     0.022 A 
ATOM      8  C7  BZF d   1       2.840   0.382   0.823  0.00  0.00     0.029 A 
ATOM      9  C7A BZF d   1       1.623   0.366   0.186  0.00  0.00     0.058 A 
ENDROOT
TORSDOF 0
ENDMDL
