MODEL 1
REMARK minimizedAffinity 0.459936023
REMARK minimizedRMSD -1
REMARK  0 active torsions:
REMARK  status: ('A' for Active; 'I' for Inactive)
ROOT
ATOM      1  O1  BZF d   1      -0.721  -2.264   1.553  0.00  0.00    -0.204 OA
ATOM      2  C2  BZF d   1      -1.744  -3.175   1.375  0.00  0.00     0.174 A 
ATOM      3  C3  BZF d   1      -2.530  -2.815   0.340  0.00  0.00    -0.012 A 
ATOM      4  C3A BZF d   1      -1.909  -1.653  -0.218  0.00  0.00    -0.107 A 
ATOM      5  C4  BZF d   1      -2.210  -0.844  -1.276  0.00  0.00     0.055 A 
ATOM      6  C5  BZF d   1      -1.441   0.252  -1.510  0.00  0.00    -0.016 A 
ATOM      7  C6  BZF d   1      -0.368   0.571  -0.704  0.00  0.00     0.022 A 
ATOM      8  C7  BZF d   1      -0.028  -0.203   0.355  0.00  0.00     0.029 A 
ATOM      9  C7A BZF d   1      -0.783  -1.330   0.574  0.00  0.00     0.058 A 
ENDROOT
TORSDOF 0
ENDMDL
