MODEL 1
REMARK minimizedAffinity -2.33548594
REMARK minimizedRMSD -1
REMARK  0 active torsions:
REMARK  status: ('A' for Active; 'I' for Inactive)
ROOT
ATOM      1  O1  BZF d   1      -0.170   1.311   0.796  0.00  0.00    -0.204 OA
ATOM      2  C2  BZF d   1      -0.011   0.244  -0.068  0.00  0.00     0.174 A 
ATOM      3  C3  BZF d   1       1.259   0.177  -0.516  0.00  0.00    -0.012 A 
ATOM      4  C3A BZF d   1       1.959   1.215   0.179  0.00  0.00    -0.107 A 
ATOM      5  C4  BZF d   1       3.257   1.639   0.172  0.00  0.00     0.055 A 
ATOM      6  C5  BZF d   1       3.600   2.726   0.912  0.00  0.00    -0.016 A 
ATOM      7  C6  BZF d   1       2.671   3.416   1.663  0.00  0.00     0.022 A 
ATOM      8  C7  BZF d   1       1.373   3.030   1.705  0.00  0.00     0.029 A 
ATOM      9  C7A BZF d   1       1.029   1.911   0.985  0.00  0.00     0.058 A 
ENDROOT
TORSDOF 0
ENDMDL
