MODEL 1
REMARK minimizedAffinity -3.34855485
REMARK minimizedRMSD -1
REMARK  0 active torsions:
REMARK  status: ('A' for Active; 'I' for Inactive)
ROOT
ATOM      1  O1  BZF d   1      -0.858  -2.317   1.243  0.00  0.00    -0.204 OA
ATOM      2  C2  BZF d   1      -1.915  -3.120   0.858  0.00  0.00     0.174 A 
ATOM      3  C3  BZF d   1      -2.553  -2.593  -0.206  0.00  0.00    -0.012 A 
ATOM      4  C3A BZF d   1      -1.795  -1.433  -0.564  0.00  0.00    -0.107 A 
ATOM      5  C4  BZF d   1      -1.919  -0.498  -1.551  0.00  0.00     0.055 A 
ATOM      6  C5  BZF d   1      -1.055   0.551  -1.580  0.00  0.00    -0.016 A 
ATOM      7  C6  BZF d   1      -0.060   0.698  -0.635  0.00  0.00     0.022 A 
ATOM      8  C7  BZF d   1       0.105  -0.207   0.360  0.00  0.00     0.029 A 
ATOM      9  C7A BZF d   1      -0.746  -1.285   0.373  0.00  0.00     0.058 A 
ENDROOT
TORSDOF 0
ENDMDL
