MODEL 1
REMARK minimizedAffinity -0.734565556
REMARK minimizedRMSD -1
REMARK  0 active torsions:
REMARK  status: ('A' for Active; 'I' for Inactive)
ROOT
ATOM      1  O1  BZF d   1      -1.371  -2.272   0.041  0.00  0.00    -0.204 OA
ATOM      2  C2  BZF d   1      -2.252  -1.856  -0.938  0.00  0.00     0.174 A 
ATOM      3  C3  BZF d   1      -1.870  -0.670  -1.454  0.00  0.00    -0.012 A 
ATOM      4  C3A BZF d   1      -0.624  -0.367  -0.818  0.00  0.00    -0.107 A 
ATOM      5  C4  BZF d   1       0.256   0.671  -0.924  0.00  0.00     0.055 A 
ATOM      6  C5  BZF d   1       1.343   0.702  -0.109  0.00  0.00    -0.016 A 
ATOM      7  C6  BZF d   1       1.577  -0.284   0.826  0.00  0.00     0.022 A 
ATOM      8  C7  BZF d   1       0.735  -1.337   0.966  0.00  0.00     0.029 A 
ATOM      9  C7A BZF d   1      -0.347  -1.388   0.121  0.00  0.00     0.058 A 
ENDROOT
TORSDOF 0
ENDMDL
