MODEL 1
REMARK minimizedAffinity -0.943469048
REMARK minimizedRMSD -1
REMARK  0 active torsions:
REMARK  status: ('A' for Active; 'I' for Inactive)
ROOT
ATOM      1  O1  BZF d   1      -0.523  -0.598  -0.575  0.00  0.00    -0.204 OA
ATOM      2  C2  BZF d   1      -1.023   0.177  -1.604  0.00  0.00     0.174 A 
ATOM      3  C3  BZF d   1      -0.256   1.270  -1.795  0.00  0.00    -0.012 A 
ATOM      4  C3A BZF d   1       0.840   1.125  -0.886  0.00  0.00    -0.107 A 
ATOM      5  C4  BZF d   1       1.944   1.882  -0.618  0.00  0.00     0.055 A 
ATOM      6  C5  BZF d   1       2.782   1.498   0.380  0.00  0.00    -0.016 A 
ATOM      7  C6  BZF d   1       2.545   0.366   1.132  0.00  0.00     0.022 A 
ATOM      8  C7  BZF d   1       1.465  -0.421   0.899  0.00  0.00     0.029 A 
ATOM      9  C7A BZF d   1       0.634  -0.052  -0.130  0.00  0.00     0.058 A 
ENDROOT
TORSDOF 0
ENDMDL
