MODEL 1
REMARK minimizedAffinity -4.12780857
REMARK minimizedRMSD -1
REMARK  0 active torsions:
REMARK  status: ('A' for Active; 'I' for Inactive)
ROOT
ATOM      1  O1  BZF d   1       0.746  -0.914   0.994  0.00  0.00    -0.204 OA
ATOM      2  C2  BZF d   1       1.050   0.214   0.257  0.00  0.00     0.174 A 
ATOM      3  C3  BZF d   1       0.062   0.494  -0.617  0.00  0.00    -0.012 A 
ATOM      4  C3A BZF d   1      -0.962  -0.469  -0.350  0.00  0.00    -0.107 A 
ATOM      5  C4  BZF d   1      -2.199  -0.695  -0.881  0.00  0.00     0.055 A 
ATOM      6  C5  BZF d   1      -2.919  -1.763  -0.447  0.00  0.00    -0.016 A 
ATOM      7  C6  BZF d   1      -2.431  -2.626   0.512  0.00  0.00     0.022 A 
ATOM      8  C7  BZF d   1      -1.211  -2.439   1.073  0.00  0.00     0.029 A 
ATOM      9  C7A BZF d   1      -0.495  -1.342   0.660  0.00  0.00     0.058 A 
ENDROOT
TORSDOF 0
ENDMDL
