MODEL 1
REMARK minimizedAffinity -2.47817612
REMARK minimizedRMSD -1
REMARK  0 active torsions:
REMARK  status: ('A' for Active; 'I' for Inactive)
ROOT
ATOM      1  O1  BZF d   1      -0.765  -2.436   0.775  0.00  0.00    -0.204 OA
ATOM      2  C2  BZF d   1      -1.957  -3.057   0.453  0.00  0.00     0.174 A 
ATOM      3  C3  BZF d   1      -2.679  -2.297  -0.395  0.00  0.00    -0.012 A 
ATOM      4  C3A BZF d   1      -1.849  -1.169  -0.689  0.00  0.00    -0.107 A 
ATOM      5  C4  BZF d   1      -2.006  -0.070  -1.484  0.00  0.00     0.055 A 
ATOM      6  C5  BZF d   1      -1.036   0.882  -1.494  0.00  0.00    -0.016 A 
ATOM      7  C6  BZF d   1       0.099   0.770  -0.718  0.00  0.00     0.022 A 
ATOM      8  C7  BZF d   1       0.302  -0.305   0.082  0.00  0.00     0.029 A 
ATOM      9  C7A BZF d   1      -0.661  -1.284   0.069  0.00  0.00     0.058 A 
ENDROOT
TORSDOF 0
ENDMDL
