MODEL 1
REMARK minimizedAffinity -0.489007264
REMARK minimizedRMSD -1
REMARK  0 active torsions:
REMARK  status: ('A' for Active; 'I' for Inactive)
ROOT
ATOM      1  O1  BZF d   1      -0.656  -0.178  -1.819  0.00  0.00    -0.204 OA
ATOM      2  C2  BZF d   1      -1.492   0.637  -2.557  0.00  0.00     0.174 A 
ATOM      3  C3  BZF d   1      -2.763   0.544  -2.116  0.00  0.00    -0.012 A 
ATOM      4  C3A BZF d   1      -2.703  -0.316  -0.975  0.00  0.00    -0.107 A 
ATOM      5  C4  BZF d   1      -3.642  -0.777  -0.097  0.00  0.00     0.055 A 
ATOM      6  C5  BZF d   1      -3.269  -1.663   0.865  0.00  0.00    -0.016 A 
ATOM      7  C6  BZF d   1      -1.969  -2.111   0.973  0.00  0.00     0.022 A 
ATOM      8  C7  BZF d   1      -1.002  -1.678   0.128  0.00  0.00     0.029 A 
ATOM      9  C7A BZF d   1      -1.369  -0.759  -0.824  0.00  0.00     0.058 A 
ENDROOT
TORSDOF 0
ENDMDL
