MODEL 1
REMARK minimizedAffinity -3.10885501
REMARK minimizedRMSD -1
REMARK  0 active torsions:
REMARK  status: ('A' for Active; 'I' for Inactive)
ROOT
ATOM      1  O1  BZF d   1      -1.099  -0.977  -0.373  0.00  0.00    -0.204 OA
ATOM      2  C2  BZF d   1      -1.545  -0.207  -1.430  0.00  0.00     0.174 A 
ATOM      3  C3  BZF d   1      -0.756   0.872  -1.601  0.00  0.00    -0.012 A 
ATOM      4  C3A BZF d   1       0.300   0.722  -0.647  0.00  0.00    -0.107 A 
ATOM      5  C4  BZF d   1       1.403   1.468  -0.342  0.00  0.00     0.055 A 
ATOM      6  C5  BZF d   1       2.194   1.083   0.693  0.00  0.00    -0.016 A 
ATOM      7  C6  BZF d   1       1.910  -0.037   1.447  0.00  0.00     0.022 A 
ATOM      8  C7  BZF d   1       0.830  -0.811   1.179  0.00  0.00     0.029 A 
ATOM      9  C7A BZF d   1       0.047  -0.443   0.113  0.00  0.00     0.058 A 
ENDROOT
TORSDOF 0
ENDMDL
