MODEL 1
REMARK minimizedAffinity 0.732662439
REMARK minimizedRMSD -1
REMARK  0 active torsions:
REMARK  status: ('A' for Active; 'I' for Inactive)
ROOT
ATOM      1  O1  BZF d   1       2.288   1.382   1.942  0.00  0.00    -0.204 OA
ATOM      2  C2  BZF d   1       3.010   2.285   1.184  0.00  0.00     0.174 A 
ATOM      3  C3  BZF d   1       2.690   2.177  -0.121  0.00  0.00    -0.012 A 
ATOM      4  C3A BZF d   1       1.640   1.207  -0.173  0.00  0.00    -0.107 A 
ATOM      5  C4  BZF d   1       0.896   0.682  -1.191  0.00  0.00     0.055 A 
ATOM      6  C5  BZF d   1      -0.000  -0.301  -0.915  0.00  0.00    -0.016 A 
ATOM      7  C6  BZF d   1      -0.174  -0.787   0.365  0.00  0.00     0.022 A 
ATOM      8  C7  BZF d   1       0.538  -0.295   1.408  0.00  0.00     0.029 A 
ATOM      9  C7A BZF d   1       1.420   0.722   1.137  0.00  0.00     0.058 A 
ENDROOT
TORSDOF 0
ENDMDL
