MODEL 1
REMARK minimizedAffinity -4.58195543
REMARK minimizedRMSD -1
REMARK  0 active torsions:
REMARK  status: ('A' for Active; 'I' for Inactive)
ROOT
ATOM      1  O1  BZF d   1       0.991   3.563   0.818  0.00  0.00    -0.204 OA
ATOM      2  C2  BZF d   1       2.293   3.385   1.244  0.00  0.00     0.174 A 
ATOM      3  C3  BZF d   1       2.691   2.112   1.044  0.00  0.00    -0.012 A 
ATOM      4  C3A BZF d   1       1.599   1.477   0.372  0.00  0.00    -0.107 A 
ATOM      5  C4  BZF d   1       1.399   0.214  -0.108  0.00  0.00     0.055 A 
ATOM      6  C5  BZF d   1       0.192  -0.104  -0.646  0.00  0.00    -0.016 A 
ATOM      7  C6  BZF d   1      -0.836   0.813  -0.717  0.00  0.00     0.022 A 
ATOM      8  C7  BZF d   1      -0.683   2.079  -0.259  0.00  0.00     0.029 A 
ATOM      9  C7A BZF d   1       0.546   2.413   0.256  0.00  0.00     0.058 A 
ENDROOT
TORSDOF 0
ENDMDL
