MODEL 1
REMARK minimizedAffinity 6.66604614
REMARK minimizedRMSD -1
REMARK  2 active torsions:
REMARK  status: ('A' for Active; 'I' for Inactive)
REMARK    1  A    between atoms: C1_2  and  C2_3 
REMARK    2  A    between atoms: C2_3  and  C3_4 
ROOT
ATOM      1  C3  UNL d   1       3.728   4.947  -2.743  0.00  0.00    -0.075 A 
ATOM      2  C4  UNL d   1       4.861   5.302  -1.997  0.00  0.00     0.002 A 
ATOM      3  C5  UNL d   1       5.988   5.830  -2.628  0.00  0.00     0.002 A 
ATOM      4  C6  UNL d   1       6.000   6.000  -4.010  0.00  0.00    -0.004 A 
ATOM      5  C7  UNL d   1       4.886   5.636  -4.763  0.00  0.00     0.002 A 
ATOM      6  C8  UNL d   1       3.755   5.111  -4.134  0.00  0.00     0.002 A 
ENDROOT
BRANCH   1   7
ATOM      7  C2  UNL d   1       2.494   4.403  -2.063  0.00  0.00     0.056 C 
BRANCH   7   8
ATOM      8  C1  UNL d   1       2.599   4.345  -0.535  0.00  0.00     0.007 C 
ATOM      9  C   UNL d   1       1.257   4.125   0.151  0.00  0.00     0.009 C 
ENDBRANCH   7   8
ENDBRANCH   1   7
TORSDOF 2
ENDMDL
