MODEL 1
REMARK minimizedAffinity 0.434830576
REMARK minimizedRMSD -1
REMARK  2 active torsions:
REMARK  status: ('A' for Active; 'I' for Inactive)
REMARK    1  A    between atoms: C1_2  and  C2_3 
REMARK    2  A    between atoms: C2_3  and  C3_4 
ROOT
ATOM      1  C3  UNL d   1       2.834   4.666  -2.313  0.00  0.00    -0.075 A 
ATOM      2  C4  UNL d   1       4.115   4.539  -1.756  0.00  0.00     0.002 A 
ATOM      3  C5  UNL d   1       5.224   5.091  -2.398  0.00  0.00     0.002 A 
ATOM      4  C6  UNL d   1       5.069   5.767  -3.606  0.00  0.00    -0.004 A 
ATOM      5  C7  UNL d   1       3.804   5.884  -4.177  0.00  0.00     0.002 A 
ATOM      6  C8  UNL d   1       2.691   5.337  -3.535  0.00  0.00     0.002 A 
ENDROOT
BRANCH   1   7
ATOM      7  C2  UNL d   1       1.626   4.097  -1.609  0.00  0.00     0.056 C 
BRANCH   7   8
ATOM      8  C1  UNL d   1       1.844   3.825  -0.117  0.00  0.00     0.007 C 
ATOM      9  C   UNL d   1       0.574   3.968   0.712  0.00  0.00     0.009 C 
ENDBRANCH   7   8
ENDBRANCH   1   7
TORSDOF 2
ENDMDL
