MODEL 1
REMARK minimizedAffinity -1.50734425
REMARK minimizedRMSD -1
REMARK  2 active torsions:
REMARK  status: ('A' for Active; 'I' for Inactive)
REMARK    1  A    between atoms: C1_2  and  C2_3 
REMARK    2  A    between atoms: C2_3  and  C3_4 
ROOT
ATOM      1  C3  UNL d   1       4.948   4.626  -4.361  0.00  0.00    -0.075 A 
ATOM      2  C4  UNL d   1       3.899   4.345  -3.473  0.00  0.00     0.002 A 
ATOM      3  C5  UNL d   1       3.894   4.888  -2.189  0.00  0.00     0.002 A 
ATOM      4  C6  UNL d   1       4.939   5.710  -1.772  0.00  0.00    -0.004 A 
ATOM      5  C7  UNL d   1       5.994   5.984  -2.640  0.00  0.00     0.002 A 
ATOM      6  C8  UNL d   1       6.000   5.445  -3.928  0.00  0.00     0.002 A 
ENDROOT
BRANCH   1   7
ATOM      7  C2  UNL d   1       4.945   4.065  -5.763  0.00  0.00     0.056 C 
BRANCH   7   8
ATOM      8  C1  UNL d   1       5.993   2.973  -6.000  0.00  0.00     0.007 C 
ATOM      9  C   UNL d   1       5.947   1.861  -4.960  0.00  0.00     0.009 C 
ENDBRANCH   7   8
ENDBRANCH   1   7
TORSDOF 2
ENDMDL
