MODEL 1
REMARK minimizedAffinity -0.698005736
REMARK minimizedRMSD -1
REMARK  2 active torsions:
REMARK  status: ('A' for Active; 'I' for Inactive)
REMARK    1  A    between atoms: C1_2  and  C2_3 
REMARK    2  A    between atoms: C2_3  and  C3_4 
ROOT
ATOM      1  C3  UNL d   1       4.514   4.985  -3.355  0.00  0.00    -0.075 A 
ATOM      2  C4  UNL d   1       5.482   4.061  -3.774  0.00  0.00     0.002 A 
ATOM      3  C5  UNL d   1       5.999   4.115  -5.069  0.00  0.00     0.002 A 
ATOM      4  C6  UNL d   1       5.549   5.084  -5.962  0.00  0.00    -0.004 A 
ATOM      5  C7  UNL d   1       4.575   5.997  -5.562  0.00  0.00     0.002 A 
ATOM      6  C8  UNL d   1       4.059   5.948  -4.266  0.00  0.00     0.002 A 
ENDROOT
BRANCH   1   7
ATOM      7  C2  UNL d   1       3.972   4.951  -1.946  0.00  0.00     0.056 C 
BRANCH   7   8
ATOM      8  C1  UNL d   1       2.454   4.756  -1.866  0.00  0.00     0.007 C 
ATOM      9  C   UNL d   1       2.008   4.027  -0.606  0.00  0.00     0.009 C 
ENDBRANCH   7   8
ENDBRANCH   1   7
TORSDOF 2
ENDMDL
