MODEL 1
REMARK minimizedAffinity 1.03624868
REMARK minimizedRMSD -1
REMARK  2 active torsions:
REMARK  status: ('A' for Active; 'I' for Inactive)
REMARK    1  A    between atoms: C1_2  and  C2_3 
REMARK    2  A    between atoms: C2_3  and  C3_4 
ROOT
ATOM      1  C3  UNL d   1       4.847   4.554  -3.425  0.00  0.00    -0.075 A 
ATOM      2  C4  UNL d   1       3.699   4.598  -2.621  0.00  0.00     0.002 A 
ATOM      3  C5  UNL d   1       3.699   5.319  -1.426  0.00  0.00     0.002 A 
ATOM      4  C6  UNL d   1       4.846   5.995  -1.016  0.00  0.00    -0.004 A 
ATOM      5  C7  UNL d   1       5.997   5.944  -1.800  0.00  0.00     0.002 A 
ATOM      6  C8  UNL d   1       5.999   5.227  -2.997  0.00  0.00     0.002 A 
ENDROOT
BRANCH   1   7
ATOM      7  C2  UNL d   1       4.844   3.800  -4.734  0.00  0.00     0.056 C 
BRANCH   7   8
ATOM      8  C1  UNL d   1       4.107   4.521  -5.867  0.00  0.00     0.007 C 
ATOM      9  C   UNL d   1       3.875   6.000  -5.588  0.00  0.00     0.009 C 
ENDBRANCH   7   8
ENDBRANCH   1   7
TORSDOF 2
ENDMDL
