MODEL 1
REMARK minimizedAffinity -0.707725227
REMARK minimizedRMSD -1
REMARK  2 active torsions:
REMARK  status: ('A' for Active; 'I' for Inactive)
REMARK    1  A    between atoms: C1_2  and  C2_3 
REMARK    2  A    between atoms: C2_3  and  C3_4 
ROOT
ATOM      1  C3  UNL d   1       4.528   4.495  -3.018  0.00  0.00    -0.075 A 
ATOM      2  C4  UNL d   1       4.512   3.631  -4.123  0.00  0.00     0.002 A 
ATOM      3  C5  UNL d   1       5.242   3.936  -5.271  0.00  0.00     0.002 A 
ATOM      4  C6  UNL d   1       5.989   5.110  -5.334  0.00  0.00    -0.004 A 
ATOM      5  C7  UNL d   1       6.000   5.984  -4.249  0.00  0.00     0.002 A 
ATOM      6  C8  UNL d   1       5.273   5.679  -3.097  0.00  0.00     0.002 A 
ENDROOT
BRANCH   1   7
ATOM      7  C2  UNL d   1       3.763   4.156  -1.761  0.00  0.00     0.056 C 
BRANCH   7   8
ATOM      8  C1  UNL d   1       2.280   4.536  -1.812  0.00  0.00     0.007 C 
ATOM      9  C   UNL d   1       1.527   4.194  -0.533  0.00  0.00     0.009 C 
ENDBRANCH   7   8
ENDBRANCH   1   7
TORSDOF 2
ENDMDL
