MODEL 1
REMARK minimizedAffinity 2.04223919
REMARK minimizedRMSD -1
REMARK  2 active torsions:
REMARK  status: ('A' for Active; 'I' for Inactive)
REMARK    1  A    between atoms: C1_2  and  C2_3 
REMARK    2  A    between atoms: C2_3  and  C3_4 
ROOT
ATOM      1  C3  UNL d   1       3.735   4.396  -2.624  0.00  0.00    -0.075 A 
ATOM      2  C4  UNL d   1       4.099   4.118  -3.949  0.00  0.00     0.002 A 
ATOM      3  C5  UNL d   1       5.228   4.715  -4.513  0.00  0.00     0.002 A 
ATOM      4  C6  UNL d   1       5.998   5.602  -3.764  0.00  0.00    -0.004 A 
ATOM      5  C7  UNL d   1       5.636   5.897  -2.452  0.00  0.00     0.002 A 
ATOM      6  C8  UNL d   1       4.510   5.299  -1.884  0.00  0.00     0.002 A 
ENDROOT
BRANCH   1   7
ATOM      7  C2  UNL d   1       2.532   3.731  -1.998  0.00  0.00     0.056 C 
BRANCH   7   8
ATOM      8  C1  UNL d   1       2.263   4.162  -0.552  0.00  0.00     0.007 C 
ATOM      9  C   UNL d   1       0.991   3.557   0.028  0.00  0.00     0.009 C 
ENDBRANCH   7   8
ENDBRANCH   1   7
TORSDOF 2
ENDMDL
