MODEL 1
REMARK minimizedAffinity -0.810940862
REMARK minimizedRMSD -1
REMARK  2 active torsions:
REMARK  status: ('A' for Active; 'I' for Inactive)
REMARK    1  A    between atoms: C1_2  and  C2_3 
REMARK    2  A    between atoms: C2_3  and  C3_4 
ROOT
ATOM      1  C3  UNL d   1       4.535   4.841  -3.512  0.00  0.00    -0.075 A 
ATOM      2  C4  UNL d   1       4.610   3.663  -4.268  0.00  0.00     0.002 A 
ATOM      3  C5  UNL d   1       5.336   3.631  -5.459  0.00  0.00     0.002 A 
ATOM      4  C6  UNL d   1       5.985   4.777  -5.914  0.00  0.00    -0.004 A 
ATOM      5  C7  UNL d   1       5.903   5.957  -5.179  0.00  0.00     0.002 A 
ATOM      6  C8  UNL d   1       5.181   5.991  -3.985  0.00  0.00     0.002 A 
ENDROOT
BRANCH   1   7
ATOM      7  C2  UNL d   1       3.776   4.874  -2.207  0.00  0.00     0.056 C 
BRANCH   7   8
ATOM      8  C1  UNL d   1       4.475   5.670  -1.099  0.00  0.00     0.007 C 
ATOM      9  C   UNL d   1       5.987   5.488  -1.091  0.00  0.00     0.009 C 
ENDBRANCH   7   8
ENDBRANCH   1   7
TORSDOF 2
ENDMDL
