MODEL 1
REMARK minimizedAffinity 11.0180435
REMARK minimizedRMSD -1
REMARK  2 active torsions:
REMARK  status: ('A' for Active; 'I' for Inactive)
REMARK    1  A    between atoms: C1_2  and  C2_3 
REMARK    2  A    between atoms: C2_3  and  C3_4 
ROOT
ATOM      1  C3  UNL d   1       3.606   5.280  -2.124  0.00  0.00    -0.075 A 
ATOM      2  C4  UNL d   1       3.671   5.309  -3.525  0.00  0.00     0.002 A 
ATOM      3  C5  UNL d   1       4.856   5.659  -4.172  0.00  0.00     0.002 A 
ATOM      4  C6  UNL d   1       5.986   5.994  -3.429  0.00  0.00    -0.004 A 
ATOM      5  C7  UNL d   1       5.928   5.985  -2.037  0.00  0.00     0.002 A 
ATOM      6  C8  UNL d   1       4.745   5.630  -1.387  0.00  0.00     0.002 A 
ENDROOT
BRANCH   1   7
ATOM      7  C2  UNL d   1       2.335   4.872  -1.418  0.00  0.00     0.056 C 
BRANCH   7   8
ATOM      8  C1  UNL d   1       2.565   4.104  -0.113  0.00  0.00     0.007 C 
ATOM      9  C   UNL d   1       1.602   2.939   0.076  0.00  0.00     0.009 C 
ENDBRANCH   7   8
ENDBRANCH   1   7
TORSDOF 2
ENDMDL
