MODEL 1
REMARK minimizedAffinity 9.17703533
REMARK minimizedRMSD -1
REMARK  2 active torsions:
REMARK  status: ('A' for Active; 'I' for Inactive)
REMARK    1  A    between atoms: C1_2  and  C2_3 
REMARK    2  A    between atoms: C2_3  and  C3_4 
ROOT
ATOM      1  C3  UNL d   1       3.434   5.070  -1.918  0.00  0.00    -0.075 A 
ATOM      2  C4  UNL d   1       3.655   4.265  -3.044  0.00  0.00     0.002 A 
ATOM      3  C5  UNL d   1       4.932   4.152  -3.594  0.00  0.00     0.002 A 
ATOM      4  C6  UNL d   1       6.000   4.850  -3.034  0.00  0.00    -0.004 A 
ATOM      5  C7  UNL d   1       5.788   5.666  -1.925  0.00  0.00     0.002 A 
ATOM      6  C8  UNL d   1       4.513   5.777  -1.369  0.00  0.00     0.002 A 
ENDROOT
BRANCH   1   7
ATOM      7  C2  UNL d   1       2.060   5.174  -1.300  0.00  0.00     0.056 C 
BRANCH   7   8
ATOM      8  C1  UNL d   1       1.891   4.355  -0.015  0.00  0.00     0.007 C 
ATOM      9  C   UNL d   1       0.624   4.702   0.755  0.00  0.00     0.009 C 
ENDBRANCH   7   8
ENDBRANCH   1   7
TORSDOF 2
ENDMDL
