MODEL 1
REMARK minimizedAffinity 5.82742405
REMARK minimizedRMSD -1
REMARK  2 active torsions:
REMARK  status: ('A' for Active; 'I' for Inactive)
REMARK    1  A    between atoms: C1_2  and  C2_3 
REMARK    2  A    between atoms: C2_3  and  C3_4 
ROOT
ATOM      1  C3  UNL d   1       3.540   5.213  -2.898  0.00  0.00    -0.075 A 
ATOM      2  C4  UNL d   1       4.670   6.000  -2.627  0.00  0.00     0.002 A 
ATOM      3  C5  UNL d   1       5.890   5.722  -3.243  0.00  0.00     0.002 A 
ATOM      4  C6  UNL d   1       6.000   4.652  -4.128  0.00  0.00    -0.004 A 
ATOM      5  C7  UNL d   1       4.889   3.854  -4.392  0.00  0.00     0.002 A 
ATOM      6  C8  UNL d   1       3.665   4.132  -3.780  0.00  0.00     0.002 A 
ENDROOT
BRANCH   1   7
ATOM      7  C2  UNL d   1       2.209   5.527  -2.257  0.00  0.00     0.056 C 
BRANCH   7   8
ATOM      8  C1  UNL d   1       1.885   4.658  -1.037  0.00  0.00     0.007 C 
ATOM      9  C   UNL d   1       0.763   5.225  -0.177  0.00  0.00     0.009 C 
ENDBRANCH   7   8
ENDBRANCH   1   7
TORSDOF 2
ENDMDL
