MODEL 1
REMARK minimizedAffinity -0.741233051
REMARK minimizedRMSD -1
REMARK  2 active torsions:
REMARK  status: ('A' for Active; 'I' for Inactive)
REMARK    1  A    between atoms: C1_2  and  C2_3 
REMARK    2  A    between atoms: C2_3  and  C3_4 
ROOT
ATOM      1  C3  UNL d   1       3.561   4.352  -2.371  0.00  0.00    -0.075 A 
ATOM      2  C4  UNL d   1       3.629   3.652  -3.584  0.00  0.00     0.002 A 
ATOM      3  C5  UNL d   1       4.842   3.527  -4.263  0.00  0.00     0.002 A 
ATOM      4  C6  UNL d   1       5.997   4.107  -3.743  0.00  0.00    -0.004 A 
ATOM      5  C7  UNL d   1       5.938   4.818  -2.547  0.00  0.00     0.002 A 
ATOM      6  C8  UNL d   1       4.727   4.941  -1.864  0.00  0.00     0.002 A 
ENDROOT
BRANCH   1   7
ATOM      7  C2  UNL d   1       2.258   4.465  -1.617  0.00  0.00     0.056 C 
BRANCH   7   8
ATOM      8  C1  UNL d   1       2.251   3.736  -0.269  0.00  0.00     0.007 C 
ATOM      9  C   UNL d   1       0.890   3.747   0.413  0.00  0.00     0.009 C 
ENDBRANCH   7   8
ENDBRANCH   1   7
TORSDOF 2
ENDMDL
