MODEL 1
REMARK minimizedAffinity 9.12545586
REMARK minimizedRMSD -1
REMARK  2 active torsions:
REMARK  status: ('A' for Active; 'I' for Inactive)
REMARK    1  A    between atoms: C1_2  and  C2_3 
REMARK    2  A    between atoms: C2_3  and  C3_4 
ROOT
ATOM      1  C3  UNL d   1       3.577   5.307  -3.018  0.00  0.00    -0.075 A 
ATOM      2  C4  UNL d   1       3.586   4.093  -3.721  0.00  0.00     0.002 A 
ATOM      3  C5  UNL d   1       4.790   3.519  -4.128  0.00  0.00     0.002 A 
ATOM      4  C6  UNL d   1       5.998   4.155  -3.849  0.00  0.00    -0.004 A 
ATOM      5  C7  UNL d   1       6.000   5.369  -3.166  0.00  0.00     0.002 A 
ATOM      6  C8  UNL d   1       4.796   5.943  -2.753  0.00  0.00     0.002 A 
ENDROOT
BRANCH   1   7
ATOM      7  C2  UNL d   1       2.278   5.918  -2.548  0.00  0.00     0.056 C 
BRANCH   7   8
ATOM      8  C1  UNL d   1       1.726   5.296  -1.261  0.00  0.00     0.007 C 
ATOM      9  C   UNL d   1       2.291   3.911  -0.973  0.00  0.00     0.009 C 
ENDBRANCH   7   8
ENDBRANCH   1   7
TORSDOF 2
ENDMDL
