MODEL 1
REMARK minimizedAffinity 2.85403228
REMARK minimizedRMSD -1
REMARK  0 active torsions:
REMARK  status: ('A' for Active; 'I' for Inactive)
ROOT
ATOM      1  C   UNL d   1      -3.691  -5.560   1.557  0.00  0.00    -0.002 A 
ATOM      2  C1  UNL d   1      -4.553  -4.478   1.670  0.00  0.00     0.010 A 
ATOM      3  C2  UNL d   1      -4.615  -3.512   0.664  0.00  0.00     0.041 A 
ATOM      4  C3  UNL d   1      -3.789  -3.653  -0.469  0.00  0.00    -0.075 A 
ATOM      5  S   UNL d   1      -3.695  -2.594  -1.826  0.00  0.00     0.015 SA
ATOM      6  C4  UNL d   1      -2.510  -3.553  -2.587  0.00  0.00     0.022 A 
ATOM      7  C5  UNL d   1      -2.181  -4.658  -1.838  0.00  0.00     0.026 A 
ATOM      8  C6  UNL d   1      -2.914  -4.735  -0.605  0.00  0.00    -0.082 A 
ATOM      9  C7  UNL d   1      -2.874  -5.697   0.432  0.00  0.00     0.045 A 
ENDROOT
TORSDOF 0
ENDMDL
