MODEL 1
REMARK minimizedAffinity 8.06380653
REMARK minimizedRMSD -1
REMARK  0 active torsions:
REMARK  status: ('A' for Active; 'I' for Inactive)
ROOT
ATOM      1  C   UNL d   1       3.351  -1.348   0.256  0.00  0.00    -0.002 A 
ATOM      2  C1  UNL d   1       3.442  -0.629   1.439  0.00  0.00     0.010 A 
ATOM      3  C2  UNL d   1       3.067   0.715   1.485  0.00  0.00     0.041 A 
ATOM      4  C3  UNL d   1       2.591   1.330   0.310  0.00  0.00    -0.075 A 
ATOM      5  S   UNL d   1       2.074   2.964   0.129  0.00  0.00     0.015 SA
ATOM      6  C4  UNL d   1       1.717   2.746  -1.524  0.00  0.00     0.022 A 
ATOM      7  C5  UNL d   1       1.982   1.464  -1.943  0.00  0.00     0.026 A 
ATOM      8  C6  UNL d   1       2.489   0.626  -0.893  0.00  0.00    -0.082 A 
ATOM      9  C7  UNL d   1       2.878  -0.735  -0.907  0.00  0.00     0.045 A 
ENDROOT
TORSDOF 0
ENDMDL
