MODEL 1
REMARK minimizedAffinity 5.85664129
REMARK minimizedRMSD -1
REMARK  0 active torsions:
REMARK  status: ('A' for Active; 'I' for Inactive)
ROOT
ATOM      1  C   UNL d   1      -5.980  -5.977  -4.074  0.00  0.00    -0.002 A 
ATOM      2  C1  UNL d   1      -5.792  -5.985  -5.449  0.00  0.00     0.010 A 
ATOM      3  C2  UNL d   1      -4.505  -5.963  -5.990  0.00  0.00     0.041 A 
ATOM      4  C3  UNL d   1      -3.399  -5.935  -5.117  0.00  0.00    -0.075 A 
ATOM      5  S   UNL d   1      -1.731  -5.905  -5.552  0.00  0.00     0.015 SA
ATOM      6  C4  UNL d   1      -1.229  -5.882  -3.924  0.00  0.00     0.022 A 
ATOM      7  C5  UNL d   1      -2.295  -5.896  -3.056  0.00  0.00     0.026 A 
ATOM      8  C6  UNL d   1      -3.563  -5.927  -3.729  0.00  0.00    -0.082 A 
ATOM      9  C7  UNL d   1      -4.881  -5.949  -3.212  0.00  0.00     0.045 A 
ENDROOT
TORSDOF 0
ENDMDL
