MODEL 1
REMARK minimizedAffinity 1.17606497
REMARK minimizedRMSD -1
REMARK  0 active torsions:
REMARK  status: ('A' for Active; 'I' for Inactive)
ROOT
ATOM      1  C   UNL d   1      -0.158   5.999  -6.000  0.00  0.00    -0.002 A 
ATOM      2  C1  UNL d   1      -1.220   5.598  -5.201  0.00  0.00     0.010 A 
ATOM      3  C2  UNL d   1      -1.039   4.625  -4.215  0.00  0.00     0.041 A 
ATOM      4  C3  UNL d   1       0.239   4.059  -4.043  0.00  0.00    -0.075 A 
ATOM      5  S   UNL d   1       0.696   2.853  -2.899  0.00  0.00     0.015 SA
ATOM      6  C4  UNL d   1       2.311   2.842  -3.443  0.00  0.00     0.022 A 
ATOM      7  C5  UNL d   1       2.515   3.731  -4.472  0.00  0.00     0.026 A 
ATOM      8  C6  UNL d   1       1.324   4.447  -4.835  0.00  0.00    -0.082 A 
ATOM      9  C7  UNL d   1       1.108   5.435  -5.826  0.00  0.00     0.045 A 
ENDROOT
TORSDOF 0
ENDMDL
