MODEL 1
REMARK minimizedAffinity 4.74777031
REMARK minimizedRMSD -1
REMARK  0 active torsions:
REMARK  status: ('A' for Active; 'I' for Inactive)
ROOT
ATOM      1  C   UNL d   1      -5.990  -5.868  -5.223  0.00  0.00    -0.002 A 
ATOM      2  C1  UNL d   1      -5.911  -5.651  -3.855  0.00  0.00     0.010 A 
ATOM      3  C2  UNL d   1      -4.672  -5.493  -3.230  0.00  0.00     0.041 A 
ATOM      4  C3  UNL d   1      -3.502  -5.556  -4.013  0.00  0.00    -0.075 A 
ATOM      5  S   UNL d   1      -1.875  -5.390  -3.465  0.00  0.00     0.015 SA
ATOM      6  C4  UNL d   1      -1.247  -5.603  -5.035  0.00  0.00     0.022 A 
ATOM      7  C5  UNL d   1      -2.239  -5.798  -5.966  0.00  0.00     0.026 A 
ATOM      8  C6  UNL d   1      -3.555  -5.773  -5.392  0.00  0.00    -0.082 A 
ATOM      9  C7  UNL d   1      -4.827  -5.930  -5.995  0.00  0.00     0.045 A 
ENDROOT
TORSDOF 0
ENDMDL
