MODEL 1
REMARK minimizedAffinity 8.25435257
REMARK minimizedRMSD -1
REMARK  0 active torsions:
REMARK  status: ('A' for Active; 'I' for Inactive)
ROOT
ATOM      1  C   UNL d   1      -1.208  -0.956   3.883  0.00  0.00    -0.002 A 
ATOM      2  C1  UNL d   1      -1.841  -0.171   4.836  0.00  0.00     0.010 A 
ATOM      3  C2  UNL d   1      -3.073   0.426   4.561  0.00  0.00     0.041 A 
ATOM      4  C3  UNL d   1      -3.665   0.216   3.300  0.00  0.00    -0.075 A 
ATOM      5  S   UNL d   1      -5.169   0.845   2.740  0.00  0.00     0.015 SA
ATOM      6  C4  UNL d   1      -5.007   0.086   1.223  0.00  0.00     0.022 A 
ATOM      7  C5  UNL d   1      -3.840  -0.634   1.128  0.00  0.00     0.026 A 
ATOM      8  C6  UNL d   1      -3.047  -0.571   2.324  0.00  0.00    -0.082 A 
ATOM      9  C7  UNL d   1      -1.798  -1.161   2.633  0.00  0.00     0.045 A 
ENDROOT
TORSDOF 0
ENDMDL
