MODEL 1
REMARK minimizedAffinity 2.77471042
REMARK minimizedRMSD -1
REMARK  0 active torsions:
REMARK  status: ('A' for Active; 'I' for Inactive)
ROOT
ATOM      1  C   UNL d   1      -2.614  -1.054   1.737  0.00  0.00    -0.002 A 
ATOM      2  C1  UNL d   1      -1.470  -0.479   2.271  0.00  0.00     0.010 A 
ATOM      3  C2  UNL d   1      -1.465   0.011   3.579  0.00  0.00     0.041 A 
ATOM      4  C3  UNL d   1      -2.640  -0.090   4.349  0.00  0.00    -0.075 A 
ATOM      5  S   UNL d   1      -2.867   0.440   5.974  0.00  0.00     0.015 SA
ATOM      6  C4  UNL d   1      -4.488  -0.085   5.998  0.00  0.00     0.022 A 
ATOM      7  C5  UNL d   1      -4.864  -0.653   4.803  0.00  0.00     0.026 A 
ATOM      8  C6  UNL d   1      -3.805  -0.666   3.834  0.00  0.00    -0.082 A 
ATOM      9  C7  UNL d   1      -3.778  -1.152   2.504  0.00  0.00     0.045 A 
ENDROOT
TORSDOF 0
ENDMDL
