MODEL 1
REMARK minimizedAffinity 2.00611115
REMARK minimizedRMSD -1
REMARK  0 active torsions:
REMARK  status: ('A' for Active; 'I' for Inactive)
ROOT
ATOM      1  C   UNL d   1      -1.826  -1.316   1.465  0.00  0.00    -0.002 A 
ATOM      2  C1  UNL d   1      -3.099  -1.865   1.407  0.00  0.00     0.010 A 
ATOM      3  C2  UNL d   1      -3.951  -1.802   2.511  0.00  0.00     0.041 A 
ATOM      4  C3  UNL d   1      -3.498  -1.169   3.686  0.00  0.00    -0.075 A 
ATOM      5  S   UNL d   1      -4.368  -0.972   5.162  0.00  0.00     0.015 SA
ATOM      6  C4  UNL d   1      -3.070  -0.153   5.903  0.00  0.00     0.022 A 
ATOM      7  C5  UNL d   1      -1.992  -0.025   5.060  0.00  0.00     0.026 A 
ATOM      8  C6  UNL d   1      -2.221  -0.608   3.768  0.00  0.00    -0.082 A 
ATOM      9  C7  UNL d   1      -1.381  -0.689   2.632  0.00  0.00     0.045 A 
ENDROOT
TORSDOF 0
ENDMDL
