MODEL 1
REMARK minimizedAffinity 1.45993412
REMARK minimizedRMSD -1
REMARK  0 active torsions:
REMARK  status: ('A' for Active; 'I' for Inactive)
ROOT
ATOM      1  C   UNL d   1      -1.782   0.177   0.454  0.00  0.00     0.020 A 
ATOM      2  C1  UNL d   1      -1.374  -1.115   0.123  0.00  0.00     0.020 A 
ATOM      3  C2  UNL d   1      -1.770  -1.683  -1.089  0.00  0.00     0.034 A 
ATOM      4  C3  UNL d   1      -2.576  -0.960  -1.976  0.00  0.00     0.017 A 
ATOM      5  C4  UNL d   1      -2.984   0.337  -1.643  0.00  0.00     0.017 A 
ATOM      6  C5  UNL d   1      -2.585   0.901  -0.428  0.00  0.00     0.034 A 
ATOM      7 Cl   UNL d   1      -3.979   1.291  -2.686  0.00  0.00    -0.070 Cl
ATOM      8 Cl1  UNL d   1      -3.027  -1.724  -3.458  0.00  0.00    -0.070 Cl
ENDROOT
TORSDOF 0
ENDMDL
