MODEL 1
REMARK minimizedAffinity 9.31667995
REMARK minimizedRMSD -1
REMARK  0 active torsions:
REMARK  status: ('A' for Active; 'I' for Inactive)
ROOT
ATOM      1  C   UNL d   1       2.145  -1.715   3.711  0.00  0.00     0.020 A 
ATOM      2  C1  UNL d   1       2.153  -1.751   5.104  0.00  0.00     0.020 A 
ATOM      3  C2  UNL d   1       3.354  -1.942   5.792  0.00  0.00     0.034 A 
ATOM      4  C3  UNL d   1       4.552  -2.096   5.085  0.00  0.00     0.017 A 
ATOM      5  C4  UNL d   1       4.543  -2.060   3.686  0.00  0.00     0.017 A 
ATOM      6  C5  UNL d   1       3.338  -1.869   3.003  0.00  0.00     0.034 A 
ATOM      7 Cl   UNL d   1       5.982  -2.243   2.745  0.00  0.00    -0.070 Cl
ATOM      8 Cl1  UNL d   1       6.000  -2.328   6.000  0.00  0.00    -0.070 Cl
ENDROOT
TORSDOF 0
ENDMDL
