MODEL 1
REMARK minimizedAffinity 1.3342818
REMARK minimizedRMSD -1
REMARK  0 active torsions:
REMARK  status: ('A' for Active; 'I' for Inactive)
ROOT
ATOM      1  C   UNL d   1       2.149  -1.651   3.849  0.00  0.00     0.020 A 
ATOM      2  C1  UNL d   1       2.143  -1.984   5.203  0.00  0.00     0.020 A 
ATOM      3  C2  UNL d   1       3.339  -2.310   5.847  0.00  0.00     0.034 A 
ATOM      4  C3  UNL d   1       4.545  -2.303   5.138  0.00  0.00     0.017 A 
ATOM      5  C4  UNL d   1       4.550  -1.968   3.779  0.00  0.00     0.017 A 
ATOM      6  C5  UNL d   1       3.350  -1.643   3.139  0.00  0.00     0.034 A 
ATOM      7 Cl   UNL d   1       5.999  -1.938   2.837  0.00  0.00    -0.070 Cl
ATOM      8 Cl1  UNL d   1       5.986  -2.715   5.998  0.00  0.00    -0.070 Cl
ENDROOT
TORSDOF 0
ENDMDL
