MODEL 1
REMARK minimizedAffinity 7.04316282
REMARK minimizedRMSD -1
REMARK  0 active torsions:
REMARK  status: ('A' for Active; 'I' for Inactive)
ROOT
ATOM      1  C   UNL d   1      -1.629   0.210   0.289  0.00  0.00     0.020 A 
ATOM      2  C1  UNL d   1      -1.589  -0.393  -0.967  0.00  0.00     0.020 A 
ATOM      3  C2  UNL d   1      -0.535  -1.247  -1.298  0.00  0.00     0.034 A 
ATOM      4  C3  UNL d   1       0.484  -1.500  -0.372  0.00  0.00     0.017 A 
ATOM      5  C4  UNL d   1       0.443  -0.894   0.889  0.00  0.00     0.017 A 
ATOM      6  C5  UNL d   1      -0.615  -0.040   1.215  0.00  0.00     0.034 A 
ATOM      7 Cl   UNL d   1       1.663  -1.157   2.084  0.00  0.00    -0.070 Cl
ATOM      8 Cl1  UNL d   1       1.757  -2.567  -0.849  0.00  0.00    -0.070 Cl
ENDROOT
TORSDOF 0
ENDMDL
