MODEL 1
REMARK minimizedAffinity 2.80939174
REMARK minimizedRMSD -1
REMARK  0 active torsions:
REMARK  status: ('A' for Active; 'I' for Inactive)
ROOT
ATOM      1  C   UNL d   1       2.274  -0.712   4.060  0.00  0.00     0.020 A 
ATOM      2  C1  UNL d   1       2.188  -1.205   5.361  0.00  0.00     0.020 A 
ATOM      3  C2  UNL d   1       3.287  -1.842   5.941  0.00  0.00     0.034 A 
ATOM      4  C3  UNL d   1       4.478  -1.987   5.220  0.00  0.00     0.017 A 
ATOM      5  C4  UNL d   1       4.563  -1.492   3.914  0.00  0.00     0.017 A 
ATOM      6  C5  UNL d   1       3.460  -0.855   3.338  0.00  0.00     0.034 A 
ATOM      7 Cl   UNL d   1       5.999  -1.633   2.961  0.00  0.00    -0.070 Cl
ATOM      8 Cl1  UNL d   1       5.797  -2.785   6.000  0.00  0.00    -0.070 Cl
ENDROOT
TORSDOF 0
ENDMDL
