MODEL 1
REMARK minimizedAffinity 2.04920959
REMARK minimizedRMSD -1
REMARK  0 active torsions:
REMARK  status: ('A' for Active; 'I' for Inactive)
ROOT
ATOM      1  C   UNL d   1       5.845   5.912  -4.300  0.00  0.00     0.020 A 
ATOM      2  C1  UNL d   1       4.569   5.848  -4.858  0.00  0.00     0.020 A 
ATOM      3  C2  UNL d   1       3.445   5.831  -4.031  0.00  0.00     0.034 A 
ATOM      4  C3  UNL d   1       3.594   5.876  -2.640  0.00  0.00     0.017 A 
ATOM      5  C4  UNL d   1       4.875   5.940  -2.080  0.00  0.00     0.017 A 
ATOM      6  C5  UNL d   1       5.998   5.957  -2.913  0.00  0.00     0.034 A 
ATOM      7 Cl   UNL d   1       5.138   5.998  -0.373  0.00  0.00    -0.070 Cl
ATOM      8 Cl1  UNL d   1       2.159   5.851  -1.677  0.00  0.00    -0.070 Cl
ENDROOT
TORSDOF 0
ENDMDL
