MODEL 1
REMARK minimizedAffinity 3.91442037
REMARK minimizedRMSD -1
REMARK  0 active torsions:
REMARK  status: ('A' for Active; 'I' for Inactive)
ROOT
ATOM      1  C   UNL d   1       2.394  -0.517   3.712  0.00  0.00     0.020 A 
ATOM      2  C1  UNL d   1       1.869  -0.773   2.445  0.00  0.00     0.020 A 
ATOM      3  C2  UNL d   1       1.897   0.221   1.465  0.00  0.00     0.034 A 
ATOM      4  C3  UNL d   1       2.451   1.475   1.748  0.00  0.00     0.017 A 
ATOM      5  C4  UNL d   1       2.978   1.730   3.019  0.00  0.00     0.017 A 
ATOM      6  C5  UNL d   1       2.947   0.731   3.998  0.00  0.00     0.034 A 
ATOM      7 Cl   UNL d   1       3.678   3.252   3.444  0.00  0.00    -0.070 Cl
ATOM      8 Cl1  UNL d   1       2.452   2.656   0.488  0.00  0.00    -0.070 Cl
ENDROOT
TORSDOF 0
ENDMDL
