MODEL 1
REMARK minimizedAffinity 3.36061502
REMARK minimizedRMSD -1
REMARK  0 active torsions:
REMARK  status: ('A' for Active; 'I' for Inactive)
ROOT
ATOM      1  C   UNL d   1       2.362  -0.187   2.886  0.00  0.00     0.020 A 
ATOM      2  C1  UNL d   1       1.272  -1.024   3.123  0.00  0.00     0.020 A 
ATOM      3  C2  UNL d   1       1.473  -2.301   3.650  0.00  0.00     0.034 A 
ATOM      4  C3  UNL d   1       2.768  -2.746   3.942  0.00  0.00     0.017 A 
ATOM      5  C4  UNL d   1       3.861  -1.906   3.704  0.00  0.00     0.017 A 
ATOM      6  C5  UNL d   1       3.654  -0.628   3.176  0.00  0.00     0.034 A 
ATOM      7 Cl   UNL d   1       5.488  -2.385   4.038  0.00  0.00    -0.070 Cl
ATOM      8 Cl1  UNL d   1       2.943  -4.337   4.592  0.00  0.00    -0.070 Cl
ENDROOT
TORSDOF 0
ENDMDL
