MODEL 1
REMARK minimizedAffinity 11.0333767
REMARK minimizedRMSD -1
REMARK  0 active torsions:
REMARK  status: ('A' for Active; 'I' for Inactive)
ROOT
ATOM      1  C   UNL d   1       2.131  -1.315   2.861  0.00  0.00     0.020 A 
ATOM      2  C1  UNL d   1       1.739  -0.843   4.114  0.00  0.00     0.020 A 
ATOM      3  C2  UNL d   1       1.880   0.512   4.424  0.00  0.00     0.034 A 
ATOM      4  C3  UNL d   1       2.413   1.398   3.482  0.00  0.00     0.017 A 
ATOM      5  C4  UNL d   1       2.807   0.924   2.226  0.00  0.00     0.017 A 
ATOM      6  C5  UNL d   1       2.664  -0.433   1.920  0.00  0.00     0.034 A 
ATOM      7 Cl   UNL d   1       3.473   1.957   1.012  0.00  0.00    -0.070 Cl
ATOM      8 Cl1  UNL d   1       2.558   3.060   3.934  0.00  0.00    -0.070 Cl
ENDROOT
TORSDOF 0
ENDMDL
