MODEL 1
REMARK minimizedAffinity 1.10458791
REMARK minimizedRMSD -1
REMARK  0 active torsions:
REMARK  status: ('A' for Active; 'I' for Inactive)
ROOT
ATOM      1  C   UNL d   1       2.565  -1.451   2.476  0.00  0.00     0.020 A 
ATOM      2  C1  UNL d   1       1.927  -1.223   3.695  0.00  0.00     0.020 A 
ATOM      3  C2  UNL d   1       1.516  -2.302   4.480  0.00  0.00     0.034 A 
ATOM      4  C3  UNL d   1       1.740  -3.614   4.047  0.00  0.00     0.017 A 
ATOM      5  C4  UNL d   1       2.380  -3.842   2.823  0.00  0.00     0.017 A 
ATOM      6  C5  UNL d   1       2.790  -2.757   2.041  0.00  0.00     0.034 A 
ATOM      7 Cl   UNL d   1       2.692  -5.432   2.223  0.00  0.00    -0.070 Cl
ATOM      8 Cl1  UNL d   1       1.205  -4.900   5.069  0.00  0.00    -0.070 Cl
ENDROOT
TORSDOF 0
ENDMDL
