MODEL 1
REMARK minimizedAffinity -1.68278778
REMARK minimizedRMSD -1
REMARK  1 active torsions:
REMARK  status: ('A' for Active; 'I' for Inactive)
REMARK    1  A    between atoms: C1_2  and  C2_3 
ROOT
ATOM      1  C2  UNL d   1       0.089   3.169  -4.115  0.00  0.00    -0.073 A 
ATOM      2  C3  UNL d   1       0.698   2.988  -2.868  0.00  0.00    -0.002 A 
ATOM      3  C4  UNL d   1      -0.078   2.904  -1.710  0.00  0.00     0.004 A 
ATOM      4  C5  UNL d   1      -1.467   2.993  -1.788  0.00  0.00    -0.004 A 
ATOM      5  C6  UNL d   1      -2.095   3.162  -3.027  0.00  0.00    -0.075 A 
ATOM      6  C7  UNL d   1      -3.589   3.261  -3.127  0.00  0.00     0.076 C 
ATOM      7  C8  UNL d   1      -1.310   3.248  -4.184  0.00  0.00     0.001 A 
ENDROOT
BRANCH   1   8
ATOM      8  C1  UNL d   1       0.921   3.254  -5.368  0.00  0.00     0.053 C 
ATOM      9  C   UNL d   1       2.355   2.807  -5.131  0.00  0.00     0.018 C 
ENDBRANCH   1   8
TORSDOF 1
ENDMDL
