MODEL 1
REMARK minimizedAffinity -0.977418244
REMARK minimizedRMSD -1
REMARK  1 active torsions:
REMARK  status: ('A' for Active; 'I' for Inactive)
REMARK    1  A    between atoms: C1_2  and  C2_3 
ROOT
ATOM      1  C2  UNL d   1       0.286  -0.131   0.090  0.00  0.00    -0.073 A 
ATOM      2  C3  UNL d   1       1.476   0.441   0.556  0.00  0.00    -0.002 A 
ATOM      3  C4  UNL d   1       1.989   0.083   1.803  0.00  0.00     0.004 A 
ATOM      4  C5  UNL d   1       1.323  -0.853   2.594  0.00  0.00    -0.004 A 
ATOM      5  C6  UNL d   1       0.140  -1.445   2.141  0.00  0.00    -0.075 A 
ATOM      6  C7  UNL d   1      -0.590  -2.452   2.981  0.00  0.00     0.076 C 
ATOM      7  C8  UNL d   1      -0.371  -1.079   0.889  0.00  0.00     0.001 A 
ENDROOT
BRANCH   1   8
ATOM      8  C1  UNL d   1      -0.269   0.246  -1.259  0.00  0.00     0.053 C 
ATOM      9  C   UNL d   1      -1.621  -0.398  -1.520  0.00  0.00     0.018 C 
ENDBRANCH   1   8
TORSDOF 1
ENDMDL
