MODEL 1
REMARK minimizedAffinity 4.98391342
REMARK minimizedRMSD -1
REMARK  1 active torsions:
REMARK  status: ('A' for Active; 'I' for Inactive)
REMARK    1  A    between atoms: C1_2  and  C2_3 
ROOT
ATOM      1  C2  UNL d   1      -0.462   3.510  -2.544  0.00  0.00    -0.073 A 
ATOM      2  C3  UNL d   1       0.290   4.679  -2.381  0.00  0.00    -0.002 A 
ATOM      3  C4  UNL d   1       1.384   4.935  -3.209  0.00  0.00     0.004 A 
ATOM      4  C5  UNL d   1       1.731   4.031  -4.212  0.00  0.00    -0.004 A 
ATOM      5  C6  UNL d   1       0.985   2.863  -4.399  0.00  0.00    -0.075 A 
ATOM      6  C7  UNL d   1       1.347   1.879  -5.472  0.00  0.00     0.076 C 
ATOM      7  C8  UNL d   1      -0.110   2.611  -3.561  0.00  0.00     0.001 A 
ENDROOT
BRANCH   1   8
ATOM      8  C1  UNL d   1      -1.647   3.232  -1.656  0.00  0.00     0.053 C 
ATOM      9  C   UNL d   1      -2.947   3.172  -2.442  0.00  0.00     0.018 C 
ENDBRANCH   1   8
TORSDOF 1
ENDMDL
