MODEL 1
REMARK minimizedAffinity 1.66135454
REMARK minimizedRMSD -1
REMARK  0 active torsions:
REMARK  status: ('A' for Active; 'I' for Inactive)
ROOT
ATOM      1  C   UNL d   1       3.815   0.862  -0.601  0.00  0.00     0.020 A 
ATOM      2  C1  UNL d   1       2.638   0.979   0.138  0.00  0.00     0.020 A 
ATOM      3  C2  UNL d   1       1.763  -0.105   0.233  0.00  0.00     0.034 A 
ATOM      4  C3  UNL d   1       2.063  -1.311  -0.412  0.00  0.00     0.017 A 
ATOM      5  C4  UNL d   1       3.244  -1.427  -1.153  0.00  0.00     0.017 A 
ATOM      6  C5  UNL d   1       4.117  -0.338  -1.245  0.00  0.00     0.034 A 
ATOM      7 Cl   UNL d   1       3.682  -2.882  -1.977  0.00  0.00    -0.070 Cl
ATOM      8 Cl1  UNL d   1       0.935  -2.610  -0.251  0.00  0.00    -0.070 Cl
ENDROOT
TORSDOF 0
ENDMDL
