MODEL 1
REMARK minimizedAffinity 8.50954819
REMARK minimizedRMSD -1
REMARK  0 active torsions:
REMARK  status: ('A' for Active; 'I' for Inactive)
ROOT
ATOM      1  C   UNL d   1      -0.756   2.756   0.006  0.00  0.00     0.020 A 
ATOM      2  C1  UNL d   1      -1.939   2.944   0.721  0.00  0.00     0.020 A 
ATOM      3  C2  UNL d   1      -3.115   2.318   0.302  0.00  0.00     0.034 A 
ATOM      4  C3  UNL d   1      -3.110   1.501  -0.835  0.00  0.00     0.017 A 
ATOM      5  C4  UNL d   1      -1.923   1.313  -1.551  0.00  0.00     0.017 A 
ATOM      6  C5  UNL d   1      -0.748   1.942  -1.127  0.00  0.00     0.034 A 
ATOM      7 Cl   UNL d   1      -1.839   0.319  -2.963  0.00  0.00    -0.070 Cl
ATOM      8 Cl1  UNL d   1      -4.601   0.758  -1.295  0.00  0.00    -0.070 Cl
ENDROOT
TORSDOF 0
ENDMDL
