MODEL 1
REMARK minimizedAffinity 8.70366287
REMARK minimizedRMSD -1
REMARK  0 active torsions:
REMARK  status: ('A' for Active; 'I' for Inactive)
ROOT
ATOM      1  C   UNL d   1      -1.821   1.419   1.619  0.00  0.00     0.020 A 
ATOM      2  C1  UNL d   1      -1.464   1.216   0.287  0.00  0.00     0.020 A 
ATOM      3  C2  UNL d   1      -0.119   1.088  -0.064  0.00  0.00     0.034 A 
ATOM      4  C3  UNL d   1       0.875   1.163   0.918  0.00  0.00     0.017 A 
ATOM      5  C4  UNL d   1       0.516   1.367   2.256  0.00  0.00     0.017 A 
ATOM      6  C5  UNL d   1      -0.833   1.495   2.601  0.00  0.00     0.034 A 
ATOM      7 Cl   UNL d   1       1.686   1.471   3.524  0.00  0.00    -0.070 Cl
ATOM      8 Cl1  UNL d   1       2.519   0.996   0.413  0.00  0.00    -0.070 Cl
ENDROOT
TORSDOF 0
ENDMDL
