MODEL 1
REMARK minimizedAffinity 11.5691013
REMARK minimizedRMSD -1
REMARK  0 active torsions:
REMARK  status: ('A' for Active; 'I' for Inactive)
ROOT
ATOM      1  C   UNL d   1      -1.698   4.147   1.683  0.00  0.00     0.020 A 
ATOM      2  C1  UNL d   1      -2.633   4.222   0.652  0.00  0.00     0.020 A 
ATOM      3  C2  UNL d   1      -2.578   3.315  -0.408  0.00  0.00     0.034 A 
ATOM      4  C3  UNL d   1      -1.585   2.329  -0.440  0.00  0.00     0.017 A 
ATOM      5  C4  UNL d   1      -0.647   2.254   0.595  0.00  0.00     0.017 A 
ATOM      6  C5  UNL d   1      -0.707   3.165   1.655  0.00  0.00     0.034 A 
ATOM      7 Cl   UNL d   1       0.607   1.065   0.626  0.00  0.00    -0.070 Cl
ATOM      8 Cl1  UNL d   1      -1.577   1.240  -1.782  0.00  0.00    -0.070 Cl
ENDROOT
TORSDOF 0
ENDMDL
