MODEL 1
REMARK minimizedAffinity 4.57910824
REMARK minimizedRMSD -1
REMARK  0 active torsions:
REMARK  status: ('A' for Active; 'I' for Inactive)
ROOT
ATOM      1  C   UNL d   1      -0.006   0.018   4.534  0.00  0.00     0.020 A 
ATOM      2  C1  UNL d   1       0.658  -1.177   4.805  0.00  0.00     0.020 A 
ATOM      3  C2  UNL d   1       1.363  -1.829   3.791  0.00  0.00     0.034 A 
ATOM      4  C3  UNL d   1       1.405  -1.287   2.502  0.00  0.00     0.017 A 
ATOM      5  C4  UNL d   1       0.738  -0.086   2.231  0.00  0.00     0.017 A 
ATOM      6  C5  UNL d   1       0.034   0.562   3.250  0.00  0.00     0.034 A 
ATOM      7 Cl   UNL d   1       0.745   0.645   0.665  0.00  0.00    -0.070 Cl
ATOM      8 Cl1  UNL d   1       2.296  -2.146   1.297  0.00  0.00    -0.070 Cl
ENDROOT
TORSDOF 0
ENDMDL
