MODEL 1
REMARK minimizedAffinity 4.27734566
REMARK minimizedRMSD -1
REMARK  0 active torsions:
REMARK  status: ('A' for Active; 'I' for Inactive)
ROOT
ATOM      1  C   UNL d   1       4.699   1.450   0.102  0.00  0.00     0.020 A 
ATOM      2  C1  UNL d   1       5.288   0.190  -0.001  0.00  0.00     0.020 A 
ATOM      3  C2  UNL d   1       4.493  -0.957   0.035  0.00  0.00     0.034 A 
ATOM      4  C3  UNL d   1       3.105  -0.848   0.173  0.00  0.00     0.017 A 
ATOM      5  C4  UNL d   1       2.514   0.416   0.276  0.00  0.00     0.017 A 
ATOM      6  C5  UNL d   1       3.315   1.562   0.240  0.00  0.00     0.034 A 
ATOM      7 Cl   UNL d   1       0.808   0.631   0.449  0.00  0.00    -0.070 Cl
ATOM      8 Cl1  UNL d   1       2.184  -2.310   0.209  0.00  0.00    -0.070 Cl
ENDROOT
TORSDOF 0
ENDMDL
