MODEL 1
REMARK minimizedAffinity 6.90398359
REMARK minimizedRMSD -1
REMARK  0 active torsions:
REMARK  status: ('A' for Active; 'I' for Inactive)
ROOT
ATOM      1  C   UNL d   1      -1.310   1.736  -0.190  0.00  0.00     0.020 A 
ATOM      2  C1  UNL d   1      -1.812   1.791   1.110  0.00  0.00     0.020 A 
ATOM      3  C2  UNL d   1      -0.978   1.502   2.192  0.00  0.00     0.034 A 
ATOM      4  C3  UNL d   1       0.361   1.158   1.977  0.00  0.00     0.017 A 
ATOM      5  C4  UNL d   1       0.864   1.103   0.672  0.00  0.00     0.017 A 
ATOM      6  C5  UNL d   1       0.024   1.392  -0.408  0.00  0.00     0.034 A 
ATOM      7 Cl   UNL d   1       2.505   0.685   0.327  0.00  0.00    -0.070 Cl
ATOM      8 Cl1  UNL d   1       1.335   0.814   3.363  0.00  0.00    -0.070 Cl
ENDROOT
TORSDOF 0
ENDMDL
