MODEL 1
REMARK minimizedAffinity 10.0039129
REMARK minimizedRMSD -1
REMARK  0 active torsions:
REMARK  status: ('A' for Active; 'I' for Inactive)
ROOT
ATOM      1  C   UNL d   1      -1.550   1.006  -0.097  0.00  0.00     0.020 A 
ATOM      2  C1  UNL d   1      -1.928   1.030   1.245  0.00  0.00     0.020 A 
ATOM      3  C2  UNL d   1      -0.953   1.064   2.244  0.00  0.00     0.034 A 
ATOM      4  C3  UNL d   1       0.404   1.075   1.904  0.00  0.00     0.017 A 
ATOM      5  C4  UNL d   1       0.783   1.051   0.557  0.00  0.00     0.017 A 
ATOM      6  C5  UNL d   1      -0.197   1.017  -0.440  0.00  0.00     0.034 A 
ATOM      7 Cl   UNL d   1       2.438   1.063   0.058  0.00  0.00    -0.070 Cl
ATOM      8 Cl1  UNL d   1       1.556   1.119   3.191  0.00  0.00    -0.070 Cl
ENDROOT
TORSDOF 0
ENDMDL
