MODEL 1
REMARK minimizedAffinity 6.18370962
REMARK minimizedRMSD -1
REMARK  0 active torsions:
REMARK  status: ('A' for Active; 'I' for Inactive)
ROOT
ATOM      1  C   UNL d   1      -2.929   1.351  -5.220  0.00  0.00     0.020 A 
ATOM      2  C1  UNL d   1      -4.253   1.046  -4.908  0.00  0.00     0.020 A 
ATOM      3  C2  UNL d   1      -4.556   0.388  -3.714  0.00  0.00     0.034 A 
ATOM      4  C3  UNL d   1      -3.533   0.032  -2.828  0.00  0.00     0.017 A 
ATOM      5  C4  UNL d   1      -2.204   0.338  -3.142  0.00  0.00     0.017 A 
ATOM      6  C5  UNL d   1      -1.906   0.997  -4.338  0.00  0.00     0.034 A 
ATOM      7 Cl   UNL d   1      -0.887  -0.069  -2.098  0.00  0.00    -0.070 Cl
ATOM      8 Cl1  UNL d   1      -3.979  -0.780  -1.369  0.00  0.00    -0.070 Cl
ENDROOT
TORSDOF 0
ENDMDL
