MODEL 1
REMARK minimizedAffinity 1.77845168
REMARK minimizedRMSD -1
REMARK  0 active torsions:
REMARK  status: ('A' for Active; 'I' for Inactive)
ROOT
ATOM      1  C   UNL d   1       0.555   1.313   3.635  0.00  0.00     0.020 A 
ATOM      2  C1  UNL d   1      -0.811   1.364   3.360  0.00  0.00     0.020 A 
ATOM      3  C2  UNL d   1      -1.258   1.367   2.037  0.00  0.00     0.034 A 
ATOM      4  C3  UNL d   1      -0.337   1.320   0.984  0.00  0.00     0.017 A 
ATOM      5  C4  UNL d   1       1.034   1.269   1.261  0.00  0.00     0.017 A 
ATOM      6  C5  UNL d   1       1.475   1.266   2.587  0.00  0.00     0.034 A 
ATOM      7 Cl   UNL d   1       2.230   1.208   0.014  0.00  0.00    -0.070 Cl
ATOM      8 Cl1  UNL d   1      -0.959   1.326  -0.628  0.00  0.00    -0.070 Cl
ENDROOT
TORSDOF 0
ENDMDL
