MODEL 1
REMARK minimizedAffinity 5.50915146
REMARK minimizedRMSD -1
REMARK  0 active torsions:
REMARK  status: ('A' for Active; 'I' for Inactive)
ROOT
ATOM      1  C   UNL d   1      -1.864   1.620   1.212  0.00  0.00     0.020 A 
ATOM      2  C1  UNL d   1      -1.503   1.595  -0.135  0.00  0.00     0.020 A 
ATOM      3  C2  UNL d   1      -0.185   1.313  -0.500  0.00  0.00     0.034 A 
ATOM      4  C3  UNL d   1       0.777   1.055   0.483  0.00  0.00     0.017 A 
ATOM      5  C4  UNL d   1       0.415   1.080   1.834  0.00  0.00     0.017 A 
ATOM      6  C5  UNL d   1      -0.906   1.363   2.194  0.00  0.00     0.034 A 
ATOM      7 Cl   UNL d   1       1.547   0.772   3.104  0.00  0.00    -0.070 Cl
ATOM      8 Cl1  UNL d   1       2.388   0.713  -0.040  0.00  0.00    -0.070 Cl
ENDROOT
TORSDOF 0
ENDMDL
