MODEL 1
REMARK minimizedAffinity -0.202645525
REMARK minimizedRMSD -1
REMARK  0 active torsions:
REMARK  status: ('A' for Active; 'I' for Inactive)
ROOT
ATOM      1  C   UNL d   1       3.115  -2.636  -1.148  0.00  0.00     0.020 A 
ATOM      2  C1  UNL d   1       3.794  -1.648  -1.861  0.00  0.00     0.020 A 
ATOM      3  C2  UNL d   1       3.802  -0.332  -1.394  0.00  0.00     0.034 A 
ATOM      4  C3  UNL d   1       3.131   0.000  -0.212  0.00  0.00     0.017 A 
ATOM      5  C4  UNL d   1       2.450  -0.992   0.503  0.00  0.00     0.017 A 
ATOM      6  C5  UNL d   1       2.445  -2.308   0.031  0.00  0.00     0.034 A 
ATOM      7 Cl   UNL d   1       1.599  -0.659   1.970  0.00  0.00    -0.070 Cl
ATOM      8 Cl1  UNL d   1       3.183   1.648   0.306  0.00  0.00    -0.070 Cl
ENDROOT
TORSDOF 0
ENDMDL
