MODEL 1
REMARK minimizedAffinity 2.97129154
REMARK minimizedRMSD -1
REMARK  0 active torsions:
REMARK  status: ('A' for Active; 'I' for Inactive)
ROOT
ATOM      1  C   UNL d   1      -1.247   1.267   0.113  0.00  0.00     0.020 A 
ATOM      2  C1  UNL d   1      -1.663   0.982   1.412  0.00  0.00     0.020 A 
ATOM      3  C2  UNL d   1      -0.772   0.406   2.321  0.00  0.00     0.034 A 
ATOM      4  C3  UNL d   1       0.540   0.113   1.930  0.00  0.00     0.017 A 
ATOM      5  C4  UNL d   1       0.957   0.400   0.626  0.00  0.00     0.017 A 
ATOM      6  C5  UNL d   1       0.061   0.977  -0.280  0.00  0.00     0.034 A 
ATOM      7 Cl   UNL d   1       2.559   0.067   0.071  0.00  0.00    -0.070 Cl
ATOM      8 Cl1  UNL d   1       1.587  -0.599   3.106  0.00  0.00    -0.070 Cl
ENDROOT
TORSDOF 0
ENDMDL
