MODEL 1
REMARK minimizedAffinity 4.25682068
REMARK minimizedRMSD -1
REMARK  0 active torsions:
REMARK  status: ('A' for Active; 'I' for Inactive)
ROOT
ATOM      1  C   UNL d   1       0.376   0.637   3.404  0.00  0.00     0.020 A 
ATOM      2  C1  UNL d   1      -0.978   0.826   3.131  0.00  0.00     0.020 A 
ATOM      3  C2  UNL d   1      -1.396   1.086   1.824  0.00  0.00     0.034 A 
ATOM      4  C3  UNL d   1      -0.460   1.159   0.786  0.00  0.00     0.017 A 
ATOM      5  C4  UNL d   1       0.899   0.969   1.062  0.00  0.00     0.017 A 
ATOM      6  C5  UNL d   1       1.313   0.708   2.372  0.00  0.00     0.034 A 
ATOM      7 Cl   UNL d   1       2.113   1.043  -0.166  0.00  0.00    -0.070 Cl
ATOM      8 Cl1  UNL d   1      -1.048   1.484  -0.806  0.00  0.00    -0.070 Cl
ENDROOT
TORSDOF 0
ENDMDL
