MODEL 1
REMARK minimizedAffinity -2.7629509
REMARK minimizedRMSD -1
REMARK  0 active torsions:
REMARK  status: ('A' for Active; 'I' for Inactive)
ROOT
ATOM      1  C1  BNZ d   1       5.118  -3.111  -4.797  0.00  0.00     0.000 A 
ATOM      2  C2  BNZ d   1       4.560  -1.998  -4.228  0.00  0.00     0.000 A 
ATOM      3  C3  BNZ d   1       4.603  -1.807  -2.876  0.00  0.00     0.000 A 
ATOM      4  C4  BNZ d   1       5.167  -2.747  -2.091  0.00  0.00     0.000 A 
ATOM      5  C5  BNZ d   1       5.725  -3.880  -2.649  0.00  0.00     0.000 A 
ATOM      6  C6  BNZ d   1       5.715  -4.051  -4.014  0.00  0.00     0.000 A 
ENDROOT
TORSDOF 0
ENDMDL
