MODEL 1
REMARK minimizedAffinity -1.50892758
REMARK minimizedRMSD -1
REMARK  0 active torsions:
REMARK  status: ('A' for Active; 'I' for Inactive)
ROOT
ATOM      1  C1  BNZ d   1      -2.257   1.670  -1.461  0.00  0.00     0.000 A 
ATOM      2  C2  BNZ d   1      -2.547   2.892  -2.008  0.00  0.00     0.000 A 
ATOM      3  C3  BNZ d   1      -3.602   3.043  -2.864  0.00  0.00     0.000 A 
ATOM      4  C4  BNZ d   1      -4.341   1.967  -3.202  0.00  0.00     0.000 A 
ATOM      5  C5  BNZ d   1      -4.055   0.727  -2.666  0.00  0.00     0.000 A 
ATOM      6  C6  BNZ d   1      -3.017   0.586  -1.775  0.00  0.00     0.000 A 
ENDROOT
TORSDOF 0
ENDMDL
