MODEL 1
REMARK minimizedAffinity -2.16148829
REMARK minimizedRMSD -1
REMARK  0 active torsions:
REMARK  status: ('A' for Active; 'I' for Inactive)
ROOT
ATOM      1  C1  BNZ d   1       5.461  -5.497  -1.200  0.00  0.00     0.000 A 
ATOM      2  C2  BNZ d   1       5.719  -4.472  -0.330  0.00  0.00     0.000 A 
ATOM      3  C3  BNZ d   1       4.975  -3.325  -0.357  0.00  0.00     0.000 A 
ATOM      4  C4  BNZ d   1       4.001  -3.189  -1.280  0.00  0.00     0.000 A 
ATOM      5  C5  BNZ d   1       3.734  -4.210  -2.170  0.00  0.00     0.000 A 
ATOM      6  C6  BNZ d   1       4.459  -5.378  -2.114  0.00  0.00     0.000 A 
ENDROOT
TORSDOF 0
ENDMDL
