MODEL 1
REMARK minimizedAffinity 1.76177168
REMARK minimizedRMSD -1
REMARK  0 active torsions:
REMARK  status: ('A' for Active; 'I' for Inactive)
ROOT
ATOM      1  C1  BNZ d   1       3.723  -5.111  -3.222  0.00  0.00     0.000 A 
ATOM      2  C2  BNZ d   1       4.489  -4.271  -2.459  0.00  0.00     0.000 A 
ATOM      3  C3  BNZ d   1       4.420  -4.306  -1.094  0.00  0.00     0.000 A 
ATOM      4  C4  BNZ d   1       3.557  -5.152  -0.496  0.00  0.00     0.000 A 
ATOM      5  C5  BNZ d   1       2.771  -5.999  -1.252  0.00  0.00     0.000 A 
ATOM      6  C6  BNZ d   1       2.872  -5.988  -2.624  0.00  0.00     0.000 A 
ENDROOT
TORSDOF 0
ENDMDL
