MODEL 1
REMARK minimizedAffinity 3.83824992
REMARK minimizedRMSD -1
REMARK  0 active torsions:
REMARK  status: ('A' for Active; 'I' for Inactive)
ROOT
ATOM      1  C1  BNZ d   1       2.271  -2.290   3.759  0.00  0.00     0.000 A 
ATOM      2  C2  BNZ d   1       3.597  -2.633   3.778  0.00  0.00     0.000 A 
ATOM      3  C3  BNZ d   1       4.160  -3.187   4.893  0.00  0.00     0.000 A 
ATOM      4  C4  BNZ d   1       3.408  -3.360   6.000  0.00  0.00     0.000 A 
ATOM      5  C5  BNZ d   1       2.073  -3.010   5.999  0.00  0.00     0.000 A 
ATOM      6  C6  BNZ d   1       1.500  -2.489   4.862  0.00  0.00     0.000 A 
ENDROOT
TORSDOF 0
ENDMDL
