MODEL 1
REMARK minimizedAffinity -3.11356902
REMARK minimizedRMSD -1
REMARK  0 active torsions:
REMARK  status: ('A' for Active; 'I' for Inactive)
ROOT
ATOM      1  C1  BNZ d   1       4.522  -4.958  -1.821  0.00  0.00     0.000 A 
ATOM      2  C2  BNZ d   1       4.873  -4.207  -0.731  0.00  0.00     0.000 A 
ATOM      3  C3  BNZ d   1       4.674  -2.855  -0.718  0.00  0.00     0.000 A 
ATOM      4  C4  BNZ d   1       4.161  -2.250  -1.809  0.00  0.00     0.000 A 
ATOM      5  C5  BNZ d   1       3.809  -2.992  -2.919  0.00  0.00     0.000 A 
ATOM      6  C6  BNZ d   1       3.976  -4.358  -2.913  0.00  0.00     0.000 A 
ENDROOT
TORSDOF 0
ENDMDL
