MODEL 1
REMARK minimizedAffinity 1.00288296
REMARK minimizedRMSD -1
REMARK  1 active torsions:
REMARK  status: ('A' for Active; 'I' for Inactive)
REMARK    1  A    between atoms: C1_2  and  C2_3 
ROOT
ATOM      1  C2  UNL d   1       1.034   0.126   0.624  0.00  0.00    -0.081 A 
ATOM      2  C3  UNL d   1       0.670   1.454   0.367  0.00  0.00     0.006 A 
ATOM      3  C4  UNL d   1      -0.494   1.990   0.922  0.00  0.00     0.002 A 
ATOM      4  C5  UNL d   1      -1.310   1.210   1.749  0.00  0.00    -0.080 A 
ATOM      5  C6  UNL d   1      -2.547   1.782   2.376  0.00  0.00     0.076 C 
ATOM      6  C7  UNL d   1      -0.956  -0.121   1.992  0.00  0.00     0.002 A 
ATOM      7  C8  UNL d   1       0.207  -0.658   1.437  0.00  0.00     0.006 A 
ENDROOT
BRANCH   1   8
ATOM      8  C1  UNL d   1       2.322  -0.435   0.079  0.00  0.00     0.054 C 
ATOM      9  C   UNL d   1       2.722   0.255  -1.217  0.00  0.00     0.018 C 
ENDBRANCH   1   8
TORSDOF 1
ENDMDL
