MODEL 1
REMARK minimizedAffinity 3.88761711
REMARK minimizedRMSD -1
REMARK  1 active torsions:
REMARK  status: ('A' for Active; 'I' for Inactive)
REMARK    1  A    between atoms: C1_2  and  C2_3 
ROOT
ATOM      1  C2  UNL d   1       1.329   1.721   0.376  0.00  0.00    -0.081 A 
ATOM      2  C3  UNL d   1       1.720   1.796  -0.967  0.00  0.00     0.006 A 
ATOM      3  C4  UNL d   1       2.505   0.789  -1.533  0.00  0.00     0.002 A 
ATOM      4  C5  UNL d   1       2.907  -0.312  -0.769  0.00  0.00    -0.080 A 
ATOM      5  C6  UNL d   1       3.725  -1.415  -1.372  0.00  0.00     0.076 C 
ATOM      6  C7  UNL d   1       2.532  -0.378   0.577  0.00  0.00     0.002 A 
ATOM      7  C8  UNL d   1       1.747   0.629   1.144  0.00  0.00     0.006 A 
ENDROOT
BRANCH   1   8
ATOM      8  C1  UNL d   1       0.429   2.773   0.972  0.00  0.00     0.054 C 
ATOM      9  C   UNL d   1      -0.650   2.147   1.844  0.00  0.00     0.018 C 
ENDBRANCH   1   8
TORSDOF 1
ENDMDL
