MODEL 1
REMARK minimizedAffinity 0.754720569
REMARK minimizedRMSD -1
REMARK  1 active torsions:
REMARK  status: ('A' for Active; 'I' for Inactive)
REMARK    1  A    between atoms: C1_2  and  C2_3 
ROOT
ATOM      1  C2  UNL d   1      -3.976  -1.790  -2.487  0.00  0.00    -0.081 A 
ATOM      2  C3  UNL d   1      -3.332  -2.744  -3.285  0.00  0.00     0.006 A 
ATOM      3  C4  UNL d   1      -3.083  -4.027  -2.792  0.00  0.00     0.002 A 
ATOM      4  C5  UNL d   1      -3.480  -4.381  -1.498  0.00  0.00    -0.080 A 
ATOM      5  C6  UNL d   1      -3.245  -5.764  -0.969  0.00  0.00     0.076 C 
ATOM      6  C7  UNL d   1      -4.108  -3.423  -0.695  0.00  0.00     0.002 A 
ATOM      7  C8  UNL d   1      -4.357  -2.139  -1.186  0.00  0.00     0.006 A 
ENDROOT
BRANCH   1   8
ATOM      8  C1  UNL d   1      -4.305  -0.426  -3.037  0.00  0.00     0.054 C 
ATOM      9  C   UNL d   1      -4.455   0.599  -1.922  0.00  0.00     0.018 C 
ENDBRANCH   1   8
TORSDOF 1
ENDMDL
