MODEL 1
REMARK minimizedAffinity 3.01719046
REMARK minimizedRMSD -1
REMARK  1 active torsions:
REMARK  status: ('A' for Active; 'I' for Inactive)
REMARK    1  A    between atoms: C1_2  and  C2_3 
ROOT
ATOM      1  C2  UNL d   1      -1.793  -0.130   1.444  0.00  0.00    -0.081 A 
ATOM      2  C3  UNL d   1      -0.596  -0.823   1.226  0.00  0.00     0.006 A 
ATOM      3  C4  UNL d   1       0.613  -0.130   1.116  0.00  0.00     0.002 A 
ATOM      4  C5  UNL d   1       0.645   1.264   1.229  0.00  0.00    -0.080 A 
ATOM      5  C6  UNL d   1       1.939   2.016   1.143  0.00  0.00     0.076 C 
ATOM      6  C7  UNL d   1      -0.554   1.957   1.430  0.00  0.00     0.002 A 
ATOM      7  C8  UNL d   1      -1.762   1.265   1.539  0.00  0.00     0.006 A 
ENDROOT
BRANCH   1   8
ATOM      8  C1  UNL d   1      -3.089  -0.879   1.628  0.00  0.00     0.054 C 
ATOM      9  C   UNL d   1      -3.838  -0.393   2.861  0.00  0.00     0.018 C 
ENDBRANCH   1   8
TORSDOF 1
ENDMDL
