MODEL 1
REMARK minimizedAffinity -3.41042924
REMARK minimizedRMSD -1
REMARK  1 active torsions:
REMARK  status: ('A' for Active; 'I' for Inactive)
REMARK    1  A    between atoms: N_2  and  C1_3 
ROOT
ATOM      1  C1  UNL d   1       2.325  -2.670   0.371  0.00  0.00     0.143 A 
ATOM      2  C2  UNL d   1       1.156  -3.325   0.772  0.00  0.00    -0.057 A 
ATOM      3  C3  UNL d   1       0.003  -2.608   1.116  0.00  0.00     0.033 A 
ATOM      4  C4  UNL d   1       0.009  -1.217   1.092  0.00  0.00    -0.042 A 
ATOM      5  C5  UNL d   1       1.167  -0.544   0.720  0.00  0.00     0.033 A 
ATOM      6  C6  UNL d   1       2.313  -1.266   0.372  0.00  0.00    -0.057 A 
ENDROOT
BRANCH   1   7
ATOM      7  N   UNL d   1       3.532  -3.323   0.112  0.00  0.00    -0.732 N 
ATOM      8  C   UNL d   1       3.593  -4.768   0.061  0.00  0.00     0.284 C 
ATOM      9  H3  UNL d   1       4.078  -2.858  -0.611  0.00  0.00     0.395 HD
ENDBRANCH   1   7
TORSDOF 1
ENDMDL
