MODEL 1
REMARK minimizedAffinity -0.410619795
REMARK minimizedRMSD -1
REMARK  1 active torsions:
REMARK  status: ('A' for Active; 'I' for Inactive)
REMARK    1  A    between atoms: N_2  and  C1_3 
ROOT
ATOM      1  C1  UNL d   1       1.783  -3.422   0.225  0.00  0.00     0.143 A 
ATOM      2  C2  UNL d   1       0.411  -3.405   0.502  0.00  0.00    -0.057 A 
ATOM      3  C3  UNL d   1      -0.257  -2.207   0.783  0.00  0.00     0.033 A 
ATOM      4  C4  UNL d   1       0.442  -1.005   0.821  0.00  0.00    -0.042 A 
ATOM      5  C5  UNL d   1       1.810  -1.002   0.574  0.00  0.00     0.033 A 
ATOM      6  C6  UNL d   1       2.471  -2.201   0.287  0.00  0.00    -0.057 A 
ENDROOT
BRANCH   1   7
ATOM      7  N   UNL d   1       2.523  -4.592   0.036  0.00  0.00    -0.732 N 
ATOM      8  C   UNL d   1       3.965  -4.542  -0.074  0.00  0.00     0.284 C 
ATOM      9  H3  UNL d   1       2.176  -5.367   0.596  0.00  0.00     0.395 HD
ENDBRANCH   1   7
TORSDOF 1
ENDMDL
