MODEL 1
REMARK minimizedAffinity -3.36853623
REMARK minimizedRMSD -1
REMARK  1 active torsions:
REMARK  status: ('A' for Active; 'I' for Inactive)
REMARK    1  A    between atoms: N_2  and  C1_3 
ROOT
ATOM      1  C1  UNL d   1       1.902  -3.167   0.254  0.00  0.00     0.143 A 
ATOM      2  C2  UNL d   1       0.532  -2.985   0.471  0.00  0.00    -0.057 A 
ATOM      3  C3  UNL d   1      -0.008  -1.710   0.675  0.00  0.00     0.033 A 
ATOM      4  C4  UNL d   1       0.821  -0.592   0.695  0.00  0.00    -0.042 A 
ATOM      5  C5  UNL d   1       2.189  -0.752   0.507  0.00  0.00     0.033 A 
ATOM      6  C6  UNL d   1       2.721  -2.028   0.297  0.00  0.00    -0.057 A 
ENDROOT
BRANCH   1   7
ATOM      7  N   UNL d   1       2.513  -4.419   0.143  0.00  0.00    -0.732 N 
ATOM      8  C   UNL d   1       3.894  -4.531  -0.274  0.00  0.00     0.284 C 
ATOM      9  H3  UNL d   1       2.256  -5.045   0.903  0.00  0.00     0.395 HD
ENDBRANCH   1   7
TORSDOF 1
ENDMDL
