MODEL 1
REMARK minimizedAffinity -2.42879367
REMARK minimizedRMSD -1
REMARK  1 active torsions:
REMARK  status: ('A' for Active; 'I' for Inactive)
REMARK    1  A    between atoms: N_2  and  C1_3 
ROOT
ATOM      1  C1  UNL d   1      -5.752  -4.768   3.106  0.00  0.00     0.143 A 
ATOM      2  C2  UNL d   1      -5.839  -3.579   3.838  0.00  0.00    -0.057 A 
ATOM      3  C3  UNL d   1      -5.947  -3.591   5.234  0.00  0.00     0.033 A 
ATOM      4  C4  UNL d   1      -5.999  -4.799   5.923  0.00  0.00    -0.042 A 
ATOM      5  C5  UNL d   1      -5.940  -5.993   5.214  0.00  0.00     0.033 A 
ATOM      6  C6  UNL d   1      -5.825  -5.974   3.821  0.00  0.00    -0.057 A 
ENDROOT
BRANCH   1   7
ATOM      7  N   UNL d   1      -5.743  -4.824   1.710  0.00  0.00    -0.732 N 
ATOM      8  C   UNL d   1      -5.012  -3.842   0.938  0.00  0.00     0.284 C 
ATOM      9  H3  UNL d   1      -5.657  -5.775   1.360  0.00  0.00     0.395 HD
ENDBRANCH   1   7
TORSDOF 1
ENDMDL
