MODEL 1
REMARK minimizedAffinity -3.95547938
REMARK minimizedRMSD -1
REMARK  1 active torsions:
REMARK  status: ('A' for Active; 'I' for Inactive)
REMARK    1  A    between atoms: N_2  and  C1_3 
ROOT
ATOM      1  C1  UNL d   1       1.347  -2.818   0.325  0.00  0.00     0.143 A 
ATOM      2  C2  UNL d   1      -0.040  -2.642   0.374  0.00  0.00    -0.057 A 
ATOM      3  C3  UNL d   1      -0.603  -1.408   0.724  0.00  0.00     0.033 A 
ATOM      4  C4  UNL d   1       0.214  -0.334   1.059  0.00  0.00    -0.042 A 
ATOM      5  C5  UNL d   1       1.595  -0.493   1.041  0.00  0.00     0.033 A 
ATOM      6  C6  UNL d   1       2.151  -1.725   0.685  0.00  0.00    -0.057 A 
ENDROOT
BRANCH   1   7
ATOM      7  N   UNL d   1       1.967  -4.045   0.081  0.00  0.00    -0.732 N 
ATOM      8  C   UNL d   1       3.410  -4.148   0.045  0.00  0.00     0.284 C 
ATOM      9  H3  UNL d   1       1.507  -4.815   0.562  0.00  0.00     0.395 HD
ENDBRANCH   1   7
TORSDOF 1
ENDMDL
