MODEL 1
REMARK minimizedAffinity 0.570547879
REMARK minimizedRMSD -1
REMARK  1 active torsions:
REMARK  status: ('A' for Active; 'I' for Inactive)
REMARK    1  A    between atoms: N_2  and  C1_3 
ROOT
ATOM      1  C1  UNL d   1       3.258  -4.250   0.074  0.00  0.00     0.143 A 
ATOM      2  C2  UNL d   1       3.955  -3.046   0.224  0.00  0.00    -0.057 A 
ATOM      3  C3  UNL d   1       3.283  -1.844   0.475  0.00  0.00     0.033 A 
ATOM      4  C4  UNL d   1       1.894  -1.820   0.553  0.00  0.00    -0.042 A 
ATOM      5  C5  UNL d   1       1.179  -3.000   0.382  0.00  0.00     0.033 A 
ATOM      6  C6  UNL d   1       1.857  -4.198   0.138  0.00  0.00    -0.057 A 
ENDROOT
BRANCH   1   7
ATOM      7  N   UNL d   1       3.862  -5.460  -0.275  0.00  0.00    -0.732 N 
ATOM      8  C   UNL d   1       4.956  -5.991   0.509  0.00  0.00     0.284 C 
ATOM      9  H3  UNL d   1       3.186  -6.160  -0.573  0.00  0.00     0.395 HD
ENDBRANCH   1   7
TORSDOF 1
ENDMDL
