MODEL 1
REMARK minimizedAffinity 0.105183214
REMARK minimizedRMSD -1
REMARK  1 active torsions:
REMARK  status: ('A' for Active; 'I' for Inactive)
REMARK    1  A    between atoms: N_2  and  C1_3 
ROOT
ATOM      1  C1  UNL d   1       1.293  -2.963   0.210  0.00  0.00     0.143 A 
ATOM      2  C2  UNL d   1       0.078  -2.464   0.693  0.00  0.00    -0.057 A 
ATOM      3  C3  UNL d   1      -0.066  -1.116   1.040  0.00  0.00     0.033 A 
ATOM      4  C4  UNL d   1       1.014  -0.246   0.939  0.00  0.00    -0.042 A 
ATOM      5  C5  UNL d   1       2.238  -0.725   0.486  0.00  0.00     0.033 A 
ATOM      6  C6  UNL d   1       2.374  -2.072   0.134  0.00  0.00    -0.057 A 
ENDROOT
BRANCH   1   7
ATOM      7  N   UNL d   1       1.527  -4.314  -0.059  0.00  0.00    -0.732 N 
ATOM      8  C   UNL d   1       2.878  -4.824  -0.150  0.00  0.00     0.284 C 
ATOM      9  H3  UNL d   1       0.884  -4.926   0.439  0.00  0.00     0.395 HD
ENDBRANCH   1   7
TORSDOF 1
ENDMDL
