MODEL 1
REMARK minimizedAffinity -3.99546599
REMARK minimizedRMSD -1
REMARK  1 active torsions:
REMARK  status: ('A' for Active; 'I' for Inactive)
REMARK    1  A    between atoms: N_2  and  C1_3 
ROOT
ATOM      1  C1  UNL d   1       1.538  -2.926   0.051  0.00  0.00     0.143 A 
ATOM      2  C2  UNL d   1       0.150  -2.956   0.225  0.00  0.00    -0.057 A 
ATOM      3  C3  UNL d   1      -0.564  -1.802   0.570  0.00  0.00     0.033 A 
ATOM      4  C4  UNL d   1       0.104  -0.600   0.776  0.00  0.00    -0.042 A 
ATOM      5  C5  UNL d   1       1.486  -0.552   0.633  0.00  0.00     0.033 A 
ATOM      6  C6  UNL d   1       2.193  -1.706   0.282  0.00  0.00    -0.057 A 
ENDROOT
BRANCH   1   7
ATOM      7  N   UNL d   1       2.316  -4.060  -0.196  0.00  0.00    -0.732 N 
ATOM      8  C   UNL d   1       3.761  -3.983  -0.166  0.00  0.00     0.284 C 
ATOM      9  H3  UNL d   1       1.935  -4.895   0.243  0.00  0.00     0.395 HD
ENDBRANCH   1   7
TORSDOF 1
ENDMDL
