MODEL 1
REMARK minimizedAffinity -2.1247828
REMARK minimizedRMSD -1
REMARK  1 active torsions:
REMARK  status: ('A' for Active; 'I' for Inactive)
REMARK    1  A    between atoms: N_2  and  C1_3 
ROOT
ATOM      1  C1  UNL d   1       3.349  -4.184   0.041  0.00  0.00     0.143 A 
ATOM      2  C2  UNL d   1       3.754  -2.850   0.158  0.00  0.00    -0.057 A 
ATOM      3  C3  UNL d   1       2.837  -1.837   0.461  0.00  0.00     0.033 A 
ATOM      4  C4  UNL d   1       1.488  -2.136   0.624  0.00  0.00    -0.042 A 
ATOM      5  C5  UNL d   1       1.059  -3.452   0.487  0.00  0.00     0.033 A 
ATOM      6  C6  UNL d   1       1.981  -4.460   0.191  0.00  0.00    -0.057 A 
ENDROOT
BRANCH   1   7
ATOM      7  N   UNL d   1       4.195  -5.222  -0.356  0.00  0.00    -0.732 N 
ATOM      8  C   UNL d   1       4.933  -5.988   0.627  0.00  0.00     0.284 C 
ATOM      9  H3  UNL d   1       3.798  -5.782  -1.106  0.00  0.00     0.395 HD
ENDBRANCH   1   7
TORSDOF 1
ENDMDL
