MODEL 1
REMARK minimizedAffinity -3.63391256
REMARK minimizedRMSD -1
REMARK  1 active torsions:
REMARK  status: ('A' for Active; 'I' for Inactive)
REMARK    1  A    between atoms: N_2  and  C1_3 
ROOT
ATOM      1  C1  UNL d   1       2.062   4.510  -4.711  0.00  0.00     0.143 A 
ATOM      2  C2  UNL d   1       1.673   5.269  -5.820  0.00  0.00    -0.057 A 
ATOM      3  C3  UNL d   1       0.476   5.995  -5.819  0.00  0.00     0.033 A 
ATOM      4  C4  UNL d   1      -0.370   5.953  -4.715  0.00  0.00    -0.042 A 
ATOM      5  C5  UNL d   1      -0.015   5.185  -3.611  0.00  0.00     0.033 A 
ATOM      6  C6  UNL d   1       1.185   4.467  -3.616  0.00  0.00    -0.057 A 
ENDROOT
BRANCH   1   7
ATOM      7  N   UNL d   1       3.191   3.687  -4.689  0.00  0.00    -0.732 N 
ATOM      8  C   UNL d   1       3.762   3.253  -3.432  0.00  0.00     0.284 C 
ATOM      9  H3  UNL d   1       3.158   2.963  -5.403  0.00  0.00     0.395 HD
ENDBRANCH   1   7
TORSDOF 1
ENDMDL
