MODEL 1
REMARK minimizedAffinity 1.99580264
REMARK minimizedRMSD -1
REMARK  1 active torsions:
REMARK  status: ('A' for Active; 'I' for Inactive)
REMARK    1  A    between atoms: N_2  and  C1_3 
ROOT
ATOM      1  C1  UNL d   1       1.652  -0.287   1.357  0.00  0.00     0.143 A 
ATOM      2  C2  UNL d   1       1.564  -1.430   0.556  0.00  0.00    -0.057 A 
ATOM      3  C3  UNL d   1       0.334  -1.874   0.057  0.00  0.00     0.033 A 
ATOM      4  C4  UNL d   1      -0.839  -1.197   0.376  0.00  0.00    -0.042 A 
ATOM      5  C5  UNL d   1      -0.778  -0.072   1.192  0.00  0.00     0.033 A 
ATOM      6  C6  UNL d   1       0.454   0.370   1.681  0.00  0.00    -0.057 A 
ENDROOT
BRANCH   1   7
ATOM      7  N   UNL d   1       2.832   0.149   1.964  0.00  0.00    -0.732 N 
ATOM      8  C   UNL d   1       4.103  -0.452   1.621  0.00  0.00     0.284 C 
ATOM      9  H3  UNL d   1       2.866   1.161   2.068  0.00  0.00     0.395 HD
ENDBRANCH   1   7
TORSDOF 1
ENDMDL
