MODEL 1
REMARK minimizedAffinity -3.06338215
REMARK minimizedRMSD -1
REMARK  0 active torsions:
REMARK  status: ('A' for Active; 'I' for Inactive)
ROOT
ATOM      1  O1  BZF d   1      -2.706   0.405   1.760  0.00  0.00    -0.204 OA
ATOM      2  C2  BZF d   1      -3.203  -0.141   2.928  0.00  0.00     0.174 A 
ATOM      3  C3  BZF d   1      -2.552  -1.281   3.238  0.00  0.00    -0.012 A 
ATOM      4  C3A BZF d   1      -1.526  -1.409   2.249  0.00  0.00    -0.107 A 
ATOM      5  C4  BZF d   1      -0.542  -2.330   2.031  0.00  0.00     0.055 A 
ATOM      6  C5  BZF d   1       0.249  -2.205   0.933  0.00  0.00    -0.016 A 
ATOM      7  C6  BZF d   1       0.081  -1.175   0.031  0.00  0.00     0.022 A 
ATOM      8  C7  BZF d   1      -0.879  -0.235   0.207  0.00  0.00     0.029 A 
ATOM      9  C7A BZF d   1      -1.659  -0.340   1.333  0.00  0.00     0.058 A 
ENDROOT
TORSDOF 0
ENDMDL
