MODEL 1
REMARK minimizedAffinity -4.72651529
REMARK minimizedRMSD -1
REMARK  0 active torsions:
REMARK  status: ('A' for Active; 'I' for Inactive)
ROOT
ATOM      1  O1  BZF d   1      -0.525   0.818   0.289  0.00  0.00    -0.204 OA
ATOM      2  C2  BZF d   1       0.712   0.357  -0.119  0.00  0.00     0.174 A 
ATOM      3  C3  BZF d   1       0.905  -0.916   0.285  0.00  0.00    -0.012 A 
ATOM      4  C3A BZF d   1      -0.323  -1.303   0.909  0.00  0.00    -0.107 A 
ATOM      5  C4  BZF d   1      -0.755  -2.458   1.495  0.00  0.00     0.055 A 
ATOM      6  C5  BZF d   1      -1.984  -2.485   2.075  0.00  0.00    -0.016 A 
ATOM      7  C6  BZF d   1      -2.804  -1.376   2.091  0.00  0.00     0.022 A 
ATOM      8  C7  BZF d   1      -2.421  -0.209   1.518  0.00  0.00     0.029 A 
ATOM      9  C7A BZF d   1      -1.193  -0.188   0.903  0.00  0.00     0.058 A 
ENDROOT
TORSDOF 0
ENDMDL
