MODEL 1
REMARK minimizedAffinity -6.11370611
REMARK minimizedRMSD -1
REMARK  0 active torsions:
REMARK  status: ('A' for Active; 'I' for Inactive)
ROOT
ATOM      1  O1  BZF d   1      -0.674   0.991   1.182  0.00  0.00    -0.204 OA
ATOM      2  C2  BZF d   1       0.492   0.673   0.513  0.00  0.00     0.174 A 
ATOM      3  C3  BZF d   1       0.585  -0.659   0.320  0.00  0.00    -0.012 A 
ATOM      4  C3A BZF d   1      -0.641  -1.198   0.823  0.00  0.00    -0.107 A 
ATOM      5  C4  BZF d   1      -1.149  -2.464   0.898  0.00  0.00     0.055 A 
ATOM      6  C5  BZF d   1      -2.344  -2.660   1.514  0.00  0.00    -0.016 A 
ATOM      7  C6  BZF d   1      -3.054  -1.617   2.070  0.00  0.00     0.022 A 
ATOM      8  C7  BZF d   1      -2.593  -0.343   2.017  0.00  0.00     0.029 A 
ATOM      9  C7A BZF d   1      -1.402  -0.137   1.366  0.00  0.00     0.058 A 
ENDROOT
TORSDOF 0
ENDMDL
