MODEL 1
REMARK minimizedAffinity -3.29307079
REMARK minimizedRMSD -1
REMARK  0 active torsions:
REMARK  status: ('A' for Active; 'I' for Inactive)
ROOT
ATOM      1  O1  BZF d   1      -1.147   1.389   0.926  0.00  0.00    -0.204 OA
ATOM      2  C2  BZF d   1       0.012   1.540   0.188  0.00  0.00     0.174 A 
ATOM      3  C3  BZF d   1       0.655   0.362   0.061  0.00  0.00    -0.012 A 
ATOM      4  C3A BZF d   1      -0.200  -0.602   0.684  0.00  0.00    -0.107 A 
ATOM      5  C4  BZF d   1      -0.116  -1.953   0.866  0.00  0.00     0.055 A 
ATOM      6  C5  BZF d   1      -1.083  -2.585   1.580  0.00  0.00    -0.016 A 
ATOM      7  C6  BZF d   1      -2.145  -1.898   2.131  0.00  0.00     0.022 A 
ATOM      8  C7  BZF d   1      -2.274  -0.558   1.974  0.00  0.00     0.029 A 
ATOM      9  C7A BZF d   1      -1.315   0.079   1.224  0.00  0.00     0.058 A 
ENDROOT
TORSDOF 0
ENDMDL
