MODEL 1
REMARK minimizedAffinity -5.77588654
REMARK minimizedRMSD -1
REMARK  0 active torsions:
REMARK  status: ('A' for Active; 'I' for Inactive)
ROOT
ATOM      1  O1  BZF d   1      -1.174   1.592   1.072  0.00  0.00    -0.204 OA
ATOM      2  C2  BZF d   1      -0.092   1.861   0.255  0.00  0.00     0.174 A 
ATOM      3  C3  BZF d   1       0.423   0.720  -0.247  0.00  0.00    -0.012 A 
ATOM      4  C3A BZF d   1      -0.444  -0.320   0.216  0.00  0.00    -0.107 A 
ATOM      5  C4  BZF d   1      -0.464  -1.674   0.037  0.00  0.00     0.055 A 
ATOM      6  C5  BZF d   1      -1.403  -2.412   0.685  0.00  0.00    -0.016 A 
ATOM      7  C6  BZF d   1      -2.333  -1.830   1.523  0.00  0.00     0.022 A 
ATOM      8  C7  BZF d   1      -2.355  -0.490   1.727  0.00  0.00     0.029 A 
ATOM      9  C7A BZF d   1      -1.428   0.261   1.048  0.00  0.00     0.058 A 
ENDROOT
TORSDOF 0
ENDMDL
