MODEL 1
REMARK minimizedAffinity 0.645631194
REMARK minimizedRMSD -1
REMARK  0 active torsions:
REMARK  status: ('A' for Active; 'I' for Inactive)
ROOT
ATOM      1  O1  BZF d   1      -1.293  -1.433   1.981  0.00  0.00    -0.204 OA
ATOM      2  C2  BZF d   1      -0.547  -2.592   2.082  0.00  0.00     0.174 A 
ATOM      3  C3  BZF d   1       0.515  -2.550   1.252  0.00  0.00    -0.012 A 
ATOM      4  C3A BZF d   1       0.479  -1.248   0.660  0.00  0.00    -0.107 A 
ATOM      5  C4  BZF d   1       1.280  -0.602  -0.238  0.00  0.00     0.055 A 
ATOM      6  C5  BZF d   1       0.926   0.638  -0.666  0.00  0.00    -0.016 A 
ATOM      7  C6  BZF d   1      -0.222   1.260  -0.222  0.00  0.00     0.022 A 
ATOM      8  C7  BZF d   1      -1.046   0.661   0.673  0.00  0.00     0.029 A 
ATOM      9  C7A BZF d   1      -0.674  -0.579   1.132  0.00  0.00     0.058 A 
ENDROOT
TORSDOF 0
ENDMDL
