MODEL 1
REMARK minimizedAffinity -4.41850519
REMARK minimizedRMSD -1
REMARK  0 active torsions:
REMARK  status: ('A' for Active; 'I' for Inactive)
ROOT
ATOM      1  O1  BZF d   1      -1.492   1.292   0.925  0.00  0.00    -0.204 OA
ATOM      2  C2  BZF d   1      -0.575   2.159   0.363  0.00  0.00     0.174 A 
ATOM      3  C3  BZF d   1       0.599   1.534   0.140  0.00  0.00    -0.012 A 
ATOM      4  C3A BZF d   1       0.374   0.169   0.505  0.00  0.00    -0.107 A 
ATOM      5  C4  BZF d   1       1.160  -0.948   0.492  0.00  0.00     0.055 A 
ATOM      6  C5  BZF d   1       0.660  -2.112   0.983  0.00  0.00    -0.016 A 
ATOM      7  C6  BZF d   1      -0.616  -2.195   1.499  0.00  0.00     0.022 A 
ATOM      8  C7  BZF d   1      -1.435  -1.115   1.529  0.00  0.00     0.029 A 
ATOM      9  C7A BZF d   1      -0.944   0.056   1.003  0.00  0.00     0.058 A 
ENDROOT
TORSDOF 0
ENDMDL
