MODEL 1
REMARK minimizedAffinity -2.83723116
REMARK minimizedRMSD -1
REMARK  0 active torsions:
REMARK  status: ('A' for Active; 'I' for Inactive)
ROOT
ATOM      1  O1  BZF d   1       0.358  -2.470   1.382  0.00  0.00    -0.204 OA
ATOM      2  C2  BZF d   1       1.334  -1.544   1.070  0.00  0.00     0.174 A 
ATOM      3  C3  BZF d   1       0.784  -0.349   0.774  0.00  0.00    -0.012 A 
ATOM      4  C3A BZF d   1      -0.619  -0.515   1.001  0.00  0.00    -0.107 A 
ATOM      5  C4  BZF d   1      -1.693   0.323   0.895  0.00  0.00     0.055 A 
ATOM      6  C5  BZF d   1      -2.939  -0.170   1.118  0.00  0.00    -0.016 A 
ATOM      7  C6  BZF d   1      -3.149  -1.494   1.442  0.00  0.00     0.022 A 
ATOM      8  C7  BZF d   1      -2.116  -2.362   1.563  0.00  0.00     0.029 A 
ATOM      9  C7A BZF d   1      -0.852  -1.859   1.371  0.00  0.00     0.058 A 
ENDROOT
TORSDOF 0
ENDMDL
