MODEL 1
REMARK minimizedAffinity -1.53247237
REMARK minimizedRMSD -1
REMARK  0 active torsions:
REMARK  status: ('A' for Active; 'I' for Inactive)
ROOT
ATOM      1  O1  BZF d   1      -0.860   1.429   0.952  0.00  0.00    -0.204 OA
ATOM      2  C2  BZF d   1      -0.001   1.955   0.008  0.00  0.00     0.174 A 
ATOM      3  C3  BZF d   1       0.861   1.016  -0.431  0.00  0.00    -0.012 A 
ATOM      4  C3A BZF d   1       0.459  -0.196   0.216  0.00  0.00    -0.107 A 
ATOM      5  C4  BZF d   1       0.919  -1.481   0.172  0.00  0.00     0.055 A 
ATOM      6  C5  BZF d   1       0.352  -2.413   0.982  0.00  0.00    -0.016 A 
ATOM      7  C6  BZF d   1      -0.673  -2.095   1.849  0.00  0.00     0.022 A 
ATOM      8  C7  BZF d   1      -1.166  -0.835   1.924  0.00  0.00     0.029 A 
ATOM      9  C7A BZF d   1      -0.617   0.103   1.084  0.00  0.00     0.058 A 
ENDROOT
TORSDOF 0
ENDMDL
