MODEL 1
REMARK minimizedAffinity 6.84498358
REMARK minimizedRMSD -1
REMARK  0 active torsions:
REMARK  status: ('A' for Active; 'I' for Inactive)
ROOT
ATOM      1  O1  BZF d   1      -0.722   0.282  -0.068  0.00  0.00    -0.204 OA
ATOM      2  C2  BZF d   1       0.275  -0.395   0.607  0.00  0.00     0.174 A 
ATOM      3  C3  BZF d   1       1.458  -0.258  -0.026  0.00  0.00    -0.012 A 
ATOM      4  C3A BZF d   1       1.201   0.631  -1.117  0.00  0.00    -0.107 A 
ATOM      5  C4  BZF d   1       1.986   1.162  -2.100  0.00  0.00     0.055 A 
ATOM      6  C5  BZF d   1       1.412   1.938  -3.056  0.00  0.00    -0.016 A 
ATOM      7  C6  BZF d   1       0.057   2.200  -3.063  0.00  0.00     0.022 A 
ATOM      8  C7  BZF d   1      -0.761   1.699  -2.105  0.00  0.00     0.029 A 
ATOM      9  C7A BZF d   1      -0.178   0.941  -1.119  0.00  0.00     0.058 A 
ENDROOT
TORSDOF 0
ENDMDL
