MODEL 1
REMARK minimizedAffinity -5.53295565
REMARK minimizedRMSD -1
REMARK  0 active torsions:
REMARK  status: ('A' for Active; 'I' for Inactive)
ROOT
ATOM      1  O1  BZF d   1      -0.620   0.916   0.411  0.00  0.00    -0.204 OA
ATOM      2  C2  BZF d   1       0.673   0.656  -0.001  0.00  0.00     0.174 A 
ATOM      3  C3  BZF d   1       0.997  -0.634   0.227  0.00  0.00    -0.012 A 
ATOM      4  C3A BZF d   1      -0.197  -1.238   0.733  0.00  0.00    -0.107 A 
ATOM      5  C4  BZF d   1      -0.513  -2.506   1.130  0.00  0.00     0.055 A 
ATOM      6  C5  BZF d   1      -1.747  -2.750   1.643  0.00  0.00    -0.016 A 
ATOM      7  C6  BZF d   1      -2.688  -1.750   1.778  0.00  0.00     0.022 A 
ATOM      8  C7  BZF d   1      -2.423  -0.477   1.394  0.00  0.00     0.029 A 
ATOM      9  C7A BZF d   1      -1.188  -0.234   0.845  0.00  0.00     0.058 A 
ENDROOT
TORSDOF 0
ENDMDL
