MODEL 1
REMARK minimizedAffinity -5.59029436
REMARK minimizedRMSD -1
REMARK  0 active torsions:
REMARK  status: ('A' for Active; 'I' for Inactive)
ROOT
ATOM      1  O1  BZF d   1      -0.990   1.111   0.503  0.00  0.00    -0.204 OA
ATOM      2  C2  BZF d   1      -0.017   0.674  -0.375  0.00  0.00     0.174 A 
ATOM      3  C3  BZF d   1       0.032  -0.674  -0.403  0.00  0.00    -0.012 A 
ATOM      4  C3A BZF d   1      -1.035  -1.107   0.447  0.00  0.00    -0.107 A 
ATOM      5  C4  BZF d   1      -1.504  -2.336   0.811  0.00  0.00     0.055 A 
ATOM      6  C5  BZF d   1      -2.516  -2.415   1.715  0.00  0.00    -0.016 A 
ATOM      7  C6  BZF d   1      -3.077  -1.287   2.278  0.00  0.00     0.022 A 
ATOM      8  C7  BZF d   1      -2.648  -0.046   1.943  0.00  0.00     0.029 A 
ATOM      9  C7A BZF d   1      -1.648   0.038   1.005  0.00  0.00     0.058 A 
ENDROOT
TORSDOF 0
ENDMDL
