MODEL 1
REMARK minimizedAffinity -2.33459139
REMARK minimizedRMSD -1
REMARK  0 active torsions:
REMARK  status: ('A' for Active; 'I' for Inactive)
ROOT
ATOM      1  O1  BZF d   1       0.044  -0.262   0.317  0.00  0.00    -0.204 OA
ATOM      2  C2  BZF d   1       0.870  -1.363   0.197  0.00  0.00     0.174 A 
ATOM      3  C3  BZF d   1       0.262  -2.471   0.670  0.00  0.00    -0.012 A 
ATOM      4  C3A BZF d   1      -1.058  -2.051   1.028  0.00  0.00    -0.107 A 
ATOM      5  C4  BZF d   1      -2.143  -2.702   1.542  0.00  0.00     0.055 A 
ATOM      6  C5  BZF d   1      -3.259  -1.989   1.846  0.00  0.00    -0.016 A 
ATOM      7  C6  BZF d   1      -3.323  -0.624   1.654  0.00  0.00     0.022 A 
ATOM      8  C7  BZF d   1      -2.274   0.065   1.142  0.00  0.00     0.029 A 
ATOM      9  C7A BZF d   1      -1.157  -0.659   0.803  0.00  0.00     0.058 A 
ENDROOT
TORSDOF 0
ENDMDL
