MODEL 1
REMARK minimizedAffinity -5.84830809
REMARK minimizedRMSD -1
REMARK  0 active torsions:
REMARK  status: ('A' for Active; 'I' for Inactive)
ROOT
ATOM      1  O1  BZF d   1      -0.561   0.747  -0.021  0.00  0.00    -0.204 OA
ATOM      2  C2  BZF d   1       0.794   0.587   0.196  0.00  0.00     0.174 A 
ATOM      3  C3  BZF d   1       1.031  -0.494   0.967  0.00  0.00    -0.012 A 
ATOM      4  C3A BZF d   1      -0.250  -1.098   1.172  0.00  0.00    -0.107 A 
ATOM      5  C4  BZF d   1      -0.667  -2.212   1.843  0.00  0.00     0.055 A 
ATOM      6  C5  BZF d   1      -1.996  -2.483   1.912  0.00  0.00    -0.016 A 
ATOM      7  C6  BZF d   1      -2.936  -1.660   1.327  0.00  0.00     0.022 A 
ATOM      8  C7  BZF d   1      -2.571  -0.546   0.646  0.00  0.00     0.029 A 
ATOM      9  C7A BZF d   1      -1.226  -0.288   0.547  0.00  0.00     0.058 A 
ENDROOT
TORSDOF 0
ENDMDL
