MODEL 1
REMARK minimizedAffinity -1.05266023
REMARK minimizedRMSD -1
REMARK  0 active torsions:
REMARK  status: ('A' for Active; 'I' for Inactive)
ROOT
ATOM      1  O1  BZF d   1      -1.691   0.346   1.726  0.00  0.00    -0.204 OA
ATOM      2  C2  BZF d   1      -1.329   1.568   1.195  0.00  0.00     0.174 A 
ATOM      3  C3  BZF d   1      -0.098   1.506   0.646  0.00  0.00    -0.012 A 
ATOM      4  C3A BZF d   1       0.298   0.136   0.765  0.00  0.00    -0.107 A 
ATOM      5  C4  BZF d   1       1.415  -0.554   0.389  0.00  0.00     0.055 A 
ATOM      6  C5  BZF d   1       1.520  -1.869   0.718  0.00  0.00    -0.016 A 
ATOM      7  C6  BZF d   1       0.532  -2.522   1.425  0.00  0.00     0.022 A 
ATOM      8  C7  BZF d   1      -0.596  -1.880   1.815  0.00  0.00     0.029 A 
ATOM      9  C7A BZF d   1      -0.721  -0.560   1.456  0.00  0.00     0.058 A 
ENDROOT
TORSDOF 0
ENDMDL
