MODEL 1
REMARK minimizedAffinity -6.82803583
REMARK minimizedRMSD -1
REMARK  0 active torsions:
REMARK  status: ('A' for Active; 'I' for Inactive)
ROOT
ATOM      1  O1  BZF d   1      -0.915   0.875   0.738  0.00  0.00    -0.204 OA
ATOM      2  C2  BZF d   1       0.322   0.507   0.245  0.00  0.00     0.174 A 
ATOM      3  C3  BZF d   1       0.516  -0.820   0.384  0.00  0.00    -0.012 A 
ATOM      4  C3A BZF d   1      -0.711  -1.327   0.917  0.00  0.00    -0.107 A 
ATOM      5  C4  BZF d   1      -1.141  -2.577   1.258  0.00  0.00     0.055 A 
ATOM      6  C5  BZF d   1      -2.370  -2.722   1.821  0.00  0.00    -0.016 A 
ATOM      7  C6  BZF d   1      -3.190  -1.640   2.062  0.00  0.00     0.022 A 
ATOM      8  C7  BZF d   1      -2.809  -0.381   1.736  0.00  0.00     0.029 A 
ATOM      9  C7A BZF d   1      -1.582  -0.234   1.137  0.00  0.00     0.058 A 
ENDROOT
TORSDOF 0
ENDMDL
