MODEL 1
REMARK minimizedAffinity -6.6349864
REMARK minimizedRMSD -1
REMARK  0 active torsions:
REMARK  status: ('A' for Active; 'I' for Inactive)
ROOT
ATOM      1  O1  BZF d   1      -2.662   0.398   1.984  0.00  0.00    -0.204 OA
ATOM      2  C2  BZF d   1      -3.274  -0.669   2.611  0.00  0.00     0.174 A 
ATOM      3  C3  BZF d   1      -2.658  -1.827   2.297  0.00  0.00    -0.012 A 
ATOM      4  C3A BZF d   1      -1.537  -1.450   1.491  0.00  0.00    -0.107 A 
ATOM      5  C4  BZF d   1      -0.536  -2.155   0.887  0.00  0.00     0.055 A 
ATOM      6  C5  BZF d   1       0.362  -1.494   0.111  0.00  0.00    -0.016 A 
ATOM      7  C6  BZF d   1       0.286  -0.131  -0.087  0.00  0.00     0.022 A 
ATOM      8  C7  BZF d   1      -0.687   0.612   0.495  0.00  0.00     0.029 A 
ATOM      9  C7A BZF d   1      -1.577  -0.049   1.307  0.00  0.00     0.058 A 
ENDROOT
TORSDOF 0
ENDMDL
