MODEL 1
REMARK minimizedAffinity 1.75249696
REMARK minimizedRMSD -1
REMARK  1 active torsions:
REMARK  status: ('A' for Active; 'I' for Inactive)
REMARK    1  A    between atoms: C3_4  and  O_7 
ROOT
ATOM      1  C   UNL d   1       3.291   0.909   0.398  0.00  0.00    -0.033 A 
ATOM      2  C1  UNL d   1       4.047  -0.091  -0.217  0.00  0.00     0.039 A 
ATOM      3  C2  UNL d   1       3.619  -1.419  -0.173  0.00  0.00    -0.080 A 
ATOM      4  C3  UNL d   1       2.435  -1.734   0.488  0.00  0.00     0.150 A 
ATOM      5  C4  UNL d   1       1.674  -0.743   1.100  0.00  0.00    -0.007 A 
ATOM      6  C5  UNL d   1       2.104   0.583   1.055  0.00  0.00     0.039 A 
ENDROOT
BRANCH   4   7
ATOM      7  O   UNL d   1       1.979  -3.017   0.562  0.00  0.00    -0.526 OA
ATOM      8  H5  UNL d   1       2.621  -3.597   0.120  0.00  0.00     0.418 HD
ENDBRANCH   4   7
TORSDOF 1
ENDMDL
