MODEL 1
REMARK minimizedAffinity -3.13350821
REMARK minimizedRMSD -1
REMARK  1 active torsions:
REMARK  status: ('A' for Active; 'I' for Inactive)
REMARK    1  A    between atoms: C3_4  and  O_7 
ROOT
ATOM      1  C   UNL d   1      -3.518   2.680  -5.895  0.00  0.00    -0.033 A 
ATOM      2  C1  UNL d   1      -2.719   2.785  -4.755  0.00  0.00     0.039 A 
ATOM      3  C2  UNL d   1      -3.114   3.607  -3.697  0.00  0.00    -0.080 A 
ATOM      4  C3  UNL d   1      -4.307   4.317  -3.792  0.00  0.00     0.150 A 
ATOM      5  C4  UNL d   1      -5.110   4.214  -4.924  0.00  0.00    -0.007 A 
ATOM      6  C5  UNL d   1      -4.714   3.394  -5.979  0.00  0.00     0.039 A 
ENDROOT
BRANCH   4   7
ATOM      7  O   UNL d   1      -4.731   5.136  -2.788  0.00  0.00    -0.526 OA
ATOM      8  H5  UNL d   1      -4.062   5.130  -2.083  0.00  0.00     0.418 HD
ENDBRANCH   4   7
TORSDOF 1
ENDMDL
