MODEL 1
REMARK minimizedAffinity 0.97665906
REMARK minimizedRMSD -1
REMARK  1 active torsions:
REMARK  status: ('A' for Active; 'I' for Inactive)
REMARK    1  A    between atoms: C3_4  and  O_7 
ROOT
ATOM      1  C   UNL d   1       1.856   1.007  -0.011  0.00  0.00    -0.033 A 
ATOM      2  C1  UNL d   1       2.524  -0.170   0.332  0.00  0.00     0.039 A 
ATOM      3  C2  UNL d   1       3.919  -0.208   0.335  0.00  0.00    -0.080 A 
ATOM      4  C3  UNL d   1       4.635   0.936  -0.006  0.00  0.00     0.150 A 
ATOM      5  C4  UNL d   1       3.977   2.114  -0.345  0.00  0.00    -0.007 A 
ATOM      6  C5  UNL d   1       2.583   2.150  -0.349  0.00  0.00     0.039 A 
ENDROOT
BRANCH   4   7
ATOM      7  O   UNL d   1       5.998   0.946  -0.022  0.00  0.00    -0.526 OA
ATOM      8  H5  UNL d   1       6.315   0.056   0.205  0.00  0.00     0.418 HD
ENDBRANCH   4   7
TORSDOF 1
ENDMDL
