MODEL 1
REMARK minimizedAffinity -1.19954669
REMARK minimizedRMSD -1
REMARK  1 active torsions:
REMARK  status: ('A' for Active; 'I' for Inactive)
REMARK    1  A    between atoms: C3_4  and  O_7 
ROOT
ATOM      1  C   UNL d   1      -6.000   1.696  -3.771  0.00  0.00    -0.033 A 
ATOM      2  C1  UNL d   1      -5.323   0.745  -4.537  0.00  0.00     0.039 A 
ATOM      3  C2  UNL d   1      -3.933   0.642  -4.456  0.00  0.00    -0.080 A 
ATOM      4  C3  UNL d   1      -3.233   1.495  -3.607  0.00  0.00     0.150 A 
ATOM      5  C4  UNL d   1      -3.901   2.442  -2.838  0.00  0.00    -0.007 A 
ATOM      6  C5  UNL d   1      -5.289   2.543  -2.921  0.00  0.00     0.039 A 
ENDROOT
BRANCH   4   7
ATOM      7  O   UNL d   1      -1.875   1.435  -3.498  0.00  0.00    -0.526 OA
ATOM      8  H5  UNL d   1      -1.547   0.754  -4.108  0.00  0.00     0.418 HD
ENDBRANCH   4   7
TORSDOF 1
ENDMDL
