MODEL 1
REMARK minimizedAffinity 0.655169308
REMARK minimizedRMSD -1
REMARK  1 active torsions:
REMARK  status: ('A' for Active; 'I' for Inactive)
REMARK    1  A    between atoms: C3_4  and  O_7 
ROOT
ATOM      1  C   UNL d   1      -6.000   2.388  -3.743  0.00  0.00    -0.033 A 
ATOM      2  C1  UNL d   1      -5.956   1.141  -4.370  0.00  0.00     0.039 A 
ATOM      3  C2  UNL d   1      -4.738   0.472  -4.513  0.00  0.00    -0.080 A 
ATOM      4  C3  UNL d   1      -3.575   1.060  -4.024  0.00  0.00     0.150 A 
ATOM      5  C4  UNL d   1      -3.612   2.300  -3.395  0.00  0.00    -0.007 A 
ATOM      6  C5  UNL d   1      -4.828   2.967  -3.254  0.00  0.00     0.039 A 
ENDROOT
BRANCH   4   7
ATOM      7  O   UNL d   1      -2.362   0.448  -4.145  0.00  0.00    -0.526 OA
ATOM      8  H5  UNL d   1      -2.486  -0.388  -4.626  0.00  0.00     0.418 HD
ENDBRANCH   4   7
TORSDOF 1
ENDMDL
