MODEL 1
REMARK minimizedAffinity -4.45518494
REMARK minimizedRMSD -1
REMARK  0 active torsions:
REMARK  status: ('A' for Active; 'I' for Inactive)
ROOT
ATOM      1  C1  BNZ d   1       1.757  -1.533   0.020  0.00  0.00     0.000 A 
ATOM      2  C2  BNZ d   1       0.989  -0.708   0.798  0.00  0.00     0.000 A 
ATOM      3  C3  BNZ d   1      -0.371  -0.682   0.659  0.00  0.00     0.000 A 
ATOM      4  C4  BNZ d   1      -0.957  -1.450  -0.282  0.00  0.00     0.000 A 
ATOM      5  C5  BNZ d   1      -0.195  -2.279  -1.081  0.00  0.00     0.000 A 
ATOM      6  C6  BNZ d   1       1.170  -2.332  -0.912  0.00  0.00     0.000 A 
ENDROOT
TORSDOF 0
ENDMDL
