MODEL 1
REMARK minimizedAffinity -3.88442945
REMARK minimizedRMSD -1
REMARK  0 active torsions:
REMARK  status: ('A' for Active; 'I' for Inactive)
ROOT
ATOM      1  C1  BNZ d   1       2.429  -1.727  -1.906  0.00  0.00     0.000 A 
ATOM      2  C2  BNZ d   1       1.211  -2.336  -2.051  0.00  0.00     0.000 A 
ATOM      3  C3  BNZ d   1       0.130  -1.922  -1.324  0.00  0.00     0.000 A 
ATOM      4  C4  BNZ d   1       0.278  -0.928  -0.424  0.00  0.00     0.000 A 
ATOM      5  C5  BNZ d   1       1.501  -0.311  -0.259  0.00  0.00     0.000 A 
ATOM      6  C6  BNZ d   1       2.577  -0.703  -1.021  0.00  0.00     0.000 A 
ENDROOT
TORSDOF 0
ENDMDL
