MODEL 1
REMARK minimizedAffinity -4.8056488
REMARK minimizedRMSD -1
REMARK  0 active torsions:
REMARK  status: ('A' for Active; 'I' for Inactive)
ROOT
ATOM      1  C1  BNZ d   1      -3.091   1.193   2.476  0.00  0.00     0.000 A 
ATOM      2  C2  BNZ d   1      -1.871   0.636   2.754  0.00  0.00     0.000 A 
ATOM      3  C3  BNZ d   1      -1.427  -0.456   2.062  0.00  0.00     0.000 A 
ATOM      4  C4  BNZ d   1      -2.218  -1.013   1.123  0.00  0.00     0.000 A 
ATOM      5  C5  BNZ d   1      -3.454  -0.469   0.838  0.00  0.00     0.000 A 
ATOM      6  C6  BNZ d   1      -3.882   0.654   1.509  0.00  0.00     0.000 A 
ENDROOT
TORSDOF 0
ENDMDL
