MODEL 1
REMARK minimizedAffinity -4.35801411
REMARK minimizedRMSD -1
REMARK  0 active torsions:
REMARK  status: ('A' for Active; 'I' for Inactive)
ROOT
ATOM      1  C1  BNZ d   1      -2.885   0.317   1.333  0.00  0.00     0.000 A 
ATOM      2  C2  BNZ d   1      -2.655  -0.879   0.708  0.00  0.00     0.000 A 
ATOM      3  C3  BNZ d   1      -1.411  -1.446   0.718  0.00  0.00     0.000 A 
ATOM      4  C4  BNZ d   1      -0.392  -0.798   1.317  0.00  0.00     0.000 A 
ATOM      5  C5  BNZ d   1      -0.606   0.413   1.944  0.00  0.00     0.000 A 
ATOM      6  C6  BNZ d   1      -1.867   0.962   1.966  0.00  0.00     0.000 A 
ENDROOT
TORSDOF 0
ENDMDL
