MODEL 1
REMARK minimizedAffinity -3.64084673
REMARK minimizedRMSD -1
REMARK  0 active torsions:
REMARK  status: ('A' for Active; 'I' for Inactive)
ROOT
ATOM      1  C1  BNZ d   1      -1.886  -1.135  -0.358  0.00  0.00     0.000 A 
ATOM      2  C2  BNZ d   1      -3.060  -0.430  -0.360  0.00  0.00     0.000 A 
ATOM      3  C3  BNZ d   1      -3.501   0.199   0.772  0.00  0.00     0.000 A 
ATOM      4  C4  BNZ d   1      -2.790   0.087   1.912  0.00  0.00     0.000 A 
ATOM      5  C5  BNZ d   1      -1.609  -0.628   1.932  0.00  0.00     0.000 A 
ATOM      6  C6  BNZ d   1      -1.148  -1.226   0.782  0.00  0.00     0.000 A 
ENDROOT
TORSDOF 0
ENDMDL
