MODEL 1
REMARK minimizedAffinity -2.89573741
REMARK minimizedRMSD -1
REMARK  0 active torsions:
REMARK  status: ('A' for Active; 'I' for Inactive)
ROOT
ATOM      1  C1  BNZ d   1      -2.901   0.120  -0.051  0.00  0.00     0.000 A 
ATOM      2  C2  BNZ d   1      -1.907  -0.760  -0.388  0.00  0.00     0.000 A 
ATOM      3  C3  BNZ d   1      -1.050  -1.245   0.560  0.00  0.00     0.000 A 
ATOM      4  C4  BNZ d   1      -1.162  -0.820   1.835  0.00  0.00     0.000 A 
ATOM      5  C5  BNZ d   1      -2.153   0.074   2.189  0.00  0.00     0.000 A 
ATOM      6  C6  BNZ d   1      -3.039   0.530   1.239  0.00  0.00     0.000 A 
ENDROOT
TORSDOF 0
ENDMDL
