MODEL 1
REMARK minimizedAffinity -3.27967572
REMARK minimizedRMSD -1
REMARK  0 active torsions:
REMARK  status: ('A' for Active; 'I' for Inactive)
ROOT
ATOM      1  C1  BNZ d   1      -1.479  -1.281   0.010  0.00  0.00     0.000 A 
ATOM      2  C2  BNZ d   1      -0.683  -1.078   1.106  0.00  0.00     0.000 A 
ATOM      3  C3  BNZ d   1      -1.157  -0.413   2.202  0.00  0.00     0.000 A 
ATOM      4  C4  BNZ d   1      -2.411   0.084   2.185  0.00  0.00     0.000 A 
ATOM      5  C5  BNZ d   1      -3.223  -0.104   1.084  0.00  0.00     0.000 A 
ATOM      6  C6  BNZ d   1      -2.755  -0.808  -0.002  0.00  0.00     0.000 A 
ENDROOT
TORSDOF 0
ENDMDL
