MODEL 1
REMARK minimizedAffinity -2.79344034
REMARK minimizedRMSD -1
REMARK  0 active torsions:
REMARK  status: ('A' for Active; 'I' for Inactive)
ROOT
ATOM      1  C1  BNZ d   1      -1.584  -0.620   1.535  0.00  0.00     0.000 A 
ATOM      2  C2  BNZ d   1      -0.794  -0.380   2.627  0.00  0.00     0.000 A 
ATOM      3  C3  BNZ d   1       0.529  -0.724   2.623  0.00  0.00     0.000 A 
ATOM      4  C4  BNZ d   1       1.050  -1.342   1.543  0.00  0.00     0.000 A 
ATOM      5  C5  BNZ d   1       0.263  -1.599   0.438  0.00  0.00     0.000 A 
ATOM      6  C6  BNZ d   1      -1.059  -1.217   0.431  0.00  0.00     0.000 A 
ENDROOT
TORSDOF 0
ENDMDL
