MODEL 1
REMARK minimizedAffinity 0.186188638
REMARK minimizedRMSD -1
REMARK  0 active torsions:
REMARK  status: ('A' for Active; 'I' for Inactive)
ROOT
ATOM      1  C2' OXE d   1      -0.764   1.132   0.183  0.00  0.00     0.078 C 
ATOM      2  C1' OXE d   1      -1.151  -0.829   2.154  0.00  0.00     0.078 C 
ATOM      3  C1  OXE d   1       0.148  -0.848   1.389  0.00  0.00    -0.078 A 
ATOM      4  C2  OXE d   1       0.310   0.087   0.394  0.00  0.00    -0.078 A 
ATOM      5  C3  OXE d   1       1.512   0.148  -0.305  0.00  0.00     0.003 A 
ATOM      6  C4  OXE d   1       2.496  -0.829  -0.110  0.00  0.00    -0.002 A 
ATOM      7  C5  OXE d   1       2.335  -1.814   0.870  0.00  0.00    -0.002 A 
ATOM      8  C6  OXE d   1       1.188  -1.811   1.656  0.00  0.00     0.003 A 
ENDROOT
TORSDOF 0
ENDMDL
