MODEL 1
REMARK minimizedAffinity -1.06690109
REMARK minimizedRMSD -1
REMARK  0 active torsions:
REMARK  status: ('A' for Active; 'I' for Inactive)
ROOT
ATOM      1  C2' OXE d   1      -0.805   0.674  -0.012  0.00  0.00     0.078 C 
ATOM      2  C1' OXE d   1      -1.558  -0.773   2.273  0.00  0.00     0.078 C 
ATOM      3  C1  OXE d   1      -0.146  -0.940   1.768  0.00  0.00    -0.078 A 
ATOM      4  C2  OXE d   1       0.199  -0.265   0.622  0.00  0.00    -0.078 A 
ATOM      5  C3  OXE d   1       1.504  -0.341   0.144  0.00  0.00     0.003 A 
ATOM      6  C4  OXE d   1       2.424  -1.219   0.730  0.00  0.00    -0.002 A 
ATOM      7  C5  OXE d   1       2.080  -1.947   1.875  0.00  0.00    -0.002 A 
ATOM      8  C6  OXE d   1       0.815  -1.786   2.430  0.00  0.00     0.003 A 
ENDROOT
TORSDOF 0
ENDMDL
