MODEL 1
REMARK minimizedAffinity -3.12640595
REMARK minimizedRMSD -1
REMARK  0 active torsions:
REMARK  status: ('A' for Active; 'I' for Inactive)
ROOT
ATOM      1  C2' OXE d   1       1.131  -2.212   3.123  0.00  0.00     0.078 C 
ATOM      2  C1' OXE d   1      -1.393  -1.102   2.600  0.00  0.00     0.078 C 
ATOM      3  C1  OXE d   1      -0.279  -0.805   1.628  0.00  0.00    -0.078 A 
ATOM      4  C2  OXE d   1       0.964  -1.314   1.917  0.00  0.00    -0.078 A 
ATOM      5  C3  OXE d   1       2.014  -1.115   1.025  0.00  0.00     0.003 A 
ATOM      6  C4  OXE d   1       1.854  -0.274  -0.083  0.00  0.00    -0.002 A 
ATOM      7  C5  OXE d   1       0.606   0.286  -0.374  0.00  0.00    -0.002 A 
ATOM      8  C6  OXE d   1      -0.479  -0.003   0.446  0.00  0.00     0.003 A 
ENDROOT
TORSDOF 0
ENDMDL
