MODEL 1
REMARK minimizedAffinity -3.540241
REMARK minimizedRMSD -1
REMARK  0 active torsions:
REMARK  status: ('A' for Active; 'I' for Inactive)
ROOT
ATOM      1  C2' OXE d   1      -1.155   1.374   0.001  0.00  0.00     0.078 C 
ATOM      2  C1' OXE d   1      -3.376   0.839  -1.631  0.00  0.00     0.078 C 
ATOM      3  C1  OXE d   1      -2.144   1.413  -2.285  0.00  0.00    -0.078 A 
ATOM      4  C2  OXE d   1      -1.079   1.715  -1.472  0.00  0.00    -0.078 A 
ATOM      5  C3  OXE d   1       0.102   2.195  -2.032  0.00  0.00     0.003 A 
ATOM      6  C4  OXE d   1       0.160   2.517  -3.393  0.00  0.00    -0.002 A 
ATOM      7  C5  OXE d   1      -0.927   2.254  -4.233  0.00  0.00    -0.002 A 
ATOM      8  C6  OXE d   1      -2.070   1.664  -3.703  0.00  0.00     0.003 A 
ENDROOT
TORSDOF 0
ENDMDL
