MODEL 1
REMARK minimizedAffinity -2.79560232
REMARK minimizedRMSD -1
REMARK  0 active torsions:
REMARK  status: ('A' for Active; 'I' for Inactive)
ROOT
ATOM      1  C2' OXE d   1      -1.219   1.326  -0.347  0.00  0.00     0.078 C 
ATOM      2  C1' OXE d   1      -1.475  -0.472   1.794  0.00  0.00     0.078 C 
ATOM      3  C1  OXE d   1      -0.154  -0.428   1.067  0.00  0.00    -0.078 A 
ATOM      4  C2  OXE d   1      -0.053   0.422  -0.009  0.00  0.00    -0.078 A 
ATOM      5  C3  OXE d   1       1.160   0.542  -0.681  0.00  0.00     0.003 A 
ATOM      6  C4  OXE d   1       2.230  -0.306  -0.369  0.00  0.00    -0.002 A 
ATOM      7  C5  OXE d   1       2.135  -1.206   0.698  0.00  0.00    -0.002 A 
ATOM      8  C6  OXE d   1       0.967  -1.249   1.451  0.00  0.00     0.003 A 
ENDROOT
TORSDOF 0
ENDMDL
