MODEL 1
REMARK minimizedAffinity -2.97378612
REMARK minimizedRMSD -1
REMARK  0 active torsions:
REMARK  status: ('A' for Active; 'I' for Inactive)
ROOT
ATOM      1  C2' OXE d   1      -0.823   1.226  -0.401  0.00  0.00     0.078 C 
ATOM      2  C1' OXE d   1      -0.949  -0.607   1.721  0.00  0.00     0.078 C 
ATOM      3  C1  OXE d   1       0.342  -0.515   0.946  0.00  0.00    -0.078 A 
ATOM      4  C2  OXE d   1       0.379   0.351  -0.120  0.00  0.00    -0.078 A 
ATOM      5  C3  OXE d   1       1.562   0.514  -0.834  0.00  0.00     0.003 A 
ATOM      6  C4  OXE d   1       2.666  -0.306  -0.574  0.00  0.00    -0.002 A 
ATOM      7  C5  OXE d   1       2.637  -1.223   0.482  0.00  0.00    -0.002 A 
ATOM      8  C6  OXE d   1       1.499  -1.310   1.277  0.00  0.00     0.003 A 
ENDROOT
TORSDOF 0
ENDMDL
