MODEL 1
REMARK minimizedAffinity -3.29434967
REMARK minimizedRMSD -1
REMARK  0 active torsions:
REMARK  status: ('A' for Active; 'I' for Inactive)
ROOT
ATOM      1  C2' OXE d   1      -0.885   0.590  -1.037  0.00  0.00     0.078 C 
ATOM      2  C1' OXE d   1      -1.359   0.339   1.719  0.00  0.00     0.078 C 
ATOM      3  C1  OXE d   1      -0.120  -0.312   1.156  0.00  0.00    -0.078 A 
ATOM      4  C2  OXE d   1       0.080  -0.224  -0.201  0.00  0.00    -0.078 A 
ATOM      5  C3  OXE d   1       1.234  -0.760  -0.764  0.00  0.00     0.003 A 
ATOM      6  C4  OXE d   1       2.116  -1.519   0.015  0.00  0.00    -0.002 A 
ATOM      7  C5  OXE d   1       1.911  -1.655   1.392  0.00  0.00    -0.002 A 
ATOM      8  C6  OXE d   1       0.823  -1.023   1.984  0.00  0.00     0.003 A 
ENDROOT
TORSDOF 0
ENDMDL
