MODEL 1
REMARK minimizedAffinity 0.603144526
REMARK minimizedRMSD -1
REMARK  0 active torsions:
REMARK  status: ('A' for Active; 'I' for Inactive)
ROOT
ATOM      1  C2' OXE d   1      -0.356   3.533  -2.610  0.00  0.00     0.078 C 
ATOM      2  C1' OXE d   1      -0.424   1.776  -0.421  0.00  0.00     0.078 C 
ATOM      3  C1  OXE d   1      -1.451   1.585  -1.509  0.00  0.00    -0.078 A 
ATOM      4  C2  OXE d   1      -1.440   2.478  -2.553  0.00  0.00    -0.078 A 
ATOM      5  C3  OXE d   1      -2.331   2.314  -3.610  0.00  0.00     0.003 A 
ATOM      6  C4  OXE d   1      -3.337   1.342  -3.545  0.00  0.00    -0.002 A 
ATOM      7  C5  OXE d   1      -3.390   0.447  -2.471  0.00  0.00    -0.002 A 
ATOM      8  C6  OXE d   1      -2.431   0.528  -1.468  0.00  0.00     0.003 A 
ENDROOT
TORSDOF 0
ENDMDL
