MODEL 1
REMARK minimizedAffinity -3.61182284
REMARK minimizedRMSD -1
REMARK  0 active torsions:
REMARK  status: ('A' for Active; 'I' for Inactive)
ROOT
ATOM      1  C2' OXE d   1       2.299  -0.965   0.549  0.00  0.00     0.078 C 
ATOM      2  C1' OXE d   1       2.734   1.270  -1.093  0.00  0.00     0.078 C 
ATOM      3  C1  OXE d   1       1.312   0.944  -0.711  0.00  0.00    -0.078 A 
ATOM      4  C2  OXE d   1       1.104  -0.179   0.054  0.00  0.00    -0.078 A 
ATOM      5  C3  OXE d   1      -0.183  -0.494   0.480  0.00  0.00     0.003 A 
ATOM      6  C4  OXE d   1      -1.283   0.233   0.010  0.00  0.00    -0.002 A 
ATOM      7  C5  OXE d   1      -1.097   1.357  -0.803  0.00  0.00    -0.002 A 
ATOM      8  C6  OXE d   1       0.194   1.750  -1.137  0.00  0.00     0.003 A 
ENDROOT
TORSDOF 0
ENDMDL
