MODEL 1
REMARK minimizedAffinity 1.75919294
REMARK minimizedRMSD -1
REMARK  0 active torsions:
REMARK  status: ('A' for Active; 'I' for Inactive)
ROOT
ATOM      1  C2' OXE d   1      -0.979  -1.252   2.045  0.00  0.00     0.078 C 
ATOM      2  C1' OXE d   1       1.719  -1.608   1.357  0.00  0.00     0.078 C 
ATOM      3  C1  OXE d   1       0.928  -0.576   0.592  0.00  0.00    -0.078 A 
ATOM      4  C2  OXE d   1      -0.403  -0.442   0.903  0.00  0.00    -0.078 A 
ATOM      5  C3  OXE d   1      -1.166   0.533   0.266  0.00  0.00     0.003 A 
ATOM      6  C4  OXE d   1      -0.628   1.271  -0.796  0.00  0.00    -0.002 A 
ATOM      7  C5  OXE d   1       0.715   1.121  -1.156  0.00  0.00    -0.002 A 
ATOM      8  C6  OXE d   1       1.517   0.234  -0.446  0.00  0.00     0.003 A 
ENDROOT
TORSDOF 0
ENDMDL
