MODEL 1
REMARK minimizedAffinity -3.23646379
REMARK minimizedRMSD -1
REMARK  0 active torsions:
REMARK  status: ('A' for Active; 'I' for Inactive)
ROOT
ATOM      1  C2' OXE d   1      -0.454   1.240  -0.789  0.00  0.00     0.078 C 
ATOM      2  C1' OXE d   1       2.298   1.028  -1.297  0.00  0.00     0.078 C 
ATOM      3  C1  OXE d   1       1.665  -0.013  -0.408  0.00  0.00    -0.078 A 
ATOM      4  C2  OXE d   1       0.327   0.126  -0.127  0.00  0.00    -0.078 A 
ATOM      5  C3  OXE d   1      -0.319  -0.838   0.643  0.00  0.00     0.003 A 
ATOM      6  C4  OXE d   1       0.413  -1.860   1.260  0.00  0.00    -0.002 A 
ATOM      7  C5  OXE d   1       1.784  -1.995   1.019  0.00  0.00    -0.002 A 
ATOM      8  C6  OXE d   1       2.416  -1.107   0.156  0.00  0.00     0.003 A 
ENDROOT
TORSDOF 0
ENDMDL
