MODEL 1
REMARK minimizedAffinity -3.74751854
REMARK minimizedRMSD -1
REMARK  0 active torsions:
REMARK  status: ('A' for Active; 'I' for Inactive)
ROOT
ATOM      1  C2' OXE d   1      -1.670  -0.882   0.776  0.00  0.00     0.078 C 
ATOM      2  C1' OXE d   1      -0.636   1.019  -1.013  0.00  0.00     0.078 C 
ATOM      3  C1  OXE d   1       0.342   0.120  -0.299  0.00  0.00    -0.078 A 
ATOM      4  C2  OXE d   1      -0.169  -0.776   0.609  0.00  0.00    -0.078 A 
ATOM      5  C3  OXE d   1       0.685  -1.666   1.254  0.00  0.00     0.003 A 
ATOM      6  C4  OXE d   1       2.072  -1.554   1.102  0.00  0.00    -0.002 A 
ATOM      7  C5  OXE d   1       2.616  -0.622   0.212  0.00  0.00    -0.002 A 
ATOM      8  C6  OXE d   1       1.764   0.192  -0.527  0.00  0.00     0.003 A 
ENDROOT
TORSDOF 0
ENDMDL
