MODEL 1
REMARK minimizedAffinity -3.83659339
REMARK minimizedRMSD -1
REMARK  0 active torsions:
REMARK  status: ('A' for Active; 'I' for Inactive)
ROOT
ATOM      1  C2' OXE d   1       0.599  -2.413   2.767  0.00  0.00     0.078 C 
ATOM      2  C1' OXE d   1       2.324  -1.498   0.750  0.00  0.00     0.078 C 
ATOM      3  C1  OXE d   1       0.979  -0.828   0.884  0.00  0.00    -0.078 A 
ATOM      4  C2  OXE d   1       0.123  -1.313   1.843  0.00  0.00    -0.078 A 
ATOM      5  C3  OXE d   1      -1.108  -0.695   2.044  0.00  0.00     0.003 A 
ATOM      6  C4  OXE d   1      -1.544   0.315   1.179  0.00  0.00    -0.002 A 
ATOM      7  C5  OXE d   1      -0.703   0.797   0.170  0.00  0.00    -0.002 A 
ATOM      8  C6  OXE d   1       0.575   0.267   0.036  0.00  0.00     0.003 A 
ENDROOT
TORSDOF 0
ENDMDL
