MODEL 1
REMARK minimizedAffinity 0.208471611
REMARK minimizedRMSD -1
REMARK  0 active torsions:
REMARK  status: ('A' for Active; 'I' for Inactive)
ROOT
ATOM      1  C2' OXE d   1      -1.237   0.172   1.039  0.00  0.00     0.078 C 
ATOM      2  C1' OXE d   1      -1.051   1.154  -1.584  0.00  0.00     0.078 C 
ATOM      3  C1  OXE d   1       0.219   0.692  -0.914  0.00  0.00    -0.078 A 
ATOM      4  C2  OXE d   1       0.125   0.256   0.386  0.00  0.00    -0.078 A 
ATOM      5  C3  OXE d   1       1.257  -0.232   1.033  0.00  0.00     0.003 A 
ATOM      6  C4  OXE d   1       2.515  -0.141   0.425  0.00  0.00    -0.002 A 
ATOM      7  C5  OXE d   1       2.639   0.336  -0.884  0.00  0.00    -0.002 A 
ATOM      8  C6  OXE d   1       1.497   0.716  -1.581  0.00  0.00     0.003 A 
ENDROOT
TORSDOF 0
ENDMDL
