MODEL 1
REMARK minimizedAffinity 1.51193011
REMARK minimizedRMSD -1
REMARK  0 active torsions:
REMARK  status: ('A' for Active; 'I' for Inactive)
ROOT
ATOM      1  C2' OXE d   1      -1.151   0.639   1.325  0.00  0.00     0.078 C 
ATOM      2  C1' OXE d   1      -1.332   1.292  -1.399  0.00  0.00     0.078 C 
ATOM      3  C1  OXE d   1       0.038   1.019  -0.830  0.00  0.00    -0.078 A 
ATOM      4  C2  OXE d   1       0.122   0.746   0.514  0.00  0.00    -0.078 A 
ATOM      5  C3  OXE d   1       1.356   0.434   1.078  0.00  0.00     0.003 A 
ATOM      6  C4  OXE d   1       2.529   0.546   0.323  0.00  0.00    -0.002 A 
ATOM      7  C5  OXE d   1       2.470   0.861  -1.039  0.00  0.00    -0.002 A 
ATOM      8  C6  OXE d   1       1.231   1.059  -1.639  0.00  0.00     0.003 A 
ENDROOT
TORSDOF 0
ENDMDL
