MODEL 1
REMARK minimizedAffinity -1.2960521
REMARK minimizedRMSD -1
REMARK  0 active torsions:
REMARK  status: ('A' for Active; 'I' for Inactive)
ROOT
ATOM      1  C2' OXE d   1      -0.923   1.216  -0.610  0.00  0.00     0.078 C 
ATOM      2  C1' OXE d   1      -1.457  -0.023   1.852  0.00  0.00     0.078 C 
ATOM      3  C1  OXE d   1      -0.101  -0.248   1.231  0.00  0.00    -0.078 A 
ATOM      4  C2  OXE d   1       0.135   0.324   0.004  0.00  0.00    -0.078 A 
ATOM      5  C3  OXE d   1       1.388   0.193  -0.588  0.00  0.00     0.003 A 
ATOM      6  C4  OXE d   1       2.357  -0.641  -0.018  0.00  0.00    -0.002 A 
ATOM      7  C5  OXE d   1       2.123  -1.265   1.211  0.00  0.00    -0.002 A 
ATOM      8  C6  OXE d   1       0.917  -1.045   1.869  0.00  0.00     0.003 A 
ENDROOT
TORSDOF 0
ENDMDL
