MODEL 1
REMARK minimizedAffinity -0.642083466
REMARK minimizedRMSD -1
REMARK  0 active torsions:
REMARK  status: ('A' for Active; 'I' for Inactive)
ROOT
ATOM      1  C2' OXE d   1       3.235   2.131  -0.317  0.00  0.00     0.078 C 
ATOM      2  C1' OXE d   1       3.228  -0.607  -0.939  0.00  0.00     0.078 C 
ATOM      3  C1  OXE d   1       1.899   0.061  -0.689  0.00  0.00    -0.078 A 
ATOM      4  C2  OXE d   1       1.915   1.390  -0.339  0.00  0.00    -0.078 A 
ATOM      5  C3  OXE d   1       0.714   2.068  -0.151  0.00  0.00     0.003 A 
ATOM      6  C4  OXE d   1      -0.502   1.373  -0.164  0.00  0.00    -0.002 A 
ATOM      7  C5  OXE d   1      -0.537   0.010  -0.479  0.00  0.00    -0.002 A 
ATOM      8  C6  OXE d   1       0.648  -0.650  -0.785  0.00  0.00     0.003 A 
ENDROOT
TORSDOF 0
ENDMDL
