MODEL 1
REMARK minimizedAffinity -1.15286064
REMARK minimizedRMSD -1
REMARK  0 active torsions:
REMARK  status: ('A' for Active; 'I' for Inactive)
ROOT
ATOM      1  C2' OXE d   1       2.232   0.358  -0.830  0.00  0.00     0.078 C 
ATOM      2  C1' OXE d   1       2.230  -0.649   1.791  0.00  0.00     0.078 C 
ATOM      3  C1  OXE d   1       0.915  -0.189   1.213  0.00  0.00    -0.078 A 
ATOM      4  C2  OXE d   1       0.933   0.346  -0.053  0.00  0.00    -0.078 A 
ATOM      5  C3  OXE d   1      -0.261   0.735  -0.653  0.00  0.00     0.003 A 
ATOM      6  C4  OXE d   1      -1.456   0.730   0.076  0.00  0.00    -0.002 A 
ATOM      7  C5  OXE d   1      -1.490   0.226   1.380  0.00  0.00    -0.002 A 
ATOM      8  C6  OXE d   1      -0.323  -0.276   1.947  0.00  0.00     0.003 A 
ENDROOT
TORSDOF 0
ENDMDL
