MODEL 1
REMARK minimizedAffinity 0.81722194
REMARK minimizedRMSD -1
REMARK  0 active torsions:
REMARK  status: ('A' for Active; 'I' for Inactive)
ROOT
ATOM      1  C2' OXE d   1      -0.340   1.132  -0.767  0.00  0.00     0.078 C 
ATOM      2  C1' OXE d   1      -0.706  -0.237   1.656  0.00  0.00     0.078 C 
ATOM      3  C1  OXE d   1       0.568  -0.492   0.890  0.00  0.00    -0.078 A 
ATOM      4  C2  OXE d   1       0.718   0.146  -0.318  0.00  0.00    -0.078 A 
ATOM      5  C3  OXE d   1       1.897  -0.012  -1.039  0.00  0.00     0.003 A 
ATOM      6  C4  OXE d   1       2.866  -0.933  -0.622  0.00  0.00    -0.002 A 
ATOM      7  C5  OXE d   1       2.715  -1.623   0.585  0.00  0.00    -0.002 A 
ATOM      8  C6  OXE d   1       1.594  -1.383   1.372  0.00  0.00     0.003 A 
ENDROOT
TORSDOF 0
ENDMDL
