MODEL 1
REMARK minimizedAffinity 1.6885184
REMARK minimizedRMSD -1
REMARK  0 active torsions:
REMARK  status: ('A' for Active; 'I' for Inactive)
ROOT
ATOM      1  C2' OXE d   1       2.070  -1.448   1.280  0.00  0.00     0.078 C 
ATOM      2  C1' OXE d   1       2.861   0.710  -0.331  0.00  0.00     0.078 C 
ATOM      3  C1  OXE d   1       1.390   0.557  -0.032  0.00  0.00    -0.078 A 
ATOM      4  C2  OXE d   1       1.007  -0.528   0.719  0.00  0.00    -0.078 A 
ATOM      5  C3  OXE d   1      -0.331  -0.686   1.070  0.00  0.00     0.003 A 
ATOM      6  C4  OXE d   1      -1.308   0.163   0.538  0.00  0.00    -0.002 A 
ATOM      7  C5  OXE d   1      -0.944   1.252  -0.261  0.00  0.00    -0.002 A 
ATOM      8  C6  OXE d   1       0.402   1.487  -0.520  0.00  0.00     0.003 A 
ENDROOT
TORSDOF 0
ENDMDL
