MODEL 1
REMARK minimizedAffinity -1.8069489
REMARK minimizedRMSD -1
REMARK  1 active torsions:
REMARK  status: ('A' for Active; 'I' for Inactive)
REMARK    1  A    between atoms: C3_4  and  O_7 
ROOT
ATOM      1  C   UNL d   1       5.507  -3.449   4.112  0.00  0.00    -0.033 A 
ATOM      2  C1  UNL d   1       4.355  -3.125   3.392  0.00  0.00     0.039 A 
ATOM      3  C2  UNL d   1       3.372  -2.320   3.970  0.00  0.00    -0.080 A 
ATOM      4  C3  UNL d   1       3.552  -1.846   5.266  0.00  0.00     0.150 A 
ATOM      5  C4  UNL d   1       4.698  -2.161   5.988  0.00  0.00    -0.007 A 
ATOM      6  C5  UNL d   1       5.679  -2.965   5.410  0.00  0.00     0.039 A 
ENDROOT
BRANCH   4   7
ATOM      7  O   UNL d   1       2.617  -1.061   5.874  0.00  0.00    -0.526 OA
ATOM      8  H5  UNL d   1       1.867  -0.950   5.267  0.00  0.00     0.418 HD
ENDBRANCH   4   7
TORSDOF 1
ENDMDL
