MODEL 1
REMARK minimizedAffinity -0.961000502
REMARK minimizedRMSD -1
REMARK  1 active torsions:
REMARK  status: ('A' for Active; 'I' for Inactive)
REMARK    1  A    between atoms: C3_4  and  O_7 
ROOT
ATOM      1  C   UNL d   1       5.999   5.241  -4.122  0.00  0.00    -0.033 A 
ATOM      2  C1  UNL d   1       5.998   5.716  -2.809  0.00  0.00     0.039 A 
ATOM      3  C2  UNL d   1       4.924   5.433  -1.963  0.00  0.00    -0.080 A 
ATOM      4  C3  UNL d   1       3.859   4.674  -2.441  0.00  0.00     0.150 A 
ATOM      5  C4  UNL d   1       3.855   4.194  -3.747  0.00  0.00    -0.007 A 
ATOM      6  C5  UNL d   1       4.928   4.479  -4.590  0.00  0.00     0.039 A 
ENDROOT
BRANCH   4   7
ATOM      7  O   UNL d   1       2.786   4.376  -1.654  0.00  0.00    -0.526 OA
ATOM      8  H5  UNL d   1       2.914   4.798  -0.788  0.00  0.00     0.418 HD
ENDBRANCH   4   7
TORSDOF 1
ENDMDL
