MODEL 1
REMARK minimizedAffinity -0.534660578
REMARK minimizedRMSD -1
REMARK  1 active torsions:
REMARK  status: ('A' for Active; 'I' for Inactive)
REMARK    1  A    between atoms: C3_4  and  O_7 
ROOT
ATOM      1  C   UNL d   1       4.471   4.194  -5.021  0.00  0.00    -0.033 A 
ATOM      2  C1  UNL d   1       3.928   5.400  -4.574  0.00  0.00     0.039 A 
ATOM      3  C2  UNL d   1       4.418   6.000  -3.412  0.00  0.00    -0.080 A 
ATOM      4  C3  UNL d   1       5.449   5.385  -2.708  0.00  0.00     0.150 A 
ATOM      5  C4  UNL d   1       5.998   4.185  -3.150  0.00  0.00    -0.007 A 
ATOM      6  C5  UNL d   1       5.507   3.587  -4.310  0.00  0.00     0.039 A 
ENDROOT
BRANCH   4   7
ATOM      7  O   UNL d   1       5.957   5.930  -1.566  0.00  0.00    -0.526 OA
ATOM      8  H5  UNL d   1       5.462   6.743  -1.367  0.00  0.00     0.418 HD
ENDBRANCH   4   7
TORSDOF 1
ENDMDL
