MODEL 1
REMARK minimizedAffinity 3.3439908
REMARK minimizedRMSD -1
REMARK  1 active torsions:
REMARK  status: ('A' for Active; 'I' for Inactive)
REMARK    1  A    between atoms: C3_4  and  O_7 
ROOT
ATOM      1  C   UNL d   1       2.846  -1.254   4.018  0.00  0.00    -0.033 A 
ATOM      2  C1  UNL d   1       3.427  -2.261   3.243  0.00  0.00     0.039 A 
ATOM      3  C2  UNL d   1       4.490  -3.010   3.751  0.00  0.00    -0.080 A 
ATOM      4  C3  UNL d   1       4.962  -2.744   5.034  0.00  0.00     0.150 A 
ATOM      5  C4  UNL d   1       4.386  -1.745   5.812  0.00  0.00    -0.007 A 
ATOM      6  C5  UNL d   1       3.325  -0.998   5.303  0.00  0.00     0.039 A 
ENDROOT
BRANCH   4   7
ATOM      7  O   UNL d   1       6.000  -3.445   5.571  0.00  0.00    -0.526 OA
ATOM      8  H5  UNL d   1       6.316  -4.082   4.908  0.00  0.00     0.418 HD
ENDBRANCH   4   7
TORSDOF 1
ENDMDL
