MODEL 1
REMARK minimizedAffinity -1.98654163
REMARK minimizedRMSD -1
REMARK  1 active torsions:
REMARK  status: ('A' for Active; 'I' for Inactive)
REMARK    1  A    between atoms: C3_4  and  O_7 
ROOT
ATOM      1  C   UNL d   1       4.898   5.055  -5.261  0.00  0.00    -0.033 A 
ATOM      2  C1  UNL d   1       4.260   5.995  -4.450  0.00  0.00     0.039 A 
ATOM      3  C2  UNL d   1       4.489   6.000  -3.072  0.00  0.00    -0.080 A 
ATOM      4  C3  UNL d   1       5.357   5.062  -2.520  0.00  0.00     0.150 A 
ATOM      5  C4  UNL d   1       6.000   4.126  -3.324  0.00  0.00    -0.007 A 
ATOM      6  C5  UNL d   1       5.769   4.121  -4.699  0.00  0.00     0.039 A 
ENDROOT
BRANCH   4   7
ATOM      7  O   UNL d   1       5.608   5.025  -1.181  0.00  0.00    -0.526 OA
ATOM      8  H5  UNL d   1       5.073   5.712  -0.748  0.00  0.00     0.418 HD
ENDBRANCH   4   7
TORSDOF 1
ENDMDL
