MODEL 1
REMARK minimizedAffinity 0.300977916
REMARK minimizedRMSD -1
REMARK  1 active torsions:
REMARK  status: ('A' for Active; 'I' for Inactive)
REMARK    1  A    between atoms: C3_4  and  O_7 
ROOT
ATOM      1  C   UNL d   1       3.864  -0.896   5.968  0.00  0.00    -0.033 A 
ATOM      2  C1  UNL d   1       5.259  -0.860   5.950  0.00  0.00     0.039 A 
ATOM      3  C2  UNL d   1       5.991  -2.049   5.958  0.00  0.00    -0.080 A 
ATOM      4  C3  UNL d   1       5.316  -3.266   5.982  0.00  0.00     0.150 A 
ATOM      5  C4  UNL d   1       3.926  -3.310   5.996  0.00  0.00    -0.007 A 
ATOM      6  C5  UNL d   1       3.197  -2.122   5.989  0.00  0.00     0.039 A 
ENDROOT
BRANCH   4   7
ATOM      7  O   UNL d   1       5.987  -4.453   5.996  0.00  0.00    -0.526 OA
ATOM      8  H5  UNL d   1       6.941  -4.267   6.013  0.00  0.00     0.418 HD
ENDBRANCH   4   7
TORSDOF 1
ENDMDL
