MODEL 1
REMARK minimizedAffinity 0.748032987
REMARK minimizedRMSD -1
REMARK  1 active torsions:
REMARK  status: ('A' for Active; 'I' for Inactive)
REMARK    1  A    between atoms: C3_4  and  O_7 
ROOT
ATOM      1  C   UNL d   1      -0.020  -2.632  -2.524  0.00  0.00    -0.033 A 
ATOM      2  C1  UNL d   1      -0.797  -2.179  -3.592  0.00  0.00     0.039 A 
ATOM      3  C2  UNL d   1      -0.868  -2.924  -4.771  0.00  0.00    -0.080 A 
ATOM      4  C3  UNL d   1      -0.161  -4.118  -4.868  0.00  0.00     0.150 A 
ATOM      5  C4  UNL d   1       0.612  -4.578  -3.806  0.00  0.00    -0.007 A 
ATOM      6  C5  UNL d   1       0.683  -3.832  -2.630  0.00  0.00     0.039 A 
ENDROOT
BRANCH   4   7
ATOM      7  O   UNL d   1      -0.196  -4.877  -6.000  0.00  0.00    -0.526 OA
ATOM      8  H5  UNL d   1      -0.746  -4.422  -6.659  0.00  0.00     0.418 HD
ENDBRANCH   4   7
TORSDOF 1
ENDMDL
