MODEL 1
REMARK minimizedAffinity -1.45420563
REMARK minimizedRMSD -1
REMARK  1 active torsions:
REMARK  status: ('A' for Active; 'I' for Inactive)
REMARK    1  A    between atoms: C3_4  and  O_7 
ROOT
ATOM      1  C   UNL d   1       4.116   4.529  -4.460  0.00  0.00    -0.033 A 
ATOM      2  C1  UNL d   1       5.360   4.016  -4.085  0.00  0.00     0.039 A 
ATOM      3  C2  UNL d   1       5.998   4.495  -2.940  0.00  0.00    -0.080 A 
ATOM      4  C3  UNL d   1       5.384   5.486  -2.179  0.00  0.00     0.150 A 
ATOM      5  C4  UNL d   1       4.144   5.999  -2.545  0.00  0.00    -0.007 A 
ATOM      6  C5  UNL d   1       3.508   5.520  -3.689  0.00  0.00     0.039 A 
ENDROOT
BRANCH   4   7
ATOM      7  O   UNL d   1       5.971   5.989  -1.056  0.00  0.00    -0.526 OA
ATOM      8  H5  UNL d   1       6.836   5.561  -0.943  0.00  0.00     0.418 HD
ENDBRANCH   4   7
TORSDOF 1
ENDMDL
