MODEL 1
REMARK minimizedAffinity 0.738363028
REMARK minimizedRMSD -1
REMARK  1 active torsions:
REMARK  status: ('A' for Active; 'I' for Inactive)
REMARK    1  A    between atoms: C3_4  and  O_7 
ROOT
ATOM      1  C   UNL d   1      -2.613  -2.099   1.697  0.00  0.00    -0.033 A 
ATOM      2  C1  UNL d   1      -1.486  -1.275   1.726  0.00  0.00     0.039 A 
ATOM      3  C2  UNL d   1      -0.730  -1.082   0.568  0.00  0.00    -0.080 A 
ATOM      4  C3  UNL d   1      -1.112  -1.717  -0.611  0.00  0.00     0.150 A 
ATOM      5  C4  UNL d   1      -2.236  -2.536  -0.648  0.00  0.00    -0.007 A 
ATOM      6  C5  UNL d   1      -2.989  -2.729   0.510  0.00  0.00     0.039 A 
ENDROOT
BRANCH   4   7
ATOM      7  O   UNL d   1      -0.404  -1.563  -1.765  0.00  0.00    -0.526 OA
ATOM      8  H5  UNL d   1       0.362  -0.993  -1.583  0.00  0.00     0.418 HD
ENDBRANCH   4   7
TORSDOF 1
ENDMDL
