MODEL 1
REMARK minimizedAffinity 2.78200626
REMARK minimizedRMSD -1
REMARK  1 active torsions:
REMARK  status: ('A' for Active; 'I' for Inactive)
REMARK    1  A    between atoms: C3_4  and  O_7 
ROOT
ATOM      1  C   UNL d   1      -1.269  -2.948  -2.064  0.00  0.00    -0.033 A 
ATOM      2  C1  UNL d   1      -0.484  -2.044  -1.347  0.00  0.00     0.039 A 
ATOM      3  C2  UNL d   1       0.852  -1.842  -1.701  0.00  0.00    -0.080 A 
ATOM      4  C3  UNL d   1       1.388  -2.550  -2.773  0.00  0.00     0.150 A 
ATOM      5  C4  UNL d   1       0.611  -3.450  -3.494  0.00  0.00    -0.007 A 
ATOM      6  C5  UNL d   1      -0.723  -3.650  -3.139  0.00  0.00     0.039 A 
ENDROOT
BRANCH   4   7
ATOM      7  O   UNL d   1       2.688  -2.391  -3.153  0.00  0.00    -0.526 OA
ATOM      8  H5  UNL d   1       3.111  -1.760  -2.547  0.00  0.00     0.418 HD
ENDBRANCH   4   7
TORSDOF 1
ENDMDL
