MODEL 1
REMARK minimizedAffinity 0.156116039
REMARK minimizedRMSD -1
REMARK  1 active torsions:
REMARK  status: ('A' for Active; 'I' for Inactive)
REMARK    1  A    between atoms: C3_4  and  O_7 
ROOT
ATOM      1  C   UNL d   1       5.999   4.354  -2.453  0.00  0.00    -0.033 A 
ATOM      2  C1  UNL d   1       5.371   5.599  -2.525  0.00  0.00     0.039 A 
ATOM      3  C2  UNL d   1       4.743   5.998  -3.707  0.00  0.00    -0.080 A 
ATOM      4  C3  UNL d   1       4.748   5.143  -4.806  0.00  0.00     0.150 A 
ATOM      5  C4  UNL d   1       5.369   3.900  -4.739  0.00  0.00    -0.007 A 
ATOM      6  C5  UNL d   1       5.997   3.504  -3.559  0.00  0.00     0.039 A 
ENDROOT
BRANCH   4   7
ATOM      7  O   UNL d   1       4.152   5.491  -5.982  0.00  0.00    -0.526 OA
ATOM      8  H5  UNL d   1       3.790   6.388  -5.890  0.00  0.00     0.418 HD
ENDBRANCH   4   7
TORSDOF 1
ENDMDL
