MODEL 1
REMARK minimizedAffinity -1.72808909
REMARK minimizedRMSD -1
REMARK  1 active torsions:
REMARK  status: ('A' for Active; 'I' for Inactive)
REMARK    1  A    between atoms: C3_4  and  O_7 
ROOT
ATOM      1  C   UNL d   1       6.000   3.984  -3.388  0.00  0.00    -0.033 A 
ATOM      2  C1  UNL d   1       5.339   3.997  -4.618  0.00  0.00     0.039 A 
ATOM      3  C2  UNL d   1       4.124   4.672  -4.752  0.00  0.00    -0.080 A 
ATOM      4  C3  UNL d   1       3.583   5.330  -3.651  0.00  0.00     0.150 A 
ATOM      5  C4  UNL d   1       4.238   5.324  -2.424  0.00  0.00    -0.007 A 
ATOM      6  C5  UNL d   1       5.450   4.649  -2.291  0.00  0.00     0.039 A 
ENDROOT
BRANCH   4   7
ATOM      7  O   UNL d   1       2.397   5.998  -3.733  0.00  0.00    -0.526 OA
ATOM      8  H5  UNL d   1       2.045   5.893  -4.632  0.00  0.00     0.418 HD
ENDBRANCH   4   7
TORSDOF 1
ENDMDL
