MODEL 1
REMARK minimizedAffinity 1.09865296
REMARK minimizedRMSD -1
REMARK  1 active torsions:
REMARK  status: ('A' for Active; 'I' for Inactive)
REMARK    1  A    between atoms: C3_4  and  O_7 
ROOT
ATOM      1  C   UNL d   1       6.000   3.912  -2.712  0.00  0.00    -0.033 A 
ATOM      2  C1  UNL d   1       5.914   5.281  -2.449  0.00  0.00     0.039 A 
ATOM      3  C2  UNL d   1       4.784   6.000  -2.842  0.00  0.00    -0.080 A 
ATOM      4  C3  UNL d   1       3.747   5.340  -3.496  0.00  0.00     0.150 A 
ATOM      5  C4  UNL d   1       3.824   3.976  -3.757  0.00  0.00    -0.007 A 
ATOM      6  C5  UNL d   1       4.954   3.259  -3.365  0.00  0.00     0.039 A 
ENDROOT
BRANCH   4   7
ATOM      7  O   UNL d   1       2.626   6.000  -3.902  0.00  0.00    -0.526 OA
ATOM      8  H5  UNL d   1       2.725   6.941  -3.680  0.00  0.00     0.418 HD
ENDBRANCH   4   7
TORSDOF 1
ENDMDL
