MODEL 1
REMARK minimizedAffinity 0.960127354
REMARK minimizedRMSD -1
REMARK  1 active torsions:
REMARK  status: ('A' for Active; 'I' for Inactive)
REMARK    1  A    between atoms: C3_4  and  O_7 
ROOT
ATOM      1  C   UNL d   1       2.719  -1.816   3.729  0.00  0.00    -0.033 A 
ATOM      2  C1  UNL d   1       3.753  -2.539   3.129  0.00  0.00     0.039 A 
ATOM      3  C2  UNL d   1       4.865  -2.923   3.880  0.00  0.00    -0.080 A 
ATOM      4  C3  UNL d   1       4.932  -2.581   5.228  0.00  0.00     0.150 A 
ATOM      5  C4  UNL d   1       3.904  -1.865   5.833  0.00  0.00    -0.007 A 
ATOM      6  C5  UNL d   1       2.794  -1.481   5.082  0.00  0.00     0.039 A 
ENDROOT
BRANCH   4   7
ATOM      7  O   UNL d   1       6.000  -2.930   6.000  0.00  0.00    -0.526 OA
ATOM      8  H5  UNL d   1       6.645  -3.395   5.441  0.00  0.00     0.418 HD
ENDBRANCH   4   7
TORSDOF 1
ENDMDL
