MODEL 1
REMARK minimizedAffinity -2.71978211
REMARK minimizedRMSD -1
REMARK  0 active torsions:
REMARK  status: ('A' for Active; 'I' for Inactive)
ROOT
ATOM      1  C   UNL d   1       4.016  -0.467  -5.514  0.00  0.00    -0.002 A 
ATOM      2  C1  UNL d   1       5.313  -0.562  -6.000  0.00  0.00     0.010 A 
ATOM      3  C2  UNL d   1       6.000  -1.777  -5.959  0.00  0.00     0.041 A 
ATOM      4  C3  UNL d   1       5.355  -2.907  -5.419  0.00  0.00    -0.075 A 
ATOM      5  S   UNL d   1       6.000  -4.498  -5.267  0.00  0.00     0.015 SA
ATOM      6  C4  UNL d   1       4.569  -5.091  -4.555  0.00  0.00     0.022 A 
ATOM      7  C5  UNL d   1       3.613  -4.111  -4.429  0.00  0.00     0.026 A 
ATOM      8  C6  UNL d   1       4.049  -2.837  -4.925  0.00  0.00    -0.082 A 
ATOM      9  C7  UNL d   1       3.380  -1.590  -4.979  0.00  0.00     0.045 A 
ENDROOT
TORSDOF 0
ENDMDL
