MODEL 1
REMARK minimizedAffinity -1.87482858
REMARK minimizedRMSD -1
REMARK  0 active torsions:
REMARK  status: ('A' for Active; 'I' for Inactive)
ROOT
ATOM      1  C   UNL d   1       4.877  -5.998  -4.319  0.00  0.00    -0.002 A 
ATOM      2  C1  UNL d   1       4.052  -5.829  -5.422  0.00  0.00     0.010 A 
ATOM      3  C2  UNL d   1       3.886  -4.569  -5.999  0.00  0.00     0.041 A 
ATOM      4  C3  UNL d   1       4.571  -3.470  -5.445  0.00  0.00    -0.075 A 
ATOM      5  S   UNL d   1       4.521  -1.834  -5.986  0.00  0.00     0.015 SA
ATOM      6  C4  UNL d   1       5.594  -1.319  -4.765  0.00  0.00     0.022 A 
ATOM      7  C5  UNL d   1       5.991  -2.358  -3.956  0.00  0.00     0.026 A 
ATOM      8  C6  UNL d   1       5.408  -3.614  -4.335  0.00  0.00    -0.082 A 
ATOM      9  C7  UNL d   1       5.555  -4.905  -3.772  0.00  0.00     0.045 A 
ENDROOT
TORSDOF 0
ENDMDL
