MODEL 1
REMARK minimizedAffinity -2.15092564
REMARK minimizedRMSD -1
REMARK  0 active torsions:
REMARK  status: ('A' for Active; 'I' for Inactive)
ROOT
ATOM      1  C   UNL d   1       4.688  -1.353  -4.862  0.00  0.00    -0.002 A 
ATOM      2  C1  UNL d   1       5.603  -1.706  -5.844  0.00  0.00     0.010 A 
ATOM      3  C2  UNL d   1       6.000  -3.036  -6.000  0.00  0.00     0.041 A 
ATOM      4  C3  UNL d   1       5.455  -4.014  -5.145  0.00  0.00    -0.075 A 
ATOM      5  S   UNL d   1       5.794  -5.705  -5.151  0.00  0.00     0.015 SA
ATOM      6  C4  UNL d   1       4.731  -5.998  -3.851  0.00  0.00     0.022 A 
ATOM      7  C5  UNL d   1       4.125  -4.846  -3.411  0.00  0.00     0.026 A 
ATOM      8  C6  UNL d   1       4.532  -3.683  -4.149  0.00  0.00    -0.082 A 
ATOM      9  C7  UNL d   1       4.150  -2.326  -4.016  0.00  0.00     0.045 A 
ENDROOT
TORSDOF 0
ENDMDL
