MODEL 1
REMARK minimizedAffinity -0.134233028
REMARK minimizedRMSD -1
REMARK  0 active torsions:
REMARK  status: ('A' for Active; 'I' for Inactive)
ROOT
ATOM      1  C   UNL d   1       5.294  -5.996  -4.719  0.00  0.00    -0.002 A 
ATOM      2  C1  UNL d   1       4.065  -5.898  -5.356  0.00  0.00     0.010 A 
ATOM      3  C2  UNL d   1       3.517  -4.649  -5.653  0.00  0.00     0.041 A 
ATOM      4  C3  UNL d   1       4.232  -3.488  -5.296  0.00  0.00    -0.075 A 
ATOM      5  S   UNL d   1       3.756  -1.852  -5.560  0.00  0.00     0.015 SA
ATOM      6  C4  UNL d   1       5.174  -1.245  -4.833  0.00  0.00     0.022 A 
ATOM      7  C5  UNL d   1       6.000  -2.252  -4.394  0.00  0.00     0.026 A 
ATOM      8  C6  UNL d   1       5.471  -3.562  -4.654  0.00  0.00    -0.082 A 
ATOM      9  C7  UNL d   1       6.000  -4.843  -4.366  0.00  0.00     0.045 A 
ENDROOT
TORSDOF 0
ENDMDL
