MODEL 1
REMARK minimizedAffinity -3.46325707
REMARK minimizedRMSD -1
REMARK  0 active torsions:
REMARK  status: ('A' for Active; 'I' for Inactive)
ROOT
ATOM      1  C   UNL d   1       3.888  -4.943  -5.114  0.00  0.00    -0.002 A 
ATOM      2  C1  UNL d   1       5.268  -4.996  -5.258  0.00  0.00     0.010 A 
ATOM      3  C2  UNL d   1       5.998  -3.838  -5.534  0.00  0.00     0.041 A 
ATOM      4  C3  UNL d   1       5.312  -2.614  -5.663  0.00  0.00    -0.075 A 
ATOM      5  S   UNL d   1       5.999  -1.068  -5.999  0.00  0.00     0.015 SA
ATOM      6  C4  UNL d   1       4.477  -0.301  -5.958  0.00  0.00     0.022 A 
ATOM      7  C5  UNL d   1       3.459  -1.188  -5.697  0.00  0.00     0.026 A 
ATOM      8  C6  UNL d   1       3.924  -2.535  -5.522  0.00  0.00    -0.082 A 
ATOM      9  C7  UNL d   1       3.212  -3.727  -5.243  0.00  0.00     0.045 A 
ENDROOT
TORSDOF 0
ENDMDL
