MODEL 1
REMARK minimizedAffinity -3.37539935
REMARK minimizedRMSD -1
REMARK  0 active torsions:
REMARK  status: ('A' for Active; 'I' for Inactive)
ROOT
ATOM      1  C   UNL d   1       4.857  -1.677  -5.304  0.00  0.00    -0.002 A 
ATOM      2  C1  UNL d   1       3.737  -2.233  -5.905  0.00  0.00     0.010 A 
ATOM      3  C2  UNL d   1       3.394  -3.566  -5.673  0.00  0.00     0.041 A 
ATOM      4  C3  UNL d   1       4.203  -4.339  -4.816  0.00  0.00    -0.075 A 
ATOM      5  S   UNL d   1       3.977  -5.993  -4.385  0.00  0.00     0.015 SA
ATOM      6  C4  UNL d   1       5.362  -6.000  -3.391  0.00  0.00     0.022 A 
ATOM      7  C5  UNL d   1       5.993  -4.779  -3.378  0.00  0.00     0.026 A 
ATOM      8  C6  UNL d   1       5.335  -3.801  -4.198  0.00  0.00    -0.082 A 
ATOM      9  C7  UNL d   1       5.657  -2.446  -4.454  0.00  0.00     0.045 A 
ENDROOT
TORSDOF 0
ENDMDL
