MODEL 1
REMARK minimizedAffinity 3.40747857
REMARK minimizedRMSD -1
REMARK  0 active torsions:
REMARK  status: ('A' for Active; 'I' for Inactive)
ROOT
ATOM      1  C   UNL d   1      -4.881   4.130  -4.493  0.00  0.00     0.077 C 
ATOM      2  C1  UNL d   1      -4.471   2.695  -4.635  0.00  0.00    -0.074 A 
ATOM      3  C2  UNL d   1      -4.493   2.060  -5.882  0.00  0.00    -0.005 A 
ATOM      4  C3  UNL d   1      -4.100   0.727  -6.000  0.00  0.00     0.006 A 
ATOM      5  C4  UNL d   1      -3.681   0.016  -4.875  0.00  0.00    -0.005 A 
ATOM      6  C5  UNL d   1      -3.651   0.634  -3.620  0.00  0.00    -0.074 A 
ATOM      7  C6  UNL d   1      -3.194  -0.113  -2.403  0.00  0.00     0.077 C 
ATOM      8  C7  UNL d   1      -4.041   1.976  -3.511  0.00  0.00    -0.001 A 
ENDROOT
TORSDOF 0
ENDMDL
