MODEL 1
REMARK minimizedAffinity 2.85147309
REMARK minimizedRMSD -1
REMARK  0 active torsions:
REMARK  status: ('A' for Active; 'I' for Inactive)
ROOT
ATOM      1  C   UNL d   1      -0.798   1.558  -1.634  0.00  0.00     0.077 C 
ATOM      2  C1  UNL d   1       0.030   0.763  -0.668  0.00  0.00    -0.074 A 
ATOM      3  C2  UNL d   1       0.841  -0.287  -1.112  0.00  0.00    -0.005 A 
ATOM      4  C3  UNL d   1       1.612  -1.012  -0.203  0.00  0.00     0.006 A 
ATOM      5  C4  UNL d   1       1.581  -0.695   1.155  0.00  0.00    -0.005 A 
ATOM      6  C5  UNL d   1       0.777   0.352   1.617  0.00  0.00    -0.074 A 
ATOM      7  C6  UNL d   1       0.739   0.713   3.072  0.00  0.00     0.077 C 
ATOM      8  C7  UNL d   1       0.010   1.080   0.697  0.00  0.00    -0.001 A 
ENDROOT
TORSDOF 0
ENDMDL
