MODEL 1
REMARK minimizedAffinity 9.29511833
REMARK minimizedRMSD -1
REMARK  0 active torsions:
REMARK  status: ('A' for Active; 'I' for Inactive)
ROOT
ATOM      1  C   UNL d   1      -3.366  -0.849  -3.288  0.00  0.00     0.077 C 
ATOM      2  C1  UNL d   1      -2.327  -0.111  -2.497  0.00  0.00    -0.074 A 
ATOM      3  C2  UNL d   1      -2.557   1.194  -2.050  0.00  0.00    -0.005 A 
ATOM      4  C3  UNL d   1      -1.585   1.864  -1.307  0.00  0.00     0.006 A 
ATOM      5  C4  UNL d   1      -0.376   1.237  -1.004  0.00  0.00    -0.005 A 
ATOM      6  C5  UNL d   1      -0.129  -0.068  -1.442  0.00  0.00    -0.074 A 
ATOM      7  C6  UNL d   1       1.162  -0.760  -1.116  0.00  0.00     0.077 C 
ATOM      8  C7  UNL d   1      -1.113  -0.737  -2.182  0.00  0.00    -0.001 A 
ENDROOT
TORSDOF 0
ENDMDL
