MODEL 1
REMARK minimizedAffinity 2.39996195
REMARK minimizedRMSD -1
REMARK  0 active torsions:
REMARK  status: ('A' for Active; 'I' for Inactive)
ROOT
ATOM      1  C   UNL d   1       3.370  -0.881   2.283  0.00  0.00     0.077 C 
ATOM      2  C1  UNL d   1       2.272  -0.205   1.517  0.00  0.00    -0.074 A 
ATOM      3  C2  UNL d   1       2.196  -0.312   0.125  0.00  0.00    -0.005 A 
ATOM      4  C3  UNL d   1       1.163   0.314  -0.573  0.00  0.00     0.006 A 
ATOM      5  C4  UNL d   1       0.198   1.052   0.113  0.00  0.00    -0.005 A 
ATOM      6  C5  UNL d   1       0.257   1.169   1.505  0.00  0.00    -0.074 A 
ATOM      7  C6  UNL d   1      -0.778   1.950   2.259  0.00  0.00     0.077 C 
ATOM      8  C7  UNL d   1       1.294   0.531   2.200  0.00  0.00    -0.001 A 
ENDROOT
TORSDOF 0
ENDMDL
