MODEL 1
REMARK minimizedAffinity 3.25433731
REMARK minimizedRMSD -1
REMARK  0 active torsions:
REMARK  status: ('A' for Active; 'I' for Inactive)
ROOT
ATOM      1  C   UNL d   1      -0.618   2.641  -0.790  0.00  0.00     0.077 C 
ATOM      2  C1  UNL d   1       0.048   1.361  -0.381  0.00  0.00    -0.074 A 
ATOM      3  C2  UNL d   1       0.455   0.425  -1.337  0.00  0.00    -0.005 A 
ATOM      4  C3  UNL d   1       1.083  -0.756  -0.943  0.00  0.00     0.006 A 
ATOM      5  C4  UNL d   1       1.309  -1.014   0.410  0.00  0.00    -0.005 A 
ATOM      6  C5  UNL d   1       0.910  -0.089   1.380  0.00  0.00    -0.074 A 
ATOM      7  C6  UNL d   1       1.154  -0.346   2.838  0.00  0.00     0.077 C 
ATOM      8  C7  UNL d   1       0.286   1.099   0.975  0.00  0.00    -0.001 A 
ENDROOT
TORSDOF 0
ENDMDL
