MODEL 1
REMARK minimizedAffinity 4.79476118
REMARK minimizedRMSD -1
REMARK  0 active torsions:
REMARK  status: ('A' for Active; 'I' for Inactive)
ROOT
ATOM      1  C   UNL d   1       2.918  -1.199   2.436  0.00  0.00     0.077 C 
ATOM      2  C1  UNL d   1       1.718  -0.377   2.068  0.00  0.00    -0.074 A 
ATOM      3  C2  UNL d   1       0.880   0.153   3.055  0.00  0.00    -0.005 A 
ATOM      4  C3  UNL d   1      -0.226   0.924   2.698  0.00  0.00     0.006 A 
ATOM      5  C4  UNL d   1      -0.505   1.173   1.354  0.00  0.00    -0.005 A 
ATOM      6  C5  UNL d   1       0.322   0.652   0.353  0.00  0.00    -0.074 A 
ATOM      7  C6  UNL d   1       0.042   0.918  -1.096  0.00  0.00     0.077 C 
ATOM      8  C7  UNL d   1       1.436  -0.116   0.720  0.00  0.00    -0.001 A 
ENDROOT
TORSDOF 0
ENDMDL
