MODEL 1
REMARK minimizedAffinity -2.6818583
REMARK minimizedRMSD -1
REMARK  1 active torsions:
REMARK  status: ('A' for Active; 'I' for Inactive)
REMARK    1  A    between atoms: C1_2  and  C2_3 
ROOT
ATOM      1  C2  UNL d   1      -2.054   0.889  -0.373  0.00  0.00    -0.077 A 
ATOM      2  C3  UNL d   1      -1.226   0.581  -1.461  0.00  0.00     0.002 A 
ATOM      3  C4  UNL d   1       0.070   0.105  -1.250  0.00  0.00     0.002 A 
ATOM      4  C5  UNL d   1       0.546  -0.071   0.047  0.00  0.00    -0.004 A 
ATOM      5  C6  UNL d   1      -0.269   0.235   1.136  0.00  0.00     0.002 A 
ATOM      6  C7  UNL d   1      -1.564   0.712   0.927  0.00  0.00     0.002 A 
ENDROOT
BRANCH   1   7
ATOM      7  C1  UNL d   1      -3.469   1.356  -0.599  0.00  0.00     0.055 C 
ATOM      8  C   UNL d   1      -3.512   2.565  -1.522  0.00  0.00     0.019 C 
ENDBRANCH   1   7
TORSDOF 1
ENDMDL
