MODEL 1
REMARK minimizedAffinity 3.06989551
REMARK minimizedRMSD -1
REMARK  1 active torsions:
REMARK  status: ('A' for Active; 'I' for Inactive)
REMARK    1  A    between atoms: C1_2  and  C2_3 
ROOT
ATOM      1  C2  UNL d   1       1.335  -0.718   3.547  0.00  0.00    -0.077 A 
ATOM      2  C3  UNL d   1       0.783   0.550   3.776  0.00  0.00     0.002 A 
ATOM      3  C4  UNL d   1       0.458   1.383   2.704  0.00  0.00     0.002 A 
ATOM      4  C5  UNL d   1       0.679   0.956   1.396  0.00  0.00    -0.004 A 
ATOM      5  C6  UNL d   1       1.229  -0.303   1.158  0.00  0.00     0.002 A 
ATOM      6  C7  UNL d   1       1.555  -1.136   2.229  0.00  0.00     0.002 A 
ENDROOT
BRANCH   1   7
ATOM      7  C1  UNL d   1       1.640  -1.638   4.701  0.00  0.00     0.055 C 
ATOM      8  C   UNL d   1       1.046  -1.112   6.000  0.00  0.00     0.019 C 
ENDBRANCH   1   7
TORSDOF 1
ENDMDL
