MODEL 1
REMARK minimizedAffinity -3.84130359
REMARK minimizedRMSD -1
REMARK  1 active torsions:
REMARK  status: ('A' for Active; 'I' for Inactive)
REMARK    1  A    between atoms: C1_2  and  C2_3 
ROOT
ATOM      1  C2  UNL d   1       0.631   1.128   0.771  0.00  0.00    -0.077 A 
ATOM      2  C3  UNL d   1       1.422  -0.029   0.738  0.00  0.00     0.002 A 
ATOM      3  C4  UNL d   1       1.847  -0.628   1.925  0.00  0.00     0.002 A 
ATOM      4  C5  UNL d   1       1.482  -0.080   3.153  0.00  0.00    -0.004 A 
ATOM      5  C6  UNL d   1       0.697   1.071   3.197  0.00  0.00     0.002 A 
ATOM      6  C7  UNL d   1       0.272   1.672   2.011  0.00  0.00     0.002 A 
ENDROOT
BRANCH   1   7
ATOM      7  C1  UNL d   1       0.130   1.747  -0.508  0.00  0.00     0.055 C 
ATOM      8  C   UNL d   1      -1.308   1.340  -0.795  0.00  0.00     0.019 C 
ENDBRANCH   1   7
TORSDOF 1
ENDMDL
