MODEL 1
REMARK minimizedAffinity 8.59276295
REMARK minimizedRMSD -1
REMARK  0 active torsions:
REMARK  status: ('A' for Active; 'I' for Inactive)
ROOT
ATOM      1  C1  BNZ d   1      -1.700   2.622   2.526  0.00  0.00     0.000 A 
ATOM      2  C2  BNZ d   1      -3.062   2.557   2.658  0.00  0.00     0.000 A 
ATOM      3  C3  BNZ d   1      -3.682   1.373   2.942  0.00  0.00     0.000 A 
ATOM      4  C4  BNZ d   1      -2.945   0.249   3.054  0.00  0.00     0.000 A 
ATOM      5  C5  BNZ d   1      -1.572   0.296   2.915  0.00  0.00     0.000 A 
ATOM      6  C6  BNZ d   1      -0.947   1.497   2.668  0.00  0.00     0.000 A 
ENDROOT
TORSDOF 0
ENDMDL
