MODEL 1
REMARK minimizedAffinity -5.29325342
REMARK minimizedRMSD -1
REMARK  0 active torsions:
REMARK  status: ('A' for Active; 'I' for Inactive)
ROOT
ATOM      1  C1  BNZ d   1       1.810  -0.264  -0.970  0.00  0.00     0.000 A 
ATOM      2  C2  BNZ d   1       2.676   0.759  -0.690  0.00  0.00     0.000 A 
ATOM      3  C3  BNZ d   1       2.262   1.854   0.016  0.00  0.00     0.000 A 
ATOM      4  C4  BNZ d   1       0.974   1.942   0.406  0.00  0.00     0.000 A 
ATOM      5  C5  BNZ d   1       0.087   0.923   0.124  0.00  0.00     0.000 A 
ATOM      6  C6  BNZ d   1       0.517  -0.195  -0.553  0.00  0.00     0.000 A 
ENDROOT
TORSDOF 0
ENDMDL
