MODEL 1
REMARK minimizedAffinity 2.05798197
REMARK minimizedRMSD -1
REMARK  0 active torsions:
REMARK  status: ('A' for Active; 'I' for Inactive)
ROOT
ATOM      1  C1  BNZ d   1       3.639   3.754  -3.790  0.00  0.00     0.000 A 
ATOM      2  C2  BNZ d   1       3.654   4.926  -4.499  0.00  0.00     0.000 A 
ATOM      3  C3  BNZ d   1       4.836   5.509  -4.862  0.00  0.00     0.000 A 
ATOM      4  C4  BNZ d   1       5.999   4.942  -4.482  0.00  0.00     0.000 A 
ATOM      5  C5  BNZ d   1       6.000   3.766  -3.759  0.00  0.00     0.000 A 
ATOM      6  C6  BNZ d   1       4.809   3.161  -3.428  0.00  0.00     0.000 A 
ENDROOT
TORSDOF 0
ENDMDL
