MODEL 1
REMARK minimizedAffinity 2.91420865
REMARK minimizedRMSD -1
REMARK  0 active torsions:
REMARK  status: ('A' for Active; 'I' for Inactive)
ROOT
ATOM      1  C1  BNZ d   1       2.971   3.004   0.788  0.00  0.00     0.000 A 
ATOM      2  C2  BNZ d   1       1.859   3.339   1.514  0.00  0.00     0.000 A 
ATOM      3  C3  BNZ d   1       0.845   2.441   1.696  0.00  0.00     0.000 A 
ATOM      4  C4  BNZ d   1       0.925   1.224   1.119  0.00  0.00     0.000 A 
ATOM      5  C5  BNZ d   1       2.035   0.875   0.376  0.00  0.00     0.000 A 
ATOM      6  C6  BNZ d   1       3.071   1.768   0.228  0.00  0.00     0.000 A 
ENDROOT
TORSDOF 0
ENDMDL
