MODEL 1
REMARK minimizedAffinity 0.169803604
REMARK minimizedRMSD -1
REMARK  0 active torsions:
REMARK  status: ('A' for Active; 'I' for Inactive)
ROOT
ATOM      1  C1  BNZ d   1      -0.835   2.824   2.289  0.00  0.00     0.000 A 
ATOM      2  C2  BNZ d   1       0.463   3.238   2.159  0.00  0.00     0.000 A 
ATOM      3  C3  BNZ d   1       1.464   2.338   1.918  0.00  0.00     0.000 A 
ATOM      4  C4  BNZ d   1       1.171   1.024   1.849  0.00  0.00     0.000 A 
ATOM      5  C5  BNZ d   1      -0.132   0.590   1.987  0.00  0.00     0.000 A 
ATOM      6  C6  BNZ d   1      -1.142   1.502   2.190  0.00  0.00     0.000 A 
ENDROOT
TORSDOF 0
ENDMDL
