MODEL 1
REMARK minimizedAffinity 1.16639936
REMARK minimizedRMSD -1
REMARK  0 active torsions:
REMARK  status: ('A' for Active; 'I' for Inactive)
ROOT
ATOM      1  C1  BNZ d   1       3.491   1.477   0.040  0.00  0.00     0.000 A 
ATOM      2  C2  BNZ d   1       3.312   2.572   0.843  0.00  0.00     0.000 A 
ATOM      3  C3  BNZ d   1       2.121   2.786   1.479  0.00  0.00     0.000 A 
ATOM      4  C4  BNZ d   1       1.099   1.928   1.279  0.00  0.00     0.000 A 
ATOM      5  C5  BNZ d   1       1.262   0.825   0.465  0.00  0.00     0.000 A 
ATOM      6  C6  BNZ d   1       2.474   0.592  -0.142  0.00  0.00     0.000 A 
ENDROOT
TORSDOF 0
ENDMDL
