MODEL 1
REMARK minimizedAffinity 7.95867443
REMARK minimizedRMSD -1
REMARK  0 active torsions:
REMARK  status: ('A' for Active; 'I' for Inactive)
ROOT
ATOM      1  C1  BNZ d   1       1.938   0.900   0.835  0.00  0.00     0.000 A 
ATOM      2  C2  BNZ d   1       1.101   0.519   1.850  0.00  0.00     0.000 A 
ATOM      3  C3  BNZ d   1       0.232   1.411   2.412  0.00  0.00     0.000 A 
ATOM      4  C4  BNZ d   1       0.229   2.691   1.987  0.00  0.00     0.000 A 
ATOM      5  C5  BNZ d   1       1.073   3.093   0.971  0.00  0.00     0.000 A 
ATOM      6  C6  BNZ d   1       1.919   2.183   0.381  0.00  0.00     0.000 A 
ENDROOT
TORSDOF 0
ENDMDL
