MODEL 1
REMARK minimizedAffinity 3.50171471
REMARK minimizedRMSD -1
REMARK  0 active torsions:
REMARK  status: ('A' for Active; 'I' for Inactive)
ROOT
ATOM      1  C1  BNZ d   1       0.044   3.241   1.485  0.00  0.00     0.000 A 
ATOM      2  C2  BNZ d   1      -0.475   2.318   2.353  0.00  0.00     0.000 A 
ATOM      3  C3  BNZ d   1       0.254   1.224   2.729  0.00  0.00     0.000 A 
ATOM      4  C4  BNZ d   1       1.482   1.034   2.206  0.00  0.00     0.000 A 
ATOM      5  C5  BNZ d   1       2.016   1.950   1.323  0.00  0.00     0.000 A 
ATOM      6  C6  BNZ d   1       1.295   3.070   0.976  0.00  0.00     0.000 A 
ENDROOT
TORSDOF 0
ENDMDL
