MODEL 1
REMARK minimizedAffinity -0.114146292
REMARK minimizedRMSD -1
REMARK  0 active torsions:
REMARK  status: ('A' for Active; 'I' for Inactive)
ROOT
ATOM      1  C1  BNZ d   1      -4.886  -2.476  -2.401  0.00  0.00     0.000 A 
ATOM      2  C2  BNZ d   1      -6.000  -3.003  -2.999  0.00  0.00     0.000 A 
ATOM      3  C3  BNZ d   1      -5.999  -4.285  -3.473  0.00  0.00     0.000 A 
ATOM      4  C4  BNZ d   1      -4.874  -5.024  -3.385  0.00  0.00     0.000 A 
ATOM      5  C5  BNZ d   1      -3.741  -4.503  -2.793  0.00  0.00     0.000 A 
ATOM      6  C6  BNZ d   1      -3.757  -3.226  -2.282  0.00  0.00     0.000 A 
ENDROOT
TORSDOF 0
ENDMDL
