MODEL 1
REMARK minimizedAffinity 3.3028996
REMARK minimizedRMSD -1
REMARK  0 active torsions:
REMARK  status: ('A' for Active; 'I' for Inactive)
ROOT
ATOM      1  C1  BNZ d   1       1.529   0.112  -0.331  0.00  0.00     0.000 A 
ATOM      2  C2  BNZ d   1       1.834   1.346   0.178  0.00  0.00     0.000 A 
ATOM      3  C3  BNZ d   1       1.476   1.685   1.453  0.00  0.00     0.000 A 
ATOM      4  C4  BNZ d   1       0.780   0.806   2.203  0.00  0.00     0.000 A 
ATOM      5  C5  BNZ d   1       0.457  -0.439   1.700  0.00  0.00     0.000 A 
ATOM      6  C6  BNZ d   1       0.852  -0.791   0.430  0.00  0.00     0.000 A 
ENDROOT
TORSDOF 0
ENDMDL
