MODEL 1
REMARK minimizedAffinity -0.0562337488
REMARK minimizedRMSD -1
REMARK  0 active torsions:
REMARK  status: ('A' for Active; 'I' for Inactive)
ROOT
ATOM      1  C1  BNZ d   1      -3.930  -4.211  -2.620  0.00  0.00     0.000 A 
ATOM      2  C2  BNZ d   1      -4.952  -3.386  -3.006  0.00  0.00     0.000 A 
ATOM      3  C3  BNZ d   1      -5.997  -3.865  -3.745  0.00  0.00     0.000 A 
ATOM      4  C4  BNZ d   1      -6.000  -5.157  -4.130  0.00  0.00     0.000 A 
ATOM      5  C5  BNZ d   1      -4.972  -6.000  -3.756  0.00  0.00     0.000 A 
ATOM      6  C6  BNZ d   1      -3.941  -5.524  -2.980  0.00  0.00     0.000 A 
ENDROOT
TORSDOF 0
ENDMDL
