MODEL 1
REMARK minimizedAffinity 7.26581001
REMARK minimizedRMSD -1
REMARK  0 active torsions:
REMARK  status: ('A' for Active; 'I' for Inactive)
ROOT
ATOM      1  C1  BNZ d   1      -4.959  -3.368  -3.002  0.00  0.00     0.000 A 
ATOM      2  C2  BNZ d   1      -3.913  -4.186  -2.667  0.00  0.00     0.000 A 
ATOM      3  C3  BNZ d   1      -3.892  -5.494  -3.067  0.00  0.00     0.000 A 
ATOM      4  C4  BNZ d   1      -4.934  -5.991  -3.764  0.00  0.00     0.000 A 
ATOM      5  C5  BNZ d   1      -6.000  -5.181  -4.101  0.00  0.00     0.000 A 
ATOM      6  C6  BNZ d   1      -5.999  -3.855  -3.731  0.00  0.00     0.000 A 
ENDROOT
TORSDOF 0
ENDMDL
