MODEL 1
REMARK minimizedAffinity 3.50067186
REMARK minimizedRMSD -1
REMARK  0 active torsions:
REMARK  status: ('A' for Active; 'I' for Inactive)
ROOT
ATOM      1  C1  BNZ d   1      -0.813   2.736   2.307  0.00  0.00     0.000 A 
ATOM      2  C2  BNZ d   1      -0.437   1.564   2.907  0.00  0.00     0.000 A 
ATOM      3  C3  BNZ d   1       0.861   1.136   2.854  0.00  0.00     0.000 A 
ATOM      4  C4  BNZ d   1       1.770   1.859   2.168  0.00  0.00     0.000 A 
ATOM      5  C5  BNZ d   1       1.403   3.038   1.550  0.00  0.00     0.000 A 
ATOM      6  C6  BNZ d   1       0.105   3.485   1.639  0.00  0.00     0.000 A 
ENDROOT
TORSDOF 0
ENDMDL
