MODEL 1
REMARK minimizedAffinity 4.8358016
REMARK minimizedRMSD -1
REMARK  0 active torsions:
REMARK  status: ('A' for Active; 'I' for Inactive)
ROOT
ATOM      1  C1  BNZ d   1       1.217   0.740   0.700  0.00  0.00     0.000 A 
ATOM      2  C2  BNZ d   1       2.326   0.395  -0.025  0.00  0.00     0.000 A 
ATOM      3  C3  BNZ d   1       3.400   1.236  -0.105  0.00  0.00     0.000 A 
ATOM      4  C4  BNZ d   1       3.348   2.437   0.506  0.00  0.00     0.000 A 
ATOM      5  C5  BNZ d   1       2.233   2.804   1.233  0.00  0.00     0.000 A 
ATOM      6  C6  BNZ d   1       1.170   1.938   1.344  0.00  0.00     0.000 A 
ENDROOT
TORSDOF 0
ENDMDL
