MODEL 1
REMARK minimizedAffinity 3.73894215
REMARK minimizedRMSD -1
REMARK  0 active torsions:
REMARK  status: ('A' for Active; 'I' for Inactive)
ROOT
ATOM      1  C1  BNZ d   1       3.042   2.602   1.076  0.00  0.00     0.000 A 
ATOM      2  C2  BNZ d   1       2.056   3.182   1.830  0.00  0.00     0.000 A 
ATOM      3  C3  BNZ d   1       0.843   2.571   1.985  0.00  0.00     0.000 A 
ATOM      4  C4  BNZ d   1       0.603   1.403   1.354  0.00  0.00     0.000 A 
ATOM      5  C5  BNZ d   1       1.583   0.811   0.583  0.00  0.00     0.000 A 
ATOM      6  C6  BNZ d   1       2.816   1.409   0.460  0.00  0.00     0.000 A 
ENDROOT
TORSDOF 0
ENDMDL
