MODEL 1
REMARK minimizedAffinity 3.53090835
REMARK minimizedRMSD -1
REMARK  0 active torsions:
REMARK  status: ('A' for Active; 'I' for Inactive)
ROOT
ATOM      1  C1  BNZ d   1       1.064   3.414   1.546  0.00  0.00     0.000 A 
ATOM      2  C2  BNZ d   1       2.234   3.497   0.839  0.00  0.00     0.000 A 
ATOM      3  C3  BNZ d   1       3.008   2.389   0.634  0.00  0.00     0.000 A 
ATOM      4  C4  BNZ d   1       2.633   1.210   1.171  0.00  0.00     0.000 A 
ATOM      5  C5  BNZ d   1       1.462   1.112   1.895  0.00  0.00     0.000 A 
ATOM      6  C6  BNZ d   1       0.665   2.221   2.065  0.00  0.00     0.000 A 
ENDROOT
TORSDOF 0
ENDMDL
