MODEL 1
REMARK minimizedAffinity 0.770735443
REMARK minimizedRMSD -1
REMARK  0 active torsions:
REMARK  status: ('A' for Active; 'I' for Inactive)
ROOT
ATOM      1  C1  BNZ d   1       1.041  -0.743  -1.773  0.00  0.00     0.000 A 
ATOM      2  C2  BNZ d   1       0.261  -0.309  -2.812  0.00  0.00     0.000 A 
ATOM      3  C3  BNZ d   1       0.149   1.024  -3.093  0.00  0.00     0.000 A 
ATOM      4  C4  BNZ d   1       0.784   1.922  -2.313  0.00  0.00     0.000 A 
ATOM      5  C5  BNZ d   1       1.567   1.501  -1.257  0.00  0.00     0.000 A 
ATOM      6  C6  BNZ d   1       1.709   0.157  -1.000  0.00  0.00     0.000 A 
ENDROOT
TORSDOF 0
ENDMDL
