MODEL 1
REMARK minimizedAffinity 0.250751644
REMARK minimizedRMSD -1
REMARK  0 active torsions:
REMARK  status: ('A' for Active; 'I' for Inactive)
ROOT
ATOM      1  C   UNL d   1      -3.419  -1.952  -2.999  0.00  0.00     0.020 A 
ATOM      2  C1  UNL d   1      -2.953  -2.626  -1.871  0.00  0.00     0.020 A 
ATOM      3  C2  UNL d   1      -1.707  -2.302  -1.329  0.00  0.00     0.034 A 
ATOM      4  C3  UNL d   1      -0.924  -1.301  -1.916  0.00  0.00     0.017 A 
ATOM      5  C4  UNL d   1      -1.393  -0.625  -3.048  0.00  0.00     0.017 A 
ATOM      6  C5  UNL d   1      -2.641  -0.954  -3.586  0.00  0.00     0.034 A 
ATOM      7 Cl   UNL d   1      -0.483   0.621  -3.826  0.00  0.00    -0.070 Cl
ATOM      8 Cl1  UNL d   1       0.606  -0.952  -1.193  0.00  0.00    -0.070 Cl
ENDROOT
TORSDOF 0
ENDMDL
