MODEL 1
REMARK minimizedAffinity 0.616797686
REMARK minimizedRMSD -1
REMARK  0 active torsions:
REMARK  status: ('A' for Active; 'I' for Inactive)
ROOT
ATOM      1  C   UNL d   1       1.897   0.345   0.394  0.00  0.00     0.020 A 
ATOM      2  C1  UNL d   1       1.911  -0.590  -0.640  0.00  0.00     0.020 A 
ATOM      3  C2  UNL d   1       0.748  -1.296  -0.958  0.00  0.00     0.034 A 
ATOM      4  C3  UNL d   1      -0.432  -1.068  -0.241  0.00  0.00     0.017 A 
ATOM      5  C4  UNL d   1      -0.444  -0.129   0.797  0.00  0.00     0.017 A 
ATOM      6  C5  UNL d   1       0.723   0.575   1.111  0.00  0.00     0.034 A 
ATOM      7 Cl   UNL d   1      -1.862   0.207   1.727  0.00  0.00    -0.070 Cl
ATOM      8 Cl1  UNL d   1      -1.832  -1.976  -0.688  0.00  0.00    -0.070 Cl
ENDROOT
TORSDOF 0
ENDMDL
