MODEL 1
REMARK minimizedAffinity 5.42523003
REMARK minimizedRMSD -1
REMARK  0 active torsions:
REMARK  status: ('A' for Active; 'I' for Inactive)
ROOT
ATOM      1  C   UNL d   1       0.002   1.678   2.319  0.00  0.00     0.020 A 
ATOM      2  C1  UNL d   1       1.009   2.288   1.572  0.00  0.00     0.020 A 
ATOM      3  C2  UNL d   1       1.571   1.620   0.482  0.00  0.00     0.034 A 
ATOM      4  C3  UNL d   1       1.127   0.338   0.136  0.00  0.00     0.017 A 
ATOM      5  C4  UNL d   1       0.116  -0.273   0.888  0.00  0.00     0.017 A 
ATOM      6  C5  UNL d   1      -0.443   0.401   1.978  0.00  0.00     0.034 A 
ATOM      7 Cl   UNL d   1      -0.484  -1.852   0.523  0.00  0.00    -0.070 Cl
ATOM      8 Cl1  UNL d   1       1.866  -0.429  -1.224  0.00  0.00    -0.070 Cl
ENDROOT
TORSDOF 0
ENDMDL
