MODEL 1
REMARK minimizedAffinity 2.33191323
REMARK minimizedRMSD -1
REMARK  0 active torsions:
REMARK  status: ('A' for Active; 'I' for Inactive)
ROOT
ATOM      1  C   UNL d   1      -0.900  -5.030   2.063  0.00  0.00     0.020 A 
ATOM      2  C1  UNL d   1      -0.766  -3.649   1.920  0.00  0.00     0.020 A 
ATOM      3  C2  UNL d   1      -1.514  -2.972   0.954  0.00  0.00     0.034 A 
ATOM      4  C3  UNL d   1      -2.398  -3.675   0.128  0.00  0.00     0.017 A 
ATOM      5  C4  UNL d   1      -2.532  -5.061   0.273  0.00  0.00     0.017 A 
ATOM      6  C5  UNL d   1      -1.781  -5.734   1.242  0.00  0.00     0.034 A 
ATOM      7 Cl   UNL d   1      -3.603  -5.997  -0.709  0.00  0.00    -0.070 Cl
ATOM      8 Cl1  UNL d   1      -3.291  -2.774  -1.045  0.00  0.00    -0.070 Cl
ENDROOT
TORSDOF 0
ENDMDL
