MODEL 1
REMARK minimizedAffinity 0.740249038
REMARK minimizedRMSD -1
REMARK  0 active torsions:
REMARK  status: ('A' for Active; 'I' for Inactive)
ROOT
ATOM      1  C   UNL d   1       0.674   2.039  -2.841  0.00  0.00     0.020 A 
ATOM      2  C1  UNL d   1       1.620   1.951  -1.821  0.00  0.00     0.020 A 
ATOM      3  C2  UNL d   1       1.812   0.743  -1.149  0.00  0.00     0.034 A 
ATOM      4  C3  UNL d   1       1.057  -0.384  -1.496  0.00  0.00     0.017 A 
ATOM      5  C4  UNL d   1       0.107  -0.295  -2.520  0.00  0.00     0.017 A 
ATOM      6  C5  UNL d   1      -0.081   0.918  -3.190  0.00  0.00     0.034 A 
ATOM      7 Cl   UNL d   1      -0.863  -1.641  -3.004  0.00  0.00    -0.070 Cl
ATOM      8 Cl1  UNL d   1       1.347  -1.846  -0.623  0.00  0.00    -0.070 Cl
ENDROOT
TORSDOF 0
ENDMDL
