MODEL 1
REMARK minimizedAffinity 2.79823518
REMARK minimizedRMSD -1
REMARK  0 active torsions:
REMARK  status: ('A' for Active; 'I' for Inactive)
ROOT
ATOM      1  C   UNL d   1       1.200   2.615   1.234  0.00  0.00     0.020 A 
ATOM      2  C1  UNL d   1      -0.047   3.041   0.778  0.00  0.00     0.020 A 
ATOM      3  C2  UNL d   1      -1.212   2.527   1.352  0.00  0.00     0.034 A 
ATOM      4  C3  UNL d   1      -1.133   1.585   2.384  0.00  0.00     0.017 A 
ATOM      5  C4  UNL d   1       0.120   1.159   2.841  0.00  0.00     0.017 A 
ATOM      6  C5  UNL d   1       1.283   1.677   2.263  0.00  0.00     0.034 A 
ATOM      7 Cl   UNL d   1       0.298   0.000   4.111  0.00  0.00    -0.070 Cl
ATOM      8 Cl1  UNL d   1      -2.614   0.993   3.047  0.00  0.00    -0.070 Cl
ENDROOT
TORSDOF 0
ENDMDL
