MODEL 1
REMARK minimizedAffinity 6.76905632
REMARK minimizedRMSD -1
REMARK  0 active torsions:
REMARK  status: ('A' for Active; 'I' for Inactive)
ROOT
ATOM      1  C   UNL d   1       0.204   1.634   2.087  0.00  0.00     0.020 A 
ATOM      2  C1  UNL d   1       0.811   0.508   1.533  0.00  0.00     0.020 A 
ATOM      3  C2  UNL d   1       0.056  -0.392   0.779  0.00  0.00     0.034 A 
ATOM      4  C3  UNL d   1      -1.311  -0.168   0.575  0.00  0.00     0.017 A 
ATOM      5  C4  UNL d   1      -1.919   0.964   1.131  0.00  0.00     0.017 A 
ATOM      6  C5  UNL d   1      -1.158   1.862   1.886  0.00  0.00     0.034 A 
ATOM      7 Cl   UNL d   1      -3.600   1.308   0.924  0.00  0.00    -0.070 Cl
ATOM      8 Cl1  UNL d   1      -2.183  -1.322  -0.369  0.00  0.00    -0.070 Cl
ENDROOT
TORSDOF 0
ENDMDL
