MODEL 1
REMARK minimizedAffinity 3.1014874
REMARK minimizedRMSD -1
REMARK  0 active torsions:
REMARK  status: ('A' for Active; 'I' for Inactive)
ROOT
ATOM      1  C   UNL d   1       0.240   0.514  -2.688  0.00  0.00     0.020 A 
ATOM      2  C1  UNL d   1       1.231  -0.017  -3.513  0.00  0.00     0.020 A 
ATOM      3  C2  UNL d   1       2.441  -0.445  -2.964  0.00  0.00     0.034 A 
ATOM      4  C3  UNL d   1       2.663  -0.344  -1.586  0.00  0.00     0.017 A 
ATOM      5  C4  UNL d   1       1.668   0.188  -0.758  0.00  0.00     0.017 A 
ATOM      6  C5  UNL d   1       0.458   0.616  -1.314  0.00  0.00     0.034 A 
ATOM      7 Cl   UNL d   1       1.869   0.344   0.951  0.00  0.00    -0.070 Cl
ATOM      8 Cl1  UNL d   1       4.183  -0.894  -0.975  0.00  0.00    -0.070 Cl
ENDROOT
TORSDOF 0
ENDMDL
