MODEL 1
REMARK minimizedAffinity 4.35948706
REMARK minimizedRMSD -1
REMARK  0 active torsions:
REMARK  status: ('A' for Active; 'I' for Inactive)
ROOT
ATOM      1  C   UNL d   1      -0.585   0.505   2.062  0.00  0.00     0.020 A 
ATOM      2  C1  UNL d   1       0.245   1.493   2.589  0.00  0.00     0.020 A 
ATOM      3  C2  UNL d   1       1.550   1.636   2.112  0.00  0.00     0.034 A 
ATOM      4  C3  UNL d   1       2.029   0.789   1.106  0.00  0.00     0.017 A 
ATOM      5  C4  UNL d   1       1.194  -0.203   0.578  0.00  0.00     0.017 A 
ATOM      6  C5  UNL d   1      -0.111  -0.342   1.059  0.00  0.00     0.034 A 
ATOM      7 Cl   UNL d   1       1.713  -1.286  -0.666  0.00  0.00    -0.070 Cl
ATOM      8 Cl1  UNL d   1       3.652   1.022   0.564  0.00  0.00    -0.070 Cl
ENDROOT
TORSDOF 0
ENDMDL
