MODEL 1
REMARK minimizedAffinity 11.6909389
REMARK minimizedRMSD -1
REMARK  0 active torsions:
REMARK  status: ('A' for Active; 'I' for Inactive)
ROOT
ATOM      1  C   UNL d   1       0.890   0.228   1.636  0.00  0.00     0.020 A 
ATOM      2  C1  UNL d   1       1.651   1.377   1.852  0.00  0.00     0.020 A 
ATOM      3  C2  UNL d   1       2.681   1.708   0.969  0.00  0.00     0.034 A 
ATOM      4  C3  UNL d   1       2.954   0.890  -0.133  0.00  0.00     0.017 A 
ATOM      5  C4  UNL d   1       2.190  -0.262  -0.349  0.00  0.00     0.017 A 
ATOM      6  C5  UNL d   1       1.159  -0.589   0.538  0.00  0.00     0.034 A 
ATOM      7 Cl   UNL d   1       2.466  -1.321  -1.687  0.00  0.00    -0.070 Cl
ATOM      8 Cl1  UNL d   1       4.242   1.361  -1.184  0.00  0.00    -0.070 Cl
ENDROOT
TORSDOF 0
ENDMDL
