MODEL 1
REMARK minimizedAffinity 6.34721994
REMARK minimizedRMSD -1
REMARK  0 active torsions:
REMARK  status: ('A' for Active; 'I' for Inactive)
ROOT
ATOM      1  C   UNL d   1      -0.665   2.167   2.882  0.00  0.00     0.020 A 
ATOM      2  C1  UNL d   1       0.354   2.863   2.232  0.00  0.00     0.020 A 
ATOM      3  C2  UNL d   1       1.180   2.202   1.321  0.00  0.00     0.034 A 
ATOM      4  C3  UNL d   1       0.988   0.841   1.056  0.00  0.00     0.017 A 
ATOM      5  C4  UNL d   1      -0.034   0.144   1.708  0.00  0.00     0.017 A 
ATOM      6  C5  UNL d   1      -0.859   0.811   2.620  0.00  0.00     0.034 A 
ATOM      7 Cl   UNL d   1      -0.332  -1.537   1.434  0.00  0.00    -0.070 Cl
ATOM      8 Cl1  UNL d   1       2.047   0.088  -0.083  0.00  0.00    -0.070 Cl
ENDROOT
TORSDOF 0
ENDMDL
