MODEL 1
REMARK minimizedAffinity 14.2052975
REMARK minimizedRMSD -1
REMARK  0 active torsions:
REMARK  status: ('A' for Active; 'I' for Inactive)
ROOT
ATOM      1  C   UNL d   1       1.449   1.921   3.430  0.00  0.00     0.020 A 
ATOM      2  C1  UNL d   1       0.907   0.860   4.154  0.00  0.00     0.020 A 
ATOM      3  C2  UNL d   1      -0.334   0.331   3.794  0.00  0.00     0.034 A 
ATOM      4  C3  UNL d   1      -1.038   0.863   2.708  0.00  0.00     0.017 A 
ATOM      5  C4  UNL d   1      -0.494   1.928   1.982  0.00  0.00     0.017 A 
ATOM      6  C5  UNL d   1       0.750   2.454   2.346  0.00  0.00     0.034 A 
ATOM      7 Cl   UNL d   1      -1.303   2.637   0.629  0.00  0.00    -0.070 Cl
ATOM      8 Cl1  UNL d   1      -2.567   0.159   2.319  0.00  0.00    -0.070 Cl
ENDROOT
TORSDOF 0
ENDMDL
