MODEL 1
REMARK minimizedAffinity 7.98710823
REMARK minimizedRMSD -1
REMARK  0 active torsions:
REMARK  status: ('A' for Active; 'I' for Inactive)
ROOT
ATOM      1  C   UNL d   1      -0.317   1.885   1.664  0.00  0.00     0.020 A 
ATOM      2  C1  UNL d   1       0.848   2.627   1.859  0.00  0.00     0.020 A 
ATOM      3  C2  UNL d   1       2.050   2.199   1.293  0.00  0.00     0.034 A 
ATOM      4  C3  UNL d   1       2.092   1.027   0.529  0.00  0.00     0.017 A 
ATOM      5  C4  UNL d   1       0.922   0.283   0.334  0.00  0.00     0.017 A 
ATOM      6  C5  UNL d   1      -0.279   0.716   0.903  0.00  0.00     0.034 A 
ATOM      7 Cl   UNL d   1       0.895  -1.174  -0.595  0.00  0.00    -0.070 Cl
ATOM      8 Cl1  UNL d   1       3.614   0.558  -0.141  0.00  0.00    -0.070 Cl
ENDROOT
TORSDOF 0
ENDMDL
