MODEL 1
REMARK minimizedAffinity -0.235049009
REMARK minimizedRMSD -1
REMARK  0 active torsions:
REMARK  status: ('A' for Active; 'I' for Inactive)
ROOT
ATOM      1  C   UNL d   1       0.633  -0.763  -0.258  0.00  0.00     0.020 A 
ATOM      2  C1  UNL d   1       1.769   0.021  -0.452  0.00  0.00     0.020 A 
ATOM      3  C2  UNL d   1       1.819   1.318   0.065  0.00  0.00     0.034 A 
ATOM      4  C3  UNL d   1       0.731   1.834   0.777  0.00  0.00     0.017 A 
ATOM      5  C4  UNL d   1      -0.409   1.046   0.971  0.00  0.00     0.017 A 
ATOM      6  C5  UNL d   1      -0.454  -0.252   0.452  0.00  0.00     0.034 A 
ATOM      7 Cl   UNL d   1      -1.792   1.613   1.840  0.00  0.00    -0.070 Cl
ATOM      8 Cl1  UNL d   1       0.861   3.445   1.388  0.00  0.00    -0.070 Cl
ENDROOT
TORSDOF 0
ENDMDL
