MODEL 1
REMARK minimizedAffinity -1.74565959
REMARK minimizedRMSD -1
REMARK  0 active torsions:
REMARK  status: ('A' for Active; 'I' for Inactive)
ROOT
ATOM      1  C   UNL d   1      -0.552   1.828   2.371  0.00  0.00     0.020 A 
ATOM      2  C1  UNL d   1       0.760   1.888   1.902  0.00  0.00     0.020 A 
ATOM      3  C2  UNL d   1       1.243   0.892   1.051  0.00  0.00     0.034 A 
ATOM      4  C3  UNL d   1       0.414  -0.168   0.666  0.00  0.00     0.017 A 
ATOM      5  C4  UNL d   1      -0.902  -0.227   1.137  0.00  0.00     0.017 A 
ATOM      6  C5  UNL d   1      -1.381   0.773   1.989  0.00  0.00     0.034 A 
ATOM      7 Cl   UNL d   1      -1.985  -1.504   0.706  0.00  0.00    -0.070 Cl
ATOM      8 Cl1  UNL d   1       1.077  -1.365  -0.389  0.00  0.00    -0.070 Cl
ENDROOT
TORSDOF 0
ENDMDL
