MODEL 1
REMARK minimizedAffinity 3.26890349
REMARK minimizedRMSD -1
REMARK  0 active torsions:
REMARK  status: ('A' for Active; 'I' for Inactive)
ROOT
ATOM      1  C4' PXY d   1       3.217   4.615  -3.065  0.00  0.00     0.077 C 
ATOM      2  C1' PXY d   1       0.793  -0.531  -2.037  0.00  0.00     0.077 C 
ATOM      3  C1  PXY d   1       1.430   0.815  -2.319  0.00  0.00    -0.082 A 
ATOM      4  C2  PXY d   1       2.008   1.484  -1.335  0.00  0.00     0.003 A 
ATOM      5  C3  PXY d   1       2.561   2.718  -1.566  0.00  0.00     0.003 A 
ATOM      6  C4  PXY d   1       2.569   3.248  -2.828  0.00  0.00    -0.082 A 
ATOM      7  C5  PXY d   1       1.991   2.566  -3.840  0.00  0.00     0.003 A 
ATOM      8  C6  PXY d   1       1.399   1.335  -3.576  0.00  0.00     0.003 A 
ENDROOT
TORSDOF 0
ENDMDL
