MODEL 1
REMARK minimizedAffinity 13.598506
REMARK minimizedRMSD -1
REMARK  0 active torsions:
REMARK  status: ('A' for Active; 'I' for Inactive)
ROOT
ATOM      1  C4' PXY d   1       0.375   3.310  -5.997  0.00  0.00     0.077 C 
ATOM      2  C1' PXY d   1       0.151  -0.816  -1.955  0.00  0.00     0.077 C 
ATOM      3  C1  PXY d   1       0.213   0.257  -3.024  0.00  0.00    -0.082 A 
ATOM      4  C2  PXY d   1       0.440   1.514  -2.677  0.00  0.00     0.003 A 
ATOM      5  C3  PXY d   1       0.468   2.502  -3.628  0.00  0.00     0.003 A 
ATOM      6  C4  PXY d   1       0.314   2.192  -4.953  0.00  0.00    -0.082 A 
ATOM      7  C5  PXY d   1       0.092   0.911  -5.316  0.00  0.00     0.003 A 
ATOM      8  C6  PXY d   1       0.027  -0.071  -4.331  0.00  0.00     0.003 A 
ENDROOT
TORSDOF 0
ENDMDL
