MODEL 1
REMARK minimizedAffinity 3.65835953
REMARK minimizedRMSD -1
REMARK  0 active torsions:
REMARK  status: ('A' for Active; 'I' for Inactive)
ROOT
ATOM      1  C4' PXY d   1       2.851   2.658  -4.066  0.00  0.00     0.077 C 
ATOM      2  C1' PXY d   1      -0.007  -1.935  -2.029  0.00  0.00     0.077 C 
ATOM      3  C1  PXY d   1       0.737  -0.732  -2.575  0.00  0.00    -0.082 A 
ATOM      4  C2  PXY d   1       1.848  -0.325  -1.982  0.00  0.00     0.003 A 
ATOM      5  C3  PXY d   1       2.516   0.779  -2.443  0.00  0.00     0.003 A 
ATOM      6  C4  PXY d   1       2.072   1.443  -3.555  0.00  0.00    -0.082 A 
ATOM      7  C5  PXY d   1       0.946   1.028  -4.173  0.00  0.00     0.003 A 
ATOM      8  C6  PXY d   1       0.260  -0.071  -3.664  0.00  0.00     0.003 A 
ENDROOT
TORSDOF 0
ENDMDL
