MODEL 1
REMARK minimizedAffinity 8.21607494
REMARK minimizedRMSD -1
REMARK  0 active torsions:
REMARK  status: ('A' for Active; 'I' for Inactive)
ROOT
ATOM      1  C4' PXY d   1       0.311  -5.418   1.600  0.00  0.00     0.077 C 
ATOM      2  C1' PXY d   1      -4.033  -2.324  -0.630  0.00  0.00     0.077 C 
ATOM      3  C1  PXY d   1      -2.894  -3.129  -0.034  0.00  0.00    -0.082 A 
ATOM      4  C2  PXY d   1      -2.023  -3.722  -0.834  0.00  0.00     0.003 A 
ATOM      5  C3  PXY d   1      -1.007  -4.480  -0.313  0.00  0.00     0.003 A 
ATOM      6  C4  PXY d   1      -0.849  -4.588   1.043  0.00  0.00    -0.082 A 
ATOM      7  C5  PXY d   1      -1.727  -3.977   1.866  0.00  0.00     0.003 A 
ATOM      8  C6  PXY d   1      -2.776  -3.246   1.316  0.00  0.00     0.003 A 
ENDROOT
TORSDOF 0
ENDMDL
