MODEL 1
REMARK minimizedAffinity 8.06699085
REMARK minimizedRMSD -1
REMARK  0 active torsions:
REMARK  status: ('A' for Active; 'I' for Inactive)
ROOT
ATOM      1  C4' PXY d   1       6.000  -5.922   5.822  0.00  0.00     0.077 C 
ATOM      2  C1' PXY d   1       2.066  -5.979   1.587  0.00  0.00     0.077 C 
ATOM      3  C1  PXY d   1       3.089  -5.959   2.706  0.00  0.00    -0.082 A 
ATOM      4  C2  PXY d   1       4.379  -5.960   2.412  0.00  0.00     0.003 A 
ATOM      5  C3  PXY d   1       5.317  -5.974   3.412  0.00  0.00     0.003 A 
ATOM      6  C4  PXY d   1       4.932  -5.933   4.725  0.00  0.00    -0.082 A 
ATOM      7  C5  PXY d   1       3.617  -5.920   5.032  0.00  0.00     0.003 A 
ATOM      8  C6  PXY d   1       2.680  -5.948   4.003  0.00  0.00     0.003 A 
ENDROOT
TORSDOF 0
ENDMDL
