MODEL 1
REMARK minimizedAffinity 13.2537489
REMARK minimizedRMSD -1
REMARK  0 active torsions:
REMARK  status: ('A' for Active; 'I' for Inactive)
ROOT
ATOM      1  C4' PXY d   1      -1.840   0.381  -1.115  0.00  0.00     0.077 C 
ATOM      2  C1' PXY d   1      -4.071  -0.659   4.115  0.00  0.00     0.077 C 
ATOM      3  C1  PXY d   1      -3.483  -0.399   2.742  0.00  0.00    -0.082 A 
ATOM      4  C2  PXY d   1      -2.974   0.790   2.463  0.00  0.00     0.003 A 
ATOM      5  C3  PXY d   1      -2.468   1.052   1.216  0.00  0.00     0.003 A 
ATOM      6  C4  PXY d   1      -2.435   0.071   0.261  0.00  0.00    -0.082 A 
ATOM      7  C5  PXY d   1      -2.943  -1.148   0.542  0.00  0.00     0.003 A 
ATOM      8  C6  PXY d   1      -3.489  -1.381   1.800  0.00  0.00     0.003 A 
ENDROOT
TORSDOF 0
ENDMDL
