MODEL 1
REMARK minimizedAffinity 11.7089853
REMARK minimizedRMSD -1
REMARK  0 active torsions:
REMARK  status: ('A' for Active; 'I' for Inactive)
ROOT
ATOM      1  C4' PXY d   1       2.503   3.469  -2.943  0.00  0.00     0.077 C 
ATOM      2  C1' PXY d   1      -0.032  -1.610  -1.851  0.00  0.00     0.077 C 
ATOM      3  C1  PXY d   1       0.640  -0.279  -2.126  0.00  0.00    -0.082 A 
ATOM      4  C2  PXY d   1       0.018   0.628  -2.862  0.00  0.00     0.003 A 
ATOM      5  C3  PXY d   1       0.625   1.824  -3.148  0.00  0.00     0.003 A 
ATOM      6  C4  PXY d   1       1.859   2.116  -2.631  0.00  0.00    -0.082 A 
ATOM      7  C5  PXY d   1       2.495   1.200  -1.871  0.00  0.00     0.003 A 
ATOM      8  C6  PXY d   1       1.880  -0.024  -1.626  0.00  0.00     0.003 A 
ENDROOT
TORSDOF 0
ENDMDL
