MODEL 1
REMARK minimizedAffinity 10.368577
REMARK minimizedRMSD -1
REMARK  0 active torsions:
REMARK  status: ('A' for Active; 'I' for Inactive)
ROOT
ATOM      1  C4' PXY d   1      -1.652   0.705  -1.161  0.00  0.00     0.077 C 
ATOM      2  C1' PXY d   1       3.928   0.740  -2.672  0.00  0.00     0.077 C 
ATOM      3  C1  PXY d   1       2.461   0.733  -2.288  0.00  0.00    -0.082 A 
ATOM      4  C2  PXY d   1       2.108   1.031  -1.049  0.00  0.00     0.003 A 
ATOM      5  C3  PXY d   1       0.789   0.999  -0.676  0.00  0.00     0.003 A 
ATOM      6  C4  PXY d   1      -0.184   0.709  -1.596  0.00  0.00    -0.082 A 
ATOM      7  C5  PXY d   1       0.168   0.413  -2.865  0.00  0.00     0.003 A 
ATOM      8  C6  PXY d   1       1.515   0.412  -3.213  0.00  0.00     0.003 A 
ENDROOT
TORSDOF 0
ENDMDL
