MODEL 1
REMARK minimizedAffinity 1.21217752
REMARK minimizedRMSD -1
REMARK  0 active torsions:
REMARK  status: ('A' for Active; 'I' for Inactive)
ROOT
ATOM      1  C4' PXY d   1       1.673   1.525  -0.015  0.00  0.00     0.077 C 
ATOM      2  C1' PXY d   1       1.912   1.426  -5.790  0.00  0.00     0.077 C 
ATOM      3  C1  PXY d   1       1.840   1.443  -4.276  0.00  0.00    -0.082 A 
ATOM      4  C2  PXY d   1       2.308   2.487  -3.611  0.00  0.00     0.003 A 
ATOM      5  C3  PXY d   1       2.279   2.505  -2.240  0.00  0.00     0.003 A 
ATOM      6  C4  PXY d   1       1.717   1.468  -1.545  0.00  0.00    -0.082 A 
ATOM      7  C5  PXY d   1       1.228   0.405  -2.217  0.00  0.00     0.003 A 
ATOM      8  C6  PXY d   1       1.304   0.387  -3.607  0.00  0.00     0.003 A 
ENDROOT
TORSDOF 0
ENDMDL
