MODEL 1
REMARK minimizedAffinity 10.8156385
REMARK minimizedRMSD -1
REMARK  0 active torsions:
REMARK  status: ('A' for Active; 'I' for Inactive)
ROOT
ATOM      1  C4' PXY d   1       2.542   3.316  -2.907  0.00  0.00     0.077 C 
ATOM      2  C1' PXY d   1       0.690  -2.129  -2.325  0.00  0.00     0.077 C 
ATOM      3  C1  PXY d   1       1.173  -0.702  -2.490  0.00  0.00    -0.082 A 
ATOM      4  C2  PXY d   1       2.018  -0.191  -1.610  0.00  0.00     0.003 A 
ATOM      5  C3  PXY d   1       2.441   1.108  -1.726  0.00  0.00     0.003 A 
ATOM      6  C4  PXY d   1       2.035   1.876  -2.785  0.00  0.00    -0.082 A 
ATOM      7  C5  PXY d   1       1.181   1.359  -3.693  0.00  0.00     0.003 A 
ATOM      8  C6  PXY d   1       0.732   0.051  -3.534  0.00  0.00     0.003 A 
ENDROOT
TORSDOF 0
ENDMDL
