MODEL 1
REMARK minimizedAffinity 11.8604784
REMARK minimizedRMSD -1
REMARK  0 active torsions:
REMARK  status: ('A' for Active; 'I' for Inactive)
ROOT
ATOM      1  C4' PXY d   1       2.300  -4.900  -0.162  0.00  0.00     0.077 C 
ATOM      2  C1' PXY d   1       1.683  -0.052  -3.249  0.00  0.00     0.077 C 
ATOM      3  C1  PXY d   1       1.858  -1.321  -2.438  0.00  0.00    -0.082 A 
ATOM      4  C2  PXY d   1       1.015  -2.327  -2.607  0.00  0.00     0.003 A 
ATOM      5  C3  PXY d   1       1.139  -3.469  -1.859  0.00  0.00     0.003 A 
ATOM      6  C4  PXY d   1       2.168  -3.604  -0.966  0.00  0.00    -0.082 A 
ATOM      7  C5  PXY d   1       3.038  -2.586  -0.795  0.00  0.00     0.003 A 
ATOM      8  C6  PXY d   1       2.871  -1.419  -1.534  0.00  0.00     0.003 A 
ENDROOT
TORSDOF 0
ENDMDL
