MODEL 1
REMARK minimizedAffinity 6.29556036
REMARK minimizedRMSD -1
REMARK  0 active torsions:
REMARK  status: ('A' for Active; 'I' for Inactive)
ROOT
ATOM      1  C4' PXY d   1       1.201   1.417  -5.423  0.00  0.00     0.077 C 
ATOM      2  C1' PXY d   1       3.311  -0.503  -0.395  0.00  0.00     0.077 C 
ATOM      3  C1  PXY d   1       2.746  -0.005  -1.711  0.00  0.00    -0.082 A 
ATOM      4  C2  PXY d   1       3.566   0.271  -2.712  0.00  0.00     0.003 A 
ATOM      5  C3  PXY d   1       3.075   0.753  -3.898  0.00  0.00     0.003 A 
ATOM      6  C4  PXY d   1       1.726   0.903  -4.079  0.00  0.00    -0.082 A 
ATOM      7  C5  PXY d   1       0.882   0.613  -3.067  0.00  0.00     0.003 A 
ATOM      8  C6  PXY d   1       1.404   0.165  -1.856  0.00  0.00     0.003 A 
ENDROOT
TORSDOF 0
ENDMDL
