MODEL 1
REMARK minimizedAffinity 13.1327124
REMARK minimizedRMSD -1
REMARK  0 active torsions:
REMARK  status: ('A' for Active; 'I' for Inactive)
ROOT
ATOM      1  C4' PXY d   1       0.811   2.218  -4.170  0.00  0.00     0.077 C 
ATOM      2  C1' PXY d   1       0.799  -2.843  -1.376  0.00  0.00     0.077 C 
ATOM      3  C1  PXY d   1       0.801  -1.522  -2.120  0.00  0.00    -0.082 A 
ATOM      4  C2  PXY d   1       1.400  -0.471  -1.586  0.00  0.00     0.003 A 
ATOM      5  C3  PXY d   1       1.383   0.740  -2.230  0.00  0.00     0.003 A 
ATOM      6  C4  PXY d   1       0.793   0.862  -3.459  0.00  0.00    -0.082 A 
ATOM      7  C5  PXY d   1       0.188  -0.209  -4.016  0.00  0.00     0.003 A 
ATOM      8  C6  PXY d   1       0.181  -1.418  -3.327  0.00  0.00     0.003 A 
ENDROOT
TORSDOF 0
ENDMDL
