MODEL 1
REMARK minimizedAffinity 14.8676167
REMARK minimizedRMSD -1
REMARK  0 active torsions:
REMARK  status: ('A' for Active; 'I' for Inactive)
ROOT
ATOM      1  C4' PXY d   1       1.901   2.782  -5.381  0.00  0.00     0.077 C 
ATOM      2  C1' PXY d   1       2.271  -1.024  -1.046  0.00  0.00     0.077 C 
ATOM      3  C1  PXY d   1       2.179  -0.016  -2.175  0.00  0.00    -0.082 A 
ATOM      4  C2  PXY d   1       1.296  -0.198  -3.144  0.00  0.00     0.003 A 
ATOM      5  C3  PXY d   1       1.222   0.686  -4.189  0.00  0.00     0.003 A 
ATOM      6  C4  PXY d   1       2.023   1.796  -4.216  0.00  0.00    -0.082 A 
ATOM      7  C5  PXY d   1       2.919   1.994  -3.226  0.00  0.00     0.003 A 
ATOM      8  C6  PXY d   1       3.007   1.063  -2.195  0.00  0.00     0.003 A 
ENDROOT
TORSDOF 0
ENDMDL
