MODEL 1
REMARK minimizedAffinity 8.4581213
REMARK minimizedRMSD -1
REMARK  0 active torsions:
REMARK  status: ('A' for Active; 'I' for Inactive)
ROOT
ATOM      1  C4' PXY d   1       1.155  -0.825  -2.263  0.00  0.00     0.077 C 
ATOM      2  C1' PXY d   1      -0.414   3.297  -6.000  0.00  0.00     0.077 C 
ATOM      3  C1  PXY d   1       0.001   2.225  -5.011  0.00  0.00    -0.082 A 
ATOM      4  C2  PXY d   1       0.330   1.021  -5.451  0.00  0.00     0.003 A 
ATOM      5  C3  PXY d   1       0.677   0.031  -4.568  0.00  0.00     0.003 A 
ATOM      6  C4  PXY d   1       0.739   0.291  -3.225  0.00  0.00    -0.082 A 
ATOM      7  C5  PXY d   1       0.414   1.519  -2.769  0.00  0.00     0.003 A 
ATOM      8  C6  PXY d   1       0.025   2.499  -3.679  0.00  0.00     0.003 A 
ENDROOT
TORSDOF 0
ENDMDL
