MODEL 1
REMARK minimizedAffinity 8.12160492
REMARK minimizedRMSD -1
REMARK  0 active torsions:
REMARK  status: ('A' for Active; 'I' for Inactive)
ROOT
ATOM      1  C4' PXY d   1       0.695  -3.745  -2.975  0.00  0.00     0.077 C 
ATOM      2  C1' PXY d   1       3.834   0.876  -1.488  0.00  0.00     0.077 C 
ATOM      3  C1  PXY d   1       3.019  -0.344  -1.870  0.00  0.00    -0.082 A 
ATOM      4  C2  PXY d   1       2.327  -0.340  -2.998  0.00  0.00     0.003 A 
ATOM      5  C3  PXY d   1       1.558  -1.422  -3.344  0.00  0.00     0.003 A 
ATOM      6  C4  PXY d   1       1.540  -2.539  -2.553  0.00  0.00    -0.082 A 
ATOM      7  C5  PXY d   1       2.252  -2.555  -1.406  0.00  0.00     0.003 A 
ATOM      8  C6  PXY d   1       2.993  -1.431  -1.053  0.00  0.00     0.003 A 
ENDROOT
TORSDOF 0
ENDMDL
