MODEL 1
REMARK minimizedAffinity 13.0339298
REMARK minimizedRMSD -1
REMARK  0 active torsions:
REMARK  status: ('A' for Active; 'I' for Inactive)
ROOT
ATOM      1  C4' PXY d   1      -0.230   1.024  -3.396  0.00  0.00     0.077 C 
ATOM      2  C1' PXY d   1       3.099   3.746   0.467  0.00  0.00     0.077 C 
ATOM      3  C1  PXY d   1       2.234   3.022  -0.546  0.00  0.00    -0.082 A 
ATOM      4  C2  PXY d   1       1.480   3.719  -1.380  0.00  0.00     0.003 A 
ATOM      5  C3  PXY d   1       0.668   3.080  -2.280  0.00  0.00     0.003 A 
ATOM      6  C4  PXY d   1       0.666   1.713  -2.363  0.00  0.00    -0.082 A 
ATOM      7  C5  PXY d   1       1.440   0.995  -1.523  0.00  0.00     0.003 A 
ATOM      8  C6  PXY d   1       2.227   1.662  -0.588  0.00  0.00     0.003 A 
ENDROOT
TORSDOF 0
ENDMDL
