MODEL 1
REMARK minimizedAffinity 12.5649033
REMARK minimizedRMSD -1
REMARK  0 active torsions:
REMARK  status: ('A' for Active; 'I' for Inactive)
ROOT
ATOM      1  C4' PXY d   1       1.975   1.916  -1.104  0.00  0.00     0.077 C 
ATOM      2  C1' PXY d   1      -0.642   0.304  -5.999  0.00  0.00     0.077 C 
ATOM      3  C1  PXY d   1       0.035   0.721  -4.709  0.00  0.00    -0.082 A 
ATOM      4  C2  PXY d   1       0.872   1.746  -4.710  0.00  0.00     0.003 A 
ATOM      5  C3  PXY d   1       1.517   2.117  -3.559  0.00  0.00     0.003 A 
ATOM      6  C4  PXY d   1       1.262   1.465  -2.381  0.00  0.00    -0.082 A 
ATOM      7  C5  PXY d   1       0.401   0.426  -2.369  0.00  0.00     0.003 A 
ATOM      8  C6  PXY d   1      -0.212   0.039  -3.558  0.00  0.00     0.003 A 
ENDROOT
TORSDOF 0
ENDMDL
