MODEL 1
REMARK minimizedAffinity 7.49438238
REMARK minimizedRMSD -1
REMARK  0 active torsions:
REMARK  status: ('A' for Active; 'I' for Inactive)
ROOT
ATOM      1  C4' PXY d   1      -0.589   0.831  -4.418  0.00  0.00     0.077 C 
ATOM      2  C1' PXY d   1       2.309   1.942   0.458  0.00  0.00     0.077 C 
ATOM      3  C1  PXY d   1       1.552   1.638  -0.819  0.00  0.00    -0.082 A 
ATOM      4  C2  PXY d   1       1.409   2.582  -1.735  0.00  0.00     0.003 A 
ATOM      5  C3  PXY d   1       0.699   2.333  -2.882  0.00  0.00     0.003 A 
ATOM      6  C4  PXY d   1       0.176   1.090  -3.117  0.00  0.00    -0.082 A 
ATOM      7  C5  PXY d   1       0.327   0.119  -2.192  0.00  0.00     0.003 A 
ATOM      8  C6  PXY d   1       1.016   0.403  -1.016  0.00  0.00     0.003 A 
ENDROOT
TORSDOF 0
ENDMDL
