MODEL 1
REMARK minimizedAffinity -2.16357398
REMARK minimizedRMSD -1
REMARK  0 active torsions:
REMARK  status: ('A' for Active; 'I' for Inactive)
ROOT
ATOM      1  C   UNL d   1      -1.614   1.146   1.042  0.00  0.00     0.172 C 
ATOM      2  N   UNL d   1      -0.665   0.421   0.230  0.00  0.00    -0.070 N 
ATOM      3  C1  UNL d   1      -0.285  -0.881   0.417  0.00  0.00    -0.004 A 
ATOM      4  C2  UNL d   1       0.632  -1.198  -0.562  0.00  0.00    -0.047 A 
ATOM      5  C3  UNL d   1       0.810  -0.045  -1.364  0.00  0.00    -0.047 A 
ATOM      6  C4  UNL d   1      -0.005   0.942  -0.851  0.00  0.00    -0.004 A 
ENDROOT
TORSDOF 0
ENDMDL
