MODEL 1
REMARK minimizedAffinity -2.92540359
REMARK minimizedRMSD -1
REMARK  0 active torsions:
REMARK  status: ('A' for Active; 'I' for Inactive)
ROOT
ATOM      1  C   UNL d   1       0.120   2.168  -0.908  0.00  0.00     0.172 C 
ATOM      2  N   UNL d   1      -0.506   1.422   0.159  0.00  0.00    -0.070 N 
ATOM      3  C1  UNL d   1      -1.360   1.936   1.098  0.00  0.00    -0.004 A 
ATOM      4  C2  UNL d   1      -1.737   0.908   1.934  0.00  0.00    -0.047 A 
ATOM      5  C3  UNL d   1      -1.086  -0.265   1.483  0.00  0.00    -0.047 A 
ATOM      6  C4  UNL d   1      -0.330   0.082   0.383  0.00  0.00    -0.004 A 
ENDROOT
TORSDOF 0
ENDMDL
