MODEL 1
REMARK minimizedAffinity -1.50941133
REMARK minimizedRMSD -1
REMARK  0 active torsions:
REMARK  status: ('A' for Active; 'I' for Inactive)
ROOT
ATOM      1  C   UNL d   1      -1.692   1.435   2.333  0.00  0.00     0.172 C 
ATOM      2  N   UNL d   1      -0.871   0.643   1.447  0.00  0.00    -0.070 N 
ATOM      3  C1  UNL d   1      -0.417  -0.624   1.700  0.00  0.00    -0.004 A 
ATOM      4  C2  UNL d   1       0.327  -1.031   0.614  0.00  0.00    -0.047 A 
ATOM      5  C3  UNL d   1       0.321   0.029  -0.324  0.00  0.00    -0.047 A 
ATOM      6  C4  UNL d   1      -0.428   1.052   0.218  0.00  0.00    -0.004 A 
ENDROOT
TORSDOF 0
ENDMDL
