MODEL 1
REMARK minimizedAffinity -4.10673952
REMARK minimizedRMSD -1
REMARK  0 active torsions:
REMARK  status: ('A' for Active; 'I' for Inactive)
ROOT
ATOM      1  C   UNL d   1       0.739  -0.405  -0.663  0.00  0.00     0.172 C 
ATOM      2  N   UNL d   1      -0.238   0.318   0.116  0.00  0.00    -0.070 N 
ATOM      3  C1  UNL d   1      -1.241   1.101  -0.389  0.00  0.00    -0.004 A 
ATOM      4  C2  UNL d   1      -1.953   1.612   0.675  0.00  0.00    -0.047 A 
ATOM      5  C3  UNL d   1      -1.357   1.120   1.860  0.00  0.00    -0.047 A 
ATOM      6  C4  UNL d   1      -0.297   0.321   1.485  0.00  0.00    -0.004 A 
ENDROOT
TORSDOF 0
ENDMDL
