MODEL 1
REMARK minimizedAffinity -3.92374063
REMARK minimizedRMSD -1
REMARK  0 active torsions:
REMARK  status: ('A' for Active; 'I' for Inactive)
ROOT
ATOM      1  C   UNL d   1      -0.166  -1.050  -0.623  0.00  0.00     0.172 C 
ATOM      2  N   UNL d   1      -0.654  -0.078   0.327  0.00  0.00    -0.070 N 
ATOM      3  C1  UNL d   1      -0.813   1.261   0.088  0.00  0.00    -0.004 A 
ATOM      4  C2  UNL d   1      -1.299   1.840   1.240  0.00  0.00    -0.047 A 
ATOM      5  C3  UNL d   1      -1.437   0.814   2.205  0.00  0.00    -0.047 A 
ATOM      6  C4  UNL d   1      -1.031  -0.363   1.613  0.00  0.00    -0.004 A 
ENDROOT
TORSDOF 0
ENDMDL
