MODEL 1
REMARK minimizedAffinity -3.73783875
REMARK minimizedRMSD -1
REMARK  0 active torsions:
REMARK  status: ('A' for Active; 'I' for Inactive)
ROOT
ATOM      1  C   UNL d   1      -0.246  -0.936  -0.310  0.00  0.00     0.172 C 
ATOM      2  N   UNL d   1      -0.783   0.080   0.564  0.00  0.00    -0.070 N 
ATOM      3  C1  UNL d   1      -1.856   0.884   0.288  0.00  0.00    -0.004 A 
ATOM      4  C2  UNL d   1      -2.051   1.715   1.370  0.00  0.00    -0.047 A 
ATOM      5  C3  UNL d   1      -1.060   1.399   2.330  0.00  0.00    -0.047 A 
ATOM      6  C4  UNL d   1      -0.289   0.383   1.805  0.00  0.00    -0.004 A 
ENDROOT
TORSDOF 0
ENDMDL
