MODEL 1
REMARK minimizedAffinity -4.23400307
REMARK minimizedRMSD -1
REMARK  0 active torsions:
REMARK  status: ('A' for Active; 'I' for Inactive)
ROOT
ATOM      1  C   UNL d   1       0.328  -0.627  -0.326  0.00  0.00     0.172 C 
ATOM      2  N   UNL d   1      -0.551   0.138   0.527  0.00  0.00    -0.070 N 
ATOM      3  C1  UNL d   1      -0.798  -0.114   1.851  0.00  0.00    -0.004 A 
ATOM      4  C2  UNL d   1      -1.687   0.837   2.303  0.00  0.00    -0.047 A 
ATOM      5  C3  UNL d   1      -1.986   1.689   1.213  0.00  0.00    -0.047 A 
ATOM      6  C4  UNL d   1      -1.269   1.234   0.127  0.00  0.00    -0.004 A 
ENDROOT
TORSDOF 0
ENDMDL
