MODEL 1
REMARK minimizedAffinity -3.94470668
REMARK minimizedRMSD -1
REMARK  0 active torsions:
REMARK  status: ('A' for Active; 'I' for Inactive)
ROOT
ATOM      1  C   UNL d   1       0.607  -0.068  -0.817  0.00  0.00     0.172 C 
ATOM      2  N   UNL d   1      -0.252   0.538   0.172  0.00  0.00    -0.070 N 
ATOM      3  C1  UNL d   1      -0.857   1.762   0.062  0.00  0.00    -0.004 A 
ATOM      4  C2  UNL d   1      -1.589   1.975   1.210  0.00  0.00    -0.047 A 
ATOM      5  C3  UNL d   1      -1.417   0.841   2.039  0.00  0.00    -0.047 A 
ATOM      6  C4  UNL d   1      -0.585  -0.033   1.372  0.00  0.00    -0.004 A 
ENDROOT
TORSDOF 0
ENDMDL
