MODEL 1
REMARK minimizedAffinity -3.51567197
REMARK minimizedRMSD -1
REMARK  0 active torsions:
REMARK  status: ('A' for Active; 'I' for Inactive)
ROOT
ATOM      1  C   UNL d   1      -0.373  -0.876   0.385  0.00  0.00     0.172 C 
ATOM      2  N   UNL d   1      -0.728   0.490   0.079  0.00  0.00    -0.070 N 
ATOM      3  C1  UNL d   1       0.001   1.349  -0.698  0.00  0.00    -0.004 A 
ATOM      4  C2  UNL d   1      -0.673   2.550  -0.746  0.00  0.00    -0.047 A 
ATOM      5  C3  UNL d   1      -1.848   2.408   0.030  0.00  0.00    -0.047 A 
ATOM      6  C4  UNL d   1      -1.856   1.123   0.529  0.00  0.00    -0.004 A 
ENDROOT
TORSDOF 0
ENDMDL
