MODEL 1
REMARK minimizedAffinity -4.10002851
REMARK minimizedRMSD -1
REMARK  0 active torsions:
REMARK  status: ('A' for Active; 'I' for Inactive)
ROOT
ATOM      1  C   UNL d   1       0.615  -0.581  -0.492  0.00  0.00     0.172 C 
ATOM      2  N   UNL d   1      -0.353   0.159   0.283  0.00  0.00    -0.070 N 
ATOM      3  C1  UNL d   1      -1.124   1.192  -0.179  0.00  0.00    -0.004 A 
ATOM      4  C2  UNL d   1      -1.914   1.627   0.863  0.00  0.00    -0.047 A 
ATOM      5  C3  UNL d   1      -1.606   0.829   1.990  0.00  0.00    -0.047 A 
ATOM      6  C4  UNL d   1      -0.636  -0.071   1.603  0.00  0.00    -0.004 A 
ENDROOT
TORSDOF 0
ENDMDL
