MODEL 1
REMARK minimizedAffinity -3.06516576
REMARK minimizedRMSD -1
REMARK  0 active torsions:
REMARK  status: ('A' for Active; 'I' for Inactive)
ROOT
ATOM      1  C   UNL d   1       0.284   0.737  -0.918  0.00  0.00     0.172 C 
ATOM      2  N   UNL d   1      -0.674   1.113   0.094  0.00  0.00    -0.070 N 
ATOM      3  C1  UNL d   1      -1.651   2.063  -0.044  0.00  0.00    -0.004 A 
ATOM      4  C2  UNL d   1      -2.352   2.123   1.140  0.00  0.00    -0.047 A 
ATOM      5  C3  UNL d   1      -1.776   1.177   2.022  0.00  0.00    -0.047 A 
ATOM      6  C4  UNL d   1      -0.739   0.566   1.349  0.00  0.00    -0.004 A 
ENDROOT
TORSDOF 0
ENDMDL
