MODEL 1
REMARK minimizedAffinity -3.80582237
REMARK minimizedRMSD -1
REMARK  0 active torsions:
REMARK  status: ('A' for Active; 'I' for Inactive)
ROOT
ATOM      1  C   UNL d   1      -1.821   1.849   1.494  0.00  0.00     0.172 C 
ATOM      2  N   UNL d   1      -0.908   1.051   0.709  0.00  0.00    -0.070 N 
ATOM      3  C1  UNL d   1      -0.327   1.431  -0.471  0.00  0.00    -0.004 A 
ATOM      4  C2  UNL d   1       0.474   0.395  -0.900  0.00  0.00    -0.047 A 
ATOM      5  C3  UNL d   1       0.369  -0.645   0.054  0.00  0.00    -0.047 A 
ATOM      6  C4  UNL d   1      -0.493  -0.212   1.040  0.00  0.00    -0.004 A 
ENDROOT
TORSDOF 0
ENDMDL
