MODEL 1
REMARK minimizedAffinity -3.69135809
REMARK minimizedRMSD -1
REMARK  0 active torsions:
REMARK  status: ('A' for Active; 'I' for Inactive)
ROOT
ATOM      1  C   UNL d   1       0.977  -0.450  -0.368  0.00  0.00     0.172 C 
ATOM      2  N   UNL d   1      -0.140   0.179   0.296  0.00  0.00    -0.070 N 
ATOM      3  C1  UNL d   1      -0.418   0.104   1.635  0.00  0.00    -0.004 A 
ATOM      4  C2  UNL d   1      -1.562   0.836   1.870  0.00  0.00    -0.047 A 
ATOM      5  C3  UNL d   1      -1.987   1.368   0.630  0.00  0.00    -0.047 A 
ATOM      6  C4  UNL d   1      -1.089   0.946  -0.328  0.00  0.00    -0.004 A 
ENDROOT
TORSDOF 0
ENDMDL
