MODEL 1
REMARK minimizedAffinity -2.02667546
REMARK minimizedRMSD -1
REMARK  0 active torsions:
REMARK  status: ('A' for Active; 'I' for Inactive)
ROOT
ATOM      1  C   UNL d   1      -1.876   2.016   1.149  0.00  0.00     0.172 C 
ATOM      2  N   UNL d   1      -0.978   1.111   0.471  0.00  0.00    -0.070 N 
ATOM      3  C1  UNL d   1      -1.131  -0.247   0.382  0.00  0.00    -0.004 A 
ATOM      4  C2  UNL d   1      -0.070  -0.745  -0.343  0.00  0.00    -0.047 A 
ATOM      5  C3  UNL d   1       0.749   0.352  -0.702  0.00  0.00    -0.047 A 
ATOM      6  C4  UNL d   1       0.163   1.488  -0.185  0.00  0.00    -0.004 A 
ENDROOT
TORSDOF 0
ENDMDL
