MODEL 1
REMARK minimizedAffinity -2.57201219
REMARK minimizedRMSD -1
REMARK  0 active torsions:
REMARK  status: ('A' for Active; 'I' for Inactive)
ROOT
ATOM      1  C   UNL d   1       0.529  -0.375  -0.576  0.00  0.00     0.172 C 
ATOM      2  N   UNL d   1      -0.325   0.361   0.326  0.00  0.00    -0.070 N 
ATOM      3  C1  UNL d   1      -1.012   1.505   0.020  0.00  0.00    -0.004 A 
ATOM      4  C2  UNL d   1      -1.707   1.894   1.145  0.00  0.00    -0.047 A 
ATOM      5  C3  UNL d   1      -1.427   0.952   2.162  0.00  0.00    -0.047 A 
ATOM      6  C4  UNL d   1      -0.569   0.014   1.629  0.00  0.00    -0.004 A 
ENDROOT
TORSDOF 0
ENDMDL
