MODEL 1
REMARK minimizedAffinity -1.26547265
REMARK minimizedRMSD -1
REMARK  0 active torsions:
REMARK  status: ('A' for Active; 'I' for Inactive)
ROOT
ATOM      1  C1  BNZ d   1      -4.246  -5.819   1.481  0.00  0.00     0.000 A 
ATOM      2  C2  BNZ d   1      -3.133  -6.000   0.704  0.00  0.00     0.000 A 
ATOM      3  C3  BNZ d   1      -2.563  -4.948   0.042  0.00  0.00     0.000 A 
ATOM      4  C4  BNZ d   1      -3.129  -3.727   0.125  0.00  0.00     0.000 A 
ATOM      5  C5  BNZ d   1      -4.257  -3.531   0.897  0.00  0.00     0.000 A 
ATOM      6  C6  BNZ d   1      -4.805  -4.583   1.593  0.00  0.00     0.000 A 
ENDROOT
TORSDOF 0
ENDMDL
