MODEL 1
REMARK minimizedAffinity -2.19574642
REMARK minimizedRMSD -1
REMARK  0 active torsions:
REMARK  status: ('A' for Active; 'I' for Inactive)
ROOT
ATOM      1  C1  BNZ d   1       0.703   4.123  -3.971  0.00  0.00     0.000 A 
ATOM      2  C2  BNZ d   1      -0.611   4.506  -3.981  0.00  0.00     0.000 A 
ATOM      3  C3  BNZ d   1      -1.114   5.257  -5.007  0.00  0.00     0.000 A 
ATOM      4  C4  BNZ d   1      -0.294   5.657  -5.999  0.00  0.00     0.000 A 
ATOM      5  C5  BNZ d   1       1.036   5.287  -5.999  0.00  0.00     0.000 A 
ATOM      6  C6  BNZ d   1       1.530   4.499  -4.985  0.00  0.00     0.000 A 
ENDROOT
TORSDOF 0
ENDMDL
