MODEL 1
REMARK minimizedAffinity 2.26050854
REMARK minimizedRMSD -1
REMARK  0 active torsions:
REMARK  status: ('A' for Active; 'I' for Inactive)
ROOT
ATOM      1  C1  BNZ d   1      -3.232  -5.814  -4.338  0.00  0.00     0.000 A 
ATOM      2  C2  BNZ d   1      -3.613  -5.898  -5.651  0.00  0.00     0.000 A 
ATOM      3  C3  BNZ d   1      -4.935  -5.928  -5.996  0.00  0.00     0.000 A 
ATOM      4  C4  BNZ d   1      -5.873  -5.915  -5.027  0.00  0.00     0.000 A 
ATOM      5  C5  BNZ d   1      -5.505  -5.840  -3.698  0.00  0.00     0.000 A 
ATOM      6  C6  BNZ d   1      -4.174  -5.771  -3.357  0.00  0.00     0.000 A 
ENDROOT
TORSDOF 0
ENDMDL
