MODEL 1
REMARK minimizedAffinity -1.13273048
REMARK minimizedRMSD -1
REMARK  0 active torsions:
REMARK  status: ('A' for Active; 'I' for Inactive)
ROOT
ATOM      1  C1  BNZ d   1      -4.552  -5.812  -6.000  0.00  0.00     0.000 A 
ATOM      2  C2  BNZ d   1      -3.182  -5.788  -5.982  0.00  0.00     0.000 A 
ATOM      3  C3  BNZ d   1      -2.495  -5.894  -4.805  0.00  0.00     0.000 A 
ATOM      4  C4  BNZ d   1      -3.177  -5.982  -3.645  0.00  0.00     0.000 A 
ATOM      5  C5  BNZ d   1      -4.558  -5.997  -3.645  0.00  0.00     0.000 A 
ATOM      6  C6  BNZ d   1      -5.246  -5.930  -4.835  0.00  0.00     0.000 A 
ENDROOT
TORSDOF 0
ENDMDL
