MODEL 1
REMARK minimizedAffinity -1.1711998
REMARK minimizedRMSD -1
REMARK  0 active torsions:
REMARK  status: ('A' for Active; 'I' for Inactive)
ROOT
ATOM      1  C1  BNZ d   1      -3.027  -5.965  -5.986  0.00  0.00     0.000 A 
ATOM      2  C2  BNZ d   1      -4.396  -5.998  -5.997  0.00  0.00     0.000 A 
ATOM      3  C3  BNZ d   1      -5.106  -5.995  -4.828  0.00  0.00     0.000 A 
ATOM      4  C4  BNZ d   1      -4.446  -6.000  -3.652  0.00  0.00     0.000 A 
ATOM      5  C5  BNZ d   1      -3.066  -5.977  -3.625  0.00  0.00     0.000 A 
ATOM      6  C6  BNZ d   1      -2.355  -5.941  -4.803  0.00  0.00     0.000 A 
ENDROOT
TORSDOF 0
ENDMDL
