MODEL 1
REMARK minimizedAffinity 0.575889647
REMARK minimizedRMSD -1
REMARK  0 active torsions:
REMARK  status: ('A' for Active; 'I' for Inactive)
ROOT
ATOM      1  C1  BNZ d   1      -5.957  -0.855  -3.984  0.00  0.00     0.000 A 
ATOM      2  C2  BNZ d   1      -5.949   0.320  -3.281  0.00  0.00     0.000 A 
ATOM      3  C3  BNZ d   1      -5.990   1.524  -3.928  0.00  0.00     0.000 A 
ATOM      4  C4  BNZ d   1      -6.000   1.551  -5.277  0.00  0.00     0.000 A 
ATOM      5  C5  BNZ d   1      -6.000   0.375  -6.000  0.00  0.00     0.000 A 
ATOM      6  C6  BNZ d   1      -5.997  -0.835  -5.344  0.00  0.00     0.000 A 
ENDROOT
TORSDOF 0
ENDMDL
