MODEL 1
REMARK minimizedAffinity 0.0604969785
REMARK minimizedRMSD -1
REMARK  0 active torsions:
REMARK  status: ('A' for Active; 'I' for Inactive)
ROOT
ATOM      1  C1  BNZ d   1      -3.814  -0.964   2.625  0.00  0.00     0.000 A 
ATOM      2  C2  BNZ d   1      -4.306  -0.673   3.869  0.00  0.00     0.000 A 
ATOM      3  C3  BNZ d   1      -3.500  -0.134   4.832  0.00  0.00     0.000 A 
ATOM      4  C4  BNZ d   1      -2.195   0.076   4.563  0.00  0.00     0.000 A 
ATOM      5  C5  BNZ d   1      -1.682  -0.221   3.317  0.00  0.00     0.000 A 
ATOM      6  C6  BNZ d   1      -2.505  -0.728   2.337  0.00  0.00     0.000 A 
ENDROOT
TORSDOF 0
ENDMDL
