MODEL 1
REMARK minimizedAffinity -3.50876546
REMARK minimizedRMSD -1
REMARK  0 active torsions:
REMARK  status: ('A' for Active; 'I' for Inactive)
ROOT
ATOM      1  C1  BNZ d   1      -4.066  -1.127   4.485  0.00  0.00     0.000 A 
ATOM      2  C2  BNZ d   1      -4.012  -1.460   3.158  0.00  0.00     0.000 A 
ATOM      3  C3  BNZ d   1      -2.907  -1.167   2.407  0.00  0.00     0.000 A 
ATOM      4  C4  BNZ d   1      -1.876  -0.508   2.974  0.00  0.00     0.000 A 
ATOM      5  C5  BNZ d   1      -1.920  -0.157   4.309  0.00  0.00     0.000 A 
ATOM      6  C6  BNZ d   1      -3.017  -0.487   5.070  0.00  0.00     0.000 A 
ENDROOT
TORSDOF 0
ENDMDL
