MODEL 1
REMARK minimizedAffinity -1.45665431
REMARK minimizedRMSD -1
REMARK  0 active torsions:
REMARK  status: ('A' for Active; 'I' for Inactive)
ROOT
ATOM      1  C1  BNZ d   1      -4.280  -1.656   2.688  0.00  0.00     0.000 A 
ATOM      2  C2  BNZ d   1      -4.154  -0.920   3.835  0.00  0.00     0.000 A 
ATOM      3  C3  BNZ d   1      -2.939  -0.423   4.218  0.00  0.00     0.000 A 
ATOM      4  C4  BNZ d   1      -1.847  -0.697   3.475  0.00  0.00     0.000 A 
ATOM      5  C5  BNZ d   1      -1.957  -1.446   2.320  0.00  0.00     0.000 A 
ATOM      6  C6  BNZ d   1      -3.188  -1.911   1.918  0.00  0.00     0.000 A 
ENDROOT
TORSDOF 0
ENDMDL
