MODEL 1
REMARK minimizedAffinity 2.45061731
REMARK minimizedRMSD -1
REMARK  0 active torsions:
REMARK  status: ('A' for Active; 'I' for Inactive)
ROOT
ATOM      1  C1  BNZ d   1      -5.966   1.172  -0.950  0.00  0.00     0.000 A 
ATOM      2  C2  BNZ d   1      -5.963   1.815   0.259  0.00  0.00     0.000 A 
ATOM      3  C3  BNZ d   1      -6.000   3.180   0.326  0.00  0.00     0.000 A 
ATOM      4  C4  BNZ d   1      -5.998   3.900  -0.815  0.00  0.00     0.000 A 
ATOM      5  C5  BNZ d   1      -5.991   3.266  -2.042  0.00  0.00     0.000 A 
ATOM      6  C6  BNZ d   1      -5.994   1.892  -2.105  0.00  0.00     0.000 A 
ENDROOT
TORSDOF 0
ENDMDL
