MODEL 1
REMARK minimizedAffinity 3.50299621
REMARK minimizedRMSD -1
REMARK  0 active torsions:
REMARK  status: ('A' for Active; 'I' for Inactive)
ROOT
ATOM      1  C1  BNZ d   1      -0.613   5.398  -5.993  0.00  0.00     0.000 A 
ATOM      2  C2  BNZ d   1      -0.934   6.000  -4.805  0.00  0.00     0.000 A 
ATOM      3  C3  BNZ d   1      -0.718   5.361  -3.616  0.00  0.00     0.000 A 
ATOM      4  C4  BNZ d   1      -0.219   4.108  -3.617  0.00  0.00     0.000 A 
ATOM      5  C5  BNZ d   1       0.101   3.485  -4.807  0.00  0.00     0.000 A 
ATOM      6  C6  BNZ d   1      -0.081   4.145  -6.000  0.00  0.00     0.000 A 
ENDROOT
TORSDOF 0
ENDMDL
