MODEL 1
REMARK minimizedAffinity 0.816551566
REMARK minimizedRMSD -1
REMARK  0 active torsions:
REMARK  status: ('A' for Active; 'I' for Inactive)
ROOT
ATOM      1  C1  BNZ d   1      -5.990   1.945  -1.735  0.00  0.00     0.000 A 
ATOM      2  C2  BNZ d   1      -5.986   1.683  -3.079  0.00  0.00     0.000 A 
ATOM      3  C3  BNZ d   1      -5.998   0.397  -3.542  0.00  0.00     0.000 A 
ATOM      4  C4  BNZ d   1      -5.973  -0.624  -2.662  0.00  0.00     0.000 A 
ATOM      5  C5  BNZ d   1      -5.966  -0.377  -1.304  0.00  0.00     0.000 A 
ATOM      6  C6  BNZ d   1      -5.994   0.918  -0.841  0.00  0.00     0.000 A 
ENDROOT
TORSDOF 0
ENDMDL
