MODEL 1
REMARK minimizedAffinity 0.416846097
REMARK minimizedRMSD -1
REMARK  0 active torsions:
REMARK  status: ('A' for Active; 'I' for Inactive)
ROOT
ATOM      1  C1  BNZ d   1      -3.235  -1.135   2.678  0.00  0.00     0.000 A 
ATOM      2  C2  BNZ d   1      -3.151  -1.775   1.470  0.00  0.00     0.000 A 
ATOM      3  C3  BNZ d   1      -4.102  -2.680   1.090  0.00  0.00     0.000 A 
ATOM      4  C4  BNZ d   1      -5.112  -2.974   1.934  0.00  0.00     0.000 A 
ATOM      5  C5  BNZ d   1      -5.205  -2.344   3.159  0.00  0.00     0.000 A 
ATOM      6  C6  BNZ d   1      -4.268  -1.405   3.522  0.00  0.00     0.000 A 
ENDROOT
TORSDOF 0
ENDMDL
