MODEL 1
REMARK minimizedAffinity 0.526822627
REMARK minimizedRMSD -1
REMARK  0 active torsions:
REMARK  status: ('A' for Active; 'I' for Inactive)
ROOT
ATOM      1  C1  BNZ d   1      -1.432   4.911  -5.999  0.00  0.00     0.000 A 
ATOM      2  C2  BNZ d   1      -0.614   3.813  -5.995  0.00  0.00     0.000 A 
ATOM      3  C3  BNZ d   1       0.518   3.786  -5.231  0.00  0.00     0.000 A 
ATOM      4  C4  BNZ d   1       0.853   4.872  -4.503  0.00  0.00     0.000 A 
ATOM      5  C5  BNZ d   1       0.044   5.990  -4.504  0.00  0.00     0.000 A 
ATOM      6  C6  BNZ d   1      -1.116   5.999  -5.245  0.00  0.00     0.000 A 
ENDROOT
TORSDOF 0
ENDMDL
