MODEL 1
REMARK minimizedAffinity 16.2620678
REMARK minimizedRMSD -1
REMARK  0 active torsions:
REMARK  status: ('A' for Active; 'I' for Inactive)
ROOT
ATOM      1  O1  BZF d   1       0.016   0.605   3.400  0.00  0.00    -0.204 OA
ATOM      2  C2  BZF d   1      -0.326  -0.080   2.250  0.00  0.00     0.174 A 
ATOM      3  C3  BZF d   1       0.197  -1.323   2.260  0.00  0.00    -0.012 A 
ATOM      4  C3A BZF d   1       0.833  -1.454   3.535  0.00  0.00    -0.107 A 
ATOM      5  C4  BZF d   1       1.515  -2.467   4.145  0.00  0.00     0.055 A 
ATOM      6  C5  BZF d   1       2.073  -2.248   5.364  0.00  0.00    -0.016 A 
ATOM      7  C6  BZF d   1       1.973  -1.028   6.000  0.00  0.00     0.022 A 
ATOM      8  C7  BZF d   1       1.302   0.006   5.437  0.00  0.00     0.029 A 
ATOM      9  C7A BZF d   1       0.708  -0.222   4.220  0.00  0.00     0.058 A 
ENDROOT
TORSDOF 0
ENDMDL
