MODEL 1
REMARK minimizedAffinity 3.08503103
REMARK minimizedRMSD -1
REMARK  0 active torsions:
REMARK  status: ('A' for Active; 'I' for Inactive)
ROOT
ATOM      1  O1  BZF d   1       1.183  -4.275  -2.269  0.00  0.00    -0.204 OA
ATOM      2  C2  BZF d   1       2.249  -5.154  -2.275  0.00  0.00     0.174 A 
ATOM      3  C3  BZF d   1       2.165  -5.999  -3.323  0.00  0.00    -0.012 A 
ATOM      4  C3A BZF d   1       1.022  -5.566  -4.066  0.00  0.00    -0.107 A 
ATOM      5  C4  BZF d   1       0.433  -5.999  -5.219  0.00  0.00     0.055 A 
ATOM      6  C5  BZF d   1      -0.715  -5.404  -5.638  0.00  0.00    -0.016 A 
ATOM      7  C6  BZF d   1      -1.303  -4.380  -4.926  0.00  0.00     0.022 A 
ATOM      8  C7  BZF d   1      -0.753  -3.913  -3.779  0.00  0.00     0.029 A 
ATOM      9  C7A BZF d   1       0.425  -4.489  -3.371  0.00  0.00     0.058 A 
ENDROOT
TORSDOF 0
ENDMDL
