MODEL 1
REMARK minimizedAffinity 7.62839651
REMARK minimizedRMSD -1
REMARK  0 active torsions:
REMARK  status: ('A' for Active; 'I' for Inactive)
ROOT
ATOM      1  O1  BZF d   1       2.515  -3.040  -2.640  0.00  0.00    -0.204 OA
ATOM      2  C2  BZF d   1       1.377  -3.774  -2.366  0.00  0.00     0.174 A 
ATOM      3  C3  BZF d   1       0.408  -3.506  -3.265  0.00  0.00    -0.012 A 
ATOM      4  C3A BZF d   1       1.007  -2.614  -4.210  0.00  0.00    -0.107 A 
ATOM      5  C4  BZF d   1       0.552  -2.005  -5.345  0.00  0.00     0.055 A 
ATOM      6  C5  BZF d   1       1.366  -1.135  -5.998  0.00  0.00    -0.016 A 
ATOM      7  C6  BZF d   1       2.636  -0.847  -5.543  0.00  0.00     0.022 A 
ATOM      8  C7  BZF d   1       3.133  -1.431  -4.425  0.00  0.00     0.029 A 
ATOM      9  C7A BZF d   1       2.325  -2.335  -3.781  0.00  0.00     0.058 A 
ENDROOT
TORSDOF 0
ENDMDL
