MODEL 1
REMARK minimizedAffinity 1.66974723
REMARK minimizedRMSD -1
REMARK  0 active torsions:
REMARK  status: ('A' for Active; 'I' for Inactive)
ROOT
ATOM      1  O1  BZF d   1       0.123  -2.675   3.955  0.00  0.00    -0.204 OA
ATOM      2  C2  BZF d   1       1.322  -2.030   4.189  0.00  0.00     0.174 A 
ATOM      3  C3  BZF d   1       1.305  -0.785   3.672  0.00  0.00    -0.012 A 
ATOM      4  C3A BZF d   1      -0.019  -0.610   3.158  0.00  0.00    -0.107 A 
ATOM      5  C4  BZF d   1      -0.656   0.427   2.537  0.00  0.00     0.055 A 
ATOM      6  C5  BZF d   1      -1.929   0.250   2.095  0.00  0.00    -0.016 A 
ATOM      7  C6  BZF d   1      -2.592  -0.949   2.252  0.00  0.00     0.022 A 
ATOM      8  C7  BZF d   1      -2.004  -2.004   2.866  0.00  0.00     0.029 A 
ATOM      9  C7A BZF d   1      -0.729  -1.818   3.344  0.00  0.00     0.058 A 
ENDROOT
TORSDOF 0
ENDMDL
