MODEL 1
REMARK minimizedAffinity 6.65296888
REMARK minimizedRMSD -1
REMARK  0 active torsions:
REMARK  status: ('A' for Active; 'I' for Inactive)
ROOT
ATOM      1  O1  BZF d   1       2.102  -2.026   2.267  0.00  0.00    -0.204 OA
ATOM      2  C2  BZF d   1       0.800  -1.582   2.131  0.00  0.00     0.174 A 
ATOM      3  C3  BZF d   1       0.411  -0.898   3.226  0.00  0.00    -0.012 A 
ATOM      4  C3A BZF d   1       1.570  -0.835   4.062  0.00  0.00    -0.107 A 
ATOM      5  C4  BZF d   1       1.819  -0.271   5.281  0.00  0.00     0.055 A 
ATOM      6  C5  BZF d   1       3.037  -0.453   5.857  0.00  0.00    -0.016 A 
ATOM      7  C6  BZF d   1       4.025  -1.196   5.245  0.00  0.00     0.022 A 
ATOM      8  C7  BZF d   1       3.827  -1.771   4.034  0.00  0.00     0.029 A 
ATOM      9  C7A BZF d   1       2.609  -1.561   3.435  0.00  0.00     0.058 A 
ENDROOT
TORSDOF 0
ENDMDL
