MODEL 1
REMARK minimizedAffinity 10.1653204
REMARK minimizedRMSD -1
REMARK  0 active torsions:
REMARK  status: ('A' for Active; 'I' for Inactive)
ROOT
ATOM      1  O1  BZF d   1       6.000  -2.385  -5.137  0.00  0.00    -0.204 OA
ATOM      2  C2  BZF d   1       5.011  -2.832  -5.991  0.00  0.00     0.174 A 
ATOM      3  C3  BZF d   1       3.809  -2.825  -5.378  0.00  0.00    -0.012 A 
ATOM      4  C3A BZF d   1       4.049  -2.257  -4.087  0.00  0.00    -0.107 A 
ATOM      5  C4  BZF d   1       3.243  -1.972  -3.022  0.00  0.00     0.055 A 
ATOM      6  C5  BZF d   1       3.801  -1.488  -1.882  0.00  0.00    -0.016 A 
ATOM      7  C6  BZF d   1       5.161  -1.281  -1.770  0.00  0.00     0.022 A 
ATOM      8  C7  BZF d   1       6.000  -1.544  -2.802  0.00  0.00     0.029 A 
ATOM      9  C7A BZF d   1       5.435  -2.002  -3.966  0.00  0.00     0.058 A 
ENDROOT
TORSDOF 0
ENDMDL
