MODEL 1
REMARK minimizedAffinity 8.14033413
REMARK minimizedRMSD -1
REMARK  0 active torsions:
REMARK  status: ('A' for Active; 'I' for Inactive)
ROOT
ATOM      1  O1  BZF d   1       3.382   0.686   1.036  0.00  0.00    -0.204 OA
ATOM      2  C2  BZF d   1       3.060  -0.571   1.509  0.00  0.00     0.174 A 
ATOM      3  C3  BZF d   1       1.833  -0.573   2.067  0.00  0.00    -0.012 A 
ATOM      4  C3A BZF d   1       1.320   0.746   1.853  0.00  0.00    -0.107 A 
ATOM      5  C4  BZF d   1       0.139   1.356   2.165  0.00  0.00     0.055 A 
ATOM      6  C5  BZF d   1      -0.017   2.676   1.880  0.00  0.00    -0.016 A 
ATOM      7  C6  BZF d   1       0.986   3.415   1.289  0.00  0.00     0.022 A 
ATOM      8  C7  BZF d   1       2.173   2.852   0.956  0.00  0.00     0.029 A 
ATOM      9  C7A BZF d   1       2.322   1.511   1.212  0.00  0.00     0.058 A 
ENDROOT
TORSDOF 0
ENDMDL
