MODEL 1
REMARK minimizedAffinity 3.82783365
REMARK minimizedRMSD -1
REMARK  0 active torsions:
REMARK  status: ('A' for Active; 'I' for Inactive)
ROOT
ATOM      1  O1  BZF d   1      -1.759  -5.157  -1.676  0.00  0.00    -0.204 OA
ATOM      2  C2  BZF d   1      -2.316  -4.039  -1.087  0.00  0.00     0.174 A 
ATOM      3  C3  BZF d   1      -1.453  -3.003  -1.115  0.00  0.00    -0.012 A 
ATOM      4  C3A BZF d   1      -0.318  -3.478  -1.845  0.00  0.00    -0.107 A 
ATOM      5  C4  BZF d   1       0.863  -2.907  -2.221  0.00  0.00     0.055 A 
ATOM      6  C5  BZF d   1       1.790  -3.666  -2.863  0.00  0.00    -0.016 A 
ATOM      7  C6  BZF d   1       1.570  -4.999  -3.141  0.00  0.00     0.022 A 
ATOM      8  C7  BZF d   1       0.411  -5.609  -2.792  0.00  0.00     0.029 A 
ATOM      9  C7A BZF d   1      -0.540  -4.836  -2.173  0.00  0.00     0.058 A 
ENDROOT
TORSDOF 0
ENDMDL
