MODEL 1
REMARK minimizedAffinity -1.67553711
REMARK minimizedRMSD -1
REMARK  0 active torsions:
REMARK  status: ('A' for Active; 'I' for Inactive)
ROOT
ATOM      1  O1  BZF d   1      -1.079  -0.447   2.267  0.00  0.00    -0.204 OA
ATOM      2  C2  BZF d   1      -0.027  -0.857   3.063  0.00  0.00     0.174 A 
ATOM      3  C3  BZF d   1       1.068  -1.108   2.317  0.00  0.00    -0.012 A 
ATOM      4  C3A BZF d   1       0.703  -0.750   0.980  0.00  0.00    -0.107 A 
ATOM      5  C4  BZF d   1       1.371  -0.761  -0.210  0.00  0.00     0.055 A 
ATOM      6  C5  BZF d   1       0.706  -0.419  -1.345  0.00  0.00    -0.016 A 
ATOM      7  C6  BZF d   1      -0.628  -0.066  -1.326  0.00  0.00     0.022 A 
ATOM      8  C7  BZF d   1      -1.332  -0.036  -0.168  0.00  0.00     0.029 A 
ATOM      9  C7A BZF d   1      -0.653  -0.349   0.984  0.00  0.00     0.058 A 
ENDROOT
TORSDOF 0
ENDMDL
