MODEL 1
REMARK minimizedAffinity -4.97706127
REMARK minimizedRMSD -1
REMARK  0 active torsions:
REMARK  status: ('A' for Active; 'I' for Inactive)
ROOT
ATOM      1  O1  BZF d   1      -1.376   0.327   0.743  0.00  0.00    -0.204 OA
ATOM      2  C2  BZF d   1      -1.031   0.716  -0.537  0.00  0.00     0.174 A 
ATOM      3  C3  BZF d   1       0.289   0.544  -0.750  0.00  0.00    -0.012 A 
ATOM      4  C3A BZF d   1       0.786  -0.072   0.442  0.00  0.00    -0.107 A 
ATOM      5  C4  BZF d   1       2.021  -0.505   0.831  0.00  0.00     0.055 A 
ATOM      6  C5  BZF d   1       2.184  -0.994   2.089  0.00  0.00    -0.016 A 
ATOM      7  C6  BZF d   1       1.136  -1.061   2.983  0.00  0.00     0.022 A 
ATOM      8  C7  BZF d   1      -0.109  -0.648   2.641  0.00  0.00     0.029 A 
ATOM      9  C7A BZF d   1      -0.284  -0.184   1.361  0.00  0.00     0.058 A 
ENDROOT
TORSDOF 0
ENDMDL
