MODEL 1
REMARK minimizedAffinity -1.7158426
REMARK minimizedRMSD -1
REMARK  0 active torsions:
REMARK  status: ('A' for Active; 'I' for Inactive)
ROOT
ATOM      1  O1  BZF d   1       1.060   0.123  -0.447  0.00  0.00    -0.204 OA
ATOM      2  C2  BZF d   1      -0.169   0.425  -1.002  0.00  0.00     0.174 A 
ATOM      3  C3  BZF d   1      -1.162   0.192  -0.119  0.00  0.00    -0.012 A 
ATOM      4  C3A BZF d   1      -0.506  -0.198   1.091  0.00  0.00    -0.107 A 
ATOM      5  C4  BZF d   1      -0.955  -0.543   2.333  0.00  0.00     0.055 A 
ATOM      6  C5  BZF d   1      -0.059  -0.942   3.273  0.00  0.00    -0.016 A 
ATOM      7  C6  BZF d   1       1.293  -1.012   3.004  0.00  0.00     0.022 A 
ATOM      8  C7  BZF d   1       1.787  -0.675   1.788  0.00  0.00     0.029 A 
ATOM      9  C7A BZF d   1       0.886  -0.240   0.846  0.00  0.00     0.058 A 
ENDROOT
TORSDOF 0
ENDMDL
