MODEL 1
REMARK minimizedAffinity -3.4503777
REMARK minimizedRMSD -1
REMARK  0 active torsions:
REMARK  status: ('A' for Active; 'I' for Inactive)
ROOT
ATOM      1  O1  BZF d   1       1.427   1.200  -0.032  0.00  0.00    -0.204 OA
ATOM      2  C2  BZF d   1       0.270   1.369  -0.768  0.00  0.00     0.174 A 
ATOM      3  C3  BZF d   1      -0.752   0.683  -0.218  0.00  0.00    -0.012 A 
ATOM      4  C3A BZF d   1      -0.222   0.119   0.985  0.00  0.00    -0.107 A 
ATOM      5  C4  BZF d   1      -0.757  -0.656   1.975  0.00  0.00     0.055 A 
ATOM      6  C5  BZF d   1       0.049  -1.098   2.976  0.00  0.00    -0.016 A 
ATOM      7  C6  BZF d   1       1.393  -0.790   3.016  0.00  0.00     0.022 A 
ATOM      8  C7  BZF d   1       1.968  -0.021   2.060  0.00  0.00     0.029 A 
ATOM      9  C7A BZF d   1       1.150   0.455   1.065  0.00  0.00     0.058 A 
ENDROOT
TORSDOF 0
ENDMDL
