MODEL 1
REMARK minimizedAffinity -4.18797827
REMARK minimizedRMSD -1
REMARK  0 active torsions:
REMARK  status: ('A' for Active; 'I' for Inactive)
ROOT
ATOM      1  O1  BZF d   1       0.918  -0.050  -0.968  0.00  0.00    -0.204 OA
ATOM      2  C2  BZF d   1      -0.347   0.334  -1.372  0.00  0.00     0.174 A 
ATOM      3  C3  BZF d   1      -1.209   0.306  -0.336  0.00  0.00    -0.012 A 
ATOM      4  C3A BZF d   1      -0.415  -0.034   0.805  0.00  0.00    -0.107 A 
ATOM      5  C4  BZF d   1      -0.699  -0.199   2.131  0.00  0.00     0.055 A 
ATOM      6  C5  BZF d   1       0.289  -0.603   2.972  0.00  0.00    -0.016 A 
ATOM      7  C6  BZF d   1       1.569  -0.854   2.522  0.00  0.00     0.022 A 
ATOM      8  C7  BZF d   1       1.899  -0.699   1.217  0.00  0.00     0.029 A 
ATOM      9  C7A BZF d   1       0.911  -0.259   0.370  0.00  0.00     0.058 A 
ENDROOT
TORSDOF 0
ENDMDL
