MODEL 1
REMARK minimizedAffinity -0.371180594
REMARK minimizedRMSD -1
REMARK  0 active torsions:
REMARK  status: ('A' for Active; 'I' for Inactive)
ROOT
ATOM      1  O1  BZF d   1       1.167  -0.429  -0.919  0.00  0.00    -0.204 OA
ATOM      2  C2  BZF d   1       0.309   0.215  -1.789  0.00  0.00     0.174 A 
ATOM      3  C3  BZF d   1      -0.818   0.596  -1.156  0.00  0.00    -0.012 A 
ATOM      4  C3A BZF d   1      -0.616   0.246   0.217  0.00  0.00    -0.107 A 
ATOM      5  C4  BZF d   1      -1.374   0.386   1.343  0.00  0.00     0.055 A 
ATOM      6  C5  BZF d   1      -0.917  -0.128   2.516  0.00  0.00    -0.016 A 
ATOM      7  C6  BZF d   1       0.289  -0.791   2.596  0.00  0.00     0.022 A 
ATOM      8  C7  BZF d   1       1.079  -0.951   1.506  0.00  0.00     0.029 A 
ATOM      9  C7A BZF d   1       0.635  -0.404   0.327  0.00  0.00     0.058 A 
ENDROOT
TORSDOF 0
ENDMDL
