MODEL 1
REMARK minimizedAffinity -4.8717885
REMARK minimizedRMSD -1
REMARK  0 active torsions:
REMARK  status: ('A' for Active; 'I' for Inactive)
ROOT
ATOM      1  O1  BZF d   1       1.969  -0.825   1.756  0.00  0.00    -0.204 OA
ATOM      2  C2  BZF d   1       1.404  -1.078   2.991  0.00  0.00     0.174 A 
ATOM      3  C3  BZF d   1       0.101  -0.728   3.002  0.00  0.00    -0.012 A 
ATOM      4  C3A BZF d   1      -0.187  -0.311   1.664  0.00  0.00    -0.107 A 
ATOM      5  C4  BZF d   1      -1.318   0.137   1.044  0.00  0.00     0.055 A 
ATOM      6  C5  BZF d   1      -1.247   0.532  -0.255  0.00  0.00    -0.016 A 
ATOM      7  C6  BZF d   1      -0.062   0.497  -0.960  0.00  0.00     0.022 A 
ATOM      8  C7  BZF d   1       1.085   0.056  -0.389  0.00  0.00     0.029 A 
ATOM      9  C7A BZF d   1       1.009  -0.375   0.913  0.00  0.00     0.058 A 
ENDROOT
TORSDOF 0
ENDMDL
