MODEL 1
REMARK minimizedAffinity -2.29974318
REMARK minimizedRMSD -1
REMARK  0 active torsions:
REMARK  status: ('A' for Active; 'I' for Inactive)
ROOT
ATOM      1  O1  BZF d   1       0.244   0.349  -0.918  0.00  0.00    -0.204 OA
ATOM      2  C2  BZF d   1      -1.117   0.582  -0.952  0.00  0.00     0.174 A 
ATOM      3  C3  BZF d   1      -1.694   0.216   0.211  0.00  0.00    -0.012 A 
ATOM      4  C3A BZF d   1      -0.613  -0.190   1.056  0.00  0.00    -0.107 A 
ATOM      5  C4  BZF d   1      -0.547  -0.645   2.342  0.00  0.00     0.055 A 
ATOM      6  C5  BZF d   1       0.656  -1.024   2.846  0.00  0.00    -0.016 A 
ATOM      7  C6  BZF d   1       1.811  -0.967   2.093  0.00  0.00     0.022 A 
ATOM      8  C7  BZF d   1       1.795  -0.519   0.814  0.00  0.00     0.029 A 
ATOM      9  C7A BZF d   1       0.586  -0.103   0.312  0.00  0.00     0.058 A 
ENDROOT
TORSDOF 0
ENDMDL
