MODEL 1
REMARK minimizedAffinity -3.11516285
REMARK minimizedRMSD -1
REMARK  0 active torsions:
REMARK  status: ('A' for Active; 'I' for Inactive)
ROOT
ATOM      1  O1  BZF d   1       2.174  -1.300   1.353  0.00  0.00    -0.204 OA
ATOM      2  C2  BZF d   1       1.498  -1.063   2.534  0.00  0.00     0.174 A 
ATOM      3  C3  BZF d   1       0.323  -0.445   2.297  0.00  0.00    -0.012 A 
ATOM      4  C3A BZF d   1       0.218  -0.369   0.873  0.00  0.00    -0.107 A 
ATOM      5  C4  BZF d   1      -0.733   0.125   0.026  0.00  0.00     0.055 A 
ATOM      6  C5  BZF d   1      -0.498   0.112  -1.312  0.00  0.00    -0.016 A 
ATOM      7  C6  BZF d   1       0.678  -0.382  -1.837  0.00  0.00     0.022 A 
ATOM      8  C7  BZF d   1       1.650  -0.887  -1.038  0.00  0.00     0.029 A 
ATOM      9  C7A BZF d   1       1.401  -0.905   0.313  0.00  0.00     0.058 A 
ENDROOT
TORSDOF 0
ENDMDL
