MODEL 1
REMARK minimizedAffinity -3.82342315
REMARK minimizedRMSD -1
REMARK  0 active torsions:
REMARK  status: ('A' for Active; 'I' for Inactive)
ROOT
ATOM      1  O1  BZF d   1       1.977  -1.483   2.384  0.00  0.00    -0.204 OA
ATOM      2  C2  BZF d   1       1.303  -1.616   3.582  0.00  0.00     0.174 A 
ATOM      3  C3  BZF d   1       0.034  -1.173   3.469  0.00  0.00    -0.012 A 
ATOM      4  C3A BZF d   1      -0.120  -0.822   2.091  0.00  0.00    -0.107 A 
ATOM      5  C4  BZF d   1      -1.164  -0.334   1.358  0.00  0.00     0.055 A 
ATOM      6  C5  BZF d   1      -0.966  -0.028   0.049  0.00  0.00    -0.016 A 
ATOM      7  C6  BZF d   1       0.262  -0.192  -0.557  0.00  0.00     0.022 A 
ATOM      8  C7  BZF d   1       1.326  -0.678   0.128  0.00  0.00     0.029 A 
ATOM      9  C7A BZF d   1       1.120  -1.019   1.442  0.00  0.00     0.058 A 
ENDROOT
TORSDOF 0
ENDMDL
