MODEL 1
REMARK minimizedAffinity 12.3946676
REMARK minimizedRMSD -1
REMARK  0 active torsions:
REMARK  status: ('A' for Active; 'I' for Inactive)
ROOT
ATOM      1  C   UNL d   1      -2.610   0.102  -2.259  0.00  0.00     0.124 A 
ATOM      2  C1  UNL d   1      -1.582  -0.828  -2.200  0.00  0.00     0.062 A 
ATOM      3  C2  UNL d   1      -0.461  -0.584  -1.412  0.00  0.00     0.162 A 
ATOM      4  C3  UNL d   1      -0.363   0.597  -0.675  0.00  0.00    -0.034 A 
ATOM      5  C4  UNL d   1      -1.400   1.529  -0.741  0.00  0.00     0.162 A 
ATOM      6  C5  UNL d   1      -2.518   1.280  -1.530  0.00  0.00     0.062 A 
ATOM      7  F   UNL d   1      -3.511   2.180  -1.587  0.00  0.00    -0.097 F 
ATOM      8  F1  UNL d   1      -1.338   2.674  -0.046  0.00  0.00    -0.096 F 
ATOM      9  I   UNL d   1       1.311   0.967   0.504  0.00  0.00    -0.060 I 
ATOM     10  F2  UNL d   1       0.517  -1.501  -1.373  0.00  0.00    -0.096 F 
ATOM     11  F3  UNL d   1      -1.668  -1.966  -2.904  0.00  0.00    -0.097 F 
ATOM     12  F4  UNL d   1      -3.687  -0.135  -3.019  0.00  0.00    -0.092 F 
ENDROOT
TORSDOF 0
ENDMDL
