MODEL 1
REMARK minimizedAffinity -0.00243886258
REMARK minimizedRMSD -1
REMARK  0 active torsions:
REMARK  status: ('A' for Active; 'I' for Inactive)
ROOT
ATOM      1  C   UNL d   1      -2.390  -0.164  -2.862  0.00  0.00     0.124 A 
ATOM      2  C1  UNL d   1      -2.626   0.426  -1.628  0.00  0.00     0.062 A 
ATOM      3  C2  UNL d   1      -1.841   0.090  -0.529  0.00  0.00     0.162 A 
ATOM      4  C3  UNL d   1      -0.811  -0.842  -0.659  0.00  0.00    -0.034 A 
ATOM      5  C4  UNL d   1      -0.580  -1.432  -1.903  0.00  0.00     0.162 A 
ATOM      6  C5  UNL d   1      -1.368  -1.092  -2.998  0.00  0.00     0.062 A 
ATOM      7  F   UNL d   1      -1.138  -1.664  -4.189  0.00  0.00    -0.097 F 
ATOM      8  F1  UNL d   1       0.402  -2.332  -2.063  0.00  0.00    -0.096 F 
ATOM      9  I   UNL d   1       0.365  -1.348   0.981  0.00  0.00    -0.060 I 
ATOM     10  F2  UNL d   1      -2.092   0.676   0.651  0.00  0.00    -0.096 F 
ATOM     11  F3  UNL d   1      -3.614   1.323  -1.493  0.00  0.00    -0.097 F 
ATOM     12  F4  UNL d   1      -3.148   0.161  -3.917  0.00  0.00    -0.092 F 
ENDROOT
TORSDOF 0
ENDMDL
