MODEL 1
REMARK minimizedAffinity -2.23573542
REMARK minimizedRMSD -1
REMARK  0 active torsions:
REMARK  status: ('A' for Active; 'I' for Inactive)
ROOT
ATOM      1  C   UNL d   1       1.663  -0.413   1.179  0.00  0.00     0.124 A 
ATOM      2  C1  UNL d   1       1.685   0.753   0.426  0.00  0.00     0.062 A 
ATOM      3  C2  UNL d   1       0.590   1.098  -0.361  0.00  0.00     0.162 A 
ATOM      4  C3  UNL d   1      -0.538   0.278  -0.397  0.00  0.00    -0.034 A 
ATOM      5  C4  UNL d   1      -0.552  -0.893   0.363  0.00  0.00     0.162 A 
ATOM      6  C5  UNL d   1       0.545  -1.234   1.147  0.00  0.00     0.062 A 
ATOM      7  F   UNL d   1       0.522  -2.361   1.874  0.00  0.00    -0.097 F 
ATOM      8  F1  UNL d   1      -1.619  -1.705   0.351  0.00  0.00    -0.096 F 
ATOM      9  I   UNL d   1      -2.177   0.791  -1.572  0.00  0.00    -0.060 I 
ATOM     10  F2  UNL d   1       0.638   2.230  -1.078  0.00  0.00    -0.096 F 
ATOM     11  F3  UNL d   1       2.764   1.548   0.455  0.00  0.00    -0.097 F 
ATOM     12  F4  UNL d   1       2.718  -0.743   1.934  0.00  0.00    -0.092 F 
ENDROOT
TORSDOF 0
ENDMDL
