MODEL 1
REMARK minimizedAffinity -0.605837166
REMARK minimizedRMSD -1
REMARK  0 active torsions:
REMARK  status: ('A' for Active; 'I' for Inactive)
ROOT
ATOM      1  C   UNL d   1       1.445  -0.257   1.052  0.00  0.00     0.124 A 
ATOM      2  C1  UNL d   1       0.336  -1.091   1.044  0.00  0.00     0.062 A 
ATOM      3  C2  UNL d   1      -0.753  -0.801   0.227  0.00  0.00     0.162 A 
ATOM      4  C3  UNL d   1      -0.737   0.330  -0.590  0.00  0.00    -0.034 A 
ATOM      5  C4  UNL d   1       0.382   1.165  -0.576  0.00  0.00     0.162 A 
ATOM      6  C5  UNL d   1       1.467   0.869   0.242  0.00  0.00     0.062 A 
ATOM      7  F   UNL d   1       2.538   1.677   0.249  0.00  0.00    -0.097 F 
ATOM      8  F1  UNL d   1       0.430   2.260  -1.349  0.00  0.00    -0.096 F 
ATOM      9  I   UNL d   1      -2.363   0.768  -1.814  0.00  0.00    -0.060 I 
ATOM     10  F2  UNL d   1      -1.811  -1.624   0.239  0.00  0.00    -0.096 F 
ATOM     11  F3  UNL d   1       0.312  -2.180   1.826  0.00  0.00    -0.097 F 
ATOM     12  F4  UNL d   1       2.491  -0.539   1.840  0.00  0.00    -0.092 F 
ENDROOT
TORSDOF 0
ENDMDL
