MODEL 1
REMARK minimizedAffinity 4.20263052
REMARK minimizedRMSD -1
REMARK  0 active torsions:
REMARK  status: ('A' for Active; 'I' for Inactive)
ROOT
ATOM      1  C   UNL d   1       1.827  -0.421   1.216  0.00  0.00     0.124 A 
ATOM      2  C1  UNL d   1       1.887   0.796   0.552  0.00  0.00     0.062 A 
ATOM      3  C2  UNL d   1       0.843   1.194  -0.278  0.00  0.00     0.162 A 
ATOM      4  C3  UNL d   1      -0.272   0.374  -0.448  0.00  0.00    -0.034 A 
ATOM      5  C4  UNL d   1      -0.326  -0.850   0.222  0.00  0.00     0.162 A 
ATOM      6  C5  UNL d   1       0.720  -1.243   1.050  0.00  0.00     0.062 A 
ATOM      7  F   UNL d   1       0.660  -2.419   1.691  0.00  0.00    -0.097 F 
ATOM      8  F1  UNL d   1      -1.383  -1.663   0.081  0.00  0.00    -0.096 F 
ATOM      9  I   UNL d   1      -1.836   0.965  -1.688  0.00  0.00    -0.060 I 
ATOM     10  F2  UNL d   1       0.929   2.375  -0.908  0.00  0.00    -0.096 F 
ATOM     11  F3  UNL d   1       2.956   1.591   0.709  0.00  0.00    -0.097 F 
ATOM     12  F4  UNL d   1       2.833  -0.802   2.013  0.00  0.00    -0.092 F 
ENDROOT
TORSDOF 0
ENDMDL
