MODEL 1
REMARK minimizedAffinity -4.27274179
REMARK minimizedRMSD -1
REMARK  0 active torsions:
REMARK  status: ('A' for Active; 'I' for Inactive)
ROOT
ATOM      1  C   UNL d   1       2.464  -1.327   1.354  0.00  0.00     0.124 A 
ATOM      2  C1  UNL d   1       1.246  -1.909   1.674  0.00  0.00     0.062 A 
ATOM      3  C2  UNL d   1       0.086  -1.515   1.012  0.00  0.00     0.162 A 
ATOM      4  C3  UNL d   1       0.140  -0.534   0.022  0.00  0.00    -0.034 A 
ATOM      5  C4  UNL d   1       1.369   0.048  -0.294  0.00  0.00     0.162 A 
ATOM      6  C5  UNL d   1       2.525  -0.350   0.370  0.00  0.00     0.062 A 
ATOM      7  F   UNL d   1       3.702   0.214   0.060  0.00  0.00    -0.097 F 
ATOM      8  F1  UNL d   1       1.457   0.993  -1.241  0.00  0.00    -0.096 F 
ATOM      9  I   UNL d   1      -1.591   0.058  -0.970  0.00  0.00    -0.060 I 
ATOM     10  F2  UNL d   1      -1.078  -2.094   1.342  0.00  0.00    -0.096 F 
ATOM     11  F3  UNL d   1       1.184  -2.853   2.625  0.00  0.00    -0.097 F 
ATOM     12  F4  UNL d   1       3.578  -1.707   1.993  0.00  0.00    -0.092 F 
ENDROOT
TORSDOF 0
ENDMDL
