MODEL 1
REMARK minimizedAffinity -3.95835257
REMARK minimizedRMSD -1
REMARK  0 active torsions:
REMARK  status: ('A' for Active; 'I' for Inactive)
ROOT
ATOM      1  C   UNL d   1       2.805  -0.107   2.087  0.00  0.00     0.124 A 
ATOM      2  C1  UNL d   1       2.251  -1.323   1.711  0.00  0.00     0.062 A 
ATOM      3  C2  UNL d   1       1.086  -1.356   0.949  0.00  0.00     0.162 A 
ATOM      4  C3  UNL d   1       0.468  -0.168   0.557  0.00  0.00    -0.034 A 
ATOM      5  C4  UNL d   1       1.031   1.051   0.940  0.00  0.00     0.162 A 
ATOM      6  C5  UNL d   1       2.195   1.078   1.701  0.00  0.00     0.062 A 
ATOM      7  F   UNL d   1       2.729   2.254   2.063  0.00  0.00    -0.097 F 
ATOM      8  F1  UNL d   1       0.463   2.211   0.580  0.00  0.00    -0.096 F 
ATOM      9  I   UNL d   1      -1.273  -0.213  -0.582  0.00  0.00    -0.060 I 
ATOM     10  F2  UNL d   1       0.573  -2.545   0.601  0.00  0.00    -0.096 F 
ATOM     11  F3  UNL d   1       2.838  -2.469   2.084  0.00  0.00    -0.097 F 
ATOM     12  F4  UNL d   1       3.925  -0.078   2.821  0.00  0.00    -0.092 F 
ENDROOT
TORSDOF 0
ENDMDL
