MODEL 1
REMARK minimizedAffinity -3.10684204
REMARK minimizedRMSD -1
REMARK  0 active torsions:
REMARK  status: ('A' for Active; 'I' for Inactive)
ROOT
ATOM      1  C   UNL d   1       1.875  -0.690   1.812  0.00  0.00     0.124 A 
ATOM      2  C1  UNL d   1       0.766  -1.518   1.914  0.00  0.00     0.062 A 
ATOM      3  C2  UNL d   1      -0.345  -1.302   1.103  0.00  0.00     0.162 A 
ATOM      4  C3  UNL d   1      -0.352  -0.254   0.183  0.00  0.00    -0.034 A 
ATOM      5  C4  UNL d   1       0.767   0.575   0.088  0.00  0.00     0.162 A 
ATOM      6  C5  UNL d   1       1.875   0.355   0.900  0.00  0.00     0.062 A 
ATOM      7  F   UNL d   1       2.946   1.157   0.800  0.00  0.00    -0.097 F 
ATOM      8  F1  UNL d   1       0.794   1.592  -0.787  0.00  0.00    -0.096 F 
ATOM      9  I   UNL d   1      -2.011   0.072  -1.030  0.00  0.00    -0.060 I 
ATOM     10  F2  UNL d   1      -1.403  -2.118   1.223  0.00  0.00    -0.096 F 
ATOM     11  F3  UNL d   1       0.763  -2.528   2.795  0.00  0.00    -0.097 F 
ATOM     12  F4  UNL d   1       2.942  -0.899   2.594  0.00  0.00    -0.092 F 
ENDROOT
TORSDOF 0
ENDMDL
