MODEL 1
REMARK minimizedAffinity -3.67007518
REMARK minimizedRMSD -1
REMARK  0 active torsions:
REMARK  status: ('A' for Active; 'I' for Inactive)
ROOT
ATOM      1  C   UNL d   1       2.381  -0.957   1.420  0.00  0.00     0.124 A 
ATOM      2  C1  UNL d   1       1.396  -1.924   1.276  0.00  0.00     0.062 A 
ATOM      3  C2  UNL d   1       0.208  -1.620   0.617  0.00  0.00     0.162 A 
ATOM      4  C3  UNL d   1      -0.001  -0.343   0.097  0.00  0.00    -0.034 A 
ATOM      5  C4  UNL d   1       0.994   0.624   0.247  0.00  0.00     0.162 A 
ATOM      6  C5  UNL d   1       2.179   0.316   0.906  0.00  0.00     0.062 A 
ATOM      7  F   UNL d   1       3.130   1.251   1.045  0.00  0.00    -0.097 F 
ATOM      8  F1  UNL d   1       0.825   1.862  -0.241  0.00  0.00    -0.096 F 
ATOM      9  I   UNL d   1      -1.776   0.115  -0.888  0.00  0.00    -0.060 I 
ATOM     10  F2  UNL d   1      -0.727  -2.574   0.492  0.00  0.00    -0.096 F 
ATOM     11  F3  UNL d   1       1.588  -3.155   1.773  0.00  0.00    -0.097 F 
ATOM     12  F4  UNL d   1       3.523  -1.252   2.055  0.00  0.00    -0.092 F 
ENDROOT
TORSDOF 0
ENDMDL
