MODEL 1
REMARK minimizedAffinity -0.834510982
REMARK minimizedRMSD -1
REMARK  0 active torsions:
REMARK  status: ('A' for Active; 'I' for Inactive)
ROOT
ATOM      1  C   UNL d   1       1.472  -0.468   1.479  0.00  0.00     0.124 A 
ATOM      2  C1  UNL d   1       1.417   0.799   0.915  0.00  0.00     0.062 A 
ATOM      3  C2  UNL d   1       0.299   1.194   0.187  0.00  0.00     0.162 A 
ATOM      4  C3  UNL d   1      -0.775   0.321   0.018  0.00  0.00    -0.034 A 
ATOM      5  C4  UNL d   1      -0.713  -0.952   0.587  0.00  0.00     0.162 A 
ATOM      6  C5  UNL d   1       0.407  -1.342   1.314  0.00  0.00     0.062 A 
ATOM      7  F   UNL d   1       0.457  -2.567   1.858  0.00  0.00    -0.097 F 
ATOM      8  F1  UNL d   1      -1.729  -1.817   0.445  0.00  0.00    -0.096 F 
ATOM      9  I   UNL d   1      -2.449   0.908  -1.070  0.00  0.00    -0.060 I 
ATOM     10  F2  UNL d   1       0.274   2.425  -0.347  0.00  0.00    -0.096 F 
ATOM     11  F3  UNL d   1       2.445   1.646   1.072  0.00  0.00    -0.097 F 
ATOM     12  F4  UNL d   1       2.549  -0.846   2.178  0.00  0.00    -0.092 F 
ENDROOT
TORSDOF 0
ENDMDL
