MODEL 1
REMARK minimizedAffinity -5.48524237
REMARK minimizedRMSD -1
REMARK  0 active torsions:
REMARK  status: ('A' for Active; 'I' for Inactive)
ROOT
ATOM      1  C   UNL d   1       2.161  -1.465   1.144  0.00  0.00     0.124 A 
ATOM      2  C1  UNL d   1       2.240  -0.916  -0.129  0.00  0.00     0.062 A 
ATOM      3  C2  UNL d   1       1.088  -0.477  -0.774  0.00  0.00     0.162 A 
ATOM      4  C3  UNL d   1      -0.154  -0.583  -0.148  0.00  0.00    -0.034 A 
ATOM      5  C4  UNL d   1      -0.226  -1.137   1.131  0.00  0.00     0.162 A 
ATOM      6  C5  UNL d   1       0.929  -1.575   1.773  0.00  0.00     0.062 A 
ATOM      7  F   UNL d   1       0.850  -2.105   3.002  0.00  0.00    -0.097 F 
ATOM      8  F1  UNL d   1      -1.404  -1.254   1.763  0.00  0.00    -0.096 F 
ATOM      9  I   UNL d   1      -1.879   0.073  -1.110  0.00  0.00    -0.060 I 
ATOM     10  F2  UNL d   1       1.194   0.049  -2.003  0.00  0.00    -0.096 F 
ATOM     11  F3  UNL d   1       3.429  -0.810  -0.738  0.00  0.00    -0.097 F 
ATOM     12  F4  UNL d   1       3.271  -1.888   1.762  0.00  0.00    -0.092 F 
ENDROOT
TORSDOF 0
ENDMDL
