MODEL 1
REMARK minimizedAffinity -0.262093604
REMARK minimizedRMSD -1
REMARK  0 active torsions:
REMARK  status: ('A' for Active; 'I' for Inactive)
ROOT
ATOM      1  C   UNL d   1       0.545  -1.033   1.486  0.00  0.00     0.124 A 
ATOM      2  C1  UNL d   1       0.848   0.129   0.790  0.00  0.00     0.062 A 
ATOM      3  C2  UNL d   1       0.016   0.567  -0.236  0.00  0.00     0.162 A 
ATOM      4  C3  UNL d   1      -1.129  -0.157  -0.571  0.00  0.00    -0.034 A 
ATOM      5  C4  UNL d   1      -1.426  -1.325   0.133  0.00  0.00     0.162 A 
ATOM      6  C5  UNL d   1      -0.591  -1.759   1.157  0.00  0.00     0.062 A 
ATOM      7  F   UNL d   1      -0.885  -2.882   1.829  0.00  0.00    -0.097 F 
ATOM      8  F1  UNL d   1      -2.518  -2.045  -0.164  0.00  0.00    -0.096 F 
ATOM      9  I   UNL d   1      -2.376   0.495  -2.105  0.00  0.00    -0.060 I 
ATOM     10  F2  UNL d   1       0.332   1.693  -0.891  0.00  0.00    -0.096 F 
ATOM     11  F3  UNL d   1       1.946   0.831   1.106  0.00  0.00    -0.097 F 
ATOM     12  F4  UNL d   1       1.349  -1.453   2.472  0.00  0.00    -0.092 F 
ENDROOT
TORSDOF 0
ENDMDL
