MODEL 1
REMARK minimizedAffinity -4.24770546
REMARK minimizedRMSD -1
REMARK  0 active torsions:
REMARK  status: ('A' for Active; 'I' for Inactive)
ROOT
ATOM      1  C   UNL d   1       2.832  -0.905   2.155  0.00  0.00     0.124 A 
ATOM      2  C1  UNL d   1       1.864  -1.896   2.249  0.00  0.00     0.062 A 
ATOM      3  C2  UNL d   1       0.645  -1.747   1.593  0.00  0.00     0.162 A 
ATOM      4  C3  UNL d   1       0.387  -0.604   0.837  0.00  0.00    -0.034 A 
ATOM      5  C4  UNL d   1       1.365   0.388   0.748  0.00  0.00     0.162 A 
ATOM      6  C5  UNL d   1       2.582   0.235   1.405  0.00  0.00     0.062 A 
ATOM      7  F   UNL d   1       3.516   1.193   1.313  0.00  0.00    -0.097 F 
ATOM      8  F1  UNL d   1       1.151   1.500   0.029  0.00  0.00    -0.096 F 
ATOM      9  I   UNL d   1      -1.434  -0.379  -0.145  0.00  0.00    -0.060 I 
ATOM     10  F2  UNL d   1      -0.272  -2.720   1.701  0.00  0.00    -0.096 F 
ATOM     11  F3  UNL d   1       2.103  -2.998   2.974  0.00  0.00    -0.097 F 
ATOM     12  F4  UNL d   1       4.003  -1.050   2.788  0.00  0.00    -0.092 F 
ENDROOT
TORSDOF 0
ENDMDL
