MODEL 1
REMARK minimizedAffinity 1.04895961
REMARK minimizedRMSD -1
REMARK  1 active torsions:
REMARK  status: ('A' for Active; 'I' for Inactive)
REMARK    1  A    between atoms: C1_2  and  C2_3 
ROOT
ATOM      1  C2  UNL d   1       1.955   0.140   0.647  0.00  0.00    -0.081 A 
ATOM      2  C3  UNL d   1       1.005   0.808  -0.135  0.00  0.00     0.006 A 
ATOM      3  C4  UNL d   1       0.504   2.049   0.266  0.00  0.00     0.002 A 
ATOM      4  C5  UNL d   1       0.949   2.645   1.451  0.00  0.00    -0.080 A 
ATOM      5  C6  UNL d   1       0.442   3.990   1.878  0.00  0.00     0.076 C 
ATOM      6  C7  UNL d   1       1.885   1.969   2.241  0.00  0.00     0.002 A 
ATOM      7  C8  UNL d   1       2.386   0.728   1.841  0.00  0.00     0.006 A 
ENDROOT
BRANCH   1   8
ATOM      8  C1  UNL d   1       2.545  -1.168   0.185  0.00  0.00     0.054 C 
ATOM      9  C   UNL d   1       3.674  -1.620   1.100  0.00  0.00     0.018 C 
ENDBRANCH   1   8
TORSDOF 1
ENDMDL
