MODEL 1
REMARK minimizedAffinity 3.40167785
REMARK minimizedRMSD -1
REMARK  1 active torsions:
REMARK  status: ('A' for Active; 'I' for Inactive)
REMARK    1  A    between atoms: C1_2  and  C2_3 
ROOT
ATOM      1  C2  UNL d   1       1.895  -0.545  -0.405  0.00  0.00    -0.081 A 
ATOM      2  C3  UNL d   1       3.094  -0.448  -1.122  0.00  0.00     0.006 A 
ATOM      3  C4  UNL d   1       3.934   0.655  -0.951  0.00  0.00     0.002 A 
ATOM      4  C5  UNL d   1       3.594   1.675  -0.056  0.00  0.00    -0.080 A 
ATOM      5  C6  UNL d   1       4.501   2.849   0.160  0.00  0.00     0.076 C 
ATOM      6  C7  UNL d   1       2.388   1.586   0.648  0.00  0.00     0.002 A 
ATOM      7  C8  UNL d   1       1.547   0.484   0.477  0.00  0.00     0.006 A 
ENDROOT
BRANCH   1   8
ATOM      8  C1  UNL d   1       1.019  -1.764  -0.538  0.00  0.00     0.054 C 
ATOM      9  C   UNL d   1       1.777  -3.033  -0.175  0.00  0.00     0.018 C 
ENDBRANCH   1   8
TORSDOF 1
ENDMDL
