MODEL 1
REMARK minimizedAffinity 3.34864235
REMARK minimizedRMSD -1
REMARK  1 active torsions:
REMARK  status: ('A' for Active; 'I' for Inactive)
REMARK    1  A    between atoms: C1_2  and  C2_3 
ROOT
ATOM      1  C2  UNL d   1       2.356   0.078  -0.308  0.00  0.00    -0.081 A 
ATOM      2  C3  UNL d   1       2.754  -1.250  -0.506  0.00  0.00     0.006 A 
ATOM      3  C4  UNL d   1       1.813  -2.283  -0.478  0.00  0.00     0.002 A 
ATOM      4  C5  UNL d   1       0.460  -2.004  -0.260  0.00  0.00    -0.080 A 
ATOM      5  C6  UNL d   1      -0.564  -3.100  -0.258  0.00  0.00     0.076 C 
ATOM      6  C7  UNL d   1       0.065  -0.680  -0.045  0.00  0.00     0.002 A 
ATOM      7  C8  UNL d   1       1.005   0.353  -0.072  0.00  0.00     0.006 A 
ENDROOT
BRANCH   1   8
ATOM      8  C1  UNL d   1       3.358   1.200  -0.402  0.00  0.00     0.054 C 
ATOM      9  C   UNL d   1       4.586   0.780  -1.197  0.00  0.00     0.018 C 
ENDBRANCH   1   8
TORSDOF 1
ENDMDL
