MODEL 1
REMARK minimizedAffinity 5.18215513
REMARK minimizedRMSD -1
REMARK  1 active torsions:
REMARK  status: ('A' for Active; 'I' for Inactive)
REMARK    1  A    between atoms: C1_2  and  C2_3 
ROOT
ATOM      1  C2  UNL d   1       0.750   0.142  -0.588  0.00  0.00    -0.081 A 
ATOM      2  C3  UNL d   1      -0.503  -0.032  -1.187  0.00  0.00     0.006 A 
ATOM      3  C4  UNL d   1      -0.985  -1.315  -1.460  0.00  0.00     0.002 A 
ATOM      4  C5  UNL d   1      -0.226  -2.443  -1.133  0.00  0.00    -0.080 A 
ATOM      5  C6  UNL d   1      -0.744  -3.826  -1.393  0.00  0.00     0.076 C 
ATOM      6  C7  UNL d   1       1.034  -2.268  -0.551  0.00  0.00     0.002 A 
ATOM      7  C8  UNL d   1       1.517  -0.986  -0.278  0.00  0.00     0.006 A 
ENDROOT
BRANCH   1   8
ATOM      8  C1  UNL d   1       1.245   1.521  -0.233  0.00  0.00     0.054 C 
ATOM      9  C   UNL d   1       1.422   1.675   1.270  0.00  0.00     0.018 C 
ENDBRANCH   1   8
TORSDOF 1
ENDMDL
