MODEL 1
REMARK minimizedAffinity -2.87373281
REMARK minimizedRMSD -1
REMARK  1 active torsions:
REMARK  status: ('A' for Active; 'I' for Inactive)
REMARK    1  A    between atoms: C1_2  and  C2_3 
ROOT
ATOM      1  C2  UNL d   1       1.631  -0.974  -0.282  0.00  0.00    -0.081 A 
ATOM      2  C3  UNL d   1       1.521   0.419  -0.191  0.00  0.00     0.006 A 
ATOM      3  C4  UNL d   1       0.280   1.018   0.043  0.00  0.00     0.002 A 
ATOM      4  C5  UNL d   1      -0.868   0.234   0.198  0.00  0.00    -0.080 A 
ATOM      5  C6  UNL d   1      -2.200   0.862   0.480  0.00  0.00     0.076 C 
ATOM      6  C7  UNL d   1      -0.761  -1.157   0.090  0.00  0.00     0.002 A 
ATOM      7  C8  UNL d   1       0.479  -1.756  -0.145  0.00  0.00     0.006 A 
ENDROOT
BRANCH   1   8
ATOM      8  C1  UNL d   1       2.977  -1.625  -0.470  0.00  0.00     0.054 C 
ATOM      9  C   UNL d   1       4.107  -0.681  -0.085  0.00  0.00     0.018 C 
ENDBRANCH   1   8
TORSDOF 1
ENDMDL
