MODEL 1
REMARK minimizedAffinity 1.59382522
REMARK minimizedRMSD -1
REMARK  1 active torsions:
REMARK  status: ('A' for Active; 'I' for Inactive)
REMARK    1  A    between atoms: C1_2  and  C2_3 
ROOT
ATOM      1  C2  UNL d   1       0.389   0.549   0.324  0.00  0.00    -0.081 A 
ATOM      2  C3  UNL d   1      -0.598   0.834  -0.628  0.00  0.00     0.006 A 
ATOM      3  C4  UNL d   1      -0.996  -0.138  -1.549  0.00  0.00     0.002 A 
ATOM      4  C5  UNL d   1      -0.422  -1.413  -1.528  0.00  0.00    -0.080 A 
ATOM      5  C6  UNL d   1      -0.862  -2.475  -2.491  0.00  0.00     0.076 C 
ATOM      6  C7  UNL d   1       0.576  -1.693  -0.588  0.00  0.00     0.002 A 
ATOM      7  C8  UNL d   1       0.976  -0.721   0.332  0.00  0.00     0.006 A 
ENDROOT
BRANCH   1   8
ATOM      8  C1  UNL d   1       0.775   1.574   1.359  0.00  0.00     0.054 C 
ATOM      9  C   UNL d   1       1.356   0.914   2.601  0.00  0.00     0.018 C 
ENDBRANCH   1   8
TORSDOF 1
ENDMDL
