MODEL 1
REMARK minimizedAffinity 2.8774581
REMARK minimizedRMSD -1
REMARK  1 active torsions:
REMARK  status: ('A' for Active; 'I' for Inactive)
REMARK    1  A    between atoms: N_2  and  C1_3 
ROOT
ATOM      1  C1  UNL d   1       1.076  -0.258   0.862  0.00  0.00     0.143 A 
ATOM      2  C2  UNL d   1       1.857  -0.148   2.017  0.00  0.00    -0.057 A 
ATOM      3  C3  UNL d   1       2.089  -1.254   2.845  0.00  0.00     0.033 A 
ATOM      4  C4  UNL d   1       1.517  -2.486   2.546  0.00  0.00    -0.042 A 
ATOM      5  C5  UNL d   1       0.717  -2.612   1.416  0.00  0.00     0.033 A 
ATOM      6  C6  UNL d   1       0.495  -1.506   0.589  0.00  0.00    -0.057 A 
ENDROOT
BRANCH   1   7
ATOM      7  N   UNL d   1       0.729   0.826   0.052  0.00  0.00    -0.732 N 
ATOM      8  C   UNL d   1       1.003   2.182   0.477  0.00  0.00     0.284 C 
ATOM      9  H3  UNL d   1       0.919   0.652  -0.932  0.00  0.00     0.395 HD
ENDBRANCH   1   7
TORSDOF 1
ENDMDL
