MODEL 1
REMARK minimizedAffinity 1.07879794
REMARK minimizedRMSD -1
REMARK  1 active torsions:
REMARK  status: ('A' for Active; 'I' for Inactive)
REMARK    1  A    between atoms: N_2  and  C1_3 
ROOT
ATOM      1  C1  UNL d   1      -1.893  -5.434  -3.420  0.00  0.00     0.143 A 
ATOM      2  C2  UNL d   1      -1.711  -5.984  -4.694  0.00  0.00    -0.057 A 
ATOM      3  C3  UNL d   1      -0.452  -5.998  -5.305  0.00  0.00     0.033 A 
ATOM      4  C4  UNL d   1       0.646  -5.435  -4.663  0.00  0.00    -0.042 A 
ATOM      5  C5  UNL d   1       0.484  -4.861  -3.407  0.00  0.00     0.033 A 
ATOM      6  C6  UNL d   1      -0.775  -4.856  -2.799  0.00  0.00    -0.057 A 
ENDROOT
BRANCH   1   7
ATOM      7  N   UNL d   1      -3.139  -5.302  -2.801  0.00  0.00    -0.732 N 
ATOM      8  C   UNL d   1      -3.293  -5.579  -1.389  0.00  0.00     0.284 C 
ATOM      9  H3  UNL d   1      -3.646  -4.480  -3.121  0.00  0.00     0.395 HD
ENDBRANCH   1   7
TORSDOF 1
ENDMDL
