MODEL 1
REMARK minimizedAffinity 5.81463051
REMARK minimizedRMSD -1
REMARK  1 active torsions:
REMARK  status: ('A' for Active; 'I' for Inactive)
REMARK    1  A    between atoms: N_2  and  C1_3 
ROOT
ATOM      1  C1  UNL d   1      -0.461  -0.422   1.234  0.00  0.00     0.143 A 
ATOM      2  C2  UNL d   1       0.457   0.224   0.398  0.00  0.00    -0.057 A 
ATOM      3  C3  UNL d   1       1.831  -0.026   0.498  0.00  0.00     0.033 A 
ATOM      4  C4  UNL d   1       2.316  -0.906   1.460  0.00  0.00    -0.042 A 
ATOM      5  C5  UNL d   1       1.424  -1.540   2.318  0.00  0.00     0.033 A 
ATOM      6  C6  UNL d   1       0.053  -1.292   2.208  0.00  0.00    -0.057 A 
ENDROOT
BRANCH   1   7
ATOM      7  N   UNL d   1      -1.829  -0.143   1.249  0.00  0.00    -0.732 N 
ATOM      8  C   UNL d   1      -2.611  -0.218   0.034  0.00  0.00     0.284 C 
ATOM      9  H3  UNL d   1      -2.295  -0.528   2.068  0.00  0.00     0.395 HD
ENDBRANCH   1   7
TORSDOF 1
ENDMDL
