MODEL 1
REMARK minimizedAffinity 2.56062126
REMARK minimizedRMSD -1
REMARK  1 active torsions:
REMARK  status: ('A' for Active; 'I' for Inactive)
REMARK    1  A    between atoms: N_2  and  C1_3 
ROOT
ATOM      1  C1  UNL d   1      -5.213   1.064  -1.315  0.00  0.00     0.143 A 
ATOM      2  C2  UNL d   1      -5.241  -0.334  -1.348  0.00  0.00    -0.057 A 
ATOM      3  C3  UNL d   1      -4.676  -1.097  -0.318  0.00  0.00     0.033 A 
ATOM      4  C4  UNL d   1      -4.046  -0.471   0.752  0.00  0.00    -0.042 A 
ATOM      5  C5  UNL d   1      -3.984   0.917   0.794  0.00  0.00     0.033 A 
ATOM      6  C6  UNL d   1      -4.555   1.673  -0.235  0.00  0.00    -0.057 A 
ENDROOT
BRANCH   1   7
ATOM      7  N   UNL d   1      -5.669   1.876  -2.356  0.00  0.00    -0.732 N 
ATOM      8  C   UNL d   1      -4.982   1.898  -3.630  0.00  0.00     0.284 C 
ATOM      9  H3  UNL d   1      -6.684   1.877  -2.432  0.00  0.00     0.395 HD
ENDBRANCH   1   7
TORSDOF 1
ENDMDL
