MODEL 1
REMARK minimizedAffinity -2.39847851
REMARK minimizedRMSD -1
REMARK  1 active torsions:
REMARK  status: ('A' for Active; 'I' for Inactive)
REMARK    1  A    between atoms: N_2  and  C1_3 
ROOT
ATOM      1  C1  UNL d   1       0.521  -5.793  -4.114  0.00  0.00     0.143 A 
ATOM      2  C2  UNL d   1      -0.545  -5.883  -5.015  0.00  0.00    -0.057 A 
ATOM      3  C3  UNL d   1      -1.869  -5.969  -4.567  0.00  0.00     0.033 A 
ATOM      4  C4  UNL d   1      -2.148  -5.997  -3.205  0.00  0.00    -0.042 A 
ATOM      5  C5  UNL d   1      -1.102  -5.934  -2.291  0.00  0.00     0.033 A 
ATOM      6  C6  UNL d   1       0.217  -5.841  -2.744  0.00  0.00    -0.057 A 
ENDROOT
BRANCH   1   7
ATOM      7  N   UNL d   1       1.865  -5.803  -4.496  0.00  0.00    -0.732 N 
ATOM      8  C   UNL d   1       2.236  -6.000  -5.880  0.00  0.00     0.284 C 
ATOM      9  H3  UNL d   1       2.411  -5.091  -4.016  0.00  0.00     0.395 HD
ENDBRANCH   1   7
TORSDOF 1
ENDMDL
