MODEL 1
REMARK minimizedAffinity -0.0688087195
REMARK minimizedRMSD -1
REMARK  1 active torsions:
REMARK  status: ('A' for Active; 'I' for Inactive)
REMARK    1  A    between atoms: N_2  and  C1_3 
ROOT
ATOM      1  C1  UNL d   1      -1.084  -5.910  -4.329  0.00  0.00     0.143 A 
ATOM      2  C2  UNL d   1      -2.423  -5.975  -3.930  0.00  0.00    -0.057 A 
ATOM      3  C3  UNL d   1      -2.777  -6.000  -2.575  0.00  0.00     0.033 A 
ATOM      4  C4  UNL d   1      -1.792  -5.989  -1.593  0.00  0.00    -0.042 A 
ATOM      5  C5  UNL d   1      -0.453  -5.951  -1.966  0.00  0.00     0.033 A 
ATOM      6  C6  UNL d   1      -0.107  -5.919  -3.321  0.00  0.00    -0.057 A 
ENDROOT
BRANCH   1   7
ATOM      7  N   UNL d   1      -0.664  -5.982  -5.659  0.00  0.00    -0.732 N 
ATOM      8  C   UNL d   1       0.745  -5.991  -5.988  0.00  0.00     0.284 C 
ATOM      9  H3  UNL d   1      -1.224  -6.631  -6.208  0.00  0.00     0.395 HD
ENDBRANCH   1   7
TORSDOF 1
ENDMDL
