MODEL 1
REMARK minimizedAffinity -1.07291329
REMARK minimizedRMSD -1
REMARK  1 active torsions:
REMARK  status: ('A' for Active; 'I' for Inactive)
REMARK    1  A    between atoms: N_2  and  C1_3 
ROOT
ATOM      1  C1  UNL d   1      -1.063  -5.997  -3.576  0.00  0.00     0.143 A 
ATOM      2  C2  UNL d   1      -1.608  -5.992  -4.865  0.00  0.00    -0.057 A 
ATOM      3  C3  UNL d   1      -0.787  -5.997  -5.999  0.00  0.00     0.033 A 
ATOM      4  C4  UNL d   1       0.597  -5.977  -5.864  0.00  0.00    -0.042 A 
ATOM      5  C5  UNL d   1       1.160  -5.957  -4.593  0.00  0.00     0.033 A 
ATOM      6  C6  UNL d   1       0.335  -5.959  -3.464  0.00  0.00    -0.057 A 
ENDROOT
BRANCH   1   7
ATOM      7  N   UNL d   1      -1.825  -5.893  -2.409  0.00  0.00    -0.732 N 
ATOM      8  C   UNL d   1      -3.270  -5.939  -2.466  0.00  0.00     0.284 C 
ATOM      9  H3  UNL d   1      -1.423  -6.416  -1.635  0.00  0.00     0.395 HD
ENDBRANCH   1   7
TORSDOF 1
ENDMDL
