MODEL 1
REMARK minimizedAffinity 2.89947486
REMARK minimizedRMSD -1
REMARK  1 active torsions:
REMARK  status: ('A' for Active; 'I' for Inactive)
REMARK    1  A    between atoms: N_2  and  C1_3 
ROOT
ATOM      1  C1  UNL d   1      -0.636  -0.297   0.457  0.00  0.00     0.143 A 
ATOM      2  C2  UNL d   1       0.667   0.085   0.793  0.00  0.00    -0.057 A 
ATOM      3  C3  UNL d   1       1.650  -0.869   1.088  0.00  0.00     0.033 A 
ATOM      4  C4  UNL d   1       1.337  -2.224   1.080  0.00  0.00    -0.042 A 
ATOM      5  C5  UNL d   1       0.041  -2.625   0.773  0.00  0.00     0.033 A 
ATOM      6  C6  UNL d   1      -0.934  -1.668   0.473  0.00  0.00    -0.057 A 
ENDROOT
BRANCH   1   7
ATOM      7  N   UNL d   1      -1.682   0.606   0.250  0.00  0.00    -0.732 N 
ATOM      8  C   UNL d   1      -3.055   0.150   0.222  0.00  0.00     0.284 C 
ATOM      9  H3  UNL d   1      -1.544   1.481   0.751  0.00  0.00     0.395 HD
ENDBRANCH   1   7
TORSDOF 1
ENDMDL
