MODEL 1
REMARK minimizedAffinity 0.560849369
REMARK minimizedRMSD -1
REMARK  1 active torsions:
REMARK  status: ('A' for Active; 'I' for Inactive)
REMARK    1  A    between atoms: N_2  and  C1_3 
ROOT
ATOM      1  C1  UNL d   1      -2.240  -5.923  -3.467  0.00  0.00     0.143 A 
ATOM      2  C2  UNL d   1      -1.291  -5.979  -2.441  0.00  0.00    -0.057 A 
ATOM      3  C3  UNL d   1       0.081  -6.000  -2.721  0.00  0.00     0.033 A 
ATOM      4  C4  UNL d   1       0.528  -5.994  -4.038  0.00  0.00    -0.042 A 
ATOM      5  C5  UNL d   1      -0.397  -5.963  -5.075  0.00  0.00     0.033 A 
ATOM      6  C6  UNL d   1      -1.766  -5.936  -4.789  0.00  0.00    -0.057 A 
ENDROOT
BRANCH   1   7
ATOM      7  N   UNL d   1      -3.619  -6.000  -3.257  0.00  0.00    -0.732 N 
ATOM      8  C   UNL d   1      -4.162  -5.988  -1.915  0.00  0.00     0.284 C 
ATOM      9  H3  UNL d   1      -4.145  -5.440  -3.923  0.00  0.00     0.395 HD
ENDBRANCH   1   7
TORSDOF 1
ENDMDL
