MODEL 1
REMARK minimizedAffinity 3.91266179
REMARK minimizedRMSD -1
REMARK  1 active torsions:
REMARK  status: ('A' for Active; 'I' for Inactive)
REMARK    1  A    between atoms: N_2  and  C1_3 
ROOT
ATOM      1  C1  UNL d   1      -3.634  -0.700  -0.450  0.00  0.00     0.143 A 
ATOM      2  C2  UNL d   1      -4.055  -1.225  -1.676  0.00  0.00    -0.057 A 
ATOM      3  C3  UNL d   1      -5.083  -0.620  -2.410  0.00  0.00     0.033 A 
ATOM      4  C4  UNL d   1      -5.729   0.508  -1.915  0.00  0.00    -0.042 A 
ATOM      5  C5  UNL d   1      -5.344   1.032  -0.686  0.00  0.00     0.033 A 
ATOM      6  C6  UNL d   1      -4.312   0.428   0.039  0.00  0.00    -0.057 A 
ENDROOT
BRANCH   1   7
ATOM      7  N   UNL d   1      -2.686  -1.312   0.374  0.00  0.00    -0.732 N 
ATOM      8  C   UNL d   1      -2.841  -2.694   0.776  0.00  0.00     0.284 C 
ATOM      9  H3  UNL d   1      -1.733  -1.055   0.126  0.00  0.00     0.395 HD
ENDBRANCH   1   7
TORSDOF 1
ENDMDL
