MODEL 1
REMARK minimizedAffinity 1.14591146
REMARK minimizedRMSD -1
REMARK  1 active torsions:
REMARK  status: ('A' for Active; 'I' for Inactive)
REMARK    1  A    between atoms: N_2  and  C1_3 
ROOT
ATOM      1  C1  UNL d   1      -0.453  -5.843  -4.874  0.00  0.00     0.143 A 
ATOM      2  C2  UNL d   1      -1.818  -5.878  -5.176  0.00  0.00    -0.057 A 
ATOM      3  C3  UNL d   1      -2.784  -5.941  -4.165  0.00  0.00     0.033 A 
ATOM      4  C4  UNL d   1      -2.399  -5.999  -2.830  0.00  0.00    -0.042 A 
ATOM      5  C5  UNL d   1      -1.047  -5.991  -2.507  0.00  0.00     0.033 A 
ATOM      6  C6  UNL d   1      -0.087  -5.922  -3.521  0.00  0.00    -0.057 A 
ENDROOT
BRANCH   1   7
ATOM      7  N   UNL d   1       0.559  -5.880  -5.837  0.00  0.00    -0.732 N 
ATOM      8  C   UNL d   1       1.798  -5.162  -5.633  0.00  0.00     0.284 C 
ATOM      9  H3  UNL d   1       0.677  -6.807  -6.241  0.00  0.00     0.395 HD
ENDBRANCH   1   7
TORSDOF 1
ENDMDL
