MODEL 1
REMARK minimizedAffinity 3.43588161
REMARK minimizedRMSD -1
REMARK  0 active torsions:
REMARK  status: ('A' for Active; 'I' for Inactive)
ROOT
ATOM      1  C   UNL d   1       2.937  -1.168  -0.368  0.00  0.00     0.078 C 
ATOM      2  C1  UNL d   1       1.786  -2.115  -0.533  0.00  0.00    -0.077 A 
ATOM      3  C2  UNL d   1       0.955  -2.050  -1.658  0.00  0.00    -0.001 A 
ATOM      4  C3  UNL d   1      -0.119  -2.932  -1.795  0.00  0.00     0.003 A 
ATOM      5  C4  UNL d   1      -0.372  -3.884  -0.809  0.00  0.00    -0.005 A 
ATOM      6  C5  UNL d   1       0.449  -3.955   0.315  0.00  0.00     0.003 A 
ATOM      7  C6  UNL d   1       1.523  -3.074   0.453  0.00  0.00    -0.001 A 
ENDROOT
TORSDOF 0
ENDMDL
