MODEL 1
REMARK minimizedAffinity 6.45734978
REMARK minimizedRMSD -1
REMARK  0 active torsions:
REMARK  status: ('A' for Active; 'I' for Inactive)
ROOT
ATOM      1  C   UNL d   1       2.385   0.906  -0.108  0.00  0.00     0.078 C 
ATOM      2  C1  UNL d   1       1.055   0.954   0.583  0.00  0.00    -0.077 A 
ATOM      3  C2  UNL d   1       0.960   0.834   1.975  0.00  0.00    -0.001 A 
ATOM      4  C3  UNL d   1      -0.285   0.870   2.603  0.00  0.00     0.003 A 
ATOM      5  C4  UNL d   1      -1.446   1.026   1.848  0.00  0.00    -0.005 A 
ATOM      6  C5  UNL d   1      -1.362   1.145   0.462  0.00  0.00     0.003 A 
ATOM      7  C6  UNL d   1      -0.117   1.108  -0.168  0.00  0.00    -0.001 A 
ENDROOT
TORSDOF 0
ENDMDL
