MODEL 1
REMARK minimizedAffinity 1.49196577
REMARK minimizedRMSD -1
REMARK  0 active torsions:
REMARK  status: ('A' for Active; 'I' for Inactive)
ROOT
ATOM      1  C   UNL d   1      -1.216   0.811   2.282  0.00  0.00     0.078 C 
ATOM      2  C1  UNL d   1      -0.352   0.095   3.277  0.00  0.00    -0.077 A 
ATOM      3  C2  UNL d   1       0.234  -1.139   2.967  0.00  0.00    -0.001 A 
ATOM      4  C3  UNL d   1       1.028  -1.799   3.906  0.00  0.00     0.003 A 
ATOM      5  C4  UNL d   1       1.243  -1.234   5.161  0.00  0.00    -0.005 A 
ATOM      6  C5  UNL d   1       0.663  -0.008   5.479  0.00  0.00     0.003 A 
ATOM      7  C6  UNL d   1      -0.132   0.654   4.542  0.00  0.00    -0.001 A 
ENDROOT
TORSDOF 0
ENDMDL
