MODEL 1
REMARK minimizedAffinity 0.052392967
REMARK minimizedRMSD -1
REMARK  0 active torsions:
REMARK  status: ('A' for Active; 'I' for Inactive)
ROOT
ATOM      1  C   UNL d   1       2.437   0.366   0.083  0.00  0.00     0.078 C 
ATOM      2  C1  UNL d   1       1.146   0.669   0.783  0.00  0.00    -0.077 A 
ATOM      3  C2  UNL d   1       0.045   1.173   0.080  0.00  0.00    -0.001 A 
ATOM      4  C3  UNL d   1      -1.147   1.460   0.747  0.00  0.00     0.003 A 
ATOM      5  C4  UNL d   1      -1.249   1.247   2.120  0.00  0.00    -0.005 A 
ATOM      6  C5  UNL d   1      -0.158   0.748   2.828  0.00  0.00     0.003 A 
ATOM      7  C6  UNL d   1       1.035   0.461   2.163  0.00  0.00    -0.001 A 
ENDROOT
TORSDOF 0
ENDMDL
