MODEL 1
REMARK minimizedAffinity 3.15509152
REMARK minimizedRMSD -1
REMARK  0 active torsions:
REMARK  status: ('A' for Active; 'I' for Inactive)
ROOT
ATOM      1  C   UNL d   1      -1.163  -0.224  -2.200  0.00  0.00     0.078 C 
ATOM      2  C1  UNL d   1      -2.246   0.220  -3.138  0.00  0.00    -0.077 A 
ATOM      3  C2  UNL d   1      -3.570  -0.196  -2.959  0.00  0.00    -0.001 A 
ATOM      4  C3  UNL d   1      -4.566   0.217  -3.846  0.00  0.00     0.003 A 
ATOM      5  C4  UNL d   1      -4.248   1.047  -4.919  0.00  0.00    -0.005 A 
ATOM      6  C5  UNL d   1      -2.932   1.464  -5.106  0.00  0.00     0.003 A 
ATOM      7  C6  UNL d   1      -1.934   1.052  -4.221  0.00  0.00    -0.001 A 
ENDROOT
TORSDOF 0
ENDMDL
