MODEL 1
REMARK minimizedAffinity 4.9370513
REMARK minimizedRMSD -1
REMARK  0 active torsions:
REMARK  status: ('A' for Active; 'I' for Inactive)
ROOT
ATOM      1  C   UNL d   1       4.973   1.450  -0.499  0.00  0.00     0.078 C 
ATOM      2  C1  UNL d   1       3.795   0.596  -0.137  0.00  0.00    -0.077 A 
ATOM      3  C2  UNL d   1       2.673   1.145   0.494  0.00  0.00    -0.001 A 
ATOM      4  C3  UNL d   1       1.588   0.336   0.835  0.00  0.00     0.003 A 
ATOM      5  C4  UNL d   1       1.615  -1.028   0.549  0.00  0.00    -0.005 A 
ATOM      6  C5  UNL d   1       2.729  -1.584  -0.077  0.00  0.00     0.003 A 
ATOM      7  C6  UNL d   1       3.815  -0.776  -0.418  0.00  0.00    -0.001 A 
ENDROOT
TORSDOF 0
ENDMDL
