MODEL 1
REMARK minimizedAffinity 2.15404963
REMARK minimizedRMSD -1
REMARK  0 active torsions:
REMARK  status: ('A' for Active; 'I' for Inactive)
ROOT
ATOM      1  C   UNL d   1       4.605   0.994   0.012  0.00  0.00     0.078 C 
ATOM      2  C1  UNL d   1       3.970  -0.301  -0.401  0.00  0.00    -0.077 A 
ATOM      3  C2  UNL d   1       4.188  -0.837  -1.676  0.00  0.00    -0.001 A 
ATOM      4  C3  UNL d   1       3.583  -2.038  -2.049  0.00  0.00     0.003 A 
ATOM      5  C4  UNL d   1       2.754  -2.712  -1.154  0.00  0.00    -0.005 A 
ATOM      6  C5  UNL d   1       2.530  -2.185   0.116  0.00  0.00     0.003 A 
ATOM      7  C6  UNL d   1       3.134  -0.984   0.491  0.00  0.00    -0.001 A 
ENDROOT
TORSDOF 0
ENDMDL
