MODEL 1
REMARK minimizedAffinity 0.920641005
REMARK minimizedRMSD -1
REMARK  0 active torsions:
REMARK  status: ('A' for Active; 'I' for Inactive)
ROOT
ATOM      1  C   UNL d   1      -1.675   1.271  -0.514  0.00  0.00     0.078 C 
ATOM      2  C1  UNL d   1      -0.701   0.840   0.541  0.00  0.00    -0.077 A 
ATOM      3  C2  UNL d   1      -1.082   0.762   1.886  0.00  0.00    -0.001 A 
ATOM      4  C3  UNL d   1      -0.161   0.368   2.859  0.00  0.00     0.003 A 
ATOM      5  C4  UNL d   1       1.146   0.050   2.497  0.00  0.00    -0.005 A 
ATOM      6  C5  UNL d   1       1.535   0.127   1.161  0.00  0.00     0.003 A 
ATOM      7  C6  UNL d   1       0.616   0.520   0.187  0.00  0.00    -0.001 A 
ENDROOT
TORSDOF 0
ENDMDL
