MODEL 1
REMARK minimizedAffinity 2.64808607
REMARK minimizedRMSD -1
REMARK  0 active torsions:
REMARK  status: ('A' for Active; 'I' for Inactive)
ROOT
ATOM      1  C   UNL d   1      -1.597   1.522  -0.669  0.00  0.00     0.078 C 
ATOM      2  C1  UNL d   1      -0.768   1.250   0.550  0.00  0.00    -0.077 A 
ATOM      3  C2  UNL d   1       0.627   1.157   0.467  0.00  0.00    -0.001 A 
ATOM      4  C3  UNL d   1       1.386   0.894   1.608  0.00  0.00     0.003 A 
ATOM      5  C4  UNL d   1       0.759   0.721   2.841  0.00  0.00    -0.005 A 
ATOM      6  C5  UNL d   1      -0.628   0.809   2.933  0.00  0.00     0.003 A 
ATOM      7  C6  UNL d   1      -1.389   1.072   1.792  0.00  0.00    -0.001 A 
ENDROOT
TORSDOF 0
ENDMDL
