MODEL 1
REMARK minimizedAffinity -1.58190966
REMARK minimizedRMSD -1
REMARK  0 active torsions:
REMARK  status: ('A' for Active; 'I' for Inactive)
ROOT
ATOM      1  C1  BNZ d   1       0.130   1.291  -1.069  0.00  0.00     0.000 A 
ATOM      2  C2  BNZ d   1      -0.628   2.364  -1.454  0.00  0.00     0.000 A 
ATOM      3  C3  BNZ d   1      -1.893   2.539  -0.967  0.00  0.00     0.000 A 
ATOM      4  C4  BNZ d   1      -2.413   1.619  -0.128  0.00  0.00     0.000 A 
ATOM      5  C5  BNZ d   1      -1.665   0.527   0.262  0.00  0.00     0.000 A 
ATOM      6  C6  BNZ d   1      -0.377   0.375  -0.200  0.00  0.00     0.000 A 
ENDROOT
TORSDOF 0
ENDMDL
