MODEL 1
REMARK minimizedAffinity -2.95872474
REMARK minimizedRMSD -1
REMARK  0 active torsions:
REMARK  status: ('A' for Active; 'I' for Inactive)
ROOT
ATOM      1  C1  BNZ d   1      -3.162   1.549   0.334  0.00  0.00     0.000 A 
ATOM      2  C2  BNZ d   1      -2.126   2.364  -0.036  0.00  0.00     0.000 A 
ATOM      3  C3  BNZ d   1      -0.840   2.064   0.316  0.00  0.00     0.000 A 
ATOM      4  C4  BNZ d   1      -0.596   0.972   1.070  0.00  0.00     0.000 A 
ATOM      5  C5  BNZ d   1      -1.631   0.146   1.458  0.00  0.00     0.000 A 
ATOM      6  C6  BNZ d   1      -2.920   0.430   1.069  0.00  0.00     0.000 A 
ENDROOT
TORSDOF 0
ENDMDL
