MODEL 1
REMARK minimizedAffinity -4.25739479
REMARK minimizedRMSD -1
REMARK  0 active torsions:
REMARK  status: ('A' for Active; 'I' for Inactive)
ROOT
ATOM      1  C1  BNZ d   1      -0.375   1.919  -0.205  0.00  0.00     0.000 A 
ATOM      2  C2  BNZ d   1      -1.550   2.413  -0.707  0.00  0.00     0.000 A 
ATOM      3  C3  BNZ d   1      -2.753   1.998  -0.209  0.00  0.00     0.000 A 
ATOM      4  C4  BNZ d   1      -2.782   1.060   0.760  0.00  0.00     0.000 A 
ATOM      5  C5  BNZ d   1      -1.607   0.546   1.270  0.00  0.00     0.000 A 
ATOM      6  C6  BNZ d   1      -0.396   0.995   0.794  0.00  0.00     0.000 A 
ENDROOT
TORSDOF 0
ENDMDL
