MODEL 1
REMARK minimizedAffinity -4.43451595
REMARK minimizedRMSD -1
REMARK  0 active torsions:
REMARK  status: ('A' for Active; 'I' for Inactive)
ROOT
ATOM      1  C1  BNZ d   1      -2.649   1.264   0.331  0.00  0.00     0.000 A 
ATOM      2  C2  BNZ d   1      -1.683   2.226   0.196  0.00  0.00     0.000 A 
ATOM      3  C3  BNZ d   1      -0.361   1.916   0.350  0.00  0.00     0.000 A 
ATOM      4  C4  BNZ d   1      -0.009   0.656   0.678  0.00  0.00     0.000 A 
ATOM      5  C5  BNZ d   1      -0.971  -0.322   0.827  0.00  0.00     0.000 A 
ATOM      6  C6  BNZ d   1      -2.299  -0.016   0.632  0.00  0.00     0.000 A 
ENDROOT
TORSDOF 0
ENDMDL
