MODEL 1
REMARK minimizedAffinity -1.21743226
REMARK minimizedRMSD -1
REMARK  0 active torsions:
REMARK  status: ('A' for Active; 'I' for Inactive)
ROOT
ATOM      1  C1  BNZ d   1      -0.022   1.168   0.961  0.00  0.00     0.000 A 
ATOM      2  C2  BNZ d   1      -0.443   2.297   0.308  0.00  0.00     0.000 A 
ATOM      3  C3  BNZ d   1      -1.695   2.364  -0.238  0.00  0.00     0.000 A 
ATOM      4  C4  BNZ d   1      -2.508   1.290  -0.166  0.00  0.00     0.000 A 
ATOM      5  C5  BNZ d   1      -2.094   0.142   0.480  0.00  0.00     0.000 A 
ATOM      6  C6  BNZ d   1      -0.848   0.092   1.062  0.00  0.00     0.000 A 
ENDROOT
TORSDOF 0
ENDMDL
