MODEL 1
REMARK minimizedAffinity 1.5246383
REMARK minimizedRMSD -1
REMARK  0 active torsions:
REMARK  status: ('A' for Active; 'I' for Inactive)
ROOT
ATOM      1  C1  BNZ d   1       0.050   3.845  -0.691  0.00  0.00     0.000 A 
ATOM      2  C2  BNZ d   1      -1.319   3.804  -0.718  0.00  0.00     0.000 A 
ATOM      3  C3  BNZ d   1      -1.985   2.616  -0.605  0.00  0.00     0.000 A 
ATOM      4  C4  BNZ d   1      -1.284   1.469  -0.505  0.00  0.00     0.000 A 
ATOM      5  C5  BNZ d   1       0.097   1.493  -0.486  0.00  0.00     0.000 A 
ATOM      6  C6  BNZ d   1       0.764   2.694  -0.561  0.00  0.00     0.000 A 
ENDROOT
TORSDOF 0
ENDMDL
