MODEL 1
REMARK minimizedAffinity 1.14837122
REMARK minimizedRMSD -1
REMARK  0 active torsions:
REMARK  status: ('A' for Active; 'I' for Inactive)
ROOT
ATOM      1  C1  BNZ d   1      -2.098   1.388  -0.379  0.00  0.00     0.000 A 
ATOM      2  C2  BNZ d   1      -1.038   2.245  -0.247  0.00  0.00     0.000 A 
ATOM      3  C3  BNZ d   1      -0.044   1.996   0.659  0.00  0.00     0.000 A 
ATOM      4  C4  BNZ d   1      -0.132   0.913   1.457  0.00  0.00     0.000 A 
ATOM      5  C5  BNZ d   1      -1.199   0.044   1.343  0.00  0.00     0.000 A 
ATOM      6  C6  BNZ d   1      -2.177   0.277   0.404  0.00  0.00     0.000 A 
ENDROOT
TORSDOF 0
ENDMDL
