MODEL 1
REMARK minimizedAffinity -2.46910954
REMARK minimizedRMSD -1
REMARK  0 active torsions:
REMARK  status: ('A' for Active; 'I' for Inactive)
ROOT
ATOM      1  C1  BNZ d   1       3.009   0.826   1.299  0.00  0.00     0.000 A 
ATOM      2  C2  BNZ d   1       1.774   1.058   1.845  0.00  0.00     0.000 A 
ATOM      3  C3  BNZ d   1       0.799   1.692   1.127  0.00  0.00     0.000 A 
ATOM      4  C4  BNZ d   1       1.072   2.128  -0.120  0.00  0.00     0.000 A 
ATOM      5  C5  BNZ d   1       2.314   1.909  -0.681  0.00  0.00     0.000 A 
ATOM      6  C6  BNZ d   1       3.281   1.236   0.030  0.00  0.00     0.000 A 
ENDROOT
TORSDOF 0
ENDMDL
