MODEL 1
REMARK minimizedAffinity -0.156481028
REMARK minimizedRMSD -1
REMARK  0 active torsions:
REMARK  status: ('A' for Active; 'I' for Inactive)
ROOT
ATOM      1  C1  BNZ d   1      -3.718   0.953   0.369  0.00  0.00     0.000 A 
ATOM      2  C2  BNZ d   1      -3.067   2.065  -0.095  0.00  0.00     0.000 A 
ATOM      3  C3  BNZ d   1      -1.790   2.346   0.303  0.00  0.00     0.000 A 
ATOM      4  C4  BNZ d   1      -1.180   1.538   1.194  0.00  0.00     0.000 A 
ATOM      5  C5  BNZ d   1      -1.826   0.418   1.678  0.00  0.00     0.000 A 
ATOM      6  C6  BNZ d   1      -3.097   0.117   1.245  0.00  0.00     0.000 A 
ENDROOT
TORSDOF 0
ENDMDL
