MODEL 1
REMARK minimizedAffinity -1.02711451
REMARK minimizedRMSD -1
REMARK  0 active torsions:
REMARK  status: ('A' for Active; 'I' for Inactive)
ROOT
ATOM      1  C1  BNZ d   1      -2.693   1.465   0.242  0.00  0.00     0.000 A 
ATOM      2  C2  BNZ d   1      -1.779   2.465   0.043  0.00  0.00     0.000 A 
ATOM      3  C3  BNZ d   1      -0.495   2.340   0.494  0.00  0.00     0.000 A 
ATOM      4  C4  BNZ d   1      -0.137   1.233   1.176  0.00  0.00     0.000 A 
ATOM      5  C5  BNZ d   1      -1.049   0.219   1.393  0.00  0.00     0.000 A 
ATOM      6  C6  BNZ d   1      -2.330   0.333   0.904  0.00  0.00     0.000 A 
ENDROOT
TORSDOF 0
ENDMDL
