MODEL 1
REMARK minimizedAffinity -2.23277116
REMARK minimizedRMSD -1
REMARK  0 active torsions:
REMARK  status: ('A' for Active; 'I' for Inactive)
ROOT
ATOM      1  C1  BNZ d   1       0.251   1.458  -0.055  0.00  0.00     0.000 A 
ATOM      2  C2  BNZ d   1       0.527   0.635   1.004  0.00  0.00     0.000 A 
ATOM      3  C3  BNZ d   1      -0.481   0.034   1.704  0.00  0.00     0.000 A 
ATOM      4  C4  BNZ d   1      -1.763   0.288   1.371  0.00  0.00     0.000 A 
ATOM      5  C5  BNZ d   1      -2.058   1.123   0.311  0.00  0.00     0.000 A 
ATOM      6  C6  BNZ d   1      -1.039   1.696  -0.416  0.00  0.00     0.000 A 
ENDROOT
TORSDOF 0
ENDMDL
