MODEL 1
REMARK minimizedAffinity -0.651184142
REMARK minimizedRMSD -1
REMARK  0 active torsions:
REMARK  status: ('A' for Active; 'I' for Inactive)
ROOT
ATOM      1  C1  BNZ d   1      -3.132   0.841   0.871  0.00  0.00     0.000 A 
ATOM      2  C2  BNZ d   1      -1.982   0.488   1.525  0.00  0.00     0.000 A 
ATOM      3  C3  BNZ d   1      -0.819   1.175   1.316  0.00  0.00     0.000 A 
ATOM      4  C4  BNZ d   1      -0.797   2.186   0.424  0.00  0.00     0.000 A 
ATOM      5  C5  BNZ d   1      -1.946   2.548  -0.251  0.00  0.00     0.000 A 
ATOM      6  C6  BNZ d   1      -3.124   1.879  -0.009  0.00  0.00     0.000 A 
ENDROOT
TORSDOF 0
ENDMDL
