MODEL 1
REMARK minimizedAffinity 0.151190311
REMARK minimizedRMSD -1
REMARK  0 active torsions:
REMARK  status: ('A' for Active; 'I' for Inactive)
ROOT
ATOM      1  C1  BNZ d   1       2.300   1.771   1.170  0.00  0.00     0.000 A 
ATOM      2  C2  BNZ d   1       1.510   2.590   1.931  0.00  0.00     0.000 A 
ATOM      3  C3  BNZ d   1       0.155   2.618   1.752  0.00  0.00     0.000 A 
ATOM      4  C4  BNZ d   1      -0.403   1.859   0.788  0.00  0.00     0.000 A 
ATOM      5  C5  BNZ d   1       0.382   1.035   0.006  0.00  0.00     0.000 A 
ATOM      6  C6  BNZ d   1       1.741   0.980   0.214  0.00  0.00     0.000 A 
ENDROOT
TORSDOF 0
ENDMDL
