MODEL 1
REMARK minimizedAffinity 2.96755123
REMARK minimizedRMSD -1
REMARK  0 active torsions:
REMARK  status: ('A' for Active; 'I' for Inactive)
ROOT
ATOM      1  C1  BNZ d   1       2.134   1.788   1.362  0.00  0.00     0.000 A 
ATOM      2  C2  BNZ d   1       1.726   2.745   2.252  0.00  0.00     0.000 A 
ATOM      3  C3  BNZ d   1       0.405   3.080   2.364  0.00  0.00     0.000 A 
ATOM      4  C4  BNZ d   1      -0.499   2.487   1.558  0.00  0.00     0.000 A 
ATOM      5  C5  BNZ d   1      -0.103   1.526   0.649  0.00  0.00     0.000 A 
ATOM      6  C6  BNZ d   1       1.222   1.164   0.567  0.00  0.00     0.000 A 
ENDROOT
TORSDOF 0
ENDMDL
