MODEL 1
REMARK minimizedAffinity -4.17223024
REMARK minimizedRMSD -1
REMARK  0 active torsions:
REMARK  status: ('A' for Active; 'I' for Inactive)
ROOT
ATOM      1  C1  BNZ d   1       1.539   0.602   0.521  0.00  0.00     0.000 A 
ATOM      2  C2  BNZ d   1       2.219   1.410   1.393  0.00  0.00     0.000 A 
ATOM      3  C3  BNZ d   1       1.600   2.472   1.991  0.00  0.00     0.000 A 
ATOM      4  C4  BNZ d   1       0.315   2.748   1.687  0.00  0.00     0.000 A 
ATOM      5  C5  BNZ d   1      -0.381   1.948   0.803  0.00  0.00     0.000 A 
ATOM      6  C6  BNZ d   1       0.234   0.858   0.232  0.00  0.00     0.000 A 
ENDROOT
TORSDOF 0
ENDMDL
