MODEL 1
REMARK minimizedAffinity -2.48828864
REMARK minimizedRMSD -1
REMARK  0 active torsions:
REMARK  status: ('A' for Active; 'I' for Inactive)
ROOT
ATOM      1  N1  IND d   1      -2.966   0.474   0.708  0.00  0.00    -0.196 N 
ATOM      2  C2  IND d   1      -3.528   0.578   1.950  0.00  0.00     0.054 A 
ATOM      3  C3  IND d   1      -2.572   0.534   2.904  0.00  0.00    -0.031 A 
ATOM      4  C4  IND d   1      -0.014   0.398   2.651  0.00  0.00     0.051 A 
ATOM      5  C5  IND d   1       0.970   0.248   1.713  0.00  0.00    -0.031 A 
ATOM      6  C6  IND d   1       0.685   0.167   0.366  0.00  0.00     0.015 A 
ATOM      7  C7  IND d   1      -0.597   0.244  -0.098  0.00  0.00    -0.016 A 
ATOM      8  C8  IND d   1      -1.599   0.390   0.852  0.00  0.00    -0.047 A 
ATOM      9  C9  IND d   1      -1.320   0.430   2.224  0.00  0.00    -0.096 A 
ATOM     10  HN1 IND d   1      -3.395   0.463  -0.037  0.00  0.00     0.298 HD
ENDROOT
TORSDOF 0
ENDMDL
