MODEL 1
REMARK minimizedAffinity 0.742598295
REMARK minimizedRMSD -1
REMARK  0 active torsions:
REMARK  status: ('A' for Active; 'I' for Inactive)
ROOT
ATOM      1  N1  IND d   1      -0.462   0.156  -1.656  0.00  0.00    -0.196 N 
ATOM      2  C2  IND d   1       0.873   0.122  -1.366  0.00  0.00     0.054 A 
ATOM      3  C3  IND d   1       1.063   0.084  -0.028  0.00  0.00    -0.031 A 
ATOM      4  C4  IND d   1      -0.674  -0.031   1.868  0.00  0.00     0.051 A 
ATOM      5  C5  IND d   1      -2.020   0.013   2.100  0.00  0.00    -0.031 A 
ATOM      6  C6  IND d   1      -2.934   0.105   1.071  0.00  0.00     0.015 A 
ATOM      7  C7  IND d   1      -2.535   0.147  -0.235  0.00  0.00    -0.016 A 
ATOM      8  C8  IND d   1      -1.169   0.110  -0.474  0.00  0.00    -0.047 A 
ATOM      9  C9  IND d   1      -0.234   0.059   0.569  0.00  0.00    -0.096 A 
ATOM     10  HN1 IND d   1      -0.803   0.200  -2.444  0.00  0.00     0.298 HD
ENDROOT
TORSDOF 0
ENDMDL
