MODEL 1
REMARK minimizedAffinity -4.62006521
REMARK minimizedRMSD -1
REMARK  0 active torsions:
REMARK  status: ('A' for Active; 'I' for Inactive)
ROOT
ATOM      1  N1  IND d   1      -0.463   0.221  -0.741  0.00  0.00    -0.196 N 
ATOM      2  C2  IND d   1       0.845   0.611  -0.670  0.00  0.00     0.054 A 
ATOM      3  C3  IND d   1       1.222   0.760   0.620  0.00  0.00    -0.031 A 
ATOM      4  C4  IND d   1      -0.113   0.318   2.776  0.00  0.00     0.051 A 
ATOM      5  C5  IND d   1      -1.362  -0.017   3.220  0.00  0.00    -0.031 A 
ATOM      6  C6  IND d   1      -2.394  -0.298   2.349  0.00  0.00     0.015 A 
ATOM      7  C7  IND d   1      -2.213  -0.266   0.995  0.00  0.00    -0.016 A 
ATOM      8  C8  IND d   1      -0.949   0.081   0.541  0.00  0.00    -0.047 A 
ATOM      9  C9  IND d   1       0.091   0.409   1.419  0.00  0.00    -0.096 A 
ATOM     10  HN1 IND d   1      -0.908   0.085  -1.464  0.00  0.00     0.298 HD
ENDROOT
TORSDOF 0
ENDMDL
