MODEL 1
REMARK minimizedAffinity -5.27228022
REMARK minimizedRMSD -1
REMARK  0 active torsions:
REMARK  status: ('A' for Active; 'I' for Inactive)
ROOT
ATOM      1  N1  IND d   1      -0.744   0.421  -0.932  0.00  0.00    -0.196 N 
ATOM      2  C2  IND d   1       0.616   0.500  -1.046  0.00  0.00     0.054 A 
ATOM      3  C3  IND d   1       1.199   0.343   0.164  0.00  0.00    -0.031 A 
ATOM      4  C4  IND d   1       0.120  -0.156   2.447  0.00  0.00     0.051 A 
ATOM      5  C5  IND d   1      -1.096  -0.282   3.060  0.00  0.00    -0.031 A 
ATOM      6  C6  IND d   1      -2.280  -0.181   2.358  0.00  0.00     0.015 A 
ATOM      7  C7  IND d   1      -2.292   0.040   1.010  0.00  0.00    -0.016 A 
ATOM      8  C8  IND d   1      -1.060   0.175   0.386  0.00  0.00    -0.047 A 
ATOM      9  C9  IND d   1       0.144   0.116   1.100  0.00  0.00    -0.096 A 
ATOM     10  HN1 IND d   1      -1.307   0.509  -1.576  0.00  0.00     0.298 HD
ENDROOT
TORSDOF 0
ENDMDL
