MODEL 1
REMARK minimizedAffinity -0.725455344
REMARK minimizedRMSD -1
REMARK  0 active torsions:
REMARK  status: ('A' for Active; 'I' for Inactive)
ROOT
ATOM      1  N1  IND d   1       1.204  -0.099  -0.340  0.00  0.00    -0.196 N 
ATOM      2  C2  IND d   1      -0.060   0.109   0.135  0.00  0.00     0.054 A 
ATOM      3  C3  IND d   1      -0.971  -0.111  -0.839  0.00  0.00    -0.031 A 
ATOM      4  C4  IND d   1      -0.617  -0.918  -3.257  0.00  0.00     0.051 A 
ATOM      5  C5  IND d   1       0.364  -1.208  -4.164  0.00  0.00    -0.031 A 
ATOM      6  C6  IND d   1       1.703  -1.144  -3.834  0.00  0.00     0.015 A 
ATOM      7  C7  IND d   1       2.111  -0.798  -2.577  0.00  0.00    -0.016 A 
ATOM      8  C8  IND d   1       1.118  -0.496  -1.657  0.00  0.00    -0.047 A 
ATOM      9  C9  IND d   1      -0.241  -0.518  -1.997  0.00  0.00    -0.096 A 
ATOM     10  HN1 IND d   1       1.932   0.001   0.107  0.00  0.00     0.298 HD
ENDROOT
TORSDOF 0
ENDMDL
