MODEL 1
REMARK minimizedAffinity -2.85803843
REMARK minimizedRMSD -1
REMARK  0 active torsions:
REMARK  status: ('A' for Active; 'I' for Inactive)
ROOT
ATOM      1  N1  IND d   1      -0.370  -0.831  -0.732  0.00  0.00    -0.196 N 
ATOM      2  C2  IND d   1       0.051   0.204   0.055  0.00  0.00     0.054 A 
ATOM      3  C3  IND d   1       1.085   0.850  -0.531  0.00  0.00    -0.031 A 
ATOM      4  C4  IND d   1       2.180   0.440  -2.825  0.00  0.00     0.051 A 
ATOM      5  C5  IND d   1       2.162  -0.416  -3.889  0.00  0.00    -0.031 A 
ATOM      6  C6  IND d   1       1.280  -1.475  -3.959  0.00  0.00     0.015 A 
ATOM      7  C7  IND d   1       0.370  -1.711  -2.966  0.00  0.00    -0.016 A 
ATOM      8  C8  IND d   1       0.390  -0.847  -1.881  0.00  0.00    -0.047 A 
ATOM      9  C9  IND d   1       1.312   0.204  -1.785  0.00  0.00    -0.096 A 
ATOM     10  HN1 IND d   1      -1.003  -1.381  -0.541  0.00  0.00     0.298 HD
ENDROOT
TORSDOF 0
ENDMDL
