MODEL 1
REMARK minimizedAffinity -2.8466506
REMARK minimizedRMSD -1
REMARK  0 active torsions:
REMARK  status: ('A' for Active; 'I' for Inactive)
ROOT
ATOM      1  N1  IND d   1      -1.477   0.255  -0.193  0.00  0.00    -0.196 N 
ATOM      2  C2  IND d   1      -0.630   0.256  -1.266  0.00  0.00     0.054 A 
ATOM      3  C3  IND d   1       0.654   0.169  -0.852  0.00  0.00    -0.031 A 
ATOM      4  C4  IND d   1       1.590  -0.087   1.532  0.00  0.00     0.051 A 
ATOM      5  C5  IND d   1       1.207  -0.101   2.844  0.00  0.00    -0.031 A 
ATOM      6  C6  IND d   1      -0.118   0.002   3.218  0.00  0.00     0.015 A 
ATOM      7  C7  IND d   1      -1.114   0.113   2.289  0.00  0.00    -0.016 A 
ATOM      8  C8  IND d   1      -0.728   0.134   0.956  0.00  0.00    -0.047 A 
ATOM      9  C9  IND d   1       0.618   0.072   0.572  0.00  0.00    -0.096 A 
ATOM     10  HN1 IND d   1      -2.334   0.319  -0.230  0.00  0.00     0.298 HD
ENDROOT
TORSDOF 0
ENDMDL
