MODEL 1
REMARK minimizedAffinity -2.70640922
REMARK minimizedRMSD -1
REMARK  0 active torsions:
REMARK  status: ('A' for Active; 'I' for Inactive)
ROOT
ATOM      1  N1  IND d   1      -1.767   0.975  -0.494  0.00  0.00    -0.196 N 
ATOM      2  C2  IND d   1      -0.715   0.945  -1.367  0.00  0.00     0.054 A 
ATOM      3  C3  IND d   1       0.432   0.659  -0.712  0.00  0.00    -0.031 A 
ATOM      4  C4  IND d   1       0.801   0.103   1.774  0.00  0.00     0.051 A 
ATOM      5  C5  IND d   1       0.147   0.040   2.973  0.00  0.00    -0.031 A 
ATOM      6  C6  IND d   1      -1.206   0.288   3.078  0.00  0.00     0.015 A 
ATOM      7  C7  IND d   1      -1.961   0.598   1.983  0.00  0.00    -0.016 A 
ATOM      8  C8  IND d   1      -1.299   0.670   0.766  0.00  0.00    -0.047 A 
ATOM      9  C9  IND d   1       0.082   0.461   0.659  0.00  0.00    -0.096 A 
ATOM     10  HN1 IND d   1      -2.583   1.153  -0.697  0.00  0.00     0.298 HD
ENDROOT
TORSDOF 0
ENDMDL
