MODEL 1
REMARK minimizedAffinity -3.07479525
REMARK minimizedRMSD -1
REMARK  0 active torsions:
REMARK  status: ('A' for Active; 'I' for Inactive)
ROOT
ATOM      1  N1  IND d   1      -0.761  -0.256  -0.326  0.00  0.00    -0.196 N 
ATOM      2  C2  IND d   1       0.141   0.433   0.436  0.00  0.00     0.054 A 
ATOM      3  C3  IND d   1       1.325   0.529  -0.208  0.00  0.00    -0.031 A 
ATOM      4  C4  IND d   1       1.977  -0.282  -2.563  0.00  0.00     0.051 A 
ATOM      5  C5  IND d   1       1.501  -0.997  -3.626  0.00  0.00    -0.031 A 
ATOM      6  C6  IND d   1       0.219  -1.509  -3.646  0.00  0.00     0.015 A 
ATOM      7  C7  IND d   1      -0.641  -1.315  -2.602  0.00  0.00    -0.016 A 
ATOM      8  C8  IND d   1      -0.158  -0.596  -1.518  0.00  0.00    -0.047 A 
ATOM      9  C9  IND d   1       1.155  -0.110  -1.475  0.00  0.00    -0.096 A 
ATOM     10  HN1 IND d   1      -1.568  -0.446  -0.100  0.00  0.00     0.298 HD
ENDROOT
TORSDOF 0
ENDMDL
