MODEL 1
REMARK minimizedAffinity -2.17453766
REMARK minimizedRMSD -1
REMARK  0 active torsions:
REMARK  status: ('A' for Active; 'I' for Inactive)
ROOT
ATOM      1  N1  IND d   1      -0.282  -1.209  -3.241  0.00  0.00    -0.196 N 
ATOM      2  C2  IND d   1       0.984  -0.998  -3.711  0.00  0.00     0.054 A 
ATOM      3  C3  IND d   1       1.698  -0.264  -2.827  0.00  0.00    -0.031 A 
ATOM      4  C4  IND d   1       1.019   0.612  -0.504  0.00  0.00     0.051 A 
ATOM      5  C5  IND d   1      -0.050   0.702   0.344  0.00  0.00    -0.031 A 
ATOM      6  C6  IND d   1      -1.275   0.146   0.034  0.00  0.00     0.015 A 
ATOM      7  C7  IND d   1      -1.474  -0.534  -1.134  0.00  0.00    -0.016 A 
ATOM      8  C8  IND d   1      -0.393  -0.621  -2.000  0.00  0.00    -0.047 A 
ATOM      9  C9  IND d   1       0.840  -0.022  -1.711  0.00  0.00    -0.096 A 
ATOM     10  HN1 IND d   1      -0.905  -1.636  -3.652  0.00  0.00     0.298 HD
ENDROOT
TORSDOF 0
ENDMDL
