MODEL 1
REMARK minimizedAffinity -4.04996634
REMARK minimizedRMSD -1
REMARK  0 active torsions:
REMARK  status: ('A' for Active; 'I' for Inactive)
ROOT
ATOM      1  N1  IND d   1      -1.007   0.170  -0.993  0.00  0.00    -0.196 N 
ATOM      2  C2  IND d   1       0.005   0.501  -1.850  0.00  0.00     0.054 A 
ATOM      3  C3  IND d   1       1.178   0.586  -1.183  0.00  0.00    -0.031 A 
ATOM      4  C4  IND d   1       1.685   0.124   1.298  0.00  0.00     0.051 A 
ATOM      5  C5  IND d   1       1.077  -0.173   2.485  0.00  0.00    -0.031 A 
ATOM      6  C6  IND d   1      -0.285  -0.377   2.575  0.00  0.00     0.015 A 
ATOM      7  C7  IND d   1      -1.091  -0.304   1.474  0.00  0.00    -0.016 A 
ATOM      8  C8  IND d   1      -0.477   0.005   0.268  0.00  0.00    -0.047 A 
ATOM      9  C9  IND d   1       0.899   0.255   0.178  0.00  0.00    -0.096 A 
ATOM     10  HN1 IND d   1      -1.835   0.080  -1.205  0.00  0.00     0.298 HD
ENDROOT
TORSDOF 0
ENDMDL
