MODEL 1
REMARK minimizedAffinity -4.15016747
REMARK minimizedRMSD -1
REMARK  0 active torsions:
REMARK  status: ('A' for Active; 'I' for Inactive)
ROOT
ATOM      1  N1  IND d   1      -2.603   1.051   0.191  0.00  0.00    -0.196 N 
ATOM      2  C2  IND d   1      -3.173   1.083   1.433  0.00  0.00     0.054 A 
ATOM      3  C3  IND d   1      -2.224   0.957   2.389  0.00  0.00    -0.031 A 
ATOM      4  C4  IND d   1       0.333   0.790   2.143  0.00  0.00     0.051 A 
ATOM      5  C5  IND d   1       1.320   0.684   1.204  0.00  0.00    -0.031 A 
ATOM      6  C6  IND d   1       1.045   0.697  -0.148  0.00  0.00     0.015 A 
ATOM      7  C7  IND d   1      -0.233   0.830  -0.613  0.00  0.00    -0.016 A 
ATOM      8  C8  IND d   1      -1.238   0.931   0.337  0.00  0.00    -0.047 A 
ATOM      9  C9  IND d   1      -0.970   0.875   1.711  0.00  0.00    -0.096 A 
ATOM     10  HN1 IND d   1      -3.026   1.098  -0.556  0.00  0.00     0.298 HD
ENDROOT
TORSDOF 0
ENDMDL
