MODEL 1
REMARK minimizedAffinity 0.1098333
REMARK minimizedRMSD -1
REMARK  0 active torsions:
REMARK  status: ('A' for Active; 'I' for Inactive)
ROOT
ATOM      1  N1  IND d   1      -0.093  -1.638  -3.084  0.00  0.00    -0.196 N 
ATOM      2  C2  IND d   1       0.955  -1.280  -3.886  0.00  0.00     0.054 A 
ATOM      3  C3  IND d   1       1.781  -0.433  -3.230  0.00  0.00    -0.031 A 
ATOM      4  C4  IND d   1       1.660   0.418  -0.804  0.00  0.00     0.051 A 
ATOM      5  C5  IND d   1       0.865   0.395   0.307  0.00  0.00    -0.031 A 
ATOM      6  C6  IND d   1      -0.313  -0.323   0.346  0.00  0.00     0.015 A 
ATOM      7  C7  IND d   1      -0.735  -1.057  -0.725  0.00  0.00    -0.016 A 
ATOM      8  C8  IND d   1       0.066  -1.031  -1.858  0.00  0.00    -0.047 A 
ATOM      9  C9  IND d   1       1.241  -0.270  -1.918  0.00  0.00    -0.096 A 
ATOM     10  HN1 IND d   1      -0.742  -2.154  -3.309  0.00  0.00     0.298 HD
ENDROOT
TORSDOF 0
ENDMDL
