MODEL 1
REMARK minimizedAffinity -0.471666068
REMARK minimizedRMSD -1
REMARK  0 active torsions:
REMARK  status: ('A' for Active; 'I' for Inactive)
ROOT
ATOM      1  N1  IND d   1      -0.987  -0.387  -0.836  0.00  0.00    -0.196 N 
ATOM      2  C2  IND d   1      -0.331   0.427   0.045  0.00  0.00     0.054 A 
ATOM      3  C3  IND d   1       0.927   0.669  -0.387  0.00  0.00    -0.031 A 
ATOM      4  C4  IND d   1       2.084  -0.083  -2.561  0.00  0.00     0.051 A 
ATOM      5  C5  IND d   1       1.899  -0.871  -3.662  0.00  0.00    -0.031 A 
ATOM      6  C6  IND d   1       0.718  -1.549  -3.884  0.00  0.00     0.015 A 
ATOM      7  C7  IND d   1      -0.332  -1.455  -3.014  0.00  0.00    -0.016 A 
ATOM      8  C8  IND d   1      -0.145  -0.662  -1.891  0.00  0.00    -0.047 A 
ATOM      9  C9  IND d   1       1.067  -0.006  -1.639  0.00  0.00    -0.096 A 
ATOM     10  HN1 IND d   1      -1.791  -0.679  -0.746  0.00  0.00     0.298 HD
ENDROOT
TORSDOF 0
ENDMDL
