MODEL 1
REMARK minimizedAffinity -1.18833613
REMARK minimizedRMSD -1
REMARK  0 active torsions:
REMARK  status: ('A' for Active; 'I' for Inactive)
ROOT
ATOM      1  N1  IND d   1       1.078  -0.052   1.979  0.00  0.00    -0.196 N 
ATOM      2  C2  IND d   1       1.626  -0.184   0.734  0.00  0.00     0.054 A 
ATOM      3  C3  IND d   1       0.680  -0.014  -0.217  0.00  0.00    -0.031 A 
ATOM      4  C4  IND d   1      -1.809   0.590   0.042  0.00  0.00     0.051 A 
ATOM      5  C5  IND d   1      -2.779   0.778   0.985  0.00  0.00    -0.031 A 
ATOM      6  C6  IND d   1      -2.508   0.700   2.336  0.00  0.00     0.015 A 
ATOM      7  C7  IND d   1      -1.247   0.442   2.795  0.00  0.00    -0.016 A 
ATOM      8  C8  IND d   1      -0.261   0.243   1.840  0.00  0.00    -0.047 A 
ATOM      9  C9  IND d   1      -0.539   0.279   0.467  0.00  0.00    -0.096 A 
ATOM     10  HN1 IND d   1       1.498  -0.138   2.725  0.00  0.00     0.298 HD
ENDROOT
TORSDOF 0
ENDMDL
