MODEL 1
REMARK minimizedAffinity -3.42628407
REMARK minimizedRMSD -1
REMARK  0 active torsions:
REMARK  status: ('A' for Active; 'I' for Inactive)
ROOT
ATOM      1  N1  IND d   1      -1.049   0.436  -0.977  0.00  0.00    -0.196 N 
ATOM      2  C2  IND d   1       0.117   0.169  -1.638  0.00  0.00     0.054 A 
ATOM      3  C3  IND d   1       1.108  -0.092  -0.756  0.00  0.00    -0.031 A 
ATOM      4  C4  IND d   1       1.016  -0.235   1.813  0.00  0.00     0.051 A 
ATOM      5  C5  IND d   1       0.177  -0.034   2.873  0.00  0.00    -0.031 A 
ATOM      6  C6  IND d   1      -1.140   0.338   2.701  0.00  0.00     0.015 A 
ATOM      7  C7  IND d   1      -1.674   0.514   1.455  0.00  0.00    -0.016 A 
ATOM      8  C8  IND d   1      -0.823   0.318   0.376  0.00  0.00    -0.047 A 
ATOM      9  C9  IND d   1       0.526  -0.019   0.546  0.00  0.00    -0.096 A 
ATOM     10  HN1 IND d   1      -1.798   0.643  -1.346  0.00  0.00     0.298 HD
ENDROOT
TORSDOF 0
ENDMDL
