MODEL 1
REMARK minimizedAffinity 3.48596454
REMARK minimizedRMSD -1
REMARK  2 active torsions:
REMARK  status: ('A' for Active; 'I' for Inactive)
REMARK    1  A    between atoms: C2'_3  and  C1'_4 
REMARK    2  A    between atoms: C1'_4  and  C1_5 
ROOT
ATOM      1  C1  I4B d   1       0.453  -0.986   2.745  0.00  0.00    -0.075 A 
ATOM      2  C2  I4B d   1       1.728  -0.727   2.307  0.00  0.00     0.003 A 
ATOM      3  C3  I4B d   1       2.830  -0.903   3.179  0.00  0.00     0.002 A 
ATOM      4  C4  I4B d   1       2.608  -1.287   4.486  0.00  0.00    -0.004 A 
ATOM      5  C5  I4B d   1       1.317  -1.571   4.921  0.00  0.00     0.002 A 
ATOM      6  C6  I4B d   1       0.233  -1.431   4.042  0.00  0.00     0.003 A 
ENDROOT
BRANCH   1   7
ATOM      7  C1' I4B d   1      -0.691  -0.758   1.808  0.00  0.00     0.060 C 
BRANCH   7   8
ATOM      8  C2' I4B d   1      -1.833  -0.159   2.602  0.00  0.00    -0.013 C 
ATOM      9  C4' I4B d   1      -2.354   1.094   1.950  0.00  0.00     0.013 C 
ATOM     10  C3' I4B d   1      -2.910  -1.197   2.718  0.00  0.00     0.013 C 
ENDBRANCH   7   8
ENDBRANCH   1   7
TORSDOF 2
ENDMDL
