MODEL 1
REMARK minimizedAffinity -0.149543986
REMARK minimizedRMSD -1
REMARK  2 active torsions:
REMARK  status: ('A' for Active; 'I' for Inactive)
REMARK    1  A    between atoms: C2'_3  and  C1'_4 
REMARK    2  A    between atoms: C1'_4  and  C1_5 
ROOT
ATOM      1  C1  I4B d   1      -0.640  -0.518   2.292  0.00  0.00    -0.075 A 
ATOM      2  C2  I4B d   1      -1.987  -0.261   2.240  0.00  0.00     0.003 A 
ATOM      3  C3  I4B d   1      -2.680  -0.335   1.008  0.00  0.00     0.002 A 
ATOM      4  C4  I4B d   1      -1.981  -0.617  -0.149  0.00  0.00    -0.004 A 
ATOM      5  C5  I4B d   1      -0.620  -0.899  -0.091  0.00  0.00     0.002 A 
ATOM      6  C6  I4B d   1       0.054  -0.861   1.139  0.00  0.00     0.003 A 
ENDROOT
BRANCH   1   7
ATOM      7  C1' I4B d   1       0.066  -0.399   3.606  0.00  0.00     0.060 C 
BRANCH   7   8
ATOM      8  C2' I4B d   1       1.298  -1.279   3.555  0.00  0.00    -0.013 C 
ATOM      9  C4' I4B d   1       2.514  -0.492   3.141  0.00  0.00     0.013 C 
ATOM     10  C3' I4B d   1       1.486  -1.892   4.910  0.00  0.00     0.013 C 
ENDBRANCH   7   8
ENDBRANCH   1   7
TORSDOF 2
ENDMDL
