MODEL 1
REMARK minimizedAffinity 2.21825743
REMARK minimizedRMSD -1
REMARK  2 active torsions:
REMARK  status: ('A' for Active; 'I' for Inactive)
REMARK    1  A    between atoms: C2'_3  and  C1'_4 
REMARK    2  A    between atoms: C1'_4  and  C1_5 
ROOT
ATOM      1  C1  I4B d   1      -0.895  -0.445  -0.918  0.00  0.00    -0.075 A 
ATOM      2  C2  I4B d   1      -2.218  -0.081  -0.968  0.00  0.00     0.003 A 
ATOM      3  C3  I4B d   1      -2.893   0.315   0.212  0.00  0.00     0.002 A 
ATOM      4  C4  I4B d   1      -2.226   0.284   1.420  0.00  0.00    -0.004 A 
ATOM      5  C5  I4B d   1      -0.879  -0.063   1.465  0.00  0.00     0.002 A 
ATOM      6  C6  I4B d   1      -0.205  -0.418   0.287  0.00  0.00     0.003 A 
ENDROOT
BRANCH   1   7
ATOM      7  C1' I4B d   1      -0.222  -0.889  -2.178  0.00  0.00     0.060 C 
BRANCH   7   8
ATOM      8  C2' I4B d   1      -0.437   0.185  -3.225  0.00  0.00    -0.013 C 
ATOM      9  C4' I4B d   1       0.781   1.059  -3.368  0.00  0.00     0.013 C 
ATOM     10  C3' I4B d   1      -0.772  -0.492  -4.521  0.00  0.00     0.013 C 
ENDBRANCH   7   8
ENDBRANCH   1   7
TORSDOF 2
ENDMDL
