MODEL 1
REMARK minimizedAffinity 7.62714434
REMARK minimizedRMSD -1
REMARK  2 active torsions:
REMARK  status: ('A' for Active; 'I' for Inactive)
REMARK    1  A    between atoms: C2'_3  and  C1'_4 
REMARK    2  A    between atoms: C1'_4  and  C1_5 
ROOT
ATOM      1  C1  I4B d   1       0.020  -0.309   0.783  0.00  0.00    -0.075 A 
ATOM      2  C2  I4B d   1      -0.455  -1.098  -0.235  0.00  0.00     0.003 A 
ATOM      3  C3  I4B d   1      -1.836  -1.104  -0.547  0.00  0.00     0.002 A 
ATOM      4  C4  I4B d   1      -2.707  -0.350   0.212  0.00  0.00    -0.004 A 
ATOM      5  C5  I4B d   1      -2.221   0.467   1.229  0.00  0.00     0.002 A 
ATOM      6  C6  I4B d   1      -0.847   0.497   1.509  0.00  0.00     0.003 A 
ENDROOT
BRANCH   1   7
ATOM      7  C1' I4B d   1       1.480  -0.352   1.106  0.00  0.00     0.060 C 
BRANCH   7   8
ATOM      8  C2' I4B d   1       2.200   0.567   0.141  0.00  0.00    -0.013 C 
ATOM      9  C4' I4B d   1       2.840   1.723   0.864  0.00  0.00     0.013 C 
ATOM     10  C3' I4B d   1       3.223  -0.244  -0.596  0.00  0.00     0.013 C 
ENDBRANCH   7   8
ENDBRANCH   1   7
TORSDOF 2
ENDMDL
