MODEL 1
REMARK minimizedAffinity 9.01828098
REMARK minimizedRMSD -1
REMARK  2 active torsions:
REMARK  status: ('A' for Active; 'I' for Inactive)
REMARK    1  A    between atoms: C2'_3  and  C1'_4 
REMARK    2  A    between atoms: C1'_4  and  C1_5 
ROOT
ATOM      1  C1  I4B d   1      -0.457  -0.694   0.596  0.00  0.00    -0.075 A 
ATOM      2  C2  I4B d   1      -1.064  -0.015   1.622  0.00  0.00     0.003 A 
ATOM      3  C3  I4B d   1      -2.386   0.470   1.473  0.00  0.00     0.002 A 
ATOM      4  C4  I4B d   1      -3.041   0.298   0.270  0.00  0.00    -0.004 A 
ATOM      5  C5  I4B d   1      -2.433  -0.411  -0.761  0.00  0.00     0.002 A 
ATOM      6  C6  I4B d   1      -1.137  -0.921  -0.594  0.00  0.00     0.003 A 
ENDROOT
BRANCH   1   7
ATOM      7  C1' I4B d   1       0.952  -1.163   0.776  0.00  0.00     0.060 C 
BRANCH   7   8
ATOM      8  C2' I4B d   1       1.674  -0.151   1.641  0.00  0.00    -0.013 C 
ATOM      9  C4' I4B d   1       2.447  -0.827   2.742  0.00  0.00     0.013 C 
ATOM     10  C3' I4B d   1       2.581   0.651   0.756  0.00  0.00     0.013 C 
ENDBRANCH   7   8
ENDBRANCH   1   7
TORSDOF 2
ENDMDL
