MODEL 1
REMARK minimizedAffinity 20.6996593
REMARK minimizedRMSD -1
REMARK  1 active torsions:
REMARK  status: ('A' for Active; 'I' for Inactive)
REMARK    1  A    between atoms: C1_2  and  C2_3 
ROOT
ATOM      1  C2  UNL d   1      -3.512   4.024  -3.130  0.00  0.00    -0.076 A 
ATOM      2  C3  UNL d   1      -2.208   4.528  -2.980  0.00  0.00     0.004 A 
ATOM      3  C4  UNL d   1      -1.097   3.751  -3.303  0.00  0.00    -0.003 A 
ATOM      4  C5  UNL d   1      -1.272   2.457  -3.783  0.00  0.00     0.000 A 
ATOM      5  C6  UNL d   1      -2.559   1.948  -3.955  0.00  0.00     0.000 A 
ATOM      6  C7  UNL d   1      -3.690   2.724  -3.649  0.00  0.00    -0.073 A 
ATOM      7  C8  UNL d   1      -5.054   2.122  -3.849  0.00  0.00     0.078 C 
ENDROOT
BRANCH   1   8
ATOM      8  C1  UNL d   1      -4.678   4.903  -2.737  0.00  0.00     0.053 C 
ATOM      9  C   UNL d   1      -4.755   5.131  -1.235  0.00  0.00     0.018 C 
ENDBRANCH   1   8
TORSDOF 1
ENDMDL
