MODEL 1
REMARK minimizedAffinity 25.0716782
REMARK minimizedRMSD -1
REMARK  1 active torsions:
REMARK  status: ('A' for Active; 'I' for Inactive)
REMARK    1  A    between atoms: C1_2  and  C2_3 
ROOT
ATOM      1  C2  UNL d   1       0.213   4.206  -2.919  0.00  0.00    -0.076 A 
ATOM      2  C3  UNL d   1       1.107   4.177  -1.834  0.00  0.00     0.004 A 
ATOM      3  C4  UNL d   1       0.810   3.457  -0.679  0.00  0.00    -0.003 A 
ATOM      4  C5  UNL d   1      -0.385   2.753  -0.589  0.00  0.00     0.000 A 
ATOM      5  C6  UNL d   1      -1.276   2.756  -1.662  0.00  0.00     0.000 A 
ATOM      6  C7  UNL d   1      -0.985   3.464  -2.840  0.00  0.00    -0.073 A 
ATOM      7  C8  UNL d   1      -1.984   3.437  -3.964  0.00  0.00     0.078 C 
ENDROOT
BRANCH   1   8
ATOM      8  C1  UNL d   1       0.576   5.027  -4.136  0.00  0.00     0.053 C 
ATOM      9  C   UNL d   1       1.713   6.000  -3.864  0.00  0.00     0.018 C 
ENDBRANCH   1   8
TORSDOF 1
ENDMDL
