MODEL 1
REMARK minimizedAffinity 19.9642601
REMARK minimizedRMSD -1
REMARK  1 active torsions:
REMARK  status: ('A' for Active; 'I' for Inactive)
REMARK    1  A    between atoms: C1_2  and  C2_3 
ROOT
ATOM      1  C2  UNL d   1       0.726   3.738  -2.197  0.00  0.00    -0.076 A 
ATOM      2  C3  UNL d   1       1.348   3.409  -0.980  0.00  0.00     0.004 A 
ATOM      3  C4  UNL d   1       0.627   2.821   0.058  0.00  0.00    -0.003 A 
ATOM      4  C5  UNL d   1      -0.728   2.553  -0.104  0.00  0.00     0.000 A 
ATOM      5  C6  UNL d   1      -1.357   2.857  -1.311  0.00  0.00     0.000 A 
ATOM      6  C7  UNL d   1      -0.641   3.435  -2.373  0.00  0.00    -0.073 A 
ATOM      7  C8  UNL d   1      -1.372   3.748  -3.650  0.00  0.00     0.078 C 
ENDROOT
BRANCH   1   8
ATOM      8  C1  UNL d   1       1.552   4.399  -3.277  0.00  0.00     0.053 C 
ATOM      9  C   UNL d   1       1.505   5.917  -3.201  0.00  0.00     0.018 C 
ENDBRANCH   1   8
TORSDOF 1
ENDMDL
