MODEL 1
REMARK minimizedAffinity 12.8947468
REMARK minimizedRMSD -1
REMARK  1 active torsions:
REMARK  status: ('A' for Active; 'I' for Inactive)
REMARK    1  A    between atoms: C1_2  and  C2_3 
ROOT
ATOM      1  C2  UNL d   1      -2.767   4.516  -0.857  0.00  0.00    -0.076 A 
ATOM      2  C3  UNL d   1      -2.995   4.789   0.502  0.00  0.00     0.004 A 
ATOM      3  C4  UNL d   1      -4.108   5.523   0.910  0.00  0.00    -0.003 A 
ATOM      4  C5  UNL d   1      -5.012   5.994  -0.036  0.00  0.00     0.000 A 
ATOM      5  C6  UNL d   1      -4.811   5.717  -1.388  0.00  0.00     0.000 A 
ATOM      6  C7  UNL d   1      -3.703   4.965  -1.814  0.00  0.00    -0.073 A 
ATOM      7  C8  UNL d   1      -3.532   4.702  -3.285  0.00  0.00     0.078 C 
ENDROOT
BRANCH   1   8
ATOM      8  C1  UNL d   1      -1.529   3.739  -1.242  0.00  0.00     0.053 C 
ATOM      9  C   UNL d   1      -1.396   2.434  -0.471  0.00  0.00     0.018 C 
ENDBRANCH   1   8
TORSDOF 1
ENDMDL
