MODEL 1
REMARK minimizedAffinity 18.977972
REMARK minimizedRMSD -1
REMARK  1 active torsions:
REMARK  status: ('A' for Active; 'I' for Inactive)
REMARK    1  A    between atoms: C1_2  and  C2_3 
ROOT
ATOM      1  C2  UNL d   1       0.676   3.739  -1.960  0.00  0.00    -0.076 A 
ATOM      2  C3  UNL d   1       1.232   3.468  -0.697  0.00  0.00     0.004 A 
ATOM      3  C4  UNL d   1       0.524   2.738   0.256  0.00  0.00    -0.003 A 
ATOM      4  C5  UNL d   1      -0.751   2.266  -0.038  0.00  0.00     0.000 A 
ATOM      5  C6  UNL d   1      -1.310   2.511  -1.292  0.00  0.00     0.000 A 
ATOM      6  C7  UNL d   1      -0.603   3.231  -2.270  0.00  0.00    -0.073 A 
ATOM      7  C8  UNL d   1      -1.257   3.470  -3.603  0.00  0.00     0.078 C 
ENDROOT
BRANCH   1   8
ATOM      8  C1  UNL d   1       1.480   4.559  -2.944  0.00  0.00     0.053 C 
ATOM      9  C   UNL d   1       1.002   6.000  -3.029  0.00  0.00     0.018 C 
ENDBRANCH   1   8
TORSDOF 1
ENDMDL
