MODEL 1
REMARK minimizedAffinity 4.14591551
REMARK minimizedRMSD -1
REMARK  1 active torsions:
REMARK  status: ('A' for Active; 'I' for Inactive)
REMARK    1  A    between atoms: C1_2  and  C2_3 
ROOT
ATOM      1  C2  UNL d   1      -2.410   3.873   1.190  0.00  0.00    -0.076 A 
ATOM      2  C3  UNL d   1      -1.722   4.812   0.403  0.00  0.00     0.004 A 
ATOM      3  C4  UNL d   1      -0.495   4.498  -0.181  0.00  0.00    -0.003 A 
ATOM      4  C5  UNL d   1       0.062   3.239   0.013  0.00  0.00     0.000 A 
ATOM      5  C6  UNL d   1      -0.616   2.289   0.776  0.00  0.00     0.000 A 
ATOM      6  C7  UNL d   1      -1.861   2.584   1.358  0.00  0.00    -0.073 A 
ATOM      7  C8  UNL d   1      -2.544   1.524   2.177  0.00  0.00     0.078 C 
ENDROOT
BRANCH   1   8
ATOM      8  C1  UNL d   1      -3.723   4.280   1.820  0.00  0.00     0.053 C 
ATOM      9  C   UNL d   1      -4.063   5.740   1.567  0.00  0.00     0.018 C 
ENDBRANCH   1   8
TORSDOF 1
ENDMDL
