MODEL 1
REMARK minimizedAffinity -0.705297291
REMARK minimizedRMSD -1
REMARK  1 active torsions:
REMARK  status: ('A' for Active; 'I' for Inactive)
REMARK    1  A    between atoms: C1_2  and  C2_3 
ROOT
ATOM      1  C2  UNL d   1      -0.431   3.317  -1.552  0.00  0.00    -0.076 A 
ATOM      2  C3  UNL d   1      -0.832   2.251  -0.728  0.00  0.00     0.004 A 
ATOM      3  C4  UNL d   1      -0.686   2.319   0.656  0.00  0.00    -0.003 A 
ATOM      4  C5  UNL d   1      -0.137   3.456   1.240  0.00  0.00     0.000 A 
ATOM      5  C6  UNL d   1       0.250   4.530   0.439  0.00  0.00     0.000 A 
ATOM      6  C7  UNL d   1       0.095   4.483  -0.957  0.00  0.00    -0.073 A 
ATOM      7  C8  UNL d   1       0.535   5.668  -1.772  0.00  0.00     0.078 C 
ENDROOT
BRANCH   1   8
ATOM      8  C1  UNL d   1      -0.589   3.174  -3.049  0.00  0.00     0.053 C 
ATOM      9  C   UNL d   1      -1.732   2.246  -3.428  0.00  0.00     0.018 C 
ENDBRANCH   1   8
TORSDOF 1
ENDMDL
