MODEL 1
REMARK minimizedAffinity 2.65229607
REMARK minimizedRMSD -1
REMARK  1 active torsions:
REMARK  status: ('A' for Active; 'I' for Inactive)
REMARK    1  A    between atoms: C1_2  and  C2_3 
ROOT
ATOM      1  C2  UNL d   1       0.790   4.497   1.067  0.00  0.00    -0.076 A 
ATOM      2  C3  UNL d   1       0.959   5.495   0.092  0.00  0.00     0.004 A 
ATOM      3  C4  UNL d   1       0.411   5.354  -1.182  0.00  0.00    -0.003 A 
ATOM      4  C5  UNL d   1      -0.315   4.212  -1.502  0.00  0.00     0.000 A 
ATOM      5  C6  UNL d   1      -0.507   3.219  -0.541  0.00  0.00     0.000 A 
ATOM      6  C7  UNL d   1       0.025   3.353   0.753  0.00  0.00    -0.073 A 
ATOM      7  C8  UNL d   1      -0.208   2.249   1.747  0.00  0.00     0.078 C 
ENDROOT
BRANCH   1   8
ATOM      8  C1  UNL d   1       1.430   4.693   2.423  0.00  0.00     0.053 C 
ATOM      9  C   UNL d   1       2.247   5.973   2.502  0.00  0.00     0.018 C 
ENDBRANCH   1   8
TORSDOF 1
ENDMDL
