MODEL 1
REMARK minimizedAffinity 18.8116379
REMARK minimizedRMSD -1
REMARK  1 active torsions:
REMARK  status: ('A' for Active; 'I' for Inactive)
REMARK    1  A    between atoms: C1_2  and  C2_3 
ROOT
ATOM      1  C2  UNL d   1       0.096  -1.319   3.112  0.00  0.00    -0.076 A 
ATOM      2  C3  UNL d   1      -0.879  -1.838   3.981  0.00  0.00     0.004 A 
ATOM      3  C4  UNL d   1      -1.112  -3.210   4.060  0.00  0.00    -0.003 A 
ATOM      4  C5  UNL d   1      -0.374  -4.085   3.271  0.00  0.00     0.000 A 
ATOM      5  C6  UNL d   1       0.610  -3.589   2.416  0.00  0.00     0.000 A 
ATOM      6  C7  UNL d   1       0.869  -2.210   2.337  0.00  0.00    -0.073 A 
ATOM      7  C8  UNL d   1       1.938  -1.730   1.393  0.00  0.00     0.078 C 
ENDROOT
BRANCH   1   8
ATOM      8  C1  UNL d   1       0.287   0.180   3.049  0.00  0.00     0.053 C 
ATOM      9  C   UNL d   1      -0.982   0.943   3.397  0.00  0.00     0.018 C 
ENDBRANCH   1   8
TORSDOF 1
ENDMDL
