MODEL 1
REMARK minimizedAffinity 7.44032145
REMARK minimizedRMSD -1
REMARK  1 active torsions:
REMARK  status: ('A' for Active; 'I' for Inactive)
REMARK    1  A    between atoms: C1_2  and  C2_3 
ROOT
ATOM      1  C2  UNL d   1      -0.731   3.981   1.007  0.00  0.00    -0.076 A 
ATOM      2  C3  UNL d   1      -1.128   3.428   2.237  0.00  0.00     0.004 A 
ATOM      3  C4  UNL d   1      -1.082   2.052   2.454  0.00  0.00    -0.003 A 
ATOM      4  C5  UNL d   1      -0.638   1.206   1.443  0.00  0.00     0.000 A 
ATOM      5  C6  UNL d   1      -0.224   1.738   0.223  0.00  0.00     0.000 A 
ATOM      6  C7  UNL d   1      -0.249   3.125  -0.006  0.00  0.00    -0.073 A 
ATOM      7  C8  UNL d   1       0.203   3.644  -1.344  0.00  0.00     0.078 C 
ENDROOT
BRANCH   1   8
ATOM      8  C1  UNL d   1      -0.829   5.478   0.820  0.00  0.00     0.053 C 
ATOM      9  C   UNL d   1      -2.223   5.925   0.410  0.00  0.00     0.018 C 
ENDBRANCH   1   8
TORSDOF 1
ENDMDL
