MODEL 1
REMARK minimizedAffinity 5.23139858
REMARK minimizedRMSD -1
REMARK  1 active torsions:
REMARK  status: ('A' for Active; 'I' for Inactive)
REMARK    1  A    between atoms: C1_2  and  C2_3 
ROOT
ATOM      1  C2  UNL d   1      -0.494   1.551   1.596  0.00  0.00    -0.076 A 
ATOM      2  C3  UNL d   1      -0.599   1.791   0.215  0.00  0.00     0.004 A 
ATOM      3  C4  UNL d   1      -0.075   2.950  -0.354  0.00  0.00    -0.003 A 
ATOM      4  C5  UNL d   1       0.564   3.888   0.449  0.00  0.00     0.000 A 
ATOM      5  C6  UNL d   1       0.693   3.659   1.819  0.00  0.00     0.000 A 
ATOM      6  C7  UNL d   1       0.184   2.487   2.406  0.00  0.00    -0.073 A 
ATOM      7  C8  UNL d   1       0.345   2.294   3.889  0.00  0.00     0.078 C 
ENDROOT
BRANCH   1   8
ATOM      8  C1  UNL d   1      -1.106   0.289   2.161  0.00  0.00     0.053 C 
ATOM      9  C   UNL d   1      -2.553   0.483   2.587  0.00  0.00     0.018 C 
ENDBRANCH   1   8
TORSDOF 1
ENDMDL
