MODEL 1
REMARK minimizedAffinity 12.8555708
REMARK minimizedRMSD -1
REMARK  1 active torsions:
REMARK  status: ('A' for Active; 'I' for Inactive)
REMARK    1  A    between atoms: C1_2  and  C2_3 
ROOT
ATOM      1  C2  UNL d   1      -0.755   5.091  -0.409  0.00  0.00    -0.076 A 
ATOM      2  C3  UNL d   1      -1.578   5.118  -1.548  0.00  0.00     0.004 A 
ATOM      3  C4  UNL d   1      -1.295   4.321  -2.656  0.00  0.00    -0.003 A 
ATOM      4  C5  UNL d   1      -0.185   3.483  -2.642  0.00  0.00     0.000 A 
ATOM      5  C6  UNL d   1       0.632   3.431  -1.513  0.00  0.00     0.000 A 
ATOM      6  C7  UNL d   1       0.351   4.216  -0.381  0.00  0.00    -0.073 A 
ATOM      7  C8  UNL d   1       1.269   4.124   0.806  0.00  0.00     0.078 C 
ENDROOT
BRANCH   1   8
ATOM      8  C1  UNL d   1      -1.096   5.999   0.752  0.00  0.00     0.053 C 
ATOM      9  C   UNL d   1      -2.583   5.998   1.074  0.00  0.00     0.018 C 
ENDBRANCH   1   8
TORSDOF 1
ENDMDL
