MODEL 1
REMARK minimizedAffinity 10.9724989
REMARK minimizedRMSD -1
REMARK  1 active torsions:
REMARK  status: ('A' for Active; 'I' for Inactive)
REMARK    1  A    between atoms: C1_2  and  C2_3 
ROOT
ATOM      1  C2  UNL d   1      -2.670  -0.110   1.923  0.00  0.00    -0.073 A 
ATOM      2  C3  UNL d   1      -3.515  -0.724   2.855  0.00  0.00    -0.002 A 
ATOM      3  C4  UNL d   1      -2.980  -1.431   3.932  0.00  0.00     0.004 A 
ATOM      4  C5  UNL d   1      -1.598  -1.526   4.092  0.00  0.00    -0.004 A 
ATOM      5  C6  UNL d   1      -0.737  -0.910   3.178  0.00  0.00    -0.075 A 
ATOM      6  C7  UNL d   1       0.752  -1.004   3.335  0.00  0.00     0.076 C 
ATOM      7  C8  UNL d   1      -1.282  -0.203   2.097  0.00  0.00     0.001 A 
ENDROOT
BRANCH   1   8
ATOM      8  C1  UNL d   1      -3.244   0.661   0.761  0.00  0.00     0.053 C 
ATOM      9  C   UNL d   1      -2.168   1.397  -0.021  0.00  0.00     0.018 C 
ENDBRANCH   1   8
TORSDOF 1
ENDMDL
