MODEL 1
REMARK minimizedAffinity 3.04520035
REMARK minimizedRMSD -1
REMARK  1 active torsions:
REMARK  status: ('A' for Active; 'I' for Inactive)
REMARK    1  A    between atoms: C1_2  and  C2_3 
ROOT
ATOM      1  C2  UNL d   1      -2.500  -0.150   2.204  0.00  0.00    -0.073 A 
ATOM      2  C3  UNL d   1      -3.592  -0.666   2.911  0.00  0.00    -0.002 A 
ATOM      3  C4  UNL d   1      -3.389  -1.434   4.058  0.00  0.00     0.004 A 
ATOM      4  C5  UNL d   1      -2.096  -1.690   4.512  0.00  0.00    -0.004 A 
ATOM      5  C6  UNL d   1      -0.992  -1.174   3.825  0.00  0.00    -0.075 A 
ATOM      6  C7  UNL d   1       0.406  -1.442   4.300  0.00  0.00     0.076 C 
ATOM      7  C8  UNL d   1      -1.204  -0.405   2.673  0.00  0.00     0.001 A 
ENDROOT
BRANCH   1   8
ATOM      8  C1  UNL d   1      -2.714   0.686   0.968  0.00  0.00     0.053 C 
ATOM      9  C   UNL d   1      -2.653  -0.148  -0.302  0.00  0.00     0.018 C 
ENDBRANCH   1   8
TORSDOF 1
ENDMDL
