MODEL 1
REMARK minimizedAffinity 4.89727497
REMARK minimizedRMSD -1
REMARK  1 active torsions:
REMARK  status: ('A' for Active; 'I' for Inactive)
REMARK    1  A    between atoms: C1_2  and  C2_3 
ROOT
ATOM      1  C2  UNL d   1      -1.748   0.180   1.650  0.00  0.00    -0.073 A 
ATOM      2  C3  UNL d   1      -0.549  -0.007   2.347  0.00  0.00    -0.002 A 
ATOM      3  C4  UNL d   1      -0.537  -0.705   3.555  0.00  0.00     0.004 A 
ATOM      4  C5  UNL d   1      -1.721  -1.229   4.075  0.00  0.00    -0.004 A 
ATOM      5  C6  UNL d   1      -2.927  -1.063   3.388  0.00  0.00    -0.075 A 
ATOM      6  C7  UNL d   1      -4.210  -1.618   3.935  0.00  0.00     0.076 C 
ATOM      7  C8  UNL d   1      -2.932  -0.358   2.177  0.00  0.00     0.001 A 
ENDROOT
BRANCH   1   8
ATOM      8  C1  UNL d   1      -1.765   0.927   0.342  0.00  0.00     0.053 C 
ATOM      9  C   UNL d   1      -2.314   0.077  -0.793  0.00  0.00     0.018 C 
ENDBRANCH   1   8
TORSDOF 1
ENDMDL
