MODEL 1
REMARK minimizedAffinity 4.85957575
REMARK minimizedRMSD -1
REMARK  1 active torsions:
REMARK  status: ('A' for Active; 'I' for Inactive)
REMARK    1  A    between atoms: C1_2  and  C2_3 
ROOT
ATOM      1  C2  UNL d   1       3.482   3.010   1.506  0.00  0.00    -0.073 A 
ATOM      2  C3  UNL d   1       4.262   3.059   0.346  0.00  0.00    -0.002 A 
ATOM      3  C4  UNL d   1       3.952   2.248  -0.747  0.00  0.00     0.004 A 
ATOM      4  C5  UNL d   1       2.857   1.386  -0.693  0.00  0.00    -0.004 A 
ATOM      5  C6  UNL d   1       2.058   1.331   0.454  0.00  0.00    -0.075 A 
ATOM      6  C7  UNL d   1       0.877   0.408   0.529  0.00  0.00     0.076 C 
ATOM      7  C8  UNL d   1       2.377   2.147   1.548  0.00  0.00     0.001 A 
ENDROOT
BRANCH   1   8
ATOM      8  C1  UNL d   1       3.809   3.888   2.686  0.00  0.00     0.053 C 
ATOM      9  C   UNL d   1       4.660   3.164   3.718  0.00  0.00     0.018 C 
ENDBRANCH   1   8
TORSDOF 1
ENDMDL
