MODEL 1
REMARK minimizedAffinity 8.87287617
REMARK minimizedRMSD -1
REMARK  1 active torsions:
REMARK  status: ('A' for Active; 'I' for Inactive)
REMARK    1  A    between atoms: C1_2  and  C2_3 
ROOT
ATOM      1  C2  UNL d   1      -1.295  -0.038   1.776  0.00  0.00    -0.073 A 
ATOM      2  C3  UNL d   1      -0.249  -0.293   2.670  0.00  0.00    -0.002 A 
ATOM      3  C4  UNL d   1      -0.495  -0.956   3.873  0.00  0.00     0.004 A 
ATOM      4  C5  UNL d   1      -1.787  -1.375   4.191  0.00  0.00    -0.004 A 
ATOM      5  C6  UNL d   1      -2.844  -1.140   3.306  0.00  0.00    -0.075 A 
ATOM      6  C7  UNL d   1      -4.239  -1.583   3.634  0.00  0.00     0.076 C 
ATOM      7  C8  UNL d   1      -2.588  -0.471   2.101  0.00  0.00     0.001 A 
ENDROOT
BRANCH   1   8
ATOM      8  C1  UNL d   1      -1.032   0.672   0.473  0.00  0.00     0.053 C 
ATOM      9  C   UNL d   1       0.047  -0.020  -0.345  0.00  0.00     0.018 C 
ENDBRANCH   1   8
TORSDOF 1
ENDMDL
