MODEL 1
REMARK minimizedAffinity 6.93432617
REMARK minimizedRMSD -1
REMARK  1 active torsions:
REMARK  status: ('A' for Active; 'I' for Inactive)
REMARK    1  A    between atoms: C1_2  and  C2_3 
ROOT
ATOM      1  C2  UNL d   1      -1.856  -0.009   1.766  0.00  0.00    -0.073 A 
ATOM      2  C3  UNL d   1      -3.103  -0.361   2.293  0.00  0.00    -0.002 A 
ATOM      3  C4  UNL d   1      -3.189  -1.028   3.517  0.00  0.00     0.004 A 
ATOM      4  C5  UNL d   1      -2.030  -1.342   4.227  0.00  0.00    -0.004 A 
ATOM      5  C6  UNL d   1      -0.775  -0.987   3.722  0.00  0.00    -0.075 A 
ATOM      6  C7  UNL d   1       0.481  -1.320   4.473  0.00  0.00     0.076 C 
ATOM      7  C8  UNL d   1      -0.698  -0.321   2.492  0.00  0.00     0.001 A 
ENDROOT
BRANCH   1   8
ATOM      8  C1  UNL d   1      -1.759   0.716   0.448  0.00  0.00     0.053 C 
ATOM      9  C   UNL d   1      -2.384  -0.079  -0.687  0.00  0.00     0.018 C 
ENDBRANCH   1   8
TORSDOF 1
ENDMDL
