MODEL 1
REMARK minimizedAffinity 4.86958981
REMARK minimizedRMSD -1
REMARK  2 active torsions:
REMARK  status: ('A' for Active; 'I' for Inactive)
REMARK    1  A    between atoms: C1_2  and  C2_3 
REMARK    2  A    between atoms: C2_3  and  C3_4 
ROOT
ATOM      1  C3  UNL d   1       2.233  -2.343   3.639  0.00  0.00    -0.075 A 
ATOM      2  C4  UNL d   1       2.568  -3.684   3.404  0.00  0.00     0.002 A 
ATOM      3  C5  UNL d   1       2.960  -4.511   4.458  0.00  0.00     0.002 A 
ATOM      4  C6  UNL d   1       3.032  -4.005   5.754  0.00  0.00    -0.004 A 
ATOM      5  C7  UNL d   1       2.717  -2.670   5.996  0.00  0.00     0.002 A 
ATOM      6  C8  UNL d   1       2.320  -1.842   4.944  0.00  0.00     0.002 A 
ENDROOT
BRANCH   1   7
ATOM      7  C2  UNL d   1       1.779  -1.451   2.508  0.00  0.00     0.056 C 
BRANCH   7   8
ATOM      8  C1  UNL d   1       1.961   0.046   2.782  0.00  0.00     0.007 C 
ATOM      9  C   UNL d   1       2.652   0.786   1.645  0.00  0.00     0.009 C 
ENDBRANCH   7   8
ENDBRANCH   1   7
TORSDOF 2
ENDMDL
