MODEL 1
REMARK minimizedAffinity 7.45144224
REMARK minimizedRMSD -1
REMARK  2 active torsions:
REMARK  status: ('A' for Active; 'I' for Inactive)
REMARK    1  A    between atoms: C1_2  and  C2_3 
REMARK    2  A    between atoms: C2_3  and  C3_4 
ROOT
ATOM      1  C3  UNL d   1      -5.003   2.620  -1.624  0.00  0.00    -0.075 A 
ATOM      2  C4  UNL d   1      -5.952   3.395  -2.307  0.00  0.00     0.002 A 
ATOM      3  C5  UNL d   1      -5.999   3.390  -3.702  0.00  0.00     0.002 A 
ATOM      4  C6  UNL d   1      -5.094   2.621  -4.430  0.00  0.00    -0.004 A 
ATOM      5  C7  UNL d   1      -4.136   1.861  -3.762  0.00  0.00     0.002 A 
ATOM      6  C8  UNL d   1      -4.090   1.860  -2.367  0.00  0.00     0.002 A 
ENDROOT
BRANCH   1   7
ATOM      7  C2  UNL d   1      -4.966   2.597  -0.115  0.00  0.00     0.056 C 
BRANCH   7   8
ATOM      8  C1  UNL d   1      -3.747   1.875   0.469  0.00  0.00     0.007 C 
ATOM      9  C   UNL d   1      -3.051   2.665   1.569  0.00  0.00     0.009 C 
ENDBRANCH   7   8
ENDBRANCH   1   7
TORSDOF 2
ENDMDL
