MODEL 1
REMARK minimizedAffinity 8.31857777
REMARK minimizedRMSD -1
REMARK  2 active torsions:
REMARK  status: ('A' for Active; 'I' for Inactive)
REMARK    1  A    between atoms: C1_2  and  C2_3 
REMARK    2  A    between atoms: C2_3  and  C3_4 
ROOT
ATOM      1  C3  UNL d   1       2.884  -0.041   1.845  0.00  0.00    -0.075 A 
ATOM      2  C4  UNL d   1       1.832  -0.432   2.686  0.00  0.00     0.002 A 
ATOM      3  C5  UNL d   1       2.040  -1.384   3.685  0.00  0.00     0.002 A 
ATOM      4  C6  UNL d   1       3.296  -1.962   3.850  0.00  0.00    -0.004 A 
ATOM      5  C7  UNL d   1       4.345  -1.593   3.009  0.00  0.00     0.002 A 
ATOM      6  C8  UNL d   1       4.140  -0.639   2.012  0.00  0.00     0.002 A 
ENDROOT
BRANCH   1   7
ATOM      7  C2  UNL d   1       2.672   1.009   0.781  0.00  0.00     0.056 C 
BRANCH   7   8
ATOM      8  C1  UNL d   1       1.995   2.286   1.291  0.00  0.00     0.007 C 
ATOM      9  C   UNL d   1       1.834   3.351   0.214  0.00  0.00     0.009 C 
ENDBRANCH   7   8
ENDBRANCH   1   7
TORSDOF 2
ENDMDL
