MODEL 1
REMARK minimizedAffinity 3.56579447
REMARK minimizedRMSD -1
REMARK  2 active torsions:
REMARK  status: ('A' for Active; 'I' for Inactive)
REMARK    1  A    between atoms: C1_2  and  C2_3 
REMARK    2  A    between atoms: C2_3  and  C3_4 
ROOT
ATOM      1  C3  UNL d   1       1.629   0.089   1.737  0.00  0.00    -0.075 A 
ATOM      2  C4  UNL d   1       0.605   1.032   1.910  0.00  0.00     0.002 A 
ATOM      3  C5  UNL d   1       0.738   2.324   1.399  0.00  0.00     0.002 A 
ATOM      4  C6  UNL d   1       1.897   2.691   0.719  0.00  0.00    -0.004 A 
ATOM      5  C7  UNL d   1       2.927   1.768   0.556  0.00  0.00     0.002 A 
ATOM      6  C8  UNL d   1       2.795   0.474   1.062  0.00  0.00     0.002 A 
ENDROOT
BRANCH   1   7
ATOM      7  C2  UNL d   1       1.480  -1.319   2.262  0.00  0.00     0.056 C 
BRANCH   7   8
ATOM      8  C1  UNL d   1       1.909  -1.488   3.723  0.00  0.00     0.007 C 
ATOM      9  C   UNL d   1       3.038  -2.494   3.904  0.00  0.00     0.009 C 
ENDBRANCH   7   8
ENDBRANCH   1   7
TORSDOF 2
ENDMDL
