MODEL 1
REMARK minimizedAffinity 8.80146885
REMARK minimizedRMSD -1
REMARK  2 active torsions:
REMARK  status: ('A' for Active; 'I' for Inactive)
REMARK    1  A    between atoms: C1_2  and  C2_3 
REMARK    2  A    between atoms: C2_3  and  C3_4 
ROOT
ATOM      1  C3  UNL d   1      -0.492  -2.602  -1.905  0.00  0.00    -0.075 A 
ATOM      2  C4  UNL d   1      -0.463  -2.192  -0.564  0.00  0.00     0.002 A 
ATOM      3  C5  UNL d   1      -1.489  -2.554   0.309  0.00  0.00     0.002 A 
ATOM      4  C6  UNL d   1      -2.558  -3.321  -0.147  0.00  0.00    -0.004 A 
ATOM      5  C7  UNL d   1      -2.605  -3.721  -1.481  0.00  0.00     0.002 A 
ATOM      6  C8  UNL d   1      -1.578  -3.363  -2.357  0.00  0.00     0.002 A 
ENDROOT
BRANCH   1   7
ATOM      7  C2  UNL d   1       0.630  -2.238  -2.848  0.00  0.00     0.056 C 
BRANCH   7   8
ATOM      8  C1  UNL d   1       2.014  -2.215  -2.192  0.00  0.00     0.007 C 
ATOM      9  C   UNL d   1       2.909  -1.100  -2.717  0.00  0.00     0.009 C 
ENDBRANCH   7   8
ENDBRANCH   1   7
TORSDOF 2
ENDMDL
