MODEL 1
REMARK minimizedAffinity 3.95414734
REMARK minimizedRMSD -1
REMARK  0 active torsions:
REMARK  status: ('A' for Active; 'I' for Inactive)
ROOT
ATOM      1  C   UNL d   1       2.612   0.820  -0.009  0.00  0.00     0.078 C 
ATOM      2  C1  UNL d   1       3.797   1.551  -0.565  0.00  0.00    -0.077 A 
ATOM      3  C2  UNL d   1       4.705   2.201   0.281  0.00  0.00    -0.001 A 
ATOM      4  C3  UNL d   1       5.799   2.886  -0.251  0.00  0.00     0.003 A 
ATOM      5  C4  UNL d   1       5.994   2.929  -1.630  0.00  0.00    -0.005 A 
ATOM      6  C5  UNL d   1       5.095   2.288  -2.479  0.00  0.00     0.003 A 
ATOM      7  C6  UNL d   1       4.001   1.602  -1.949  0.00  0.00    -0.001 A 
ENDROOT
TORSDOF 0
ENDMDL
