MODEL 1
REMARK minimizedAffinity 7.83747292
REMARK minimizedRMSD -1
REMARK  0 active torsions:
REMARK  status: ('A' for Active; 'I' for Inactive)
ROOT
ATOM      1  C   UNL d   1      -0.300  -2.593  -2.598  0.00  0.00     0.078 C 
ATOM      2  C1  UNL d   1      -1.418  -2.747  -3.586  0.00  0.00    -0.077 A 
ATOM      3  C2  UNL d   1      -1.905  -1.646  -4.300  0.00  0.00    -0.001 A 
ATOM      4  C3  UNL d   1      -2.952  -1.802  -5.210  0.00  0.00     0.003 A 
ATOM      5  C4  UNL d   1      -3.523  -3.057  -5.412  0.00  0.00    -0.005 A 
ATOM      6  C5  UNL d   1      -3.046  -4.158  -4.703  0.00  0.00     0.003 A 
ATOM      7  C6  UNL d   1      -1.999  -4.004  -3.794  0.00  0.00    -0.001 A 
ENDROOT
TORSDOF 0
ENDMDL
