MODEL 1
REMARK minimizedAffinity 5.81686735
REMARK minimizedRMSD -1
REMARK  0 active torsions:
REMARK  status: ('A' for Active; 'I' for Inactive)
ROOT
ATOM      1  C   UNL d   1      -0.239  -1.308  -1.365  0.00  0.00     0.078 C 
ATOM      2  C1  UNL d   1      -1.171  -1.498  -2.525  0.00  0.00    -0.077 A 
ATOM      3  C2  UNL d   1      -1.875  -0.416  -3.069  0.00  0.00    -0.001 A 
ATOM      4  C3  UNL d   1      -2.747  -0.609  -4.142  0.00  0.00     0.003 A 
ATOM      5  C4  UNL d   1      -2.924  -1.883  -4.679  0.00  0.00    -0.005 A 
ATOM      6  C5  UNL d   1      -2.230  -2.965  -4.142  0.00  0.00     0.003 A 
ATOM      7  C6  UNL d   1      -1.358  -2.774  -3.070  0.00  0.00    -0.001 A 
ENDROOT
TORSDOF 0
ENDMDL
