MODEL 1
REMARK minimizedAffinity 2.69589043
REMARK minimizedRMSD -1
REMARK  0 active torsions:
REMARK  status: ('A' for Active; 'I' for Inactive)
ROOT
ATOM      1  C   UNL d   1       1.534   3.325   3.193  0.00  0.00     0.078 C 
ATOM      2  C1  UNL d   1       1.658   2.682   1.845  0.00  0.00    -0.077 A 
ATOM      3  C2  UNL d   1       0.662   2.843   0.874  0.00  0.00    -0.001 A 
ATOM      4  C3  UNL d   1       0.786   2.230  -0.374  0.00  0.00     0.003 A 
ATOM      5  C4  UNL d   1       1.904   1.451  -0.662  0.00  0.00    -0.005 A 
ATOM      6  C5  UNL d   1       2.900   1.283   0.298  0.00  0.00     0.003 A 
ATOM      7  C6  UNL d   1       2.778   1.895   1.546  0.00  0.00    -0.001 A 
ENDROOT
TORSDOF 0
ENDMDL
