MODEL 1
REMARK minimizedAffinity -2.42648268
REMARK minimizedRMSD -1
REMARK  0 active torsions:
REMARK  status: ('A' for Active; 'I' for Inactive)
ROOT
ATOM      1  C   UNL d   1       3.375   0.802   1.338  0.00  0.00     0.078 C 
ATOM      2  C1  UNL d   1       4.054   1.349   0.118  0.00  0.00    -0.077 A 
ATOM      3  C2  UNL d   1       3.413   1.344  -1.127  0.00  0.00    -0.001 A 
ATOM      4  C3  UNL d   1       4.061   1.848  -2.256  0.00  0.00     0.003 A 
ATOM      5  C4  UNL d   1       5.354   2.358  -2.151  0.00  0.00    -0.005 A 
ATOM      6  C5  UNL d   1       6.000   2.365  -0.917  0.00  0.00     0.003 A 
ATOM      7  C6  UNL d   1       5.353   1.862   0.213  0.00  0.00    -0.001 A 
ENDROOT
TORSDOF 0
ENDMDL
