MODEL 1
REMARK minimizedAffinity -3.62030268
REMARK minimizedRMSD -1
REMARK  0 active torsions:
REMARK  status: ('A' for Active; 'I' for Inactive)
ROOT
ATOM      1  C1  DEN d   1       0.118  -1.280  -0.186  0.00  0.00     0.130 A 
ATOM      2  C2  DEN d   1       0.465  -0.078   0.568  0.00  0.00    -0.031 A 
ATOM      3  C3  DEN d   1      -0.307   1.050   0.010  0.00  0.00     0.027 A 
ATOM      4  C4  DEN d   1      -2.003   1.053  -1.933  0.00  0.00     0.027 A 
ATOM      5  C5  DEN d   1      -2.617   0.273  -2.888  0.00  0.00    -0.003 A 
ATOM      6  C6  DEN d   1      -2.341  -1.061  -3.030  0.00  0.00     0.001 A 
ATOM      7  C7  DEN d   1      -1.458  -1.666  -2.174  0.00  0.00     0.017 A 
ATOM      8  C8  DEN d   1      -0.829  -0.885  -1.214  0.00  0.00    -0.094 A 
ATOM      9  C9  DEN d   1      -1.131   0.460  -1.079  0.00  0.00    -0.072 A 
ENDROOT
TORSDOF 0
ENDMDL
