MODEL 1
REMARK minimizedAffinity -4.56892204
REMARK minimizedRMSD -1
REMARK  0 active torsions:
REMARK  status: ('A' for Active; 'I' for Inactive)
ROOT
ATOM      1  C1  DEN d   1       0.459  -2.484   1.343  0.00  0.00     0.130 A 
ATOM      2  C2  DEN d   1      -0.966  -2.305   1.610  0.00  0.00    -0.031 A 
ATOM      3  C3  DEN d   1      -1.315  -0.902   1.307  0.00  0.00     0.027 A 
ATOM      4  C4  DEN d   1       0.203   0.998   0.449  0.00  0.00     0.027 A 
ATOM      5  C5  DEN d   1       1.490   1.330   0.086  0.00  0.00    -0.003 A 
ATOM      6  C6  DEN d   1       2.521   0.431   0.147  0.00  0.00     0.001 A 
ATOM      7  C7  DEN d   1       2.275  -0.858   0.540  0.00  0.00     0.017 A 
ATOM      8  C8  DEN d   1       0.982  -1.198   0.915  0.00  0.00    -0.094 A 
ATOM      9  C9  DEN d   1      -0.050  -0.278   0.834  0.00  0.00    -0.072 A 
ENDROOT
TORSDOF 0
ENDMDL
