MODEL 1
REMARK minimizedAffinity 3.84755158
REMARK minimizedRMSD -1
REMARK  0 active torsions:
REMARK  status: ('A' for Active; 'I' for Inactive)
ROOT
ATOM      1  C1  DEN d   1       2.560  -0.691   0.617  0.00  0.00     0.130 A 
ATOM      2  C2  DEN d   1       3.378   0.239   1.390  0.00  0.00    -0.031 A 
ATOM      3  C3  DEN d   1       2.543   1.410   1.727  0.00  0.00     0.027 A 
ATOM      4  C4  DEN d   1       0.075   1.868   1.132  0.00  0.00     0.027 A 
ATOM      5  C5  DEN d   1      -1.033   1.374   0.479  0.00  0.00    -0.003 A 
ATOM      6  C6  DEN d   1      -1.011   0.183  -0.198  0.00  0.00     0.001 A 
ATOM      7  C7  DEN d   1       0.129  -0.576  -0.198  0.00  0.00     0.017 A 
ATOM      8  C8  DEN d   1       1.252  -0.082   0.452  0.00  0.00    -0.094 A 
ATOM      9  C9  DEN d   1       1.206   1.118   1.141  0.00  0.00    -0.072 A 
ENDROOT
TORSDOF 0
ENDMDL
