MODEL 1
REMARK minimizedAffinity 3.67116499
REMARK minimizedRMSD -1
REMARK  1 active torsions:
REMARK  status: ('A' for Active; 'I' for Inactive)
REMARK    1  A    between atoms: C1_2  and  C2_3 
ROOT
ATOM      1  C2  UNL d   1       1.709  -3.551   4.010  0.00  0.00    -0.076 A 
ATOM      2  C3  UNL d   1       0.762  -2.544   4.268  0.00  0.00     0.004 A 
ATOM      3  C4  UNL d   1       0.906  -1.268   3.726  0.00  0.00    -0.003 A 
ATOM      4  C5  UNL d   1       1.998  -0.979   2.915  0.00  0.00     0.000 A 
ATOM      5  C6  UNL d   1       2.937  -1.970   2.634  0.00  0.00     0.000 A 
ATOM      6  C7  UNL d   1       2.799  -3.266   3.160  0.00  0.00    -0.073 A 
ATOM      7  C8  UNL d   1       3.845  -4.295   2.829  0.00  0.00     0.078 C 
ENDROOT
BRANCH   1   8
ATOM      8  C1  UNL d   1       1.515  -4.908   4.648  0.00  0.00     0.053 C 
ATOM      9  C   UNL d   1       0.737  -4.833   5.953  0.00  0.00     0.018 C 
ENDBRANCH   1   8
TORSDOF 1
ENDMDL
