MODEL 1
REMARK minimizedAffinity 9.57921505
REMARK minimizedRMSD -1
REMARK  1 active torsions:
REMARK  status: ('A' for Active; 'I' for Inactive)
REMARK    1  A    between atoms: C1_2  and  C2_3 
ROOT
ATOM      1  C2  UNL d   1       2.432  -2.977   2.212  0.00  0.00    -0.076 A 
ATOM      2  C3  UNL d   1       1.119  -2.636   1.841  0.00  0.00     0.004 A 
ATOM      3  C4  UNL d   1       0.681  -1.313   1.887  0.00  0.00    -0.003 A 
ATOM      4  C5  UNL d   1       1.549  -0.310   2.304  0.00  0.00     0.000 A 
ATOM      5  C6  UNL d   1       2.859  -0.628   2.660  0.00  0.00     0.000 A 
ATOM      6  C7  UNL d   1       3.322  -1.954   2.604  0.00  0.00    -0.073 A 
ATOM      7  C8  UNL d   1       4.743  -2.240   3.004  0.00  0.00     0.078 C 
ENDROOT
BRANCH   1   8
ATOM      8  C1  UNL d   1       2.842  -4.431   2.168  0.00  0.00     0.053 C 
ATOM      9  C   UNL d   1       2.339  -5.141   0.921  0.00  0.00     0.018 C 
ENDBRANCH   1   8
TORSDOF 1
ENDMDL
