MODEL 1
REMARK minimizedAffinity 6.7509985
REMARK minimizedRMSD -1
REMARK  1 active torsions:
REMARK  status: ('A' for Active; 'I' for Inactive)
REMARK    1  A    between atoms: C1_2  and  C2_3 
ROOT
ATOM      1  C2  UNL d   1      -3.738   4.254   2.554  0.00  0.00    -0.076 A 
ATOM      2  C3  UNL d   1      -2.402   4.195   2.990  0.00  0.00     0.004 A 
ATOM      3  C4  UNL d   1      -1.441   3.495   2.263  0.00  0.00    -0.003 A 
ATOM      4  C5  UNL d   1      -1.798   2.844   1.088  0.00  0.00     0.000 A 
ATOM      5  C6  UNL d   1      -3.114   2.908   0.631  0.00  0.00     0.000 A 
ATOM      6  C7  UNL d   1      -4.093   3.622   1.343  0.00  0.00    -0.073 A 
ATOM      7  C8  UNL d   1      -5.498   3.652   0.808  0.00  0.00     0.078 C 
ENDROOT
BRANCH   1   8
ATOM      8  C1  UNL d   1      -4.742   5.005   3.398  0.00  0.00     0.053 C 
ATOM      9  C   UNL d   1      -4.091   5.756   4.550  0.00  0.00     0.018 C 
ENDBRANCH   1   8
TORSDOF 1
ENDMDL
