MODEL 1
REMARK minimizedAffinity 2.63729906
REMARK minimizedRMSD -1
REMARK  1 active torsions:
REMARK  status: ('A' for Active; 'I' for Inactive)
REMARK    1  A    between atoms: C1_2  and  C2_3 
ROOT
ATOM      1  C2  UNL d   1       2.139  -1.691   3.176  0.00  0.00    -0.076 A 
ATOM      2  C3  UNL d   1       2.269  -2.727   2.235  0.00  0.00     0.004 A 
ATOM      3  C4  UNL d   1       2.301  -4.061   2.636  0.00  0.00    -0.003 A 
ATOM      4  C5  UNL d   1       2.202  -4.381   3.985  0.00  0.00     0.000 A 
ATOM      5  C6  UNL d   1       2.055  -3.368   4.932  0.00  0.00     0.000 A 
ATOM      6  C7  UNL d   1       2.005  -2.018   4.542  0.00  0.00    -0.073 A 
ATOM      7  C8  UNL d   1       1.851  -0.965   5.605  0.00  0.00     0.078 C 
ENDROOT
BRANCH   1   8
ATOM      8  C1  UNL d   1       2.137  -0.261   2.684  0.00  0.00     0.053 C 
ATOM      9  C   UNL d   1       3.091  -0.045   1.519  0.00  0.00     0.018 C 
ENDBRANCH   1   8
TORSDOF 1
ENDMDL
