MODEL 1
REMARK minimizedAffinity 13.4693155
REMARK minimizedRMSD -1
REMARK  1 active torsions:
REMARK  status: ('A' for Active; 'I' for Inactive)
REMARK    1  A    between atoms: C1_2  and  C2_3 
ROOT
ATOM      1  C2  UNL d   1       2.320  -2.687   2.584  0.00  0.00    -0.076 A 
ATOM      2  C3  UNL d   1       3.072  -1.715   1.901  0.00  0.00     0.004 A 
ATOM      3  C4  UNL d   1       2.650  -0.388   1.848  0.00  0.00    -0.003 A 
ATOM      4  C5  UNL d   1       1.469  -0.011   2.477  0.00  0.00     0.000 A 
ATOM      5  C6  UNL d   1       0.720  -0.958   3.174  0.00  0.00     0.000 A 
ATOM      6  C7  UNL d   1       1.140  -2.297   3.251  0.00  0.00    -0.073 A 
ATOM      7  C8  UNL d   1       0.289  -3.278   4.011  0.00  0.00     0.078 C 
ENDROOT
BRANCH   1   8
ATOM      8  C1  UNL d   1       2.814  -4.116   2.584  0.00  0.00     0.053 C 
ATOM      9  C   UNL d   1       1.677  -5.125   2.645  0.00  0.00     0.018 C 
ENDBRANCH   1   8
TORSDOF 1
ENDMDL
