MODEL 1
REMARK minimizedAffinity 0.543027222
REMARK minimizedRMSD -1
REMARK  1 active torsions:
REMARK  status: ('A' for Active; 'I' for Inactive)
REMARK    1  A    between atoms: C1_2  and  C2_3 
ROOT
ATOM      1  C2  UNL d   1       1.995  -3.362   3.973  0.00  0.00    -0.076 A 
ATOM      2  C3  UNL d   1       1.475  -2.245   4.649  0.00  0.00     0.004 A 
ATOM      3  C4  UNL d   1       1.407  -0.999   4.029  0.00  0.00    -0.003 A 
ATOM      4  C5  UNL d   1       1.858  -0.849   2.722  0.00  0.00     0.000 A 
ATOM      5  C6  UNL d   1       2.360  -1.950   2.030  0.00  0.00     0.000 A 
ATOM      6  C7  UNL d   1       2.421  -3.217   2.635  0.00  0.00    -0.073 A 
ATOM      7  C8  UNL d   1       2.978  -4.369   1.844  0.00  0.00     0.078 C 
ENDROOT
BRANCH   1   8
ATOM      8  C1  UNL d   1       2.069  -4.683   4.705  0.00  0.00     0.053 C 
ATOM      9  C   UNL d   1       1.052  -4.782   5.831  0.00  0.00     0.018 C 
ENDBRANCH   1   8
TORSDOF 1
ENDMDL
