MODEL 1
REMARK minimizedAffinity 7.05421114
REMARK minimizedRMSD -1
REMARK  1 active torsions:
REMARK  status: ('A' for Active; 'I' for Inactive)
REMARK    1  A    between atoms: C1_2  and  C2_3 
ROOT
ATOM      1  C2  UNL d   1      -3.779   2.550  -1.816  0.00  0.00    -0.076 A 
ATOM      2  C3  UNL d   1      -3.109   1.917  -0.755  0.00  0.00     0.004 A 
ATOM      3  C4  UNL d   1      -2.410   0.728  -0.955  0.00  0.00    -0.003 A 
ATOM      4  C5  UNL d   1      -2.369   0.153  -2.220  0.00  0.00     0.000 A 
ATOM      5  C6  UNL d   1      -3.013   0.776  -3.289  0.00  0.00     0.000 A 
ATOM      6  C7  UNL d   1      -3.709   1.984  -3.107  0.00  0.00    -0.073 A 
ATOM      7  C8  UNL d   1      -4.390   2.610  -4.293  0.00  0.00     0.078 C 
ENDROOT
BRANCH   1   8
ATOM      8  C1  UNL d   1      -4.544   3.823  -1.533  0.00  0.00     0.053 C 
ATOM      9  C   UNL d   1      -5.995   3.561  -1.162  0.00  0.00     0.018 C 
ENDBRANCH   1   8
TORSDOF 1
ENDMDL
