MODEL 1
REMARK minimizedAffinity 17.4954739
REMARK minimizedRMSD -1
REMARK  0 active torsions:
REMARK  status: ('A' for Active; 'I' for Inactive)
ROOT
ATOM      1  O1  BZF d   1      -1.274  -3.164   0.621  0.00  0.00    -0.204 OA
ATOM      2  C2  BZF d   1      -0.934  -2.505   1.787  0.00  0.00     0.174 A 
ATOM      3  C3  BZF d   1      -0.586  -1.227   1.530  0.00  0.00    -0.012 A 
ATOM      4  C3A BZF d   1      -0.805  -1.053   0.127  0.00  0.00    -0.107 A 
ATOM      5  C4  BZF d   1      -0.656   0.007  -0.722  0.00  0.00     0.055 A 
ATOM      6  C5  BZF d   1      -0.886  -0.173  -2.049  0.00  0.00    -0.016 A 
ATOM      7  C6  BZF d   1      -1.260  -1.398  -2.562  0.00  0.00     0.022 A 
ATOM      8  C7  BZF d   1      -1.426  -2.477  -1.759  0.00  0.00     0.029 A 
ATOM      9  C7A BZF d   1      -1.226  -2.290  -0.413  0.00  0.00     0.058 A 
ENDROOT
TORSDOF 0
ENDMDL
