MODEL 1
REMARK minimizedAffinity 10.9905443
REMARK minimizedRMSD -1
REMARK  0 active torsions:
REMARK  status: ('A' for Active; 'I' for Inactive)
ROOT
ATOM      1  O1  BZF d   1      -1.467  -3.780   1.511  0.00  0.00    -0.204 OA
ATOM      2  C2  BZF d   1      -2.332  -3.865   2.586  0.00  0.00     0.174 A 
ATOM      3  C3  BZF d   1      -2.957  -2.687   2.791  0.00  0.00    -0.012 A 
ATOM      4  C3A BZF d   1      -2.520  -1.839   1.725  0.00  0.00    -0.107 A 
ATOM      5  C4  BZF d   1      -2.804  -0.550   1.375  0.00  0.00     0.055 A 
ATOM      6  C5  BZF d   1      -2.154   0.007   0.319  0.00  0.00    -0.016 A 
ATOM      7  C6  BZF d   1      -1.211  -0.694  -0.404  0.00  0.00     0.022 A 
ATOM      8  C7  BZF d   1      -0.900  -1.977  -0.098  0.00  0.00     0.029 A 
ATOM      9  C7A BZF d   1      -1.579  -2.553   0.948  0.00  0.00     0.058 A 
ENDROOT
TORSDOF 0
ENDMDL
