MODEL 1
REMARK minimizedAffinity 11.0380802
REMARK minimizedRMSD -1
REMARK  0 active torsions:
REMARK  status: ('A' for Active; 'I' for Inactive)
ROOT
ATOM      1  O1  BZF d   1       5.037   3.119  -2.531  0.00  0.00    -0.204 OA
ATOM      2  C2  BZF d   1       5.974   2.152  -2.219  0.00  0.00     0.174 A 
ATOM      3  C3  BZF d   1       5.999   1.922  -0.891  0.00  0.00    -0.012 A 
ATOM      4  C3A BZF d   1       4.953   2.733  -0.348  0.00  0.00    -0.107 A 
ATOM      5  C4  BZF d   1       4.473   2.925   0.916  0.00  0.00     0.055 A 
ATOM      6  C5  BZF d   1       3.490   3.840   1.118  0.00  0.00    -0.016 A 
ATOM      7  C6  BZF d   1       2.967   4.584   0.081  0.00  0.00     0.022 A 
ATOM      8  C7  BZF d   1       3.406   4.425  -1.192  0.00  0.00     0.029 A 
ATOM      9  C7A BZF d   1       4.377   3.477  -1.403  0.00  0.00     0.058 A 
ENDROOT
TORSDOF 0
ENDMDL
