MODEL 1
REMARK minimizedAffinity 1.3119204
REMARK minimizedRMSD -1
REMARK  0 active torsions:
REMARK  status: ('A' for Active; 'I' for Inactive)
ROOT
ATOM      1  O1  BZF d   1       4.690   5.131   3.630  0.00  0.00    -0.204 OA
ATOM      2  C2  BZF d   1       5.445   5.999   4.394  0.00  0.00     0.174 A 
ATOM      3  C3  BZF d   1       5.992   5.358   5.447  0.00  0.00    -0.012 A 
ATOM      4  C3A BZF d   1       5.626   3.984   5.282  0.00  0.00    -0.107 A 
ATOM      5  C4  BZF d   1       5.884   2.851   6.000  0.00  0.00     0.055 A 
ATOM      6  C5  BZF d   1       5.318   1.679   5.610  0.00  0.00    -0.016 A 
ATOM      7  C6  BZF d   1       4.486   1.605   4.512  0.00  0.00     0.022 A 
ATOM      8  C7  BZF d   1       4.204   2.701   3.766  0.00  0.00     0.029 A 
ATOM      9  C7A BZF d   1       4.801   3.880   4.138  0.00  0.00     0.058 A 
ENDROOT
TORSDOF 0
ENDMDL
