MODEL 1
REMARK minimizedAffinity 13.0927935
REMARK minimizedRMSD -1
REMARK  0 active torsions:
REMARK  status: ('A' for Active; 'I' for Inactive)
ROOT
ATOM      1  O1  BZF d   1      -4.869   4.031   2.081  0.00  0.00    -0.204 OA
ATOM      2  C2  BZF d   1      -5.252   5.283   1.640  0.00  0.00     0.174 A 
ATOM      3  C3  BZF d   1      -5.794   6.000   2.645  0.00  0.00    -0.012 A 
ATOM      4  C3A BZF d   1      -5.662   5.176   3.808  0.00  0.00    -0.107 A 
ATOM      5  C4  BZF d   1      -6.000   5.344   5.120  0.00  0.00     0.055 A 
ATOM      6  C5  BZF d   1      -5.802   4.318   5.990  0.00  0.00    -0.016 A 
ATOM      7  C6  BZF d   1      -5.275   3.111   5.580  0.00  0.00     0.022 A 
ATOM      8  C7  BZF d   1      -4.919   2.900   4.290  0.00  0.00     0.029 A 
ATOM      9  C7A BZF d   1      -5.087   3.946   3.415  0.00  0.00     0.058 A 
ENDROOT
TORSDOF 0
ENDMDL
