MODEL 1
REMARK minimizedAffinity -0.0354287289
REMARK minimizedRMSD -1
REMARK  0 active torsions:
REMARK  status: ('A' for Active; 'I' for Inactive)
ROOT
ATOM      1  O1  BZF d   1      -2.768   3.877  -3.750  0.00  0.00    -0.204 OA
ATOM      2  C2  BZF d   1      -2.200   3.491  -4.949  0.00  0.00     0.174 A 
ATOM      3  C3  BZF d   1      -2.954   3.901  -5.989  0.00  0.00    -0.012 A 
ATOM      4  C3A BZF d   1      -4.014   4.665  -5.407  0.00  0.00    -0.107 A 
ATOM      5  C4  BZF d   1      -5.076   5.347  -5.930  0.00  0.00     0.055 A 
ATOM      6  C5  BZF d   1      -5.969   5.927  -5.085  0.00  0.00    -0.016 A 
ATOM      7  C6  BZF d   1      -5.833   5.841  -3.715  0.00  0.00     0.022 A 
ATOM      8  C7  BZF d   1      -4.793   5.180  -3.150  0.00  0.00     0.029 A 
ATOM      9  C7A BZF d   1      -3.872   4.621  -4.001  0.00  0.00     0.058 A 
ENDROOT
TORSDOF 0
ENDMDL
