MODEL 1
REMARK minimizedAffinity -0.232832998
REMARK minimizedRMSD -1
REMARK  0 active torsions:
REMARK  status: ('A' for Active; 'I' for Inactive)
ROOT
ATOM      1  O1  BZF d   1      -3.749   5.159   5.554  0.00  0.00    -0.204 OA
ATOM      2  C2  BZF d   1      -4.922   5.887   5.600  0.00  0.00     0.174 A 
ATOM      3  C3  BZF d   1      -5.988   5.069   5.715  0.00  0.00    -0.012 A 
ATOM      4  C3A BZF d   1      -5.441   3.752   5.834  0.00  0.00    -0.107 A 
ATOM      5  C4  BZF d   1      -5.997   2.515   5.991  0.00  0.00     0.055 A 
ATOM      6  C5  BZF d   1      -5.188   1.423   6.000  0.00  0.00    -0.016 A 
ATOM      7  C6  BZF d   1      -3.821   1.532   5.849  0.00  0.00     0.022 A 
ATOM      8  C7  BZF d   1      -3.223   2.738   5.695  0.00  0.00     0.029 A 
ATOM      9  C7A BZF d   1      -4.035   3.846   5.719  0.00  0.00     0.058 A 
ENDROOT
TORSDOF 0
ENDMDL
