MODEL 1
REMARK minimizedAffinity 8.89454269
REMARK minimizedRMSD -1
REMARK  0 active torsions:
REMARK  status: ('A' for Active; 'I' for Inactive)
ROOT
ATOM      1  O1  BZF d   1       4.513   3.901   2.389  0.00  0.00    -0.204 OA
ATOM      2  C2  BZF d   1       5.242   4.728   1.557  0.00  0.00     0.174 A 
ATOM      3  C3  BZF d   1       5.889   5.673   2.269  0.00  0.00    -0.012 A 
ATOM      4  C3A BZF d   1       5.617   5.364   3.639  0.00  0.00    -0.107 A 
ATOM      5  C4  BZF d   1       5.995   5.930   4.823  0.00  0.00     0.055 A 
ATOM      6  C5  BZF d   1       5.497   5.430   5.984  0.00  0.00    -0.016 A 
ATOM      7  C6  BZF d   1       4.616   4.368   5.998  0.00  0.00     0.022 A 
ATOM      8  C7  BZF d   1       4.216   3.770   4.849  0.00  0.00     0.029 A 
ATOM      9  C7A BZF d   1       4.743   4.252   3.676  0.00  0.00     0.058 A 
ENDROOT
TORSDOF 0
ENDMDL
