MODEL 1
REMARK minimizedAffinity 1.39445841
REMARK minimizedRMSD -1
REMARK  0 active torsions:
REMARK  status: ('A' for Active; 'I' for Inactive)
ROOT
ATOM      1  O1  BZF d   1      -6.000   3.764   4.465  0.00  0.00    -0.204 OA
ATOM      2  C2  BZF d   1      -5.775   4.425   5.657  0.00  0.00     0.174 A 
ATOM      3  C3  BZF d   1      -4.470   4.738   5.791  0.00  0.00    -0.012 A 
ATOM      4  C3A BZF d   1      -3.856   4.324   4.567  0.00  0.00    -0.107 A 
ATOM      5  C4  BZF d   1      -2.577   4.383   4.092  0.00  0.00     0.055 A 
ATOM      6  C5  BZF d   1      -2.294   3.824   2.886  0.00  0.00    -0.016 A 
ATOM      7  C6  BZF d   1      -3.263   3.195   2.132  0.00  0.00     0.022 A 
ATOM      8  C7  BZF d   1      -4.547   3.116   2.560  0.00  0.00     0.029 A 
ATOM      9  C7A BZF d   1      -4.842   3.709   3.763  0.00  0.00     0.058 A 
ENDROOT
TORSDOF 0
ENDMDL
