MODEL 1
REMARK minimizedAffinity 23.9778271
REMARK minimizedRMSD -1
REMARK  0 active torsions:
REMARK  status: ('A' for Active; 'I' for Inactive)
ROOT
ATOM      1  O1  BZF d   1      -1.271  -0.712   4.299  0.00  0.00    -0.204 OA
ATOM      2  C2  BZF d   1      -1.051   0.424   5.053  0.00  0.00     0.174 A 
ATOM      3  C3  BZF d   1      -1.424   1.529   4.375  0.00  0.00    -0.012 A 
ATOM      4  C3A BZF d   1      -1.993   1.046   3.154  0.00  0.00    -0.107 A 
ATOM      5  C4  BZF d   1      -2.556   1.661   2.073  0.00  0.00     0.055 A 
ATOM      6  C5  BZF d   1      -2.948   0.906   1.013  0.00  0.00    -0.016 A 
ATOM      7  C6  BZF d   1      -2.786  -0.464   0.998  0.00  0.00     0.022 A 
ATOM      8  C7  BZF d   1      -2.237  -1.119   2.049  0.00  0.00     0.029 A 
ATOM      9  C7A BZF d   1      -1.871  -0.363   3.136  0.00  0.00     0.058 A 
ENDROOT
TORSDOF 0
ENDMDL
