MODEL 1
REMARK minimizedAffinity -3.32100368
REMARK minimizedRMSD -1
REMARK  0 active torsions:
REMARK  status: ('A' for Active; 'I' for Inactive)
ROOT
ATOM      1  O1  BZF d   1      -2.588   4.351  -4.928  0.00  0.00    -0.204 OA
ATOM      2  C2  BZF d   1      -3.097   3.643  -5.999  0.00  0.00     0.174 A 
ATOM      3  C3  BZF d   1      -4.446   3.640  -5.973  0.00  0.00    -0.012 A 
ATOM      4  C3A BZF d   1      -4.802   4.470  -4.864  0.00  0.00    -0.107 A 
ATOM      5  C4  BZF d   1      -5.997   4.868  -4.334  0.00  0.00     0.055 A 
ATOM      6  C5  BZF d   1      -6.000   5.621  -3.203  0.00  0.00    -0.016 A 
ATOM      7  C6  BZF d   1      -4.829   5.991  -2.574  0.00  0.00     0.022 A 
ATOM      8  C7  BZF d   1      -3.620   5.625  -3.064  0.00  0.00     0.029 A 
ATOM      9  C7A BZF d   1      -3.613   4.891  -4.226  0.00  0.00     0.058 A 
ENDROOT
TORSDOF 0
ENDMDL
