MODEL 1
REMARK minimizedAffinity 6.63797235
REMARK minimizedRMSD -1
REMARK  0 active torsions:
REMARK  status: ('A' for Active; 'I' for Inactive)
ROOT
ATOM      1  O1  BZF d   1      -0.622  -3.214   1.103  0.00  0.00    -0.204 OA
ATOM      2  C2  BZF d   1      -0.596  -1.838   0.977  0.00  0.00     0.174 A 
ATOM      3  C3  BZF d   1      -1.283  -1.253   1.980  0.00  0.00    -0.012 A 
ATOM      4  C3A BZF d   1      -1.689  -2.327   2.834  0.00  0.00    -0.107 A 
ATOM      5  C4  BZF d   1      -2.390  -2.382   4.005  0.00  0.00     0.055 A 
ATOM      6  C5  BZF d   1      -2.681  -3.595   4.544  0.00  0.00    -0.016 A 
ATOM      7  C6  BZF d   1      -2.292  -4.771   3.938  0.00  0.00     0.022 A 
ATOM      8  C7  BZF d   1      -1.590  -4.768   2.778  0.00  0.00     0.029 A 
ATOM      9  C7A BZF d   1      -1.267  -3.543   2.248  0.00  0.00     0.058 A 
ENDROOT
TORSDOF 0
ENDMDL
