MODEL 1
REMARK minimizedAffinity 4.42724943
REMARK minimizedRMSD -1
REMARK  0 active torsions:
REMARK  status: ('A' for Active; 'I' for Inactive)
ROOT
ATOM      1  O1  BZF d   1      -1.789   3.713   5.618  0.00  0.00    -0.204 OA
ATOM      2  C2  BZF d   1      -1.796   2.333   5.550  0.00  0.00     0.174 A 
ATOM      3  C3  BZF d   1      -3.049   1.854   5.688  0.00  0.00    -0.012 A 
ATOM      4  C3A BZF d   1      -3.889   3.011   5.760  0.00  0.00    -0.107 A 
ATOM      5  C4  BZF d   1      -5.237   3.186   5.884  0.00  0.00     0.055 A 
ATOM      6  C5  BZF d   1      -5.732   4.447   5.999  0.00  0.00    -0.016 A 
ATOM      7  C6  BZF d   1      -4.908   5.553   5.999  0.00  0.00     0.022 A 
ATOM      8  C7  BZF d   1      -3.564   5.429   5.873  0.00  0.00     0.029 A 
ATOM      9  C7A BZF d   1      -3.064   4.159   5.723  0.00  0.00     0.058 A 
ENDROOT
TORSDOF 0
ENDMDL
