MODEL 1
REMARK minimizedAffinity -0.0361262783
REMARK minimizedRMSD -1
REMARK  0 active torsions:
REMARK  status: ('A' for Active; 'I' for Inactive)
ROOT
ATOM      1  O1  BZF d   1      -4.723   5.318  -5.995  0.00  0.00    -0.204 OA
ATOM      2  C2  BZF d   1      -5.403   6.000  -5.004  0.00  0.00     0.174 A 
ATOM      3  C3  BZF d   1      -4.869   5.742  -3.793  0.00  0.00    -0.012 A 
ATOM      4  C3A BZF d   1      -3.730   4.916  -4.052  0.00  0.00    -0.107 A 
ATOM      5  C4  BZF d   1      -2.782   4.346  -3.251  0.00  0.00     0.055 A 
ATOM      6  C5  BZF d   1      -1.845   3.536  -3.811  0.00  0.00    -0.016 A 
ATOM      7  C6  BZF d   1      -1.830   3.270  -5.164  0.00  0.00     0.022 A 
ATOM      8  C7  BZF d   1      -2.747   3.816  -6.000  0.00  0.00     0.029 A 
ATOM      9  C7A BZF d   1      -3.675   4.662  -5.442  0.00  0.00     0.058 A 
ENDROOT
TORSDOF 0
ENDMDL
