MODEL 1
REMARK minimizedAffinity 11.3087091
REMARK minimizedRMSD -1
REMARK  0 active torsions:
REMARK  status: ('A' for Active; 'I' for Inactive)
ROOT
ATOM      1  O1  BZF d   1      -0.477  -2.874  -1.425  0.00  0.00    -0.204 OA
ATOM      2  C2  BZF d   1      -0.775  -1.860  -2.315  0.00  0.00     0.174 A 
ATOM      3  C3  BZF d   1      -1.191  -0.757  -1.661  0.00  0.00    -0.012 A 
ATOM      4  C3A BZF d   1      -1.062  -1.072  -0.272  0.00  0.00    -0.107 A 
ATOM      5  C4  BZF d   1      -1.305  -0.372   0.876  0.00  0.00     0.055 A 
ATOM      6  C5  BZF d   1      -1.146  -0.994   2.074  0.00  0.00    -0.016 A 
ATOM      7  C6  BZF d   1      -0.751  -2.313   2.161  0.00  0.00     0.022 A 
ATOM      8  C7  BZF d   1      -0.494  -3.045   1.051  0.00  0.00     0.029 A 
ATOM      9  C7A BZF d   1      -0.621  -2.411  -0.161  0.00  0.00     0.058 A 
ENDROOT
TORSDOF 0
ENDMDL
