MODEL 1
REMARK minimizedAffinity 5.37234068
REMARK minimizedRMSD -1
REMARK  0 active torsions:
REMARK  status: ('A' for Active; 'I' for Inactive)
ROOT
ATOM      1  O1  BZF d   1      -3.652   2.822   3.139  0.00  0.00    -0.204 OA
ATOM      2  C2  BZF d   1      -3.742   2.042   4.275  0.00  0.00     0.174 A 
ATOM      3  C3  BZF d   1      -4.494   2.650   5.215  0.00  0.00    -0.012 A 
ATOM      4  C3A BZF d   1      -4.975   3.847   4.596  0.00  0.00    -0.107 A 
ATOM      5  C4  BZF d   1      -5.784   4.863   5.018  0.00  0.00     0.055 A 
ATOM      6  C5  BZF d   1      -6.000   5.922   4.194  0.00  0.00    -0.016 A 
ATOM      7  C6  BZF d   1      -5.419   6.000   2.945  0.00  0.00     0.022 A 
ATOM      8  C7  BZF d   1      -4.613   5.014   2.481  0.00  0.00     0.029 A 
ATOM      9  C7A BZF d   1      -4.419   3.928   3.298  0.00  0.00     0.058 A 
ENDROOT
TORSDOF 0
ENDMDL
