MODEL 1
REMARK minimizedAffinity 1.73230529
REMARK minimizedRMSD -1
REMARK  0 active torsions:
REMARK  status: ('A' for Active; 'I' for Inactive)
ROOT
ATOM      1  O1  BZF d   1       0.126  -0.437   1.765  0.00  0.00    -0.204 OA
ATOM      2  C2  BZF d   1       0.335   0.927   1.693  0.00  0.00     0.174 A 
ATOM      3  C3  BZF d   1       0.073   1.386   0.452  0.00  0.00    -0.012 A 
ATOM      4  C3A BZF d   1      -0.412   0.252  -0.274  0.00  0.00    -0.107 A 
ATOM      5  C4  BZF d   1      -0.853   0.075  -1.554  0.00  0.00     0.055 A 
ATOM      6  C5  BZF d   1      -1.188  -1.174  -1.971  0.00  0.00    -0.016 A 
ATOM      7  C6  BZF d   1      -1.091  -2.268  -1.136  0.00  0.00     0.022 A 
ATOM      8  C7  BZF d   1      -0.664  -2.142   0.144  0.00  0.00     0.029 A 
ATOM      9  C7A BZF d   1      -0.356  -0.875   0.578  0.00  0.00     0.058 A 
ENDROOT
TORSDOF 0
ENDMDL
