MODEL 1
REMARK minimizedAffinity 10.5160656
REMARK minimizedRMSD -1
REMARK  0 active torsions:
REMARK  status: ('A' for Active; 'I' for Inactive)
ROOT
ATOM      1  C   UNL d   1      -1.989  -3.371   3.380  0.00  0.00     0.078 C 
ATOM      2  C1  UNL d   1      -1.019  -2.228   3.369  0.00  0.00    -0.077 A 
ATOM      3  C2  UNL d   1      -0.128  -2.048   2.304  0.00  0.00    -0.001 A 
ATOM      4  C3  UNL d   1       0.776  -0.985   2.311  0.00  0.00     0.003 A 
ATOM      5  C4  UNL d   1       0.799  -0.093   3.382  0.00  0.00    -0.005 A 
ATOM      6  C5  UNL d   1      -0.083  -0.265   4.447  0.00  0.00     0.003 A 
ATOM      7  C6  UNL d   1      -0.988  -1.328   4.442  0.00  0.00    -0.001 A 
ENDROOT
TORSDOF 0
ENDMDL
