MODEL 1
REMARK minimizedAffinity 10.4643021
REMARK minimizedRMSD -1
REMARK  0 active torsions:
REMARK  status: ('A' for Active; 'I' for Inactive)
ROOT
ATOM      1  C   UNL d   1       4.781  -1.365  -0.918  0.00  0.00     0.078 C 
ATOM      2  C1  UNL d   1       3.655  -1.946  -0.116  0.00  0.00    -0.077 A 
ATOM      3  C2  UNL d   1       3.130  -3.208  -0.419  0.00  0.00    -0.001 A 
ATOM      4  C3  UNL d   1       2.075  -3.732   0.330  0.00  0.00     0.003 A 
ATOM      5  C4  UNL d   1       1.535  -3.000   1.386  0.00  0.00    -0.005 A 
ATOM      6  C5  UNL d   1       2.049  -1.742   1.693  0.00  0.00     0.003 A 
ATOM      7  C6  UNL d   1       3.104  -1.216   0.945  0.00  0.00    -0.001 A 
ENDROOT
TORSDOF 0
ENDMDL
