MODEL 1
REMARK minimizedAffinity 10.8604918
REMARK minimizedRMSD -1
REMARK  0 active torsions:
REMARK  status: ('A' for Active; 'I' for Inactive)
ROOT
ATOM      1  C   UNL d   1       1.662   0.034   1.411  0.00  0.00     0.078 C 
ATOM      2  C1  UNL d   1       0.690  -0.704   2.283  0.00  0.00    -0.077 A 
ATOM      3  C2  UNL d   1       0.181  -0.122   3.450  0.00  0.00    -0.001 A 
ATOM      4  C3  UNL d   1      -0.716  -0.824   4.256  0.00  0.00     0.003 A 
ATOM      5  C4  UNL d   1      -1.109  -2.114   3.906  0.00  0.00    -0.005 A 
ATOM      6  C5  UNL d   1      -0.606  -2.703   2.748  0.00  0.00     0.003 A 
ATOM      7  C6  UNL d   1       0.290  -2.002   1.940  0.00  0.00    -0.001 A 
ENDROOT
TORSDOF 0
ENDMDL
