MODEL 1
REMARK minimizedAffinity 9.61422157
REMARK minimizedRMSD -1
REMARK  0 active torsions:
REMARK  status: ('A' for Active; 'I' for Inactive)
ROOT
ATOM      1  C   UNL d   1      -3.571  -5.037  -0.065  0.00  0.00     0.078 C 
ATOM      2  C1  UNL d   1      -3.493  -4.214   1.187  0.00  0.00    -0.077 A 
ATOM      3  C2  UNL d   1      -2.456  -4.400   2.108  0.00  0.00    -0.001 A 
ATOM      4  C3  UNL d   1      -2.401  -3.634   3.274  0.00  0.00     0.003 A 
ATOM      5  C4  UNL d   1      -3.382  -2.678   3.529  0.00  0.00    -0.005 A 
ATOM      6  C5  UNL d   1      -4.419  -2.487   2.618  0.00  0.00     0.003 A 
ATOM      7  C6  UNL d   1      -4.475  -3.252   1.452  0.00  0.00    -0.001 A 
ENDROOT
TORSDOF 0
ENDMDL
