MODEL 1
REMARK minimizedAffinity 4.21190691
REMARK minimizedRMSD -1
REMARK  0 active torsions:
REMARK  status: ('A' for Active; 'I' for Inactive)
ROOT
ATOM      1  C   UNL d   1       0.442  -1.228   1.963  0.00  0.00     0.078 C 
ATOM      2  C1  UNL d   1       1.781  -1.152   1.293  0.00  0.00    -0.077 A 
ATOM      3  C2  UNL d   1       2.471   0.063   1.194  0.00  0.00    -0.001 A 
ATOM      4  C3  UNL d   1       3.712   0.120   0.559  0.00  0.00     0.003 A 
ATOM      5  C4  UNL d   1       4.275  -1.033   0.017  0.00  0.00    -0.005 A 
ATOM      6  C5  UNL d   1       3.596  -2.246   0.109  0.00  0.00     0.003 A 
ATOM      7  C6  UNL d   1       2.354  -2.306   0.743  0.00  0.00    -0.001 A 
ENDROOT
TORSDOF 0
ENDMDL
