MODEL 1
REMARK minimizedAffinity 6.78591824
REMARK minimizedRMSD -1
REMARK  0 active torsions:
REMARK  status: ('A' for Active; 'I' for Inactive)
ROOT
ATOM      1  C   UNL d   1       1.046  -5.232  -3.764  0.00  0.00     0.078 C 
ATOM      2  C1  UNL d   1       2.301  -4.953  -4.535  0.00  0.00    -0.077 A 
ATOM      3  C2  UNL d   1       2.847  -3.664  -4.582  0.00  0.00    -0.001 A 
ATOM      4  C3  UNL d   1       4.011  -3.417  -5.311  0.00  0.00     0.003 A 
ATOM      5  C4  UNL d   1       4.639  -4.453  -6.000  0.00  0.00    -0.005 A 
ATOM      6  C5  UNL d   1       4.102  -5.738  -5.961  0.00  0.00     0.003 A 
ATOM      7  C6  UNL d   1       2.938  -5.987  -5.232  0.00  0.00    -0.001 A 
ENDROOT
TORSDOF 0
ENDMDL
