MODEL 1
REMARK minimizedAffinity 8.90465546
REMARK minimizedRMSD -1
REMARK  0 active torsions:
REMARK  status: ('A' for Active; 'I' for Inactive)
ROOT
ATOM      1  C   UNL d   1       0.693   2.667  -1.154  0.00  0.00     0.078 C 
ATOM      2  C1  UNL d   1      -0.779   2.660  -1.443  0.00  0.00    -0.077 A 
ATOM      3  C2  UNL d   1      -1.255   2.680  -2.760  0.00  0.00    -0.001 A 
ATOM      4  C3  UNL d   1      -2.627   2.683  -3.014  0.00  0.00     0.003 A 
ATOM      5  C4  UNL d   1      -3.535   2.667  -1.957  0.00  0.00    -0.005 A 
ATOM      6  C5  UNL d   1      -3.071   2.649  -0.644  0.00  0.00     0.003 A 
ATOM      7  C6  UNL d   1      -1.699   2.646  -0.387  0.00  0.00    -0.001 A 
ENDROOT
TORSDOF 0
ENDMDL
