MODEL 1
REMARK minimizedAffinity 1.51181531
REMARK minimizedRMSD -1
REMARK  0 active torsions:
REMARK  status: ('A' for Active; 'I' for Inactive)
ROOT
ATOM      1  C   UNL d   1       3.639  -5.999  -5.998  0.00  0.00     0.078 C 
ATOM      2  C1  UNL d   1       2.424  -5.624  -5.204  0.00  0.00    -0.077 A 
ATOM      3  C2  UNL d   1       1.249  -5.204  -5.839  0.00  0.00    -0.001 A 
ATOM      4  C3  UNL d   1       0.128  -4.849  -5.086  0.00  0.00     0.003 A 
ATOM      5  C4  UNL d   1       0.172  -4.907  -3.695  0.00  0.00    -0.005 A 
ATOM      6  C5  UNL d   1       1.338  -5.321  -3.054  0.00  0.00     0.003 A 
ATOM      7  C6  UNL d   1       2.460  -5.677  -3.804  0.00  0.00    -0.001 A 
ENDROOT
TORSDOF 0
ENDMDL
