MODEL 1
REMARK minimizedAffinity 2.16064787
REMARK minimizedRMSD -1
REMARK  0 active torsions:
REMARK  status: ('A' for Active; 'I' for Inactive)
ROOT
ATOM      1  C   UNL d   1       3.426  -5.751  -5.997  0.00  0.00     0.078 C 
ATOM      2  C1  UNL d   1       2.320  -5.558  -5.003  0.00  0.00    -0.077 A 
ATOM      3  C2  UNL d   1       1.019  -5.999  -5.276  0.00  0.00    -0.001 A 
ATOM      4  C3  UNL d   1      -0.003  -5.804  -4.346  0.00  0.00     0.003 A 
ATOM      5  C4  UNL d   1       0.265  -5.167  -3.136  0.00  0.00    -0.005 A 
ATOM      6  C5  UNL d   1       1.556  -4.723  -2.855  0.00  0.00     0.003 A 
ATOM      7  C6  UNL d   1       2.579  -4.917  -3.785  0.00  0.00    -0.001 A 
ENDROOT
TORSDOF 0
ENDMDL
