MODEL 1
REMARK minimizedAffinity 7.54339838
REMARK minimizedRMSD -1
REMARK  0 active torsions:
REMARK  status: ('A' for Active; 'I' for Inactive)
ROOT
ATOM      1  C   UNL d   1       1.185  -0.374   2.242  0.00  0.00     0.078 C 
ATOM      2  C1  UNL d   1       0.479  -0.531   3.555  0.00  0.00    -0.077 A 
ATOM      3  C2  UNL d   1       1.119  -0.217   4.760  0.00  0.00    -0.001 A 
ATOM      4  C3  UNL d   1       0.454  -0.378   5.976  0.00  0.00     0.003 A 
ATOM      5  C4  UNL d   1      -0.855  -0.855   6.000  0.00  0.00    -0.005 A 
ATOM      6  C5  UNL d   1      -1.500  -1.173   4.806  0.00  0.00     0.003 A 
ATOM      7  C6  UNL d   1      -0.836  -1.013   3.589  0.00  0.00    -0.001 A 
ENDROOT
TORSDOF 0
ENDMDL
