MODEL 1
REMARK minimizedAffinity -4.5772295
REMARK minimizedRMSD -1
REMARK  0 active torsions:
REMARK  status: ('A' for Active; 'I' for Inactive)
ROOT
ATOM      1  C   UNL d   1      -0.735  -0.984   2.943  0.00  0.00     0.078 C 
ATOM      2  C1  UNL d   1       0.434  -1.570   2.209  0.00  0.00    -0.077 A 
ATOM      3  C2  UNL d   1       0.538  -2.951   2.004  0.00  0.00    -0.001 A 
ATOM      4  C3  UNL d   1       1.637  -3.483   1.328  0.00  0.00     0.003 A 
ATOM      5  C4  UNL d   1       2.641  -2.642   0.853  0.00  0.00    -0.005 A 
ATOM      6  C5  UNL d   1       2.548  -1.266   1.055  0.00  0.00     0.003 A 
ATOM      7  C6  UNL d   1       1.449  -0.732   1.731  0.00  0.00    -0.001 A 
ENDROOT
TORSDOF 0
ENDMDL
