MODEL 1
REMARK minimizedAffinity 6.57285881
REMARK minimizedRMSD -1
REMARK  0 active torsions:
REMARK  status: ('A' for Active; 'I' for Inactive)
ROOT
ATOM      1  C   UNL d   1       5.246  -1.752  -1.877  0.00  0.00     0.078 C 
ATOM      2  C1  UNL d   1       5.119  -2.166  -3.312  0.00  0.00    -0.077 A 
ATOM      3  C2  UNL d   1       4.120  -1.627  -4.132  0.00  0.00    -0.001 A 
ATOM      4  C3  UNL d   1       4.007  -2.029  -5.464  0.00  0.00     0.003 A 
ATOM      5  C4  UNL d   1       4.889  -2.972  -5.988  0.00  0.00    -0.005 A 
ATOM      6  C5  UNL d   1       5.885  -3.515  -5.179  0.00  0.00     0.003 A 
ATOM      7  C6  UNL d   1       6.000  -3.114  -3.847  0.00  0.00    -0.001 A 
ENDROOT
TORSDOF 0
ENDMDL
