MODEL 1
REMARK minimizedAffinity 10.888339
REMARK minimizedRMSD -1
REMARK  0 active torsions:
REMARK  status: ('A' for Active; 'I' for Inactive)
ROOT
ATOM      1  C   UNL d   1       5.985  -2.586  -5.950  0.00  0.00     0.078 C 
ATOM      2  C1  UNL d   1       5.341  -1.923  -4.769  0.00  0.00    -0.077 A 
ATOM      3  C2  UNL d   1       5.999  -1.851  -3.535  0.00  0.00    -0.001 A 
ATOM      4  C3  UNL d   1       5.384  -1.240  -2.442  0.00  0.00     0.003 A 
ATOM      5  C4  UNL d   1       4.107  -0.697  -2.570  0.00  0.00    -0.005 A 
ATOM      6  C5  UNL d   1       3.443  -0.766  -3.793  0.00  0.00     0.003 A 
ATOM      7  C6  UNL d   1       4.057  -1.377  -4.888  0.00  0.00    -0.001 A 
ENDROOT
TORSDOF 0
ENDMDL
