MODEL 1
REMARK minimizedAffinity 11.3946972
REMARK minimizedRMSD -1
REMARK  0 active torsions:
REMARK  status: ('A' for Active; 'I' for Inactive)
ROOT
ATOM      1  C   UNL d   1       4.223  -0.424  -1.832  0.00  0.00     0.078 C 
ATOM      2  C1  UNL d   1       3.826  -0.183  -0.406  0.00  0.00    -0.077 A 
ATOM      3  C2  UNL d   1       3.727   1.116   0.106  0.00  0.00    -0.001 A 
ATOM      4  C3  UNL d   1       3.366   1.324   1.438  0.00  0.00     0.003 A 
ATOM      5  C4  UNL d   1       3.103   0.238   2.270  0.00  0.00    -0.005 A 
ATOM      6  C5  UNL d   1       3.201  -1.059   1.770  0.00  0.00     0.003 A 
ATOM      7  C6  UNL d   1       3.562  -1.269   0.438  0.00  0.00    -0.001 A 
ENDROOT
TORSDOF 0
ENDMDL
