MODEL 1
REMARK minimizedAffinity 11.937891
REMARK minimizedRMSD -1
REMARK  0 active torsions:
REMARK  status: ('A' for Active; 'I' for Inactive)
ROOT
ATOM      1  C   UNL d   1      -0.768   3.084  -2.278  0.00  0.00     0.078 C 
ATOM      2  C1  UNL d   1      -1.669   3.459  -3.416  0.00  0.00    -0.077 A 
ATOM      3  C2  UNL d   1      -3.029   3.129  -3.398  0.00  0.00    -0.001 A 
ATOM      4  C3  UNL d   1      -3.854   3.477  -4.470  0.00  0.00     0.003 A 
ATOM      5  C4  UNL d   1      -3.327   4.155  -5.567  0.00  0.00    -0.005 A 
ATOM      6  C5  UNL d   1      -1.974   4.486  -5.595  0.00  0.00     0.003 A 
ATOM      7  C6  UNL d   1      -1.148   4.139  -4.525  0.00  0.00    -0.001 A 
ENDROOT
TORSDOF 0
ENDMDL
