MODEL 1
REMARK minimizedAffinity 8.01360416
REMARK minimizedRMSD -1
REMARK  0 active torsions:
REMARK  status: ('A' for Active; 'I' for Inactive)
ROOT
ATOM      1  C   UNL d   1      -0.362   2.999  -2.136  0.00  0.00     0.078 C 
ATOM      2  C1  UNL d   1       0.281   3.833  -1.069  0.00  0.00    -0.077 A 
ATOM      3  C2  UNL d   1       0.239   5.232  -1.124  0.00  0.00    -0.001 A 
ATOM      4  C3  UNL d   1       0.851   5.996  -0.129  0.00  0.00     0.003 A 
ATOM      5  C4  UNL d   1       1.510   5.371   0.927  0.00  0.00    -0.005 A 
ATOM      6  C5  UNL d   1       1.560   3.979   0.989  0.00  0.00     0.003 A 
ATOM      7  C6  UNL d   1       0.948   3.214  -0.005  0.00  0.00    -0.001 A 
ENDROOT
TORSDOF 0
ENDMDL
