MODEL 1
REMARK minimizedAffinity -3.00934625
REMARK minimizedRMSD -1
REMARK  0 active torsions:
REMARK  status: ('A' for Active; 'I' for Inactive)
ROOT
ATOM      1  C2' OXE d   1      -0.959   1.954   2.131  0.00  0.00     0.078 C 
ATOM      2  C1' OXE d   1      -2.875   0.767   0.458  0.00  0.00     0.078 C 
ATOM      3  C1  OXE d   1      -1.439   0.332   0.302  0.00  0.00    -0.078 A 
ATOM      4  C2  OXE d   1      -0.502   0.952   1.093  0.00  0.00    -0.078 A 
ATOM      5  C3  OXE d   1       0.829   0.550   1.028  0.00  0.00     0.003 A 
ATOM      6  C4  OXE d   1       1.245  -0.370   0.058  0.00  0.00    -0.002 A 
ATOM      7  C5  OXE d   1       0.312  -0.984  -0.784  0.00  0.00    -0.002 A 
ATOM      8  C6  OXE d   1      -1.037  -0.676  -0.647  0.00  0.00     0.003 A 
ENDROOT
TORSDOF 0
ENDMDL
