MODEL 1
REMARK minimizedAffinity -0.869520128
REMARK minimizedRMSD -1
REMARK  0 active torsions:
REMARK  status: ('A' for Active; 'I' for Inactive)
ROOT
ATOM      1  C2' OXE d   1      -1.868  -0.016  -0.597  0.00  0.00     0.078 C 
ATOM      2  C1' OXE d   1       0.383  -0.879  -2.036  0.00  0.00     0.078 C 
ATOM      3  C1  OXE d   1       0.579  -0.482  -0.595  0.00  0.00    -0.078 A 
ATOM      4  C2  OXE d   1      -0.518  -0.017   0.088  0.00  0.00    -0.078 A 
ATOM      5  C3  OXE d   1      -0.404   0.311   1.436  0.00  0.00     0.003 A 
ATOM      6  C4  OXE d   1       0.850   0.317   2.060  0.00  0.00    -0.002 A 
ATOM      7  C5  OXE d   1       1.988  -0.115   1.371  0.00  0.00    -0.002 A 
ATOM      8  C6  OXE d   1       1.863  -0.558   0.059  0.00  0.00     0.003 A 
ENDROOT
TORSDOF 0
ENDMDL
