MODEL 1
REMARK minimizedAffinity -4.34582949
REMARK minimizedRMSD -1
REMARK  0 active torsions:
REMARK  status: ('A' for Active; 'I' for Inactive)
ROOT
ATOM      1  C2' OXE d   1      -0.086   1.411   2.343  0.00  0.00     0.078 C 
ATOM      2  C1' OXE d   1       2.334   0.000   2.167  0.00  0.00     0.078 C 
ATOM      3  C1  OXE d   1       1.378  -0.096   1.005  0.00  0.00    -0.078 A 
ATOM      4  C2  OXE d   1       0.176   0.560   1.119  0.00  0.00    -0.078 A 
ATOM      5  C3  OXE d   1      -0.720   0.548   0.054  0.00  0.00     0.003 A 
ATOM      6  C4  OXE d   1      -0.475  -0.250  -1.070  0.00  0.00    -0.002 A 
ATOM      7  C5  OXE d   1       0.726  -0.957  -1.190  0.00  0.00    -0.002 A 
ATOM      8  C6  OXE d   1       1.679  -0.858  -0.182  0.00  0.00     0.003 A 
ENDROOT
TORSDOF 0
ENDMDL
