MODEL 1
REMARK minimizedAffinity -5.13840437
REMARK minimizedRMSD -1
REMARK  0 active torsions:
REMARK  status: ('A' for Active; 'I' for Inactive)
ROOT
ATOM      1  C2' OXE d   1      -0.859   0.972   3.257  0.00  0.00     0.078 C 
ATOM      2  C1' OXE d   1      -3.216   0.266   1.905  0.00  0.00     0.078 C 
ATOM      3  C1  OXE d   1      -1.908   0.097   1.174  0.00  0.00    -0.078 A 
ATOM      4  C2  OXE d   1      -0.764   0.489   1.826  0.00  0.00    -0.078 A 
ATOM      5  C3  OXE d   1       0.474   0.303   1.218  0.00  0.00     0.003 A 
ATOM      6  C4  OXE d   1       0.553  -0.136  -0.110  0.00  0.00    -0.002 A 
ATOM      7  C5  OXE d   1      -0.603  -0.503  -0.806  0.00  0.00    -0.002 A 
ATOM      8  C6  OXE d   1      -1.835  -0.433  -0.165  0.00  0.00     0.003 A 
ENDROOT
TORSDOF 0
ENDMDL
