MODEL 1
REMARK minimizedAffinity -2.71065879
REMARK minimizedRMSD -1
REMARK  0 active torsions:
REMARK  status: ('A' for Active; 'I' for Inactive)
ROOT
ATOM      1  C2' OXE d   1      -3.193  -1.050   2.896  0.00  0.00     0.078 C 
ATOM      2  C1' OXE d   1      -2.551  -0.949   0.165  0.00  0.00     0.078 C 
ATOM      3  C1  OXE d   1      -1.730  -0.110   1.112  0.00  0.00    -0.078 A 
ATOM      4  C2  OXE d   1      -2.081  -0.129   2.440  0.00  0.00    -0.078 A 
ATOM      5  C3  OXE d   1      -1.323   0.584   3.364  0.00  0.00     0.003 A 
ATOM      6  C4  OXE d   1      -0.303   1.440   2.933  0.00  0.00    -0.002 A 
ATOM      7  C5  OXE d   1       0.045   1.505   1.580  0.00  0.00    -0.002 A 
ATOM      8  C6  OXE d   1      -0.629   0.706   0.664  0.00  0.00     0.003 A 
ENDROOT
TORSDOF 0
ENDMDL
