MODEL 1
REMARK minimizedAffinity -5.086586
REMARK minimizedRMSD -1
REMARK  0 active torsions:
REMARK  status: ('A' for Active; 'I' for Inactive)
ROOT
ATOM      1  C2' OXE d   1      -2.287  -1.132  -0.416  0.00  0.00     0.078 C 
ATOM      2  C1' OXE d   1       0.346  -0.532  -1.182  0.00  0.00     0.078 C 
ATOM      3  C1  OXE d   1      -0.176   0.092   0.088  0.00  0.00    -0.078 A 
ATOM      4  C2  OXE d   1      -1.481  -0.170   0.430  0.00  0.00    -0.078 A 
ATOM      5  C3  OXE d   1      -1.996   0.336   1.620  0.00  0.00     0.003 A 
ATOM      6  C4  OXE d   1      -1.247   1.233   2.392  0.00  0.00    -0.002 A 
ATOM      7  C5  OXE d   1       0.071   1.544   2.040  0.00  0.00    -0.002 A 
ATOM      8  C6  OXE d   1       0.634   0.950   0.916  0.00  0.00     0.003 A 
ENDROOT
TORSDOF 0
ENDMDL
