MODEL 1
REMARK minimizedAffinity -2.9196527
REMARK minimizedRMSD -1
REMARK  0 active torsions:
REMARK  status: ('A' for Active; 'I' for Inactive)
ROOT
ATOM      1  C2' OXE d   1      -2.495  -0.859   2.911  0.00  0.00     0.078 C 
ATOM      2  C1' OXE d   1      -1.735  -1.167   0.226  0.00  0.00     0.078 C 
ATOM      3  C1  OXE d   1      -0.965  -0.179   1.066  0.00  0.00    -0.078 A 
ATOM      4  C2  OXE d   1      -1.374  -0.000   2.366  0.00  0.00    -0.078 A 
ATOM      5  C3  OXE d   1      -0.664   0.859   3.200  0.00  0.00     0.003 A 
ATOM      6  C4  OXE d   1       0.365   1.656   2.685  0.00  0.00    -0.002 A 
ATOM      7  C5  OXE d   1       0.771   1.520   1.354  0.00  0.00    -0.002 A 
ATOM      8  C6  OXE d   1       0.146   0.578   0.544  0.00  0.00     0.003 A 
ENDROOT
TORSDOF 0
ENDMDL
