MODEL 1
REMARK minimizedAffinity -3.49805856
REMARK minimizedRMSD -1
REMARK  1 active torsions:
REMARK  status: ('A' for Active; 'I' for Inactive)
REMARK    1  A    between atoms: C1_2  and  C2_3 
ROOT
ATOM      1  C2  UNL d   1      -1.304   0.407   0.625  0.00  0.00    -0.076 A 
ATOM      2  C3  UNL d   1      -1.473  -0.924   1.044  0.00  0.00     0.004 A 
ATOM      3  C4  UNL d   1      -0.483  -1.879   0.816  0.00  0.00    -0.003 A 
ATOM      4  C5  UNL d   1       0.692  -1.517   0.167  0.00  0.00     0.000 A 
ATOM      5  C6  UNL d   1       0.884  -0.197  -0.239  0.00  0.00     0.000 A 
ATOM      6  C7  UNL d   1      -0.097   0.781  -0.003  0.00  0.00    -0.073 A 
ATOM      7  C8  UNL d   1       0.159   2.188  -0.468  0.00  0.00     0.078 C 
ENDROOT
BRANCH   1   8
ATOM      8  C1  UNL d   1      -2.424   1.392   0.875  0.00  0.00     0.053 C 
ATOM      9  C   UNL d   1      -3.753   0.706   1.150  0.00  0.00     0.018 C 
ENDBRANCH   1   8
TORSDOF 1
ENDMDL
