MODEL 1
REMARK minimizedAffinity -3.64563036
REMARK minimizedRMSD -1
REMARK  1 active torsions:
REMARK  status: ('A' for Active; 'I' for Inactive)
REMARK    1  A    between atoms: C1_2  and  C2_3 
ROOT
ATOM      1  C2  UNL d   1      -0.680  -0.296   0.224  0.00  0.00    -0.076 A 
ATOM      2  C3  UNL d   1      -1.396   0.097   1.369  0.00  0.00     0.004 A 
ATOM      3  C4  UNL d   1      -2.363   1.098   1.301  0.00  0.00    -0.003 A 
ATOM      4  C5  UNL d   1      -2.632   1.722   0.087  0.00  0.00     0.000 A 
ATOM      5  C6  UNL d   1      -1.944   1.332  -1.061  0.00  0.00     0.000 A 
ATOM      6  C7  UNL d   1      -0.977   0.313  -1.014  0.00  0.00    -0.073 A 
ATOM      7  C8  UNL d   1      -0.262  -0.063  -2.282  0.00  0.00     0.078 C 
ENDROOT
BRANCH   1   8
ATOM      8  C1  UNL d   1       0.376  -1.368   0.364  0.00  0.00     0.053 C 
ATOM      9  C   UNL d   1       1.783  -0.832   0.148  0.00  0.00     0.018 C 
ENDBRANCH   1   8
TORSDOF 1
ENDMDL
