MODEL 1
REMARK minimizedAffinity -0.674069941
REMARK minimizedRMSD -1
REMARK  1 active torsions:
REMARK  status: ('A' for Active; 'I' for Inactive)
REMARK    1  A    between atoms: C1_2  and  C2_3 
ROOT
ATOM      1  C2  UNL d   1      -1.113   0.118  -0.023  0.00  0.00    -0.076 A 
ATOM      2  C3  UNL d   1      -1.138  -1.278   0.142  0.00  0.00     0.004 A 
ATOM      3  C4  UNL d   1       0.018  -2.040  -0.019  0.00  0.00    -0.003 A 
ATOM      4  C5  UNL d   1       1.218  -1.419  -0.348  0.00  0.00     0.000 A 
ATOM      5  C6  UNL d   1       1.265  -0.034  -0.498  0.00  0.00     0.000 A 
ATOM      6  C7  UNL d   1       0.112   0.751  -0.323  0.00  0.00    -0.073 A 
ATOM      7  C8  UNL d   1       0.219   2.241  -0.503  0.00  0.00     0.078 C 
ENDROOT
BRANCH   1   8
ATOM      8  C1  UNL d   1      -2.403   0.889   0.138  0.00  0.00     0.053 C 
ATOM      9  C   UNL d   1      -2.919   0.871   1.568  0.00  0.00     0.018 C 
ENDBRANCH   1   8
TORSDOF 1
ENDMDL
