MODEL 1
REMARK minimizedAffinity -0.551460624
REMARK minimizedRMSD -1
REMARK  1 active torsions:
REMARK  status: ('A' for Active; 'I' for Inactive)
REMARK    1  A    between atoms: C1_2  and  C2_3 
ROOT
ATOM      1  C2  UNL d   1       0.012   0.135  -0.623  0.00  0.00    -0.076 A 
ATOM      2  C3  UNL d   1      -0.182  -1.215  -0.964  0.00  0.00     0.004 A 
ATOM      3  C4  UNL d   1       0.871  -2.127  -0.910  0.00  0.00    -0.003 A 
ATOM      4  C5  UNL d   1       2.134  -1.704  -0.513  0.00  0.00     0.000 A 
ATOM      5  C6  UNL d   1       2.341  -0.372  -0.154  0.00  0.00     0.000 A 
ATOM      6  C7  UNL d   1       1.287   0.557  -0.188  0.00  0.00    -0.073 A 
ATOM      7  C8  UNL d   1       1.567   1.982   0.204  0.00  0.00     0.078 C 
ENDROOT
BRANCH   1   8
ATOM      8  C1  UNL d   1      -1.160   1.084  -0.728  0.00  0.00     0.053 C 
ATOM      9  C   UNL d   1      -2.204   0.842   0.351  0.00  0.00     0.018 C 
ENDBRANCH   1   8
TORSDOF 1
ENDMDL
