MODEL 1
REMARK minimizedAffinity -0.129677236
REMARK minimizedRMSD -1
REMARK  1 active torsions:
REMARK  status: ('A' for Active; 'I' for Inactive)
REMARK    1  A    between atoms: C1_2  and  C2_3 
ROOT
ATOM      1  C2  UNL d   1      -4.536  -5.597   0.327  0.00  0.00    -0.073 A 
ATOM      2  C3  UNL d   1      -3.442  -5.571  -0.545  0.00  0.00    -0.002 A 
ATOM      3  C4  UNL d   1      -2.178  -5.203  -0.080  0.00  0.00     0.004 A 
ATOM      4  C5  UNL d   1      -1.995  -4.864   1.260  0.00  0.00    -0.004 A 
ATOM      5  C6  UNL d   1      -3.073  -4.895   2.150  0.00  0.00    -0.075 A 
ATOM      6  C7  UNL d   1      -2.893  -4.532   3.595  0.00  0.00     0.076 C 
ATOM      7  C8  UNL d   1      -4.339  -5.263   1.675  0.00  0.00     0.001 A 
ENDROOT
BRANCH   1   8
ATOM      8  C1  UNL d   1      -5.900  -6.000  -0.168  0.00  0.00     0.053 C 
ATOM      9  C   UNL d   1      -5.998  -5.936  -1.684  0.00  0.00     0.018 C 
ENDBRANCH   1   8
TORSDOF 1
ENDMDL
