MODEL 1
REMARK minimizedAffinity -4.66977596
REMARK minimizedRMSD -1
REMARK  1 active torsions:
REMARK  status: ('A' for Active; 'I' for Inactive)
REMARK    1  A    between atoms: C1_2  and  C2_3 
ROOT
ATOM      1  C2  UNL d   1       0.176   0.105   0.130  0.00  0.00    -0.073 A 
ATOM      2  C3  UNL d   1       1.390  -0.585   0.030  0.00  0.00    -0.002 A 
ATOM      3  C4  UNL d   1       1.660  -1.662   0.876  0.00  0.00     0.004 A 
ATOM      4  C5  UNL d   1       0.718  -2.065   1.822  0.00  0.00    -0.004 A 
ATOM      5  C6  UNL d   1      -0.506  -1.396   1.929  0.00  0.00    -0.075 A 
ATOM      6  C7  UNL d   1      -1.529  -1.815   2.943  0.00  0.00     0.076 C 
ATOM      7  C8  UNL d   1      -0.769  -0.313   1.078  0.00  0.00     0.001 A 
ENDROOT
BRANCH   1   8
ATOM      8  C1  UNL d   1      -0.122   1.264  -0.785  0.00  0.00     0.053 C 
ATOM      9  C   UNL d   1      -1.535   1.200  -1.345  0.00  0.00     0.018 C 
ENDBRANCH   1   8
TORSDOF 1
ENDMDL
