MODEL 1
REMARK minimizedAffinity -4.24705267
REMARK minimizedRMSD -1
REMARK  1 active torsions:
REMARK  status: ('A' for Active; 'I' for Inactive)
REMARK    1  A    between atoms: C1_2  and  C2_3 
ROOT
ATOM      1  C2  UNL d   1       0.976  -0.823   0.351  0.00  0.00    -0.073 A 
ATOM      2  C3  UNL d   1       1.471   0.168  -0.505  0.00  0.00    -0.002 A 
ATOM      3  C4  UNL d   1       0.732   1.327  -0.743  0.00  0.00     0.004 A 
ATOM      4  C5  UNL d   1      -0.504   1.511  -0.123  0.00  0.00    -0.004 A 
ATOM      5  C6  UNL d   1      -1.011   0.538   0.744  0.00  0.00    -0.075 A 
ATOM      6  C7  UNL d   1      -2.340   0.720   1.417  0.00  0.00     0.076 C 
ATOM      7  C8  UNL d   1      -0.264  -0.625   0.976  0.00  0.00     0.001 A 
ENDROOT
BRANCH   1   8
ATOM      8  C1  UNL d   1       1.773  -2.074   0.616  0.00  0.00     0.053 C 
ATOM      9  C   UNL d   1       0.889  -3.309   0.689  0.00  0.00     0.018 C 
ENDBRANCH   1   8
TORSDOF 1
ENDMDL
