MODEL 1
REMARK minimizedAffinity -5.09315014
REMARK minimizedRMSD -1
REMARK  1 active torsions:
REMARK  status: ('A' for Active; 'I' for Inactive)
REMARK    1  A    between atoms: C1_2  and  C2_3 
ROOT
ATOM      1  C2  UNL d   1       0.520  -1.871   1.659  0.00  0.00    -0.073 A 
ATOM      2  C3  UNL d   1       1.762  -2.309   1.186  0.00  0.00    -0.002 A 
ATOM      3  C4  UNL d   1       2.335  -1.719   0.059  0.00  0.00     0.004 A 
ATOM      4  C5  UNL d   1       1.678  -0.680  -0.600  0.00  0.00    -0.004 A 
ATOM      5  C6  UNL d   1       0.442  -0.220  -0.135  0.00  0.00    -0.075 A 
ATOM      6  C7  UNL d   1      -0.280   0.895  -0.835  0.00  0.00     0.076 C 
ATOM      7  C8  UNL d   1      -0.129  -0.820   0.995  0.00  0.00     0.001 A 
ENDROOT
BRANCH   1   8
ATOM      8  C1  UNL d   1      -0.100  -2.501   2.879  0.00  0.00     0.053 C 
ATOM      9  C   UNL d   1      -1.304  -1.716   3.377  0.00  0.00     0.018 C 
ENDBRANCH   1   8
TORSDOF 1
ENDMDL
