MODEL 1
REMARK minimizedAffinity -4.47623682
REMARK minimizedRMSD -1
REMARK  1 active torsions:
REMARK  status: ('A' for Active; 'I' for Inactive)
REMARK    1  A    between atoms: C1_2  and  C2_3 
ROOT
ATOM      1  C2  UNL d   1      -0.185   0.148   0.184  0.00  0.00    -0.073 A 
ATOM      2  C3  UNL d   1       1.018   0.250  -0.524  0.00  0.00    -0.002 A 
ATOM      3  C4  UNL d   1       2.019  -0.707  -0.356  0.00  0.00     0.004 A 
ATOM      4  C5  UNL d   1       1.826  -1.779   0.516  0.00  0.00    -0.004 A 
ATOM      5  C6  UNL d   1       0.626  -1.906   1.223  0.00  0.00    -0.075 A 
ATOM      6  C7  UNL d   1       0.403  -3.051   2.166  0.00  0.00     0.076 C 
ATOM      7  C8  UNL d   1      -0.374  -0.938   1.050  0.00  0.00     0.001 A 
ENDROOT
BRANCH   1   8
ATOM      8  C1  UNL d   1      -1.271   1.176  -0.000  0.00  0.00     0.053 C 
ATOM      9  C   UNL d   1      -1.463   1.547  -1.462  0.00  0.00     0.018 C 
ENDBRANCH   1   8
TORSDOF 1
ENDMDL
