MODEL 1
REMARK minimizedAffinity -5.14955997
REMARK minimizedRMSD -1
REMARK  1 active torsions:
REMARK  status: ('A' for Active; 'I' for Inactive)
REMARK    1  A    between atoms: C1_2  and  C2_3 
ROOT
ATOM      1  C2  UNL d   1       0.568  -1.496   1.273  0.00  0.00    -0.073 A 
ATOM      2  C3  UNL d   1       1.782  -1.729   0.618  0.00  0.00    -0.002 A 
ATOM      3  C4  UNL d   1       2.225  -0.857  -0.377  0.00  0.00     0.004 A 
ATOM      4  C5  UNL d   1       1.464   0.260  -0.722  0.00  0.00    -0.004 A 
ATOM      5  C6  UNL d   1       0.253   0.516  -0.070  0.00  0.00    -0.075 A 
ATOM      6  C7  UNL d   1      -0.579   1.712  -0.431  0.00  0.00     0.076 C 
ATOM      7  C8  UNL d   1      -0.186  -0.366   0.926  0.00  0.00     0.001 A 
ENDROOT
BRANCH   1   8
ATOM      8  C1  UNL d   1       0.088  -2.432   2.352  0.00  0.00     0.053 C 
ATOM      9  C   UNL d   1      -1.114  -1.874   3.097  0.00  0.00     0.018 C 
ENDBRANCH   1   8
TORSDOF 1
ENDMDL
