MODEL 1
REMARK minimizedAffinity -3.96687651
REMARK minimizedRMSD -1
REMARK  1 active torsions:
REMARK  status: ('A' for Active; 'I' for Inactive)
REMARK    1  A    between atoms: C1_2  and  C2_3 
ROOT
ATOM      1  C2  UNL d   1      -0.561   0.189  -0.629  0.00  0.00    -0.073 A 
ATOM      2  C3  UNL d   1       0.593   0.977  -0.713  0.00  0.00    -0.002 A 
ATOM      3  C4  UNL d   1       1.817   0.485  -0.258  0.00  0.00     0.004 A 
ATOM      4  C5  UNL d   1       1.901  -0.800   0.279  0.00  0.00    -0.004 A 
ATOM      5  C6  UNL d   1       0.762  -1.607   0.360  0.00  0.00    -0.075 A 
ATOM      6  C7  UNL d   1       0.836  -2.990   0.936  0.00  0.00     0.076 C 
ATOM      7  C8  UNL d   1      -0.464  -1.105  -0.097  0.00  0.00     0.001 A 
ENDROOT
BRANCH   1   8
ATOM      8  C1  UNL d   1      -1.884   0.713  -1.125  0.00  0.00     0.053 C 
ATOM      9  C   UNL d   1      -1.732   1.528  -2.400  0.00  0.00     0.018 C 
ENDBRANCH   1   8
TORSDOF 1
ENDMDL
