MODEL 1
REMARK minimizedAffinity -4.1363821
REMARK minimizedRMSD -1
REMARK  1 active torsions:
REMARK  status: ('A' for Active; 'I' for Inactive)
REMARK    1  A    between atoms: C1_2  and  C2_3 
ROOT
ATOM      1  C2  UNL d   1      -0.387  -0.058   0.346  0.00  0.00    -0.073 A 
ATOM      2  C3  UNL d   1      -1.427  -0.289   1.254  0.00  0.00    -0.002 A 
ATOM      3  C4  UNL d   1      -1.359  -1.359   2.146  0.00  0.00     0.004 A 
ATOM      4  C5  UNL d   1      -0.249  -2.205   2.146  0.00  0.00    -0.004 A 
ATOM      5  C6  UNL d   1       0.805  -1.983   1.254  0.00  0.00    -0.075 A 
ATOM      6  C7  UNL d   1       2.005  -2.884   1.239  0.00  0.00     0.076 C 
ATOM      7  C8  UNL d   1       0.728  -0.908   0.359  0.00  0.00     0.001 A 
ENDROOT
BRANCH   1   8
ATOM      8  C1  UNL d   1      -0.454   1.100  -0.616  0.00  0.00     0.053 C 
ATOM      9  C   UNL d   1      -1.777   1.145  -1.363  0.00  0.00     0.018 C 
ENDBRANCH   1   8
TORSDOF 1
ENDMDL
