MODEL 1
REMARK minimizedAffinity -3.4915638
REMARK minimizedRMSD -1
REMARK  2 active torsions:
REMARK  status: ('A' for Active; 'I' for Inactive)
REMARK    1  A    between atoms: C1_2  and  C2_3 
REMARK    2  A    between atoms: C2_3  and  C3_4 
ROOT
ATOM      1  C3  UNL d   1       0.152   0.158   0.181  0.00  0.00    -0.075 A 
ATOM      2  C4  UNL d   1      -0.038  -0.514   1.398  0.00  0.00     0.002 A 
ATOM      3  C5  UNL d   1       0.750  -1.618   1.727  0.00  0.00     0.002 A 
ATOM      4  C6  UNL d   1       1.728  -2.069   0.843  0.00  0.00    -0.004 A 
ATOM      5  C7  UNL d   1       1.913  -1.419  -0.375  0.00  0.00     0.002 A 
ATOM      6  C8  UNL d   1       1.130  -0.312  -0.705  0.00  0.00     0.002 A 
ENDROOT
BRANCH   1   7
ATOM      7  C2  UNL d   1      -0.677   1.371  -0.168  0.00  0.00     0.056 C 
BRANCH   7   8
ATOM      8  C1  UNL d   1      -0.933   1.539  -1.670  0.00  0.00     0.007 C 
ATOM      9  C   UNL d   1      -2.375   1.907  -1.995  0.00  0.00     0.009 C 
ENDBRANCH   7   8
ENDBRANCH   1   7
TORSDOF 2
ENDMDL
