MODEL 1
REMARK minimizedAffinity -4.01164913
REMARK minimizedRMSD -1
REMARK  2 active torsions:
REMARK  status: ('A' for Active; 'I' for Inactive)
REMARK    1  A    between atoms: C1_2  and  C2_3 
REMARK    2  A    between atoms: C2_3  and  C3_4 
ROOT
ATOM      1  C3  UNL d   1      -0.926   0.541  -0.904  0.00  0.00    -0.075 A 
ATOM      2  C4  UNL d   1      -1.437  -0.300  -1.903  0.00  0.00     0.002 A 
ATOM      3  C5  UNL d   1      -2.131   0.232  -2.991  0.00  0.00     0.002 A 
ATOM      4  C6  UNL d   1      -2.330   1.608  -3.088  0.00  0.00    -0.004 A 
ATOM      5  C7  UNL d   1      -1.840   2.451  -2.093  0.00  0.00     0.002 A 
ATOM      6  C8  UNL d   1      -1.142   1.922  -1.006  0.00  0.00     0.002 A 
ENDROOT
BRANCH   1   7
ATOM      7  C2  UNL d   1      -0.149  -0.026   0.260  0.00  0.00     0.056 C 
BRANCH   7   8
ATOM      8  C1  UNL d   1       1.335  -0.268  -0.039  0.00  0.00     0.007 C 
ATOM      9  C   UNL d   1       1.933  -1.408   0.775  0.00  0.00     0.009 C 
ENDBRANCH   7   8
ENDBRANCH   1   7
TORSDOF 2
ENDMDL
