MODEL 1
REMARK minimizedAffinity -3.33272576
REMARK minimizedRMSD -1
REMARK  2 active torsions:
REMARK  status: ('A' for Active; 'I' for Inactive)
REMARK    1  A    between atoms: C1_2  and  C2_3 
REMARK    2  A    between atoms: C2_3  and  C3_4 
ROOT
ATOM      1  C3  UNL d   1      -1.306   1.711  -1.139  0.00  0.00    -0.075 A 
ATOM      2  C4  UNL d   1      -2.532   1.035  -1.212  0.00  0.00     0.002 A 
ATOM      3  C5  UNL d   1      -3.376   1.215  -2.309  0.00  0.00     0.002 A 
ATOM      4  C6  UNL d   1      -3.010   2.079  -3.338  0.00  0.00    -0.004 A 
ATOM      5  C7  UNL d   1      -1.801   2.768  -3.268  0.00  0.00     0.002 A 
ATOM      6  C8  UNL d   1      -0.953   2.587  -2.174  0.00  0.00     0.002 A 
ENDROOT
BRANCH   1   7
ATOM      7  C2  UNL d   1      -0.375   1.498   0.031  0.00  0.00     0.056 C 
BRANCH   7   8
ATOM      8  C1  UNL d   1       0.933   0.787  -0.334  0.00  0.00     0.007 C 
ATOM      9  C   UNL d   1       0.894  -0.713  -0.073  0.00  0.00     0.009 C 
ENDBRANCH   7   8
ENDBRANCH   1   7
TORSDOF 2
ENDMDL
