MODEL 1
REMARK minimizedAffinity -2.84973145
REMARK minimizedRMSD -1
REMARK  2 active torsions:
REMARK  status: ('A' for Active; 'I' for Inactive)
REMARK    1  A    between atoms: C1_2  and  C2_3 
REMARK    2  A    between atoms: C2_3  and  C3_4 
ROOT
ATOM      1  C3  UNL d   1      -0.051   0.371  -0.128  0.00  0.00    -0.075 A 
ATOM      2  C4  UNL d   1       1.189  -0.245  -0.348  0.00  0.00     0.002 A 
ATOM      3  C5  UNL d   1       1.645  -1.246   0.511  0.00  0.00     0.002 A 
ATOM      4  C6  UNL d   1       0.874  -1.635   1.603  0.00  0.00    -0.004 A 
ATOM      5  C7  UNL d   1      -0.353  -1.018   1.841  0.00  0.00     0.002 A 
ATOM      6  C8  UNL d   1      -0.813  -0.020   0.981  0.00  0.00     0.002 A 
ENDROOT
BRANCH   1   7
ATOM      7  C2  UNL d   1      -0.564   1.434  -1.070  0.00  0.00     0.056 C 
BRANCH   7   8
ATOM      8  C1  UNL d   1      -1.352   0.883  -2.263  0.00  0.00     0.007 C 
ATOM      9  C   UNL d   1      -1.438   1.859  -3.428  0.00  0.00     0.009 C 
ENDBRANCH   7   8
ENDBRANCH   1   7
TORSDOF 2
ENDMDL
