MODEL 1
REMARK minimizedAffinity 3.07735085
REMARK minimizedRMSD -1
REMARK  2 active torsions:
REMARK  status: ('A' for Active; 'I' for Inactive)
REMARK    1  A    between atoms: C1_2  and  C2_3 
REMARK    2  A    between atoms: C2_3  and  C3_4 
ROOT
ATOM      1  C3  UNL d   1      -0.289  -0.052   1.100  0.00  0.00    -0.075 A 
ATOM      2  C4  UNL d   1      -0.217  -1.413   1.430  0.00  0.00     0.002 A 
ATOM      3  C5  UNL d   1       1.002  -2.090   1.384  0.00  0.00     0.002 A 
ATOM      4  C6  UNL d   1       2.161  -1.419   0.999  0.00  0.00    -0.004 A 
ATOM      5  C7  UNL d   1       2.098  -0.071   0.654  0.00  0.00     0.002 A 
ATOM      6  C8  UNL d   1       0.881   0.610   0.703  0.00  0.00     0.002 A 
ENDROOT
BRANCH   1   7
ATOM      7  C2  UNL d   1      -1.600   0.694   1.177  0.00  0.00     0.056 C 
BRANCH   7   8
ATOM      8  C1  UNL d   1      -2.104   1.208  -0.176  0.00  0.00     0.007 C 
ATOM      9  C   UNL d   1      -3.033   0.229  -0.882  0.00  0.00     0.009 C 
ENDBRANCH   7   8
ENDBRANCH   1   7
TORSDOF 2
ENDMDL
