MODEL 1
REMARK minimizedAffinity -2.59184623
REMARK minimizedRMSD -1
REMARK  2 active torsions:
REMARK  status: ('A' for Active; 'I' for Inactive)
REMARK    1  A    between atoms: C1_2  and  C2_3 
REMARK    2  A    between atoms: C2_3  and  C3_4 
ROOT
ATOM      1  C3  UNL d   1      -0.937   1.207  -1.188  0.00  0.00    -0.075 A 
ATOM      2  C4  UNL d   1      -2.146   0.548  -1.455  0.00  0.00     0.002 A 
ATOM      3  C5  UNL d   1      -2.886   0.860  -2.595  0.00  0.00     0.002 A 
ATOM      4  C6  UNL d   1      -2.435   1.842  -3.475  0.00  0.00    -0.004 A 
ATOM      5  C7  UNL d   1      -1.245   2.515  -3.211  0.00  0.00     0.002 A 
ATOM      6  C8  UNL d   1      -0.499   2.201  -2.073  0.00  0.00     0.002 A 
ENDROOT
BRANCH   1   7
ATOM      7  C2  UNL d   1      -0.116   0.853   0.029  0.00  0.00     0.056 C 
BRANCH   7   8
ATOM      8  C1  UNL d   1       1.395   0.831  -0.223  0.00  0.00     0.007 C 
ATOM      9  C   UNL d   1       2.033  -0.521   0.066  0.00  0.00     0.009 C 
ENDBRANCH   7   8
ENDBRANCH   1   7
TORSDOF 2
ENDMDL
