MODEL 1
REMARK minimizedAffinity -3.1065557
REMARK minimizedRMSD -1
REMARK  2 active torsions:
REMARK  status: ('A' for Active; 'I' for Inactive)
REMARK    1  A    between atoms: C1_2  and  C2_3 
REMARK    2  A    between atoms: C2_3  and  C3_4 
ROOT
ATOM      1  C3  UNL d   1      -0.906   0.846  -1.130  0.00  0.00    -0.075 A 
ATOM      2  C4  UNL d   1      -2.150   1.339  -0.709  0.00  0.00     0.002 A 
ATOM      3  C5  UNL d   1      -3.070   1.826  -1.637  0.00  0.00     0.002 A 
ATOM      4  C6  UNL d   1      -2.756   1.837  -2.994  0.00  0.00    -0.004 A 
ATOM      5  C7  UNL d   1      -1.517   1.365  -3.423  0.00  0.00     0.002 A 
ATOM      6  C8  UNL d   1      -0.596   0.873  -2.496  0.00  0.00     0.002 A 
ENDROOT
BRANCH   1   7
ATOM      7  C2  UNL d   1       0.082   0.290  -0.133  0.00  0.00     0.056 C 
BRANCH   7   8
ATOM      8  C1  UNL d   1       1.210  -0.533  -0.766  0.00  0.00     0.007 C 
ATOM      9  C   UNL d   1       2.195  -1.086   0.255  0.00  0.00     0.009 C 
ENDBRANCH   7   8
ENDBRANCH   1   7
TORSDOF 2
ENDMDL
