MODEL 1
REMARK minimizedAffinity -4.517869
REMARK minimizedRMSD -1
REMARK  2 active torsions:
REMARK  status: ('A' for Active; 'I' for Inactive)
REMARK    1  A    between atoms: C1_2  and  C2_3 
REMARK    2  A    between atoms: C2_3  and  C3_4 
ROOT
ATOM      1  C3  UNL d   1       0.175  -0.592   0.667  0.00  0.00    -0.075 A 
ATOM      2  C4  UNL d   1       1.409  -1.256   0.729  0.00  0.00     0.002 A 
ATOM      3  C5  UNL d   1       1.776  -1.963   1.875  0.00  0.00     0.002 A 
ATOM      4  C6  UNL d   1       0.921  -2.007   2.974  0.00  0.00    -0.004 A 
ATOM      5  C7  UNL d   1      -0.300  -1.338   2.929  0.00  0.00     0.002 A 
ATOM      6  C8  UNL d   1      -0.672  -0.633   1.783  0.00  0.00     0.002 A 
ENDROOT
BRANCH   1   7
ATOM      7  C2  UNL d   1      -0.241   0.150  -0.580  0.00  0.00     0.056 C 
BRANCH   7   8
ATOM      8  C1  UNL d   1      -1.333   1.199  -0.347  0.00  0.00     0.007 C 
ATOM      9  C   UNL d   1      -2.275   1.359  -1.533  0.00  0.00     0.009 C 
ENDBRANCH   7   8
ENDBRANCH   1   7
TORSDOF 2
ENDMDL
