MODEL 1
REMARK minimizedAffinity -4.36873436
REMARK minimizedRMSD -1
REMARK  2 active torsions:
REMARK  status: ('A' for Active; 'I' for Inactive)
REMARK    1  A    between atoms: C1_2  and  C2_3 
REMARK    2  A    between atoms: C2_3  and  C3_4 
ROOT
ATOM      1  C3  UNL d   1       0.355  -0.876   0.725  0.00  0.00    -0.075 A 
ATOM      2  C4  UNL d   1      -0.782  -0.771   1.539  0.00  0.00     0.002 A 
ATOM      3  C5  UNL d   1      -0.818  -1.390   2.789  0.00  0.00     0.002 A 
ATOM      4  C6  UNL d   1       0.275  -2.129   3.235  0.00  0.00    -0.004 A 
ATOM      5  C7  UNL d   1       1.403  -2.254   2.427  0.00  0.00     0.002 A 
ATOM      6  C8  UNL d   1       1.444  -1.632   1.178  0.00  0.00     0.002 A 
ENDROOT
BRANCH   1   7
ATOM      7  C2  UNL d   1       0.412  -0.183  -0.616  0.00  0.00     0.056 C 
BRANCH   7   8
ATOM      8  C1  UNL d   1       1.829  -0.029  -1.179  0.00  0.00     0.007 C 
ATOM      9  C   UNL d   1       2.550   1.206  -0.657  0.00  0.00     0.009 C 
ENDBRANCH   7   8
ENDBRANCH   1   7
TORSDOF 2
ENDMDL
