MODEL 1
REMARK minimizedAffinity -5.80473709
REMARK minimizedRMSD -1
REMARK  2 active torsions:
REMARK  status: ('A' for Active; 'I' for Inactive)
REMARK    1  A    between atoms: C1_2  and  C2_3 
REMARK    2  A    between atoms: C2_3  and  C3_4 
ROOT
ATOM      1  C3  UNL d   1       0.064   0.095  -0.061  0.00  0.00    -0.075 A 
ATOM      2  C4  UNL d   1       1.421  -0.152  -0.319  0.00  0.00     0.002 A 
ATOM      3  C5  UNL d   1       2.101  -1.155   0.371  0.00  0.00     0.002 A 
ATOM      4  C6  UNL d   1       1.440  -1.915   1.333  0.00  0.00    -0.004 A 
ATOM      5  C7  UNL d   1       0.097  -1.667   1.609  0.00  0.00     0.002 A 
ATOM      6  C8  UNL d   1      -0.588  -0.667   0.917  0.00  0.00     0.002 A 
ENDROOT
BRANCH   1   7
ATOM      7  C2  UNL d   1      -0.686   1.160  -0.826  0.00  0.00     0.056 C 
BRANCH   7   8
ATOM      8  C1  UNL d   1      -1.785   0.612  -1.742  0.00  0.00     0.007 C 
ATOM      9  C   UNL d   1      -1.945   1.407  -3.031  0.00  0.00     0.009 C 
ENDBRANCH   7   8
ENDBRANCH   1   7
TORSDOF 2
ENDMDL
