MODEL 1
REMARK minimizedAffinity -5.53490973
REMARK minimizedRMSD -1
REMARK  2 active torsions:
REMARK  status: ('A' for Active; 'I' for Inactive)
REMARK    1  A    between atoms: C1_2  and  C2_3 
REMARK    2  A    between atoms: C2_3  and  C3_4 
ROOT
ATOM      1  C3  UNL d   1      -0.911   0.601  -0.835  0.00  0.00    -0.075 A 
ATOM      2  C4  UNL d   1      -1.712  -0.250  -1.610  0.00  0.00     0.002 A 
ATOM      3  C5  UNL d   1      -2.554   0.271  -2.593  0.00  0.00     0.002 A 
ATOM      4  C6  UNL d   1      -2.614   1.646  -2.807  0.00  0.00    -0.004 A 
ATOM      5  C7  UNL d   1      -1.835   2.502  -2.031  0.00  0.00     0.002 A 
ATOM      6  C8  UNL d   1      -0.988   1.983  -1.050  0.00  0.00     0.002 A 
ENDROOT
BRANCH   1   7
ATOM      7  C2  UNL d   1       0.024   0.041   0.210  0.00  0.00     0.056 C 
BRANCH   7   8
ATOM      8  C1  UNL d   1       1.509   0.190  -0.137  0.00  0.00     0.007 C 
ATOM      9  C   UNL d   1       2.237  -1.143  -0.243  0.00  0.00     0.009 C 
ENDBRANCH   7   8
ENDBRANCH   1   7
TORSDOF 2
ENDMDL
