MODEL 1
REMARK minimizedAffinity -2.50101852
REMARK minimizedRMSD -1
REMARK  2 active torsions:
REMARK  status: ('A' for Active; 'I' for Inactive)
REMARK    1  A    between atoms: C1_2  and  C2_3 
REMARK    2  A    between atoms: C2_3  and  C3_4 
ROOT
ATOM      1  C3  UNL d   1      -0.756   0.866  -0.864  0.00  0.00    -0.075 A 
ATOM      2  C4  UNL d   1      -1.936   0.255  -1.312  0.00  0.00     0.002 A 
ATOM      3  C5  UNL d   1      -2.759   0.897  -2.238  0.00  0.00     0.002 A 
ATOM      4  C6  UNL d   1      -2.418   2.159  -2.720  0.00  0.00    -0.004 A 
ATOM      5  C7  UNL d   1      -1.257   2.783  -2.269  0.00  0.00     0.002 A 
ATOM      6  C8  UNL d   1      -0.429   2.141  -1.346  0.00  0.00     0.002 A 
ENDROOT
BRANCH   1   7
ATOM      7  C2  UNL d   1       0.153   0.164   0.116  0.00  0.00     0.056 C 
BRANCH   7   8
ATOM      8  C1  UNL d   1       1.512  -0.234  -0.470  0.00  0.00     0.007 C 
ATOM      9  C   UNL d   1       2.235  -1.291   0.355  0.00  0.00     0.009 C 
ENDBRANCH   7   8
ENDBRANCH   1   7
TORSDOF 2
ENDMDL
