MODEL 1
REMARK minimizedAffinity -6.14473915
REMARK minimizedRMSD -1
REMARK  0 active torsions:
REMARK  status: ('A' for Active; 'I' for Inactive)
ROOT
ATOM      1  C1  DEN d   1       0.572   0.062  -0.360  0.00  0.00     0.130 A 
ATOM      2  C2  DEN d   1       1.784  -0.500  -0.949  0.00  0.00    -0.031 A 
ATOM      3  C3  DEN d   1       2.213  -1.638  -0.113  0.00  0.00     0.027 A 
ATOM      4  C4  DEN d   1       1.121  -2.585   2.024  0.00  0.00     0.027 A 
ATOM      5  C5  DEN d   1       0.082  -2.433   2.915  0.00  0.00    -0.003 A 
ATOM      6  C6  DEN d   1      -0.840  -1.427   2.797  0.00  0.00     0.001 A 
ATOM      7  C7  DEN d   1      -0.767  -0.559   1.739  0.00  0.00     0.017 A 
ATOM      8  C8  DEN d   1       0.283  -0.701   0.841  0.00  0.00    -0.094 A 
ATOM      9  C9  DEN d   1       1.197  -1.733   0.970  0.00  0.00    -0.072 A 
ENDROOT
TORSDOF 0
ENDMDL
