MODEL 1
REMARK minimizedAffinity -2.75069714
REMARK minimizedRMSD -1
REMARK  0 active torsions:
REMARK  status: ('A' for Active; 'I' for Inactive)
ROOT
ATOM      1  C1  DEN d   1      -0.410   4.519  -2.979  0.00  0.00     0.130 A 
ATOM      2  C2  DEN d   1       0.033   4.718  -4.357  0.00  0.00    -0.031 A 
ATOM      3  C3  DEN d   1      -0.507   3.614  -5.174  0.00  0.00     0.027 A 
ATOM      4  C4  DEN d   1      -1.982   1.627  -4.446  0.00  0.00     0.027 A 
ATOM      5  C5  DEN d   1      -2.607   1.026  -3.375  0.00  0.00    -0.003 A 
ATOM      6  C6  DEN d   1      -2.515   1.524  -2.103  0.00  0.00     0.001 A 
ATOM      7  C7  DEN d   1      -1.820   2.682  -1.875  0.00  0.00     0.017 A 
ATOM      8  C8  DEN d   1      -1.181   3.290  -2.948  0.00  0.00    -0.094 A 
ATOM      9  C9  DEN d   1      -1.296   2.778  -4.229  0.00  0.00    -0.072 A 
ENDROOT
TORSDOF 0
ENDMDL
