MODEL 1
REMARK minimizedAffinity -4.31743097
REMARK minimizedRMSD -1
REMARK  0 active torsions:
REMARK  status: ('A' for Active; 'I' for Inactive)
ROOT
ATOM      1  C1  DEN d   1       0.045  -1.770   3.025  0.00  0.00     0.130 A 
ATOM      2  C2  DEN d   1      -1.261  -1.291   3.470  0.00  0.00    -0.031 A 
ATOM      3  C3  DEN d   1      -1.701  -0.233   2.538  0.00  0.00     0.027 A 
ATOM      4  C4  DEN d   1      -0.496   0.702   0.459  0.00  0.00     0.027 A 
ATOM      5  C5  DEN d   1       0.643   0.617  -0.312  0.00  0.00    -0.003 A 
ATOM      6  C6  DEN d   1       1.669  -0.238  -0.007  0.00  0.00     0.001 A 
ATOM      7  C7  DEN d   1       1.556  -1.075   1.071  0.00  0.00     0.017 A 
ATOM      8  C8  DEN d   1       0.414  -0.991   1.857  0.00  0.00    -0.094 A 
ATOM      9  C9  DEN d   1      -0.617  -0.128   1.525  0.00  0.00    -0.072 A 
ENDROOT
TORSDOF 0
ENDMDL
