MODEL 1
REMARK minimizedAffinity -4.76098394
REMARK minimizedRMSD -1
REMARK  0 active torsions:
REMARK  status: ('A' for Active; 'I' for Inactive)
ROOT
ATOM      1  C1  DEN d   1      -1.280  -1.227   2.437  0.00  0.00     0.130 A 
ATOM      2  C2  DEN d   1      -0.709  -2.371   3.142  0.00  0.00    -0.031 A 
ATOM      3  C3  DEN d   1       0.615  -2.655   2.553  0.00  0.00     0.027 A 
ATOM      4  C4  DEN d   1       1.832  -1.438   0.632  0.00  0.00     0.027 A 
ATOM      5  C5  DEN d   1       1.739  -0.414  -0.285  0.00  0.00    -0.003 A 
ATOM      6  C6  DEN d   1       0.628   0.382  -0.381  0.00  0.00     0.001 A 
ATOM      7  C7  DEN d   1      -0.417   0.196   0.485  0.00  0.00     0.017 A 
ATOM      8  C8  DEN d   1      -0.334  -0.838   1.408  0.00  0.00    -0.094 A 
ATOM      9  C9  DEN d   1       0.803  -1.624   1.497  0.00  0.00    -0.072 A 
ENDROOT
TORSDOF 0
ENDMDL
