MODEL 1
REMARK minimizedAffinity -1.00002599
REMARK minimizedRMSD -1
REMARK  0 active torsions:
REMARK  status: ('A' for Active; 'I' for Inactive)
ROOT
ATOM      1  C1  DEN d   1       0.453  -1.765   3.139  0.00  0.00     0.130 A 
ATOM      2  C2  DEN d   1      -0.864  -1.426   3.673  0.00  0.00    -0.031 A 
ATOM      3  C3  DEN d   1      -1.547  -0.562   2.689  0.00  0.00     0.027 A 
ATOM      4  C4  DEN d   1      -0.700   0.275   0.401  0.00  0.00     0.027 A 
ATOM      5  C5  DEN d   1       0.361   0.261  -0.477  0.00  0.00    -0.003 A 
ATOM      6  C6  DEN d   1       1.530  -0.397  -0.199  0.00  0.00     0.001 A 
ATOM      7  C7  DEN d   1       1.649  -1.105   0.967  0.00  0.00     0.017 A 
ATOM      8  C8  DEN d   1       0.587  -1.089   1.861  0.00  0.00    -0.094 A 
ATOM      9  C9  DEN d   1      -0.591  -0.428   1.556  0.00  0.00    -0.072 A 
ENDROOT
TORSDOF 0
ENDMDL
