MODEL 1
REMARK minimizedAffinity -1.33633792
REMARK minimizedRMSD -1
REMARK  0 active torsions:
REMARK  status: ('A' for Active; 'I' for Inactive)
ROOT
ATOM      1  C1  DEN d   1      -1.111  -0.701   2.132  0.00  0.00     0.130 A 
ATOM      2  C2  DEN d   1      -1.913   0.385   1.575  0.00  0.00    -0.031 A 
ATOM      3  C3  DEN d   1      -1.149   0.995   0.468  0.00  0.00     0.027 A 
ATOM      4  C4  DEN d   1       1.182   0.362  -0.437  0.00  0.00     0.027 A 
ATOM      5  C5  DEN d   1       2.255  -0.486  -0.278  0.00  0.00    -0.003 A 
ATOM      6  C6  DEN d   1       2.296  -1.435   0.709  0.00  0.00     0.001 A 
ATOM      7  C7  DEN d   1       1.224  -1.589   1.547  0.00  0.00     0.017 A 
ATOM      8  C8  DEN d   1       0.141  -0.733   1.398  0.00  0.00    -0.094 A 
ATOM      9  C9  DEN d   1       0.113   0.212   0.387  0.00  0.00    -0.072 A 
ENDROOT
TORSDOF 0
ENDMDL
