MODEL 1
REMARK minimizedAffinity -3.03273773
REMARK minimizedRMSD -1
REMARK  0 active torsions:
REMARK  status: ('A' for Active; 'I' for Inactive)
ROOT
ATOM      1  C1  DEN d   1       1.837  -1.605   1.051  0.00  0.00     0.130 A 
ATOM      2  C2  DEN d   1       2.474  -0.972  -0.100  0.00  0.00    -0.031 A 
ATOM      3  C3  DEN d   1       1.704   0.242  -0.438  0.00  0.00     0.027 A 
ATOM      4  C4  DEN d   1      -0.400   1.199   0.706  0.00  0.00     0.027 A 
ATOM      5  C5  DEN d   1      -1.315   1.004   1.717  0.00  0.00    -0.003 A 
ATOM      6  C6  DEN d   1      -1.264  -0.083   2.548  0.00  0.00     0.001 A 
ATOM      7  C7  DEN d   1      -0.250  -0.994   2.412  0.00  0.00     0.017 A 
ATOM      8  C8  DEN d   1       0.672  -0.809   1.391  0.00  0.00    -0.094 A 
ATOM      9  C9  DEN d   1       0.610   0.304   0.568  0.00  0.00    -0.072 A 
ENDROOT
TORSDOF 0
ENDMDL
