MODEL 1
REMARK minimizedAffinity -3.98953962
REMARK minimizedRMSD -1
REMARK  0 active torsions:
REMARK  status: ('A' for Active; 'I' for Inactive)
ROOT
ATOM      1  C1  DEN d   1      -0.776   1.322  -0.053  0.00  0.00     0.130 A 
ATOM      2  C2  DEN d   1       0.390   1.382  -0.930  0.00  0.00    -0.031 A 
ATOM      3  C3  DEN d   1       1.338   0.334  -0.502  0.00  0.00     0.027 A 
ATOM      4  C4  DEN d   1       1.113  -1.369   1.422  0.00  0.00     0.027 A 
ATOM      5  C5  DEN d   1       0.306  -1.799   2.452  0.00  0.00    -0.003 A 
ATOM      6  C6  DEN d   1      -0.893  -1.203   2.738  0.00  0.00     0.001 A 
ATOM      7  C7  DEN d   1      -1.341  -0.170   1.957  0.00  0.00     0.017 A 
ATOM      8  C8  DEN d   1      -0.529   0.274   0.921  0.00  0.00    -0.094 A 
ATOM      9  C9  DEN d   1       0.674  -0.350   0.640  0.00  0.00    -0.072 A 
ENDROOT
TORSDOF 0
ENDMDL
