MODEL 1
REMARK minimizedAffinity -5.34138107
REMARK minimizedRMSD -1
REMARK  0 active torsions:
REMARK  status: ('A' for Active; 'I' for Inactive)
ROOT
ATOM      1  C1  DEN d   1      -1.153  -0.986   2.475  0.00  0.00     0.130 A 
ATOM      2  C2  DEN d   1      -0.518  -1.946   3.375  0.00  0.00    -0.031 A 
ATOM      3  C3  DEN d   1       0.870  -2.152   2.917  0.00  0.00     0.027 A 
ATOM      4  C4  DEN d   1       2.094  -1.081   0.915  0.00  0.00     0.027 A 
ATOM      5  C5  DEN d   1       1.964  -0.214  -0.147  0.00  0.00    -0.003 A 
ATOM      6  C6  DEN d   1       0.785   0.425  -0.428  0.00  0.00     0.001 A 
ATOM      7  C7  DEN d   1      -0.298   0.242   0.391  0.00  0.00     0.017 A 
ATOM      8  C8  DEN d   1      -0.176  -0.637   1.460  0.00  0.00    -0.094 A 
ATOM      9  C9  DEN d   1       1.027  -1.264   1.734  0.00  0.00    -0.072 A 
ENDROOT
TORSDOF 0
ENDMDL
