MODEL 1
REMARK minimizedAffinity -0.922056973
REMARK minimizedRMSD -1
REMARK  0 active torsions:
REMARK  status: ('A' for Active; 'I' for Inactive)
ROOT
ATOM      1  C1  DEN d   1      -0.875   0.636   0.109  0.00  0.00     0.130 A 
ATOM      2  C2  DEN d   1       0.030   1.003  -0.977  0.00  0.00    -0.031 A 
ATOM      3  C3  DEN d   1       1.335   0.362  -0.720  0.00  0.00     0.027 A 
ATOM      4  C4  DEN d   1       2.038  -1.157   1.243  0.00  0.00     0.027 A 
ATOM      5  C5  DEN d   1       1.616  -1.742   2.416  0.00  0.00    -0.003 A 
ATOM      6  C6  DEN d   1       0.356  -1.549   2.917  0.00  0.00     0.001 A 
ATOM      7  C7  DEN d   1      -0.543  -0.787   2.217  0.00  0.00     0.017 A 
ATOM      8  C8  DEN d   1      -0.123  -0.189   1.037  0.00  0.00    -0.094 A 
ATOM      9  C9  DEN d   1       1.152  -0.406   0.541  0.00  0.00    -0.072 A 
ENDROOT
TORSDOF 0
ENDMDL
