MODEL 1
REMARK minimizedAffinity -5.22026682
REMARK minimizedRMSD -1
REMARK  0 active torsions:
REMARK  status: ('A' for Active; 'I' for Inactive)
ROOT
ATOM      1  C1  DEN d   1       1.440  -0.260  -0.367  0.00  0.00     0.130 A 
ATOM      2  C2  DEN d   1       2.003  -1.270   0.524  0.00  0.00    -0.031 A 
ATOM      3  C3  DEN d   1       1.028  -1.520   1.605  0.00  0.00     0.027 A 
ATOM      4  C4  DEN d   1      -1.288  -0.448   1.980  0.00  0.00     0.027 A 
ATOM      5  C5  DEN d   1      -2.192   0.470   1.494  0.00  0.00    -0.003 A 
ATOM      6  C6  DEN d   1      -1.936   1.228   0.382  0.00  0.00     0.001 A 
ATOM      7  C7  DEN d   1      -0.766   1.049  -0.308  0.00  0.00     0.017 A 
ATOM      8  C8  DEN d   1       0.153   0.130   0.181  0.00  0.00    -0.094 A 
ATOM      9  C9  DEN d   1      -0.129  -0.635   1.300  0.00  0.00    -0.072 A 
ENDROOT
TORSDOF 0
ENDMDL
