MODEL 1
REMARK minimizedAffinity -4.71893597
REMARK minimizedRMSD -1
REMARK  0 active torsions:
REMARK  status: ('A' for Active; 'I' for Inactive)
ROOT
ATOM      1  C1  DEN d   1      -1.187  -0.698   2.598  0.00  0.00     0.130 A 
ATOM      2  C2  DEN d   1      -0.718  -1.611   3.636  0.00  0.00    -0.031 A 
ATOM      3  C3  DEN d   1       0.598  -2.136   3.221  0.00  0.00     0.027 A 
ATOM      4  C4  DEN d   1       1.951  -1.622   1.086  0.00  0.00     0.027 A 
ATOM      5  C5  DEN d   1       1.956  -0.916  -0.096  0.00  0.00    -0.003 A 
ATOM      6  C6  DEN d   1       0.908  -0.120  -0.477  0.00  0.00     0.001 A 
ATOM      7  C7  DEN d   1      -0.171   0.024   0.355  0.00  0.00     0.017 A 
ATOM      8  C8  DEN d   1      -0.187  -0.691   1.545  0.00  0.00    -0.094 A 
ATOM      9  C9  DEN d   1       0.888  -1.481   1.918  0.00  0.00    -0.072 A 
ENDROOT
TORSDOF 0
ENDMDL
