MODEL 1
REMARK minimizedAffinity -2.74971437
REMARK minimizedRMSD -1
REMARK  0 active torsions:
REMARK  status: ('A' for Active; 'I' for Inactive)
ROOT
ATOM      1  C1  DEN d   1      -0.932   3.963  -5.336  0.00  0.00     0.130 A 
ATOM      2  C2  DEN d   1       0.174   4.752  -4.801  0.00  0.00    -0.031 A 
ATOM      3  C3  DEN d   1       0.409   4.323  -3.408  0.00  0.00     0.027 A 
ATOM      4  C4  DEN d   1      -0.823   2.519  -2.036  0.00  0.00     0.027 A 
ATOM      5  C5  DEN d   1      -1.841   1.591  -2.060  0.00  0.00    -0.003 A 
ATOM      6  C6  DEN d   1      -2.642   1.413  -3.157  0.00  0.00     0.001 A 
ATOM      7  C7  DEN d   1      -2.410   2.144  -4.292  0.00  0.00     0.017 A 
ATOM      8  C8  DEN d   1      -1.391   3.087  -4.273  0.00  0.00    -0.094 A 
ATOM      9  C9  DEN d   1      -0.584   3.243  -3.159  0.00  0.00    -0.072 A 
ENDROOT
TORSDOF 0
ENDMDL
