MODEL 1
REMARK minimizedAffinity -4.97400427
REMARK minimizedRMSD -1
REMARK  0 active torsions:
REMARK  status: ('A' for Active; 'I' for Inactive)
ROOT
ATOM      1  C1  DEN d   1      -0.821   0.241   0.286  0.00  0.00     0.130 A 
ATOM      2  C2  DEN d   1       0.089   0.497  -0.827  0.00  0.00    -0.031 A 
ATOM      3  C3  DEN d   1       1.256  -0.395  -0.677  0.00  0.00     0.027 A 
ATOM      4  C4  DEN d   1       1.738  -2.142   1.159  0.00  0.00     0.027 A 
ATOM      5  C5  DEN d   1       1.263  -2.710   2.320  0.00  0.00    -0.003 A 
ATOM      6  C6  DEN d   1       0.087  -2.313   2.900  0.00  0.00     0.001 A 
ATOM      7  C7  DEN d   1      -0.678  -1.351   2.293  0.00  0.00     0.017 A 
ATOM      8  C8  DEN d   1      -0.202  -0.769   1.125  0.00  0.00    -0.094 A 
ATOM      9  C9  DEN d   1       0.983  -1.193   0.549  0.00  0.00    -0.072 A 
ENDROOT
TORSDOF 0
ENDMDL
