MODEL 1
REMARK minimizedAffinity -0.8882671
REMARK minimizedRMSD -1
REMARK  0 active torsions:
REMARK  status: ('A' for Active; 'I' for Inactive)
ROOT
ATOM      1  C1  DEN d   1      -1.081  -0.912   2.790  0.00  0.00     0.130 A 
ATOM      2  C2  DEN d   1      -0.576  -1.864   3.775  0.00  0.00    -0.031 A 
ATOM      3  C3  DEN d   1       0.773  -2.287   3.351  0.00  0.00     0.027 A 
ATOM      4  C4  DEN d   1       2.124  -1.561   1.277  0.00  0.00     0.027 A 
ATOM      5  C5  DEN d   1       2.107  -0.780   0.143  0.00  0.00    -0.003 A 
ATOM      6  C6  DEN d   1       1.021  -0.020  -0.203  0.00  0.00     0.001 A 
ATOM      7  C7  DEN d   1      -0.076   0.010   0.617  0.00  0.00     0.017 A 
ATOM      8  C8  DEN d   1      -0.069  -0.781   1.758  0.00  0.00    -0.094 A 
ATOM      9  C9  DEN d   1       1.044  -1.533   2.097  0.00  0.00    -0.072 A 
ENDROOT
TORSDOF 0
ENDMDL
