MODEL 1
REMARK minimizedAffinity -0.555361509
REMARK minimizedRMSD -1
REMARK  0 active torsions:
REMARK  status: ('A' for Active; 'I' for Inactive)
ROOT
ATOM      1  C1  DEN d   1       1.407  -0.198  -0.677  0.00  0.00     0.130 A 
ATOM      2  C2  DEN d   1       2.334  -0.553   0.394  0.00  0.00    -0.031 A 
ATOM      3  C3  DEN d   1       1.551  -0.728   1.635  0.00  0.00     0.027 A 
ATOM      4  C4  DEN d   1      -0.991  -0.491   1.997  0.00  0.00     0.027 A 
ATOM      5  C5  DEN d   1      -2.189  -0.192   1.386  0.00  0.00    -0.003 A 
ATOM      6  C6  DEN d   1      -2.267   0.156   0.063  0.00  0.00     0.001 A 
ATOM      7  C7  DEN d   1      -1.132   0.170  -0.703  0.00  0.00     0.017 A 
ATOM      8  C8  DEN d   1       0.080  -0.123  -0.093  0.00  0.00    -0.094 A 
ATOM      9  C9  DEN d   1       0.137  -0.484   1.243  0.00  0.00    -0.072 A 
ENDROOT
TORSDOF 0
ENDMDL
