MODEL 1
REMARK minimizedAffinity 1.85941172
REMARK minimizedRMSD -1
REMARK  0 active torsions:
REMARK  status: ('A' for Active; 'I' for Inactive)
ROOT
ATOM      1  C1  DEN d   1       0.592   0.149  -0.342  0.00  0.00     0.130 A 
ATOM      2  C2  DEN d   1       1.992  -0.258  -0.257  0.00  0.00    -0.031 A 
ATOM      3  C3  DEN d   1       2.173  -1.011   1.001  0.00  0.00     0.027 A 
ATOM      4  C4  DEN d   1       0.430  -1.589   2.812  0.00  0.00     0.027 A 
ATOM      5  C5  DEN d   1      -0.888  -1.449   3.186  0.00  0.00    -0.003 A 
ATOM      6  C6  DEN d   1      -1.790  -0.744   2.434  0.00  0.00     0.001 A 
ATOM      7  C7  DEN d   1      -1.396  -0.189   1.245  0.00  0.00     0.017 A 
ATOM      8  C8  DEN d   1      -0.067  -0.320   0.864  0.00  0.00    -0.094 A 
ATOM      9  C9  DEN d   1       0.827  -1.047   1.632  0.00  0.00    -0.072 A 
ENDROOT
TORSDOF 0
ENDMDL
