MODEL 1
REMARK minimizedAffinity -5.46383429
REMARK minimizedRMSD -1
REMARK  3 active torsions:
REMARK  status: ('A' for Active; 'I' for Inactive)
REMARK    1  A    between atoms: C3'_2  and  C2'_3 
REMARK    2  A    between atoms: C2'_3  and  C1'_4 
REMARK    3  A    between atoms: C1'_4  and  C1_5 
ROOT
ATOM      1  C1  N4B d   1       1.140  -0.398   0.487  0.00  0.00    -0.075 A 
ATOM      2  C2  N4B d   1       2.046  -1.425   0.140  0.00  0.00     0.002 A 
ATOM      3  C3  N4B d   1       3.390  -1.259   0.365  0.00  0.00     0.002 A 
ATOM      4  C4  N4B d   1       3.853  -0.073   0.916  0.00  0.00    -0.004 A 
ATOM      5  C5  N4B d   1       2.969   0.903   1.271  0.00  0.00     0.002 A 
ATOM      6  C6  N4B d   1       1.615   0.749   1.055  0.00  0.00     0.002 A 
ENDROOT
BRANCH   1   7
ATOM      7  C1' N4B d   1      -0.329  -0.498   0.182  0.00  0.00     0.057 C 
BRANCH   7   8
ATOM      8  C2' N4B d   1      -0.973   0.873   0.363  0.00  0.00     0.009 C 
BRANCH   8   9
ATOM      9  C3' N4B d   1      -2.488   0.785   0.432  0.00  0.00     0.004 C 
ATOM     10  C4' N4B d   1      -3.051   1.420   1.668  0.00  0.00     0.003 C 
ENDBRANCH   8   9
ENDBRANCH   7   8
ENDBRANCH   1   7
TORSDOF 3
ENDMDL
