MODEL 1
REMARK minimizedAffinity -3.57900906
REMARK minimizedRMSD -1
REMARK  3 active torsions:
REMARK  status: ('A' for Active; 'I' for Inactive)
REMARK    1  A    between atoms: C3'_2  and  C2'_3 
REMARK    2  A    between atoms: C2'_3  and  C1'_4 
REMARK    3  A    between atoms: C1'_4  and  C1_5 
ROOT
ATOM      1  C1  N4B d   1       0.561   0.389  -0.158  0.00  0.00    -0.075 A 
ATOM      2  C2  N4B d   1       0.645  -1.017  -0.262  0.00  0.00     0.002 A 
ATOM      3  C3  N4B d   1       1.804  -1.663   0.090  0.00  0.00     0.002 A 
ATOM      4  C4  N4B d   1       2.894  -0.927   0.528  0.00  0.00    -0.004 A 
ATOM      5  C5  N4B d   1       2.797   0.428   0.649  0.00  0.00     0.002 A 
ATOM      6  C6  N4B d   1       1.637   1.091   0.304  0.00  0.00     0.002 A 
ENDROOT
BRANCH   1   7
ATOM      7  C1' N4B d   1      -0.656   1.148  -0.611  0.00  0.00     0.057 C 
BRANCH   7   8
ATOM      8  C2' N4B d   1      -1.820   0.832   0.323  0.00  0.00     0.009 C 
BRANCH   8   9
ATOM      9  C3' N4B d   1      -3.137   0.725  -0.426  0.00  0.00     0.004 C 
ATOM     10  C4' N4B d   1      -4.320   0.628   0.491  0.00  0.00     0.003 C 
ENDBRANCH   8   9
ENDBRANCH   7   8
ENDBRANCH   1   7
TORSDOF 3
ENDMDL
