MODEL 1
REMARK minimizedAffinity -6.66644526
REMARK minimizedRMSD -1
REMARK  3 active torsions:
REMARK  status: ('A' for Active; 'I' for Inactive)
REMARK    1  A    between atoms: C3'_2  and  C2'_3 
REMARK    2  A    between atoms: C2'_3  and  C1'_4 
REMARK    3  A    between atoms: C1'_4  and  C1_5 
ROOT
ATOM      1  C1  N4B d   1       0.764   0.583  -0.140  0.00  0.00    -0.075 A 
ATOM      2  C2  N4B d   1       1.766   1.515   0.208  0.00  0.00     0.002 A 
ATOM      3  C3  N4B d   1       2.995   1.074   0.633  0.00  0.00     0.002 A 
ATOM      4  C4  N4B d   1       3.238  -0.287   0.735  0.00  0.00    -0.004 A 
ATOM      5  C5  N4B d   1       2.273  -1.181   0.373  0.00  0.00     0.002 A 
ATOM      6  C6  N4B d   1       1.034  -0.752  -0.060  0.00  0.00     0.002 A 
ENDROOT
BRANCH   1   7
ATOM      7  C1' N4B d   1      -0.623   1.017  -0.528  0.00  0.00     0.057 C 
BRANCH   7   8
ATOM      8  C2' N4B d   1      -1.606  -0.108  -0.215  0.00  0.00     0.009 C 
BRANCH   8   9
ATOM      9  C3' N4B d   1      -2.991   0.423   0.114  0.00  0.00     0.004 C 
ATOM     10  C4' N4B d   1      -3.997  -0.670   0.323  0.00  0.00     0.003 C 
ENDBRANCH   8   9
ENDBRANCH   7   8
ENDBRANCH   1   7
TORSDOF 3
ENDMDL
