MODEL 1
REMARK minimizedAffinity -4.90877962
REMARK minimizedRMSD -1
REMARK  3 active torsions:
REMARK  status: ('A' for Active; 'I' for Inactive)
REMARK    1  A    between atoms: C3'_2  and  C2'_3 
REMARK    2  A    between atoms: C2'_3  and  C1'_4 
REMARK    3  A    between atoms: C1'_4  and  C1_5 
ROOT
ATOM      1  C1  N4B d   1       0.301   0.069  -0.359  0.00  0.00    -0.075 A 
ATOM      2  C2  N4B d   1       1.200   1.068   0.075  0.00  0.00     0.002 A 
ATOM      3  C3  N4B d   1       2.460   0.721   0.498  0.00  0.00     0.002 A 
ATOM      4  C4  N4B d   1       2.835  -0.614   0.514  0.00  0.00    -0.004 A 
ATOM      5  C5  N4B d   1       1.970  -1.570   0.069  0.00  0.00     0.002 A 
ATOM      6  C6  N4B d   1       0.702  -1.236  -0.363  0.00  0.00     0.002 A 
ENDROOT
BRANCH   1   7
ATOM      7  C1' N4B d   1      -1.116   0.390  -0.749  0.00  0.00     0.057 C 
BRANCH   7   8
ATOM      8  C2' N4B d   1      -1.911   0.748   0.503  0.00  0.00     0.009 C 
BRANCH   8   9
ATOM      9  C3' N4B d   1      -3.393   0.463   0.335  0.00  0.00     0.004 C 
ATOM     10  C4' N4B d   1      -4.131   0.436   1.641  0.00  0.00     0.003 C 
ENDBRANCH   8   9
ENDBRANCH   7   8
ENDBRANCH   1   7
TORSDOF 3
ENDMDL
