MODEL 1
REMARK minimizedAffinity -4.70253611
REMARK minimizedRMSD -1
REMARK  3 active torsions:
REMARK  status: ('A' for Active; 'I' for Inactive)
REMARK    1  A    between atoms: C3'_2  and  C2'_3 
REMARK    2  A    between atoms: C2'_3  and  C1'_4 
REMARK    3  A    between atoms: C1'_4  and  C1_5 
ROOT
ATOM      1  C1  N4B d   1       0.633  -0.257  -0.220  0.00  0.00    -0.075 A 
ATOM      2  C2  N4B d   1       1.208  -1.508   0.094  0.00  0.00     0.002 A 
ATOM      3  C3  N4B d   1       2.433  -1.565   0.712  0.00  0.00     0.002 A 
ATOM      4  C4  N4B d   1       3.107  -0.390   1.008  0.00  0.00    -0.004 A 
ATOM      5  C5  N4B d   1       2.533   0.815   0.724  0.00  0.00     0.002 A 
ATOM      6  C6  N4B d   1       1.301   0.887   0.107  0.00  0.00     0.002 A 
ENDROOT
BRANCH   1   7
ATOM      7  C1' N4B d   1      -0.665  -0.146  -0.972  0.00  0.00     0.057 C 
BRANCH   7   8
ATOM      8  C2' N4B d   1      -1.715   0.491  -0.068  0.00  0.00     0.009 C 
BRANCH   8   9
ATOM      9  C3' N4B d   1      -3.127   0.117  -0.486  0.00  0.00     0.004 C 
ATOM     10  C4' N4B d   1      -4.124   0.285   0.622  0.00  0.00     0.003 C 
ENDBRANCH   8   9
ENDBRANCH   7   8
ENDBRANCH   1   7
TORSDOF 3
ENDMDL
