MODEL 1
REMARK minimizedAffinity 1.43923092
REMARK minimizedRMSD -1
REMARK  0 active torsions:
REMARK  status: ('A' for Active; 'I' for Inactive)
ROOT
ATOM      1  C   UNL d   1       0.259  -2.445  -1.701  0.00  0.00     0.020 A 
ATOM      2  C1  UNL d   1       0.044  -2.230  -0.341  0.00  0.00     0.020 A 
ATOM      3  C2  UNL d   1      -1.258  -2.103   0.149  0.00  0.00     0.034 A 
ATOM      4  C3  UNL d   1      -2.349  -2.190  -0.722  0.00  0.00     0.017 A 
ATOM      5  C4  UNL d   1      -2.133  -2.406  -2.088  0.00  0.00     0.017 A 
ATOM      6  C5  UNL d   1      -0.827  -2.533  -2.573  0.00  0.00     0.034 A 
ATOM      7 Cl   UNL d   1      -3.429  -2.525  -3.225  0.00  0.00    -0.070 Cl
ATOM      8 Cl1  UNL d   1      -3.931  -2.023  -0.048  0.00  0.00    -0.070 Cl
ENDROOT
TORSDOF 0
ENDMDL
