MODEL 1
REMARK minimizedAffinity 1.59529221
REMARK minimizedRMSD -1
REMARK  0 active torsions:
REMARK  status: ('A' for Active; 'I' for Inactive)
ROOT
ATOM      1  C   UNL d   1       2.633   0.928  -2.218  0.00  0.00     0.020 A 
ATOM      2  C1  UNL d   1       1.514   0.181  -2.585  0.00  0.00     0.020 A 
ATOM      3  C2  UNL d   1       0.391   0.154  -1.756  0.00  0.00     0.034 A 
ATOM      4  C3  UNL d   1       0.384   0.874  -0.556  0.00  0.00     0.017 A 
ATOM      5  C4  UNL d   1       1.507   1.624  -0.189  0.00  0.00     0.017 A 
ATOM      6  C5  UNL d   1       2.629   1.647  -1.023  0.00  0.00     0.034 A 
ATOM      7 Cl   UNL d   1       1.573   2.538   1.276  0.00  0.00    -0.070 Cl
ATOM      8 Cl1  UNL d   1      -1.040   0.795   0.420  0.00  0.00    -0.070 Cl
ENDROOT
TORSDOF 0
ENDMDL
