MODEL 1
REMARK minimizedAffinity -5.11732244
REMARK minimizedRMSD -1
REMARK  0 active torsions:
REMARK  status: ('A' for Active; 'I' for Inactive)
ROOT
ATOM      1  C   UNL d   1       0.678  -0.013  -2.483  0.00  0.00     0.020 A 
ATOM      2  C1  UNL d   1       1.913   0.634  -2.482  0.00  0.00     0.020 A 
ATOM      3  C2  UNL d   1       2.293   1.412  -1.386  0.00  0.00     0.034 A 
ATOM      4  C3  UNL d   1       1.437   1.544  -0.286  0.00  0.00     0.017 A 
ATOM      5  C4  UNL d   1       0.198   0.894  -0.288  0.00  0.00     0.017 A 
ATOM      6  C5  UNL d   1      -0.177   0.116  -1.388  0.00  0.00     0.034 A 
ATOM      7 Cl   UNL d   1      -0.911   1.010   1.032  0.00  0.00    -0.070 Cl
ATOM      8 Cl1  UNL d   1       1.972   2.521   1.035  0.00  0.00    -0.070 Cl
ENDROOT
TORSDOF 0
ENDMDL
