MODEL 1
REMARK minimizedAffinity -3.54560208
REMARK minimizedRMSD -1
REMARK  0 active torsions:
REMARK  status: ('A' for Active; 'I' for Inactive)
ROOT
ATOM      1  C   UNL d   1      -0.750  -1.868   1.375  0.00  0.00     0.020 A 
ATOM      2  C1  UNL d   1      -0.179  -2.782   0.491  0.00  0.00     0.020 A 
ATOM      3  C2  UNL d   1       0.508  -2.327  -0.637  0.00  0.00     0.034 A 
ATOM      4  C3  UNL d   1       0.624  -0.954  -0.884  0.00  0.00     0.017 A 
ATOM      5  C4  UNL d   1       0.049  -0.038   0.004  0.00  0.00     0.017 A 
ATOM      6  C5  UNL d   1      -0.637  -0.499   1.132  0.00  0.00     0.034 A 
ATOM      7 Cl   UNL d   1       0.151   1.671  -0.233  0.00  0.00    -0.070 Cl
ATOM      8 Cl1  UNL d   1       1.486  -0.462  -2.297  0.00  0.00    -0.070 Cl
ENDROOT
TORSDOF 0
ENDMDL
