MODEL 1
REMARK minimizedAffinity -4.40751791
REMARK minimizedRMSD -1
REMARK  0 active torsions:
REMARK  status: ('A' for Active; 'I' for Inactive)
ROOT
ATOM      1  C   UNL d   1      -1.311   0.113   1.740  0.00  0.00     0.020 A 
ATOM      2  C1  UNL d   1      -0.925   1.120   0.857  0.00  0.00     0.020 A 
ATOM      3  C2  UNL d   1      -0.229   0.796  -0.310  0.00  0.00     0.034 A 
ATOM      4  C3  UNL d   1       0.083  -0.538  -0.596  0.00  0.00     0.017 A 
ATOM      5  C4  UNL d   1      -0.305  -1.548   0.291  0.00  0.00     0.017 A 
ATOM      6  C5  UNL d   1      -1.002  -1.219   1.458  0.00  0.00     0.034 A 
ATOM      7 Cl   UNL d   1       0.044  -3.217   0.006  0.00  0.00    -0.070 Cl
ATOM      8 Cl1  UNL d   1       0.946  -0.865  -2.057  0.00  0.00    -0.070 Cl
ENDROOT
TORSDOF 0
ENDMDL
