MODEL 1
REMARK minimizedAffinity -4.72384262
REMARK minimizedRMSD -1
REMARK  0 active torsions:
REMARK  status: ('A' for Active; 'I' for Inactive)
ROOT
ATOM      1  C   UNL d   1      -0.558  -1.523   1.342  0.00  0.00     0.020 A 
ATOM      2  C1  UNL d   1      -0.024  -2.245   0.275  0.00  0.00     0.020 A 
ATOM      3  C2  UNL d   1       0.525  -1.572  -0.818  0.00  0.00     0.034 A 
ATOM      4  C3  UNL d   1       0.542  -0.173  -0.847  0.00  0.00     0.017 A 
ATOM      5  C4  UNL d   1       0.006   0.551   0.224  0.00  0.00     0.017 A 
ATOM      6  C5  UNL d   1      -0.542  -0.128   1.316  0.00  0.00     0.034 A 
ATOM      7 Cl   UNL d   1      -0.009   2.279   0.259  0.00  0.00    -0.070 Cl
ATOM      8 Cl1  UNL d   1       1.237   0.593  -2.231  0.00  0.00    -0.070 Cl
ENDROOT
TORSDOF 0
ENDMDL
