MODEL 1
REMARK minimizedAffinity -0.325713634
REMARK minimizedRMSD -1
REMARK  0 active torsions:
REMARK  status: ('A' for Active; 'I' for Inactive)
ROOT
ATOM      1  C   UNL d   1      -0.633  -1.187  -0.493  0.00  0.00     0.020 A 
ATOM      2  C1  UNL d   1      -1.182  -1.984   0.511  0.00  0.00     0.020 A 
ATOM      3  C2  UNL d   1      -1.673  -1.396   1.679  0.00  0.00     0.034 A 
ATOM      4  C3  UNL d   1      -1.615  -0.007   1.845  0.00  0.00     0.017 A 
ATOM      5  C4  UNL d   1      -1.063   0.791   0.837  0.00  0.00     0.017 A 
ATOM      6  C5  UNL d   1      -0.573   0.197  -0.330  0.00  0.00     0.034 A 
ATOM      7 Cl   UNL d   1      -0.957   2.511   0.971  0.00  0.00    -0.070 Cl
ATOM      8 Cl1  UNL d   1      -2.240   0.652   3.315  0.00  0.00    -0.070 Cl
ENDROOT
TORSDOF 0
ENDMDL
