MODEL 1
REMARK minimizedAffinity -4.97902536
REMARK minimizedRMSD -1
REMARK  0 active torsions:
REMARK  status: ('A' for Active; 'I' for Inactive)
ROOT
ATOM      1  C   UNL d   1      -0.502  -1.249   1.312  0.00  0.00     0.020 A 
ATOM      2  C1  UNL d   1       0.002  -1.987   0.241  0.00  0.00     0.020 A 
ATOM      3  C2  UNL d   1       0.604  -1.333  -0.836  0.00  0.00     0.034 A 
ATOM      4  C3  UNL d   1       0.702   0.063  -0.846  0.00  0.00     0.017 A 
ATOM      5  C4  UNL d   1       0.196   0.803   0.229  0.00  0.00     0.017 A 
ATOM      6  C5  UNL d   1      -0.405   0.143   1.305  0.00  0.00     0.034 A 
ATOM      7 Cl   UNL d   1       0.282   2.528   0.289  0.00  0.00    -0.070 Cl
ATOM      8 Cl1  UNL d   1       1.458   0.806  -2.210  0.00  0.00    -0.070 Cl
ENDROOT
TORSDOF 0
ENDMDL
