MODEL 1
REMARK minimizedAffinity 6.28772259
REMARK minimizedRMSD -1
REMARK  0 active torsions:
REMARK  status: ('A' for Active; 'I' for Inactive)
ROOT
ATOM      1  C   UNL d   1       0.871   3.946   2.108  0.00  0.00     0.020 A 
ATOM      2  C1  UNL d   1       2.258   3.962   1.966  0.00  0.00     0.020 A 
ATOM      3  C2  UNL d   1       2.901   2.941   1.263  0.00  0.00     0.034 A 
ATOM      4  C3  UNL d   1       2.156   1.899   0.698  0.00  0.00     0.017 A 
ATOM      5  C4  UNL d   1       0.764   1.884   0.841  0.00  0.00     0.017 A 
ATOM      6  C5  UNL d   1       0.126   2.909   1.546  0.00  0.00     0.034 A 
ATOM      7 Cl   UNL d   1      -0.222   0.631   0.172  0.00  0.00    -0.070 Cl
ATOM      8 Cl1  UNL d   1       3.016   0.670  -0.159  0.00  0.00    -0.070 Cl
ENDROOT
TORSDOF 0
ENDMDL
