MODEL 1
REMARK minimizedAffinity -4.24815083
REMARK minimizedRMSD -1
REMARK  0 active torsions:
REMARK  status: ('A' for Active; 'I' for Inactive)
ROOT
ATOM      1  C   UNL d   1      -1.197  -2.295   0.647  0.00  0.00     0.020 A 
ATOM      2  C1  UNL d   1      -0.900  -1.659   1.851  0.00  0.00     0.020 A 
ATOM      3  C2  UNL d   1      -0.292  -0.402   1.846  0.00  0.00     0.034 A 
ATOM      4  C3  UNL d   1       0.022   0.223   0.633  0.00  0.00     0.017 A 
ATOM      5  C4  UNL d   1      -0.277  -0.416  -0.575  0.00  0.00     0.017 A 
ATOM      6  C5  UNL d   1      -0.886  -1.675  -0.564  0.00  0.00     0.034 A 
ATOM      7 Cl   UNL d   1       0.080   0.292  -2.111  0.00  0.00    -0.070 Cl
ATOM      8 Cl1  UNL d   1       0.773   1.778   0.701  0.00  0.00    -0.070 Cl
ENDROOT
TORSDOF 0
ENDMDL
