MODEL 1
REMARK minimizedAffinity 5.80621004
REMARK minimizedRMSD -1
REMARK  0 active torsions:
REMARK  status: ('A' for Active; 'I' for Inactive)
ROOT
ATOM      1  C   UNL d   1      -1.266   0.049   1.960  0.00  0.00     0.020 A 
ATOM      2  C1  UNL d   1      -0.162  -0.703   2.360  0.00  0.00     0.020 A 
ATOM      3  C2  UNL d   1      -0.028  -2.026   1.936  0.00  0.00     0.034 A 
ATOM      4  C3  UNL d   1      -1.000  -2.603   1.110  0.00  0.00     0.017 A 
ATOM      5  C4  UNL d   1      -2.108  -1.847   0.710  0.00  0.00     0.017 A 
ATOM      6  C5  UNL d   1      -2.237  -0.522   1.137  0.00  0.00     0.034 A 
ATOM      7 Cl   UNL d   1      -3.349  -2.489  -0.308  0.00  0.00    -0.070 Cl
ATOM      8 Cl1  UNL d   1      -0.771  -4.245   0.624  0.00  0.00    -0.070 Cl
ENDROOT
TORSDOF 0
ENDMDL
