MODEL 1
REMARK minimizedAffinity -1.51096296
REMARK minimizedRMSD -1
REMARK  0 active torsions:
REMARK  status: ('A' for Active; 'I' for Inactive)
ROOT
ATOM      1  C   UNL d   1      -0.469  -0.767  -0.079  0.00  0.00     0.020 A 
ATOM      2  C1  UNL d   1       0.316   0.120  -0.814  0.00  0.00     0.020 A 
ATOM      3  C2  UNL d   1       0.296   1.484  -0.514  0.00  0.00     0.034 A 
ATOM      4  C3  UNL d   1      -0.511   1.964   0.524  0.00  0.00     0.017 A 
ATOM      5  C4  UNL d   1      -1.299   1.073   1.261  0.00  0.00     0.017 A 
ATOM      6  C5  UNL d   1      -1.275  -0.292   0.956  0.00  0.00     0.034 A 
ATOM      7 Cl   UNL d   1      -2.320   1.590   2.556  0.00  0.00    -0.070 Cl
ATOM      8 Cl1  UNL d   1      -0.487   3.663   0.840  0.00  0.00    -0.070 Cl
ENDROOT
TORSDOF 0
ENDMDL
