MODEL 1
REMARK minimizedAffinity 2.15361738
REMARK minimizedRMSD -1
REMARK  0 active torsions:
REMARK  status: ('A' for Active; 'I' for Inactive)
ROOT
ATOM      1  C   UNL d   1      -1.317  -0.587   2.801  0.00  0.00     0.020 A 
ATOM      2  C1  UNL d   1      -1.307  -1.594   1.836  0.00  0.00     0.020 A 
ATOM      3  C2  UNL d   1      -0.922  -1.301   0.526  0.00  0.00     0.034 A 
ATOM      4  C3  UNL d   1      -0.546   0.001   0.177  0.00  0.00     0.017 A 
ATOM      5  C4  UNL d   1      -0.557   1.011   1.146  0.00  0.00     0.017 A 
ATOM      6  C5  UNL d   1      -0.943   0.713   2.456  0.00  0.00     0.034 A 
ATOM      7 Cl   UNL d   1      -0.107   2.642   0.791  0.00  0.00    -0.070 Cl
ATOM      8 Cl1  UNL d   1      -0.081   0.292  -1.462  0.00  0.00    -0.070 Cl
ENDROOT
TORSDOF 0
ENDMDL
