MODEL 1
REMARK minimizedAffinity 0.186867058
REMARK minimizedRMSD -1
REMARK  0 active torsions:
REMARK  status: ('A' for Active; 'I' for Inactive)
ROOT
ATOM      1  C   UNL d   1       3.410   1.366  -0.751  0.00  0.00     0.020 A 
ATOM      2  C1  UNL d   1       4.122   2.361  -0.083  0.00  0.00     0.020 A 
ATOM      3  C2  UNL d   1       3.495   3.124   0.905  0.00  0.00     0.034 A 
ATOM      4  C3  UNL d   1       2.153   2.893   1.228  0.00  0.00     0.017 A 
ATOM      5  C4  UNL d   1       1.439   1.894   0.556  0.00  0.00     0.017 A 
ATOM      6  C5  UNL d   1       2.071   1.133  -0.432  0.00  0.00     0.034 A 
ATOM      7 Cl   UNL d   1      -0.220   1.551   0.899  0.00  0.00    -0.070 Cl
ATOM      8 Cl1  UNL d   1       1.443   3.874   2.460  0.00  0.00    -0.070 Cl
ENDROOT
TORSDOF 0
ENDMDL
