MODEL 1
REMARK minimizedAffinity 7.7808857
REMARK minimizedRMSD -1
REMARK  0 active torsions:
REMARK  status: ('A' for Active; 'I' for Inactive)
ROOT
ATOM      1  C   UNL d   1      -1.777  -1.437   2.504  0.00  0.00     0.020 A 
ATOM      2  C1  UNL d   1      -1.620  -2.444   1.552  0.00  0.00     0.020 A 
ATOM      3  C2  UNL d   1      -1.122  -2.135   0.285  0.00  0.00     0.034 A 
ATOM      4  C3  UNL d   1      -0.779  -0.816  -0.035  0.00  0.00     0.017 A 
ATOM      5  C4  UNL d   1      -0.937   0.194   0.921  0.00  0.00     0.017 A 
ATOM      6  C5  UNL d   1      -1.436  -0.121   2.189  0.00  0.00     0.034 A 
ATOM      7 Cl   UNL d   1      -0.535   1.844   0.601  0.00  0.00    -0.070 Cl
ATOM      8 Cl1  UNL d   1      -0.169  -0.506  -1.621  0.00  0.00    -0.070 Cl
ENDROOT
TORSDOF 0
ENDMDL
