MODEL 1
REMARK minimizedAffinity -4.74773264
REMARK minimizedRMSD -1
REMARK  0 active torsions:
REMARK  status: ('A' for Active; 'I' for Inactive)
ROOT
ATOM      1  C   UNL d   1      -0.863  -2.138   1.425  0.00  0.00     0.020 A 
ATOM      2  C1  UNL d   1      -0.207  -2.910   0.466  0.00  0.00     0.020 A 
ATOM      3  C2  UNL d   1       0.571  -2.291  -0.515  0.00  0.00     0.034 A 
ATOM      4  C3  UNL d   1       0.695  -0.897  -0.539  0.00  0.00     0.017 A 
ATOM      5  C4  UNL d   1       0.036  -0.124   0.423  0.00  0.00     0.017 A 
ATOM      6  C5  UNL d   1      -0.741  -0.748   1.403  0.00  0.00     0.034 A 
ATOM      7 Cl   UNL d   1       0.142   1.601   0.457  0.00  0.00    -0.070 Cl
ATOM      8 Cl1  UNL d   1       1.674  -0.199  -1.781  0.00  0.00    -0.070 Cl
ENDROOT
TORSDOF 0
ENDMDL
