MODEL 1
REMARK minimizedAffinity -3.81507707
REMARK minimizedRMSD -1
REMARK  0 active torsions:
REMARK  status: ('A' for Active; 'I' for Inactive)
ROOT
ATOM      1  C   UNL d   1       2.953   2.559  -0.564  0.00  0.00     0.020 A 
ATOM      2  C1  UNL d   1       2.185   3.009   0.510  0.00  0.00     0.020 A 
ATOM      3  C2  UNL d   1       0.973   2.384   0.811  0.00  0.00     0.034 A 
ATOM      4  C3  UNL d   1       0.524   1.308   0.037  0.00  0.00     0.017 A 
ATOM      5  C4  UNL d   1       1.296   0.857  -1.040  0.00  0.00     0.017 A 
ATOM      6  C5  UNL d   1       2.509   1.486  -1.337  0.00  0.00     0.034 A 
ATOM      7 Cl   UNL d   1       0.809  -0.465  -2.041  0.00  0.00    -0.070 Cl
ATOM      8 Cl1  UNL d   1      -0.984   0.583   0.466  0.00  0.00    -0.070 Cl
ENDROOT
TORSDOF 0
ENDMDL
