MODEL 1
REMARK minimizedAffinity -1.43823278
REMARK minimizedRMSD -1
REMARK  0 active torsions:
REMARK  status: ('A' for Active; 'I' for Inactive)
ROOT
ATOM      1  C   UNL d   1      -5.969  -3.342  -5.440  0.00  0.00     0.078 C 
ATOM      2  C1  UNL d   1      -4.516  -3.664  -5.627  0.00  0.00    -0.077 A 
ATOM      3  C2  UNL d   1      -3.548  -2.652  -5.634  0.00  0.00    -0.001 A 
ATOM      4  C3  UNL d   1      -2.201  -2.965  -5.819  0.00  0.00     0.003 A 
ATOM      5  C4  UNL d   1      -1.809  -4.290  -6.000  0.00  0.00    -0.005 A 
ATOM      6  C5  UNL d   1      -2.765  -5.304  -5.997  0.00  0.00     0.003 A 
ATOM      7  C6  UNL d   1      -4.113  -4.992  -5.812  0.00  0.00    -0.001 A 
ENDROOT
TORSDOF 0
ENDMDL
