MODEL 1
REMARK minimizedAffinity 0.360998899
REMARK minimizedRMSD -1
REMARK  0 active torsions:
REMARK  status: ('A' for Active; 'I' for Inactive)
ROOT
ATOM      1  C   UNL d   1      -6.000  -2.281  -1.194  0.00  0.00     0.078 C 
ATOM      2  C1  UNL d   1      -5.905  -3.571  -0.436  0.00  0.00    -0.077 A 
ATOM      3  C2  UNL d   1      -5.720  -3.580   0.952  0.00  0.00    -0.001 A 
ATOM      4  C3  UNL d   1      -5.624  -4.788   1.644  0.00  0.00     0.003 A 
ATOM      5  C4  UNL d   1      -5.711  -5.997   0.956  0.00  0.00    -0.005 A 
ATOM      6  C5  UNL d   1      -5.893  -5.998  -0.425  0.00  0.00     0.003 A 
ATOM      7  C6  UNL d   1      -5.989  -4.791  -1.119  0.00  0.00    -0.001 A 
ENDROOT
TORSDOF 0
ENDMDL
