MODEL 1
REMARK minimizedAffinity 11.7823887
REMARK minimizedRMSD -1
REMARK  0 active torsions:
REMARK  status: ('A' for Active; 'I' for Inactive)
ROOT
ATOM      1  C   UNL d   1       2.415   3.375  -1.180  0.00  0.00     0.078 C 
ATOM      2  C1  UNL d   1       3.194   3.838  -2.375  0.00  0.00    -0.077 A 
ATOM      3  C2  UNL d   1       3.115   5.164  -2.818  0.00  0.00    -0.001 A 
ATOM      4  C3  UNL d   1       3.838   5.578  -3.937  0.00  0.00     0.003 A 
ATOM      5  C4  UNL d   1       4.644   4.673  -4.624  0.00  0.00    -0.005 A 
ATOM      6  C5  UNL d   1       4.727   3.351  -4.192  0.00  0.00     0.003 A 
ATOM      7  C6  UNL d   1       4.005   2.934  -3.073  0.00  0.00    -0.001 A 
ENDROOT
TORSDOF 0
ENDMDL
