MODEL 1
REMARK minimizedAffinity 0.199564412
REMARK minimizedRMSD -1
REMARK  0 active torsions:
REMARK  status: ('A' for Active; 'I' for Inactive)
ROOT
ATOM      1  C   UNL d   1       4.875  -0.791   2.770  0.00  0.00     0.078 C 
ATOM      2  C1  UNL d   1       5.261  -1.840   3.770  0.00  0.00    -0.077 A 
ATOM      3  C2  UNL d   1       5.630  -1.491   5.075  0.00  0.00    -0.001 A 
ATOM      4  C3  UNL d   1       5.997  -2.476   5.992  0.00  0.00     0.003 A 
ATOM      5  C4  UNL d   1       6.000  -3.818   5.615  0.00  0.00    -0.005 A 
ATOM      6  C5  UNL d   1       5.637  -4.174   4.318  0.00  0.00     0.003 A 
ATOM      7  C6  UNL d   1       5.270  -3.190   3.399  0.00  0.00    -0.001 A 
ENDROOT
TORSDOF 0
ENDMDL
