MODEL 1
REMARK minimizedAffinity -3.06239581
REMARK minimizedRMSD -1
REMARK  0 active torsions:
REMARK  status: ('A' for Active; 'I' for Inactive)
ROOT
ATOM      1  C   UNL d   1       4.702   0.122   1.879  0.00  0.00     0.078 C 
ATOM      2  C1  UNL d   1       3.233   0.247   2.151  0.00  0.00    -0.077 A 
ATOM      3  C2  UNL d   1       2.480   1.282   1.582  0.00  0.00    -0.001 A 
ATOM      4  C3  UNL d   1       1.115   1.392   1.851  0.00  0.00     0.003 A 
ATOM      5  C4  UNL d   1       0.491   0.471   2.690  0.00  0.00    -0.005 A 
ATOM      6  C5  UNL d   1       1.232  -0.561   3.262  0.00  0.00     0.003 A 
ATOM      7  C6  UNL d   1       2.597  -0.673   2.994  0.00  0.00    -0.001 A 
ENDROOT
TORSDOF 0
ENDMDL
