MODEL 1
REMARK minimizedAffinity 10.1561661
REMARK minimizedRMSD -1
REMARK  0 active torsions:
REMARK  status: ('A' for Active; 'I' for Inactive)
ROOT
ATOM      1  C   UNL d   1       1.488  -0.392  -2.678  0.00  0.00     0.078 C 
ATOM      2  C1  UNL d   1       0.485  -0.898  -3.671  0.00  0.00    -0.077 A 
ATOM      3  C2  UNL d   1      -0.155  -0.024  -4.559  0.00  0.00    -0.001 A 
ATOM      4  C3  UNL d   1      -1.094  -0.508  -5.471  0.00  0.00     0.003 A 
ATOM      5  C4  UNL d   1      -1.403  -1.866  -5.504  0.00  0.00    -0.005 A 
ATOM      6  C5  UNL d   1      -0.773  -2.743  -4.623  0.00  0.00     0.003 A 
ATOM      7  C6  UNL d   1       0.166  -2.261  -3.710  0.00  0.00    -0.001 A 
ENDROOT
TORSDOF 0
ENDMDL
