MODEL 1
REMARK minimizedAffinity 5.92828465
REMARK minimizedRMSD -1
REMARK  0 active torsions:
REMARK  status: ('A' for Active; 'I' for Inactive)
ROOT
ATOM      1  C   UNL d   1      -1.504  -3.051  -5.990  0.00  0.00     0.078 C 
ATOM      2  C1  UNL d   1      -2.816  -3.776  -5.984  0.00  0.00    -0.077 A 
ATOM      3  C2  UNL d   1      -2.867  -5.176  -5.989  0.00  0.00    -0.001 A 
ATOM      4  C3  UNL d   1      -4.096  -5.837  -5.993  0.00  0.00     0.003 A 
ATOM      5  C4  UNL d   1      -5.283  -5.108  -5.995  0.00  0.00    -0.005 A 
ATOM      6  C5  UNL d   1      -5.243  -3.715  -5.993  0.00  0.00     0.003 A 
ATOM      7  C6  UNL d   1      -4.015  -3.052  -5.988  0.00  0.00    -0.001 A 
ENDROOT
TORSDOF 0
ENDMDL
