MODEL 1
REMARK minimizedAffinity -0.0354070775
REMARK minimizedRMSD -1
REMARK  0 active torsions:
REMARK  status: ('A' for Active; 'I' for Inactive)
ROOT
ATOM      1  C   UNL d   1       5.842   3.751  -4.875  0.00  0.00     0.078 C 
ATOM      2  C1  UNL d   1       4.357   3.830  -5.067  0.00  0.00    -0.077 A 
ATOM      3  C2  UNL d   1       3.675   2.867  -5.821  0.00  0.00    -0.001 A 
ATOM      4  C3  UNL d   1       2.294   2.958  -6.000  0.00  0.00     0.003 A 
ATOM      5  C4  UNL d   1       1.583   4.012  -5.429  0.00  0.00    -0.005 A 
ATOM      6  C5  UNL d   1       2.253   4.976  -4.679  0.00  0.00     0.003 A 
ATOM      7  C6  UNL d   1       3.634   4.886  -4.499  0.00  0.00    -0.001 A 
ENDROOT
TORSDOF 0
ENDMDL
