MODEL 1
REMARK minimizedAffinity 8.35831738
REMARK minimizedRMSD -1
REMARK  0 active torsions:
REMARK  status: ('A' for Active; 'I' for Inactive)
ROOT
ATOM      1  C   UNL d   1      -4.887  -1.887   1.123  0.00  0.00     0.078 C 
ATOM      2  C1  UNL d   1      -4.484  -3.323   0.966  0.00  0.00    -0.077 A 
ATOM      3  C2  UNL d   1      -4.115  -4.093   2.076  0.00  0.00    -0.001 A 
ATOM      4  C3  UNL d   1      -3.733  -5.426   1.914  0.00  0.00     0.003 A 
ATOM      5  C4  UNL d   1      -3.715  -6.000   0.644  0.00  0.00    -0.005 A 
ATOM      6  C5  UNL d   1      -4.079  -5.240  -0.466  0.00  0.00     0.003 A 
ATOM      7  C6  UNL d   1      -4.462  -3.908  -0.306  0.00  0.00    -0.001 A 
ENDROOT
TORSDOF 0
ENDMDL
