MODEL 1
REMARK minimizedAffinity 9.69134521
REMARK minimizedRMSD -1
REMARK  0 active torsions:
REMARK  status: ('A' for Active; 'I' for Inactive)
ROOT
ATOM      1  C   UNL d   1      -5.914  -1.315   0.019  0.00  0.00     0.078 C 
ATOM      2  C1  UNL d   1      -5.941  -2.037  -1.295  0.00  0.00    -0.077 A 
ATOM      3  C2  UNL d   1      -5.954  -3.436  -1.349  0.00  0.00    -0.001 A 
ATOM      4  C3  UNL d   1      -5.969  -4.095  -2.579  0.00  0.00     0.003 A 
ATOM      5  C4  UNL d   1      -5.969  -3.363  -3.765  0.00  0.00    -0.005 A 
ATOM      6  C5  UNL d   1      -5.954  -1.971  -3.721  0.00  0.00     0.003 A 
ATOM      7  C6  UNL d   1      -5.939  -1.310  -2.492  0.00  0.00    -0.001 A 
ENDROOT
TORSDOF 0
ENDMDL
