MODEL 1
REMARK minimizedAffinity 3.20776343
REMARK minimizedRMSD -1
REMARK  0 active torsions:
REMARK  status: ('A' for Active; 'I' for Inactive)
ROOT
ATOM      1  C   UNL d   1       1.395   1.829  -0.917  0.00  0.00     0.078 C 
ATOM      2  C1  UNL d   1       0.908   0.954  -2.033  0.00  0.00    -0.077 A 
ATOM      3  C2  UNL d   1       1.500  -0.290  -2.285  0.00  0.00    -0.001 A 
ATOM      4  C3  UNL d   1       1.043  -1.089  -3.334  0.00  0.00     0.003 A 
ATOM      5  C4  UNL d   1      -0.008  -0.654  -4.139  0.00  0.00    -0.005 A 
ATOM      6  C5  UNL d   1      -0.601   0.583  -3.898  0.00  0.00     0.003 A 
ATOM      7  C6  UNL d   1      -0.146   1.384  -2.849  0.00  0.00    -0.001 A 
ENDROOT
TORSDOF 0
ENDMDL
