MODEL 1
REMARK minimizedAffinity 6.03766346
REMARK minimizedRMSD -1
REMARK  0 active torsions:
REMARK  status: ('A' for Active; 'I' for Inactive)
ROOT
ATOM      1  C   UNL d   1       2.696   0.125   3.388  0.00  0.00     0.078 C 
ATOM      2  C1  UNL d   1       1.215  -0.012   3.579  0.00  0.00    -0.077 A 
ATOM      3  C2  UNL d   1       0.671  -1.136   4.213  0.00  0.00    -0.001 A 
ATOM      4  C3  UNL d   1      -0.710  -1.255   4.375  0.00  0.00     0.003 A 
ATOM      5  C4  UNL d   1      -1.559  -0.255   3.905  0.00  0.00    -0.005 A 
ATOM      6  C5  UNL d   1      -1.027   0.866   3.271  0.00  0.00     0.003 A 
ATOM      7  C6  UNL d   1       0.354   0.987   3.108  0.00  0.00    -0.001 A 
ENDROOT
TORSDOF 0
ENDMDL
