MODEL 1
REMARK minimizedAffinity 7.74416637
REMARK minimizedRMSD -1
REMARK  0 active torsions:
REMARK  status: ('A' for Active; 'I' for Inactive)
ROOT
ATOM      1  C   UNL d   1       3.671   5.991  -3.201  0.00  0.00     0.078 C 
ATOM      2  C1  UNL d   1       3.810   4.853  -4.167  0.00  0.00    -0.077 A 
ATOM      3  C2  UNL d   1       4.958   4.051  -4.178  0.00  0.00    -0.001 A 
ATOM      4  C3  UNL d   1       5.078   3.001  -5.089  0.00  0.00     0.003 A 
ATOM      5  C4  UNL d   1       4.053   2.743  -5.997  0.00  0.00    -0.005 A 
ATOM      6  C5  UNL d   1       2.907   3.536  -5.996  0.00  0.00     0.003 A 
ATOM      7  C6  UNL d   1       2.786   4.587  -5.085  0.00  0.00    -0.001 A 
ENDROOT
TORSDOF 0
ENDMDL
