MODEL 1
REMARK minimizedAffinity 7.08555412
REMARK minimizedRMSD -1
REMARK  0 active torsions:
REMARK  status: ('A' for Active; 'I' for Inactive)
ROOT
ATOM      1  C   UNL d   1       1.660  -0.619  -3.697  0.00  0.00     0.078 C 
ATOM      2  C1  UNL d   1       1.947   0.266  -2.521  0.00  0.00    -0.077 A 
ATOM      3  C2  UNL d   1       0.911   0.744  -1.709  0.00  0.00    -0.001 A 
ATOM      4  C3  UNL d   1       1.192   1.576  -0.623  0.00  0.00     0.003 A 
ATOM      5  C4  UNL d   1       2.508   1.938  -0.341  0.00  0.00    -0.005 A 
ATOM      6  C5  UNL d   1       3.545   1.469  -1.145  0.00  0.00     0.003 A 
ATOM      7  C6  UNL d   1       3.266   0.637  -2.230  0.00  0.00    -0.001 A 
ENDROOT
TORSDOF 0
ENDMDL
