MODEL 1
REMARK minimizedAffinity 7.59359932
REMARK minimizedRMSD -1
REMARK  0 active torsions:
REMARK  status: ('A' for Active; 'I' for Inactive)
ROOT
ATOM      1  C   UNL d   1      -5.968  -0.750  -3.413  0.00  0.00     0.078 C 
ATOM      2  C1  UNL d   1      -5.972  -2.211  -3.071  0.00  0.00    -0.077 A 
ATOM      3  C2  UNL d   1      -5.979  -3.186  -4.076  0.00  0.00    -0.001 A 
ATOM      4  C3  UNL d   1      -5.992  -4.542  -3.743  0.00  0.00     0.003 A 
ATOM      5  C4  UNL d   1      -5.999  -4.934  -2.405  0.00  0.00    -0.005 A 
ATOM      6  C5  UNL d   1      -5.995  -3.970  -1.399  0.00  0.00     0.003 A 
ATOM      7  C6  UNL d   1      -5.982  -2.614  -1.730  0.00  0.00    -0.001 A 
ENDROOT
TORSDOF 0
ENDMDL
