MODEL 1
REMARK minimizedAffinity -2.33099747
REMARK minimizedRMSD -1
REMARK  0 active torsions:
REMARK  status: ('A' for Active; 'I' for Inactive)
ROOT
ATOM      1  O1  BZF d   1       3.789  -1.952   4.500  0.00  0.00    -0.204 OA
ATOM      2  C2  BZF d   1       4.774  -1.062   4.881  0.00  0.00     0.174 A 
ATOM      3  C3  BZF d   1       5.757  -1.694   5.554  0.00  0.00    -0.012 A 
ATOM      4  C3A BZF d   1       5.407  -3.081   5.517  0.00  0.00    -0.107 A 
ATOM      5  C4  BZF d   1       6.000  -4.212   5.999  0.00  0.00     0.055 A 
ATOM      6  C5  BZF d   1       5.362  -5.404   5.857  0.00  0.00    -0.016 A 
ATOM      7  C6  BZF d   1       4.131  -5.500   5.243  0.00  0.00     0.022 A 
ATOM      8  C7  BZF d   1       3.506  -4.406   4.744  0.00  0.00     0.029 A 
ATOM      9  C7A BZF d   1       4.162  -3.205   4.857  0.00  0.00     0.058 A 
ENDROOT
TORSDOF 0
ENDMDL
