MODEL 1
REMARK minimizedAffinity -1.67520916
REMARK minimizedRMSD -1
REMARK  0 active torsions:
REMARK  status: ('A' for Active; 'I' for Inactive)
ROOT
ATOM      1  O1  BZF d   1       4.442  -4.561   4.390  0.00  0.00    -0.204 OA
ATOM      2  C2  BZF d   1       5.228  -5.236   5.303  0.00  0.00     0.174 A 
ATOM      3  C3  BZF d   1       5.998  -4.375   6.000  0.00  0.00    -0.012 A 
ATOM      4  C3A BZF d   1       5.605  -3.074   5.555  0.00  0.00    -0.107 A 
ATOM      5  C4  BZF d   1       5.998  -1.809   5.888  0.00  0.00     0.055 A 
ATOM      6  C5  BZF d   1       5.469  -0.754   5.215  0.00  0.00    -0.016 A 
ATOM      7  C6  BZF d   1       4.551  -0.927   4.200  0.00  0.00     0.022 A 
ATOM      8  C7  BZF d   1       4.127  -2.162   3.837  0.00  0.00     0.029 A 
ATOM      9  C7A BZF d   1       4.635  -3.228   4.538  0.00  0.00     0.058 A 
ENDROOT
TORSDOF 0
ENDMDL
