MODEL 1
REMARK minimizedAffinity -2.2752676
REMARK minimizedRMSD -1
REMARK  0 active torsions:
REMARK  status: ('A' for Active; 'I' for Inactive)
ROOT
ATOM      1  O1  BZF d   1       5.991  -1.073   3.862  0.00  0.00    -0.204 OA
ATOM      2  C2  BZF d   1       5.651  -1.826   4.969  0.00  0.00     0.174 A 
ATOM      3  C3  BZF d   1       5.284  -1.031   5.994  0.00  0.00    -0.012 A 
ATOM      4  C3A BZF d   1       5.312   0.299   5.468  0.00  0.00    -0.107 A 
ATOM      5  C4  BZF d   1       5.031   1.525   6.000  0.00  0.00     0.055 A 
ATOM      6  C5  BZF d   1       5.230   2.635   5.241  0.00  0.00    -0.016 A 
ATOM      7  C6  BZF d   1       5.712   2.556   3.951  0.00  0.00     0.022 A 
ATOM      8  C7  BZF d   1       6.000   1.362   3.379  0.00  0.00     0.029 A 
ATOM      9  C7A BZF d   1       5.769   0.236   4.131  0.00  0.00     0.058 A 
ENDROOT
TORSDOF 0
ENDMDL
