MODEL 1
REMARK minimizedAffinity 6.6506319
REMARK minimizedRMSD -1
REMARK  0 active torsions:
REMARK  status: ('A' for Active; 'I' for Inactive)
ROOT
ATOM      1  O1  BZF d   1       5.087  -2.303   3.900  0.00  0.00    -0.204 OA
ATOM      2  C2  BZF d   1       5.633  -2.945   4.994  0.00  0.00     0.174 A 
ATOM      3  C3  BZF d   1       5.949  -2.059   5.960  0.00  0.00    -0.012 A 
ATOM      4  C3A BZF d   1       5.492  -0.794   5.475  0.00  0.00    -0.107 A 
ATOM      5  C4  BZF d   1       5.506   0.471   5.991  0.00  0.00     0.055 A 
ATOM      6  C5  BZF d   1       5.046   1.499   5.231  0.00  0.00    -0.016 A 
ATOM      7  C6  BZF d   1       4.571   1.301   3.952  0.00  0.00     0.022 A 
ATOM      8  C7  BZF d   1       4.533   0.064   3.399  0.00  0.00     0.029 A 
ATOM      9  C7A BZF d   1       4.966  -0.982   4.176  0.00  0.00     0.058 A 
ENDROOT
TORSDOF 0
ENDMDL
