MODEL 1
REMARK minimizedAffinity -1.73018861
REMARK minimizedRMSD -1
REMARK  0 active torsions:
REMARK  status: ('A' for Active; 'I' for Inactive)
ROOT
ATOM      1  O1  BZF d   1       5.999   2.311   3.786  0.00  0.00    -0.204 OA
ATOM      2  C2  BZF d   1       5.852   3.027   4.959  0.00  0.00     0.174 A 
ATOM      3  C3  BZF d   1       5.626   2.199   5.999  0.00  0.00    -0.012 A 
ATOM      4  C3A BZF d   1       5.723   0.878   5.457  0.00  0.00    -0.107 A 
ATOM      5  C4  BZF d   1       5.611  -0.370   6.000  0.00  0.00     0.055 A 
ATOM      6  C5  BZF d   1       5.687  -1.454   5.184  0.00  0.00    -0.016 A 
ATOM      7  C6  BZF d   1       5.870  -1.327   3.823  0.00  0.00     0.022 A 
ATOM      8  C7  BZF d   1       5.992  -0.110   3.239  0.00  0.00     0.029 A 
ATOM      9  C7A BZF d   1       5.948   0.987   4.066  0.00  0.00     0.058 A 
ENDROOT
TORSDOF 0
ENDMDL
