MODEL 1
REMARK minimizedAffinity 2.7920897
REMARK minimizedRMSD -1
REMARK  0 active torsions:
REMARK  status: ('A' for Active; 'I' for Inactive)
ROOT
ATOM      1  O1  BZF d   1       5.839   1.804   5.975  0.00  0.00    -0.204 OA
ATOM      2  C2  BZF d   1       5.996   3.176   5.987  0.00  0.00     0.174 A 
ATOM      3  C3  BZF d   1       5.827   3.688   4.751  0.00  0.00    -0.012 A 
ATOM      4  C3A BZF d   1       5.455   2.576   3.931  0.00  0.00    -0.107 A 
ATOM      5  C4  BZF d   1       5.138   2.449   2.609  0.00  0.00     0.055 A 
ATOM      6  C5  BZF d   1       4.893   1.211   2.104  0.00  0.00    -0.016 A 
ATOM      7  C6  BZF d   1       4.961   0.080   2.891  0.00  0.00     0.022 A 
ATOM      8  C7  BZF d   1       5.266   0.156   4.209  0.00  0.00     0.029 A 
ATOM      9  C7A BZF d   1       5.482   1.409   4.729  0.00  0.00     0.058 A 
ENDROOT
TORSDOF 0
ENDMDL
