MODEL 1
REMARK minimizedAffinity -1.99387503
REMARK minimizedRMSD -1
REMARK  0 active torsions:
REMARK  status: ('A' for Active; 'I' for Inactive)
ROOT
ATOM      1  O1  BZF d   1       5.640  -0.746   3.783  0.00  0.00    -0.204 OA
ATOM      2  C2  BZF d   1       5.787  -1.458   4.958  0.00  0.00     0.174 A 
ATOM      3  C3  BZF d   1       5.988  -0.626   6.000  0.00  0.00    -0.012 A 
ATOM      4  C3A BZF d   1       5.872   0.693   5.456  0.00  0.00    -0.107 A 
ATOM      5  C4  BZF d   1       5.956   1.943   5.999  0.00  0.00     0.055 A 
ATOM      6  C5  BZF d   1       5.869   3.025   5.182  0.00  0.00    -0.016 A 
ATOM      7  C6  BZF d   1       5.703   2.894   3.818  0.00  0.00     0.022 A 
ATOM      8  C7  BZF d   1       5.610   1.674   3.235  0.00  0.00     0.029 A 
ATOM      9  C7A BZF d   1       5.664   0.579   4.062  0.00  0.00     0.058 A 
ENDROOT
TORSDOF 0
ENDMDL
