MODEL 1
REMARK minimizedAffinity 5.77807236
REMARK minimizedRMSD -1
REMARK  0 active torsions:
REMARK  status: ('A' for Active; 'I' for Inactive)
ROOT
ATOM      1  O1  BZF d   1      -0.973  -0.712   1.768  0.00  0.00    -0.204 OA
ATOM      2  C2  BZF d   1      -1.401   0.024   2.856  0.00  0.00     0.174 A 
ATOM      3  C3  BZF d   1      -1.111   1.331   2.693  0.00  0.00    -0.012 A 
ATOM      4  C3A BZF d   1      -0.544   1.431   1.383  0.00  0.00    -0.107 A 
ATOM      5  C4  BZF d   1      -0.071   2.476   0.642  0.00  0.00     0.055 A 
ATOM      6  C5  BZF d   1       0.484   2.225  -0.573  0.00  0.00    -0.016 A 
ATOM      7  C6  BZF d   1       0.587   0.944  -1.074  0.00  0.00     0.022 A 
ATOM      8  C7  BZF d   1       0.128  -0.124  -0.378  0.00  0.00     0.029 A 
ATOM      9  C7A BZF d   1      -0.463   0.129   0.836  0.00  0.00     0.058 A 
ENDROOT
TORSDOF 0
ENDMDL
