MODEL 1
REMARK minimizedAffinity 0.657358289
REMARK minimizedRMSD -1
REMARK  0 active torsions:
REMARK  status: ('A' for Active; 'I' for Inactive)
ROOT
ATOM      1  O1  BZF d   1       5.623   2.527   3.789  0.00  0.00    -0.204 OA
ATOM      2  C2  BZF d   1       5.380   3.223   4.958  0.00  0.00     0.174 A 
ATOM      3  C3  BZF d   1       5.211   2.375   5.993  0.00  0.00    -0.012 A 
ATOM      4  C3A BZF d   1       5.448   1.071   5.454  0.00  0.00    -0.107 A 
ATOM      5  C4  BZF d   1       5.444  -0.183   5.995  0.00  0.00     0.055 A 
ATOM      6  C5  BZF d   1       5.644  -1.253   5.182  0.00  0.00    -0.016 A 
ATOM      7  C6  BZF d   1       5.844  -1.107   3.825  0.00  0.00     0.022 A 
ATOM      8  C7  BZF d   1       5.861   0.117   3.243  0.00  0.00     0.029 A 
ATOM      9  C7A BZF d   1       5.693   1.203   4.068  0.00  0.00     0.058 A 
ENDROOT
TORSDOF 0
ENDMDL
