MODEL 1
REMARK minimizedAffinity -2.86394167
REMARK minimizedRMSD -1
REMARK  0 active torsions:
REMARK  status: ('A' for Active; 'I' for Inactive)
ROOT
ATOM      1  O1  BZF d   1       6.000  -0.137   6.000  0.00  0.00    -0.204 OA
ATOM      2  C2  BZF d   1       5.891  -1.102   5.018  0.00  0.00     0.174 A 
ATOM      3  C3  BZF d   1       5.610  -0.541   3.824  0.00  0.00    -0.012 A 
ATOM      4  C3A BZF d   1       5.629   0.871   4.058  0.00  0.00    -0.107 A 
ATOM      5  C4  BZF d   1       5.438   1.958   3.255  0.00  0.00     0.055 A 
ATOM      6  C5  BZF d   1       5.451   3.199   3.809  0.00  0.00    -0.016 A 
ATOM      7  C6  BZF d   1       5.647   3.388   5.161  0.00  0.00     0.022 A 
ATOM      8  C7  BZF d   1       5.846   2.341   5.997  0.00  0.00     0.029 A 
ATOM      9  C7A BZF d   1       5.866   1.087   5.435  0.00  0.00     0.058 A 
ENDROOT
TORSDOF 0
ENDMDL
