MODEL 1
REMARK minimizedAffinity -0.755916476
REMARK minimizedRMSD -1
REMARK  0 active torsions:
REMARK  status: ('A' for Active; 'I' for Inactive)
ROOT
ATOM      1  O1  BZF d   1       4.773  -0.600   4.187  0.00  0.00    -0.204 OA
ATOM      2  C2  BZF d   1       5.377  -1.080   5.332  0.00  0.00     0.174 A 
ATOM      3  C3  BZF d   1       5.996  -0.085   6.000  0.00  0.00    -0.012 A 
ATOM      4  C3A BZF d   1       5.685   1.107   5.271  0.00  0.00    -0.107 A 
ATOM      5  C4  BZF d   1       6.000   2.424   5.448  0.00  0.00     0.055 A 
ATOM      6  C5  BZF d   1       5.600   3.329   4.516  0.00  0.00    -0.016 A 
ATOM      7  C6  BZF d   1       4.891   2.952   3.395  0.00  0.00     0.022 A 
ATOM      8  C7  BZF d   1       4.552   1.657   3.179  0.00  0.00     0.029 A 
ATOM      9  C7A BZF d   1       4.925   0.745   4.135  0.00  0.00     0.058 A 
ENDROOT
TORSDOF 0
ENDMDL
