MODEL 1
REMARK minimizedAffinity -2.82992268
REMARK minimizedRMSD -1
REMARK  0 active torsions:
REMARK  status: ('A' for Active; 'I' for Inactive)
ROOT
ATOM      1  O1  BZF d   1       4.962   1.599   3.534  0.00  0.00    -0.204 OA
ATOM      2  C2  BZF d   1       5.338   2.502   4.510  0.00  0.00     0.174 A 
ATOM      3  C3  BZF d   1       5.742   1.860   5.625  0.00  0.00    -0.012 A 
ATOM      4  C3A BZF d   1       5.698   0.468   5.295  0.00  0.00    -0.107 A 
ATOM      5  C4  BZF d   1       6.000  -0.671   5.986  0.00  0.00     0.055 A 
ATOM      6  C5  BZF d   1       5.777  -1.877   5.400  0.00  0.00    -0.016 A 
ATOM      7  C6  BZF d   1       5.250  -1.981   4.130  0.00  0.00     0.022 A 
ATOM      8  C7  BZF d   1       4.940  -0.879   3.403  0.00  0.00     0.029 A 
ATOM      9  C7A BZF d   1       5.195   0.341   3.980  0.00  0.00     0.058 A 
ENDROOT
TORSDOF 0
ENDMDL
