MODEL 1
REMARK minimizedAffinity -2.74221611
REMARK minimizedRMSD -1
REMARK  0 active torsions:
REMARK  status: ('A' for Active; 'I' for Inactive)
ROOT
ATOM      1  O1  BZF d   1       5.149  -0.147   3.941  0.00  0.00    -0.204 OA
ATOM      2  C2  BZF d   1       5.555  -0.757   5.112  0.00  0.00     0.174 A 
ATOM      3  C3  BZF d   1       6.000   0.157   5.999  0.00  0.00    -0.012 A 
ATOM      4  C3A BZF d   1       5.777   1.425   5.376  0.00  0.00    -0.107 A 
ATOM      5  C4  BZF d   1       5.998   2.715   5.766  0.00  0.00     0.055 A 
ATOM      6  C5  BZF d   1       5.737   3.723   4.893  0.00  0.00    -0.016 A 
ATOM      7  C6  BZF d   1       5.260   3.478   3.622  0.00  0.00     0.022 A 
ATOM      8  C7  BZF d   1       5.020   2.215   3.191  0.00  0.00     0.029 A 
ATOM      9  C7A BZF d   1       5.252   1.196   4.083  0.00  0.00     0.058 A 
ENDROOT
TORSDOF 0
ENDMDL
