MODEL 1
REMARK minimizedAffinity -1.26725221
REMARK minimizedRMSD -1
REMARK  0 active torsions:
REMARK  status: ('A' for Active; 'I' for Inactive)
ROOT
ATOM      1  O1  BZF d   1       5.941   0.504   3.747  0.00  0.00    -0.204 OA
ATOM      2  C2  BZF d   1       5.921   1.222   4.928  0.00  0.00     0.174 A 
ATOM      3  C3  BZF d   1       5.877   0.394   5.991  0.00  0.00    -0.012 A 
ATOM      4  C3A BZF d   1       5.963  -0.926   5.444  0.00  0.00    -0.107 A 
ATOM      5  C4  BZF d   1       5.984  -2.173   5.999  0.00  0.00     0.055 A 
ATOM      6  C5  BZF d   1       6.000  -3.259   5.183  0.00  0.00    -0.016 A 
ATOM      7  C6  BZF d   1       5.990  -3.135   3.809  0.00  0.00     0.022 A 
ATOM      8  C7  BZF d   1       5.975  -1.919   3.212  0.00  0.00     0.029 A 
ATOM      9  C7A BZF d   1       5.991  -0.819   4.034  0.00  0.00     0.058 A 
ENDROOT
TORSDOF 0
ENDMDL
