MODEL 1
REMARK minimizedAffinity -2.65238404
REMARK minimizedRMSD -1
REMARK  0 active torsions:
REMARK  status: ('A' for Active; 'I' for Inactive)
ROOT
ATOM      1  O1  BZF d   1       5.948   4.738   2.910  0.00  0.00    -0.204 OA
ATOM      2  C2  BZF d   1       5.918   5.715   3.886  0.00  0.00     0.174 A 
ATOM      3  C3  BZF d   1       5.867   5.163   5.115  0.00  0.00    -0.012 A 
ATOM      4  C3A BZF d   1       5.958   3.751   4.897  0.00  0.00    -0.107 A 
ATOM      5  C4  BZF d   1       5.976   2.672   5.733  0.00  0.00     0.055 A 
ATOM      6  C5  BZF d   1       5.999   1.423   5.199  0.00  0.00    -0.016 A 
ATOM      7  C6  BZF d   1       5.999   1.217   3.834  0.00  0.00     0.022 A 
ATOM      8  C7  BZF d   1       5.987   2.257   2.965  0.00  0.00     0.029 A 
ATOM      9  C7A BZF d   1       5.997   3.521   3.503  0.00  0.00     0.058 A 
ENDROOT
TORSDOF 0
ENDMDL
