MODEL 1
REMARK minimizedAffinity 13.2165403
REMARK minimizedRMSD -1
REMARK  0 active torsions:
REMARK  status: ('A' for Active; 'I' for Inactive)
ROOT
ATOM      1  O1  BZF d   1      -1.258  -1.536   2.573  0.00  0.00    -0.204 OA
ATOM      2  C2  BZF d   1      -1.476  -0.203   2.861  0.00  0.00     0.174 A 
ATOM      3  C3  BZF d   1      -0.864   0.588   1.956  0.00  0.00    -0.012 A 
ATOM      4  C3A BZF d   1      -0.301  -0.308   0.993  0.00  0.00    -0.107 A 
ATOM      5  C4  BZF d   1       0.416  -0.123  -0.155  0.00  0.00     0.055 A 
ATOM      6  C5  BZF d   1       0.879  -1.209  -0.826  0.00  0.00    -0.016 A 
ATOM      7  C6  BZF d   1       0.650  -2.493  -0.376  0.00  0.00     0.022 A 
ATOM      8  C7  BZF d   1      -0.060  -2.727   0.754  0.00  0.00     0.029 A 
ATOM      9  C7A BZF d   1      -0.558  -1.632   1.417  0.00  0.00     0.058 A 
ENDROOT
TORSDOF 0
ENDMDL
