MODEL 1
REMARK minimizedAffinity 5.54718542
REMARK minimizedRMSD -1
REMARK  0 active torsions:
REMARK  status: ('A' for Active; 'I' for Inactive)
ROOT
ATOM      1  O1  BZF d   1      -1.179  -1.164   0.114  0.00  0.00    -0.204 OA
ATOM      2  C2  BZF d   1      -1.051  -2.476   0.528  0.00  0.00     0.174 A 
ATOM      3  C3  BZF d   1      -0.035  -3.084  -0.119  0.00  0.00    -0.012 A 
ATOM      4  C3A BZF d   1       0.563  -2.064  -0.924  0.00  0.00    -0.107 A 
ATOM      5  C4  BZF d   1       1.626  -2.047  -1.781  0.00  0.00     0.055 A 
ATOM      6  C5  BZF d   1       1.904  -0.907  -2.466  0.00  0.00    -0.016 A 
ATOM      7  C6  BZF d   1       1.139   0.232  -2.322  0.00  0.00     0.022 A 
ATOM      8  C7  BZF d   1       0.078   0.265  -1.479  0.00  0.00     0.029 A 
ATOM      9  C7A BZF d   1      -0.186  -0.876  -0.761  0.00  0.00     0.058 A 
ENDROOT
TORSDOF 0
ENDMDL
