MODEL 1
REMARK minimizedAffinity -2.30427194
REMARK minimizedRMSD -1
REMARK  2 active torsions:
REMARK  status: ('A' for Active; 'I' for Inactive)
REMARK    1  A    between atoms: C2'_3  and  C1'_4 
REMARK    2  A    between atoms: C1'_4  and  C1_5 
ROOT
ATOM      1  C1  I4B d   1       0.321   0.023  -1.276  0.00  0.00    -0.075 A 
ATOM      2  C2  I4B d   1       0.545  -0.636  -2.459  0.00  0.00     0.003 A 
ATOM      3  C3  I4B d   1       1.845  -0.671  -3.020  0.00  0.00     0.002 A 
ATOM      4  C4  I4B d   1       2.873   0.004  -2.396  0.00  0.00    -0.004 A 
ATOM      5  C5  I4B d   1       2.649   0.652  -1.185  0.00  0.00     0.002 A 
ATOM      6  C6  I4B d   1       1.368   0.652  -0.614  0.00  0.00     0.003 A 
ENDROOT
BRANCH   1   7
ATOM      7  C1' I4B d   1      -1.070   0.068  -0.729  0.00  0.00     0.060 C 
BRANCH   7   8
ATOM      8  C2' I4B d   1      -0.989  -0.134   0.771  0.00  0.00    -0.013 C 
ATOM      9  C4' I4B d   1      -2.279   0.254   1.444  0.00  0.00     0.013 C 
ATOM     10  C3' I4B d   1      -0.656  -1.574   1.027  0.00  0.00     0.013 C 
ENDBRANCH   7   8
ENDBRANCH   1   7
TORSDOF 2
ENDMDL
