MODEL 1
REMARK minimizedAffinity -3.48155308
REMARK minimizedRMSD -1
REMARK  2 active torsions:
REMARK  status: ('A' for Active; 'I' for Inactive)
REMARK    1  A    between atoms: C2'_3  and  C1'_4 
REMARK    2  A    between atoms: C1'_4  and  C1_5 
ROOT
ATOM      1  C1  I4B d   1      -0.050  -0.054  -0.004  0.00  0.00    -0.075 A 
ATOM      2  C2  I4B d   1       0.431   1.202  -0.274  0.00  0.00     0.003 A 
ATOM      3  C3  I4B d   1       1.148   1.450  -1.470  0.00  0.00     0.002 A 
ATOM      4  C4  I4B d   1       1.402   0.408  -2.338  0.00  0.00    -0.004 A 
ATOM      5  C5  I4B d   1       0.893  -0.861  -2.074  0.00  0.00     0.002 A 
ATOM      6  C6  I4B d   1       0.152  -1.091  -0.906  0.00  0.00     0.003 A 
ENDROOT
BRANCH   1   7
ATOM      7  C1' I4B d   1      -0.775  -0.288   1.284  0.00  0.00     0.060 C 
BRANCH   7   8
ATOM      8  C2' I4B d   1      -2.101   0.442   1.212  0.00  0.00    -0.013 C 
ATOM      9  C4' I4B d   1      -3.247  -0.524   1.069  0.00  0.00     0.013 C 
ATOM     10  C3' I4B d   1      -2.241   1.269   2.456  0.00  0.00     0.013 C 
ENDBRANCH   7   8
ENDBRANCH   1   7
TORSDOF 2
ENDMDL
