MODEL 1
REMARK minimizedAffinity -1.28489447
REMARK minimizedRMSD -1
REMARK  2 active torsions:
REMARK  status: ('A' for Active; 'I' for Inactive)
REMARK    1  A    between atoms: C2'_3  and  C1'_4 
REMARK    2  A    between atoms: C1'_4  and  C1_5 
ROOT
ATOM      1  C1  I4B d   1      -2.868   1.958   1.992  0.00  0.00    -0.075 A 
ATOM      2  C2  I4B d   1      -3.954   1.154   2.234  0.00  0.00     0.003 A 
ATOM      3  C3  I4B d   1      -3.870  -0.243   2.016  0.00  0.00     0.002 A 
ATOM      4  C4  I4B d   1      -2.704  -0.783   1.511  0.00  0.00    -0.004 A 
ATOM      5  C5  I4B d   1      -1.597   0.031   1.288  0.00  0.00     0.002 A 
ATOM      6  C6  I4B d   1      -1.675   1.408   1.542  0.00  0.00     0.003 A 
ENDROOT
BRANCH   1   7
ATOM      7  C1' I4B d   1      -3.002   3.433   2.202  0.00  0.00     0.060 C 
BRANCH   7   8
ATOM      8  C2' I4B d   1      -2.914   3.702   3.691  0.00  0.00    -0.013 C 
ATOM      9  C4' I4B d   1      -1.859   4.733   3.997  0.00  0.00     0.013 C 
ATOM     10  C3' I4B d   1      -4.265   4.154   4.160  0.00  0.00     0.013 C 
ENDBRANCH   7   8
ENDBRANCH   1   7
TORSDOF 2
ENDMDL
