MODEL 1
REMARK minimizedAffinity -4.74277544
REMARK minimizedRMSD -1
REMARK  2 active torsions:
REMARK  status: ('A' for Active; 'I' for Inactive)
REMARK    1  A    between atoms: C2'_3  and  C1'_4 
REMARK    2  A    between atoms: C1'_4  and  C1_5 
ROOT
ATOM      1  C1  I4B d   1      -1.361   0.753   1.682  0.00  0.00    -0.075 A 
ATOM      2  C2  I4B d   1      -1.590   1.927   2.357  0.00  0.00     0.003 A 
ATOM      3  C3  I4B d   1      -2.914   2.377   2.574  0.00  0.00     0.002 A 
ATOM      4  C4  I4B d   1      -3.971   1.655   2.060  0.00  0.00    -0.004 A 
ATOM      5  C5  I4B d   1      -3.739   0.454   1.396  0.00  0.00     0.002 A 
ATOM      6  C6  I4B d   1      -2.427  -0.007   1.216  0.00  0.00     0.003 A 
ENDROOT
BRANCH   1   7
ATOM      7  C1' I4B d   1       0.051   0.323   1.441  0.00  0.00     0.060 C 
BRANCH   7   8
ATOM      8  C2' I4B d   1       0.204   0.030  -0.038  0.00  0.00    -0.013 C 
ATOM      9  C4' I4B d   1       1.232   0.932  -0.669  0.00  0.00     0.013 C 
ATOM     10  C3' I4B d   1       0.585  -1.412  -0.187  0.00  0.00     0.013 C 
ENDBRANCH   7   8
ENDBRANCH   1   7
TORSDOF 2
ENDMDL
