MODEL 1
REMARK minimizedAffinity -3.12656021
REMARK minimizedRMSD -1
REMARK  2 active torsions:
REMARK  status: ('A' for Active; 'I' for Inactive)
REMARK    1  A    between atoms: C2'_3  and  C1'_4 
REMARK    2  A    between atoms: C1'_4  and  C1_5 
ROOT
ATOM      1  C1  I4B d   1       0.193   0.067  -0.643  0.00  0.00    -0.075 A 
ATOM      2  C2  I4B d   1       1.504   0.449  -0.504  0.00  0.00     0.003 A 
ATOM      3  C3  I4B d   1       2.359   0.486  -1.632  0.00  0.00     0.002 A 
ATOM      4  C4  I4B d   1       1.878   0.088  -2.863  0.00  0.00    -0.004 A 
ATOM      5  C5  I4B d   1       0.543  -0.277  -3.006  0.00  0.00     0.002 A 
ATOM      6  C6  I4B d   1      -0.309  -0.276  -1.892  0.00  0.00     0.003 A 
ENDROOT
BRANCH   1   7
ATOM      7  C1' I4B d   1      -0.674   0.006   0.575  0.00  0.00     0.060 C 
BRANCH   7   8
ATOM      8  C2' I4B d   1      -0.203  -1.155   1.426  0.00  0.00    -0.013 C 
ATOM      9  C4' I4B d   1       0.344  -2.270   0.573  0.00  0.00     0.013 C 
ATOM     10  C3' I4B d   1       0.837  -0.641   2.376  0.00  0.00     0.013 C 
ENDBRANCH   7   8
ENDBRANCH   1   7
TORSDOF 2
ENDMDL
