MODEL 1
REMARK minimizedAffinity -4.6278553
REMARK minimizedRMSD -1
REMARK  2 active torsions:
REMARK  status: ('A' for Active; 'I' for Inactive)
REMARK    1  A    between atoms: C2'_3  and  C1'_4 
REMARK    2  A    between atoms: C1'_4  and  C1_5 
ROOT
ATOM      1  C1  I4B d   1       0.388  -0.298   0.037  0.00  0.00    -0.075 A 
ATOM      2  C2  I4B d   1       0.972   0.922  -0.198  0.00  0.00     0.003 A 
ATOM      3  C3  I4B d   1       1.769   1.120  -1.351  0.00  0.00     0.002 A 
ATOM      4  C4  I4B d   1       1.996   0.065  -2.210  0.00  0.00    -0.004 A 
ATOM      5  C5  I4B d   1       1.385  -1.165  -1.983  0.00  0.00     0.002 A 
ATOM      6  C6  I4B d   1       0.565  -1.345  -0.859  0.00  0.00     0.003 A 
ENDROOT
BRANCH   1   7
ATOM      7  C1' I4B d   1      -0.421  -0.483   1.282  0.00  0.00     0.060 C 
BRANCH   7   8
ATOM      8  C2' I4B d   1      -1.795   0.107   1.037  0.00  0.00    -0.013 C 
ATOM      9  C4' I4B d   1      -2.732  -0.918   0.455  0.00  0.00     0.013 C 
ATOM     10  C3' I4B d   1      -2.312   0.634   2.343  0.00  0.00     0.013 C 
ENDBRANCH   7   8
ENDBRANCH   1   7
TORSDOF 2
ENDMDL
