MODEL 1
REMARK minimizedAffinity -3.40621233
REMARK minimizedRMSD -1
REMARK  2 active torsions:
REMARK  status: ('A' for Active; 'I' for Inactive)
REMARK    1  A    between atoms: C2'_3  and  C1'_4 
REMARK    2  A    between atoms: C1'_4  and  C1_5 
ROOT
ATOM      1  C1  I4B d   1       0.148  -0.082   0.223  0.00  0.00    -0.075 A 
ATOM      2  C2  I4B d   1      -0.062  -0.819  -0.915  0.00  0.00     0.003 A 
ATOM      3  C3  I4B d   1       0.703  -0.567  -2.080  0.00  0.00     0.002 A 
ATOM      4  C4  I4B d   1       1.627   0.458  -2.077  0.00  0.00    -0.004 A 
ATOM      5  C5  I4B d   1       1.855   1.189  -0.915  0.00  0.00     0.002 A 
ATOM      6  C6  I4B d   1       1.120   0.910   0.246  0.00  0.00     0.003 A 
ENDROOT
BRANCH   1   7
ATOM      7  C1' I4B d   1      -0.701  -0.352   1.424  0.00  0.00     0.060 C 
BRANCH   7   8
ATOM      8  C2' I4B d   1      -2.031   0.346   1.223  0.00  0.00    -0.013 C 
ATOM      9  C4' I4B d   1      -3.111  -0.636   0.852  0.00  0.00     0.013 C 
ATOM     10  C3' I4B d   1      -2.370   1.071   2.491  0.00  0.00     0.013 C 
ENDBRANCH   7   8
ENDBRANCH   1   7
TORSDOF 2
ENDMDL
