MODEL 1
REMARK minimizedAffinity -4.19268274
REMARK minimizedRMSD -1
REMARK  2 active torsions:
REMARK  status: ('A' for Active; 'I' for Inactive)
REMARK    1  A    between atoms: C2'_3  and  C1'_4 
REMARK    2  A    between atoms: C1'_4  and  C1_5 
ROOT
ATOM      1  C1  I4B d   1       0.125  -0.131  -0.057  0.00  0.00    -0.075 A 
ATOM      2  C2  I4B d   1       0.965   0.951  -0.145  0.00  0.00     0.003 A 
ATOM      3  C3  I4B d   1       1.810   1.107  -1.270  0.00  0.00     0.002 A 
ATOM      4  C4  I4B d   1       1.820   0.139  -2.253  0.00  0.00    -0.004 A 
ATOM      5  C5  I4B d   1       0.950  -0.945  -2.174  0.00  0.00     0.002 A 
ATOM      6  C6  I4B d   1       0.089  -1.075  -1.075  0.00  0.00     0.003 A 
ENDROOT
BRANCH   1   7
ATOM      7  C1' I4B d   1      -0.730  -0.283   1.161  0.00  0.00     0.060 C 
BRANCH   7   8
ATOM      8  C2' I4B d   1      -2.077   0.347   0.867  0.00  0.00    -0.013 C 
ATOM      9  C4' I4B d   1      -3.076  -0.688   0.422  0.00  0.00     0.013 C 
ATOM     10  C3' I4B d   1      -2.540   1.049   2.109  0.00  0.00     0.013 C 
ENDBRANCH   7   8
ENDBRANCH   1   7
TORSDOF 2
ENDMDL
