MODEL 1
REMARK minimizedAffinity -3.5531199
REMARK minimizedRMSD -1
REMARK  2 active torsions:
REMARK  status: ('A' for Active; 'I' for Inactive)
REMARK    1  A    between atoms: C2'_3  and  C1'_4 
REMARK    2  A    between atoms: C1'_4  and  C1_5 
ROOT
ATOM      1  C1  I4B d   1      -0.020   0.058  -0.005  0.00  0.00    -0.075 A 
ATOM      2  C2  I4B d   1       1.297   0.431  -0.107  0.00  0.00     0.003 A 
ATOM      3  C3  I4B d   1       1.853   0.746  -1.371  0.00  0.00     0.002 A 
ATOM      4  C4  I4B d   1       1.075   0.627  -2.504  0.00  0.00    -0.004 A 
ATOM      5  C5  I4B d   1      -0.267   0.271  -2.397  0.00  0.00     0.002 A 
ATOM      6  C6  I4B d   1      -0.821  -0.004  -1.138  0.00  0.00     0.003 A 
ENDROOT
BRANCH   1   7
ATOM      7  C1' I4B d   1      -0.565  -0.301   1.341  0.00  0.00     0.060 C 
BRANCH   7   8
ATOM      8  C2' I4B d   1      -2.014   0.139   1.389  0.00  0.00    -0.013 C 
ATOM      9  C4' I4B d   1      -2.943  -1.046   1.411  0.00  0.00     0.013 C 
ATOM     10  C3' I4B d   1      -2.198   0.994   2.608  0.00  0.00     0.013 C 
ENDBRANCH   7   8
ENDBRANCH   1   7
TORSDOF 2
ENDMDL
