MODEL 1
REMARK minimizedAffinity -2.9924562
REMARK minimizedRMSD -1
REMARK  2 active torsions:
REMARK  status: ('A' for Active; 'I' for Inactive)
REMARK    1  A    between atoms: C2'_3  and  C1'_4 
REMARK    2  A    between atoms: C1'_4  and  C1_5 
ROOT
ATOM      1  C1  I4B d   1      -0.033  -0.532  -1.080  0.00  0.00    -0.075 A 
ATOM      2  C2  I4B d   1       0.345  -1.850  -1.128  0.00  0.00     0.003 A 
ATOM      3  C3  I4B d   1       0.282  -2.652   0.037  0.00  0.00     0.002 A 
ATOM      4  C4  I4B d   1      -0.115  -2.086   1.232  0.00  0.00    -0.004 A 
ATOM      5  C5  I4B d   1      -0.519  -0.755   1.274  0.00  0.00     0.002 A 
ATOM      6  C6  I4B d   1      -0.491   0.024   0.108  0.00  0.00     0.003 A 
ENDROOT
BRANCH   1   7
ATOM      7  C1' I4B d   1       0.077   0.295  -2.321  0.00  0.00     0.060 C 
BRANCH   7   8
ATOM      8  C2' I4B d   1       1.548   0.526  -2.599  0.00  0.00    -0.013 C 
ATOM      9  C4' I4B d   1       2.288   0.901  -1.343  0.00  0.00     0.013 C 
ATOM     10  C3' I4B d   1       2.107  -0.728  -3.203  0.00  0.00     0.013 C 
ENDBRANCH   7   8
ENDBRANCH   1   7
TORSDOF 2
ENDMDL
