MODEL 1
REMARK minimizedAffinity -3.43978477
REMARK minimizedRMSD -1
REMARK  2 active torsions:
REMARK  status: ('A' for Active; 'I' for Inactive)
REMARK    1  A    between atoms: C2'_3  and  C1'_4 
REMARK    2  A    between atoms: C1'_4  and  C1_5 
ROOT
ATOM      1  C1  I4B d   1       0.007  -0.178  -1.295  0.00  0.00    -0.075 A 
ATOM      2  C2  I4B d   1      -0.847  -1.048  -0.664  0.00  0.00     0.003 A 
ATOM      3  C3  I4B d   1      -1.079  -0.936   0.729  0.00  0.00     0.002 A 
ATOM      4  C4  I4B d   1      -0.401   0.022   1.455  0.00  0.00    -0.004 A 
ATOM      5  C5  I4B d   1       0.447   0.918   0.810  0.00  0.00     0.002 A 
ATOM      6  C6  I4B d   1       0.643   0.825  -0.576  0.00  0.00     0.003 A 
ENDROOT
BRANCH   1   7
ATOM      7  C1' I4B d   1       0.253  -0.346  -2.760  0.00  0.00     0.060 C 
BRANCH   7   8
ATOM      8  C2' I4B d   1       1.556  -1.101  -2.931  0.00  0.00    -0.013 C 
ATOM      9  C4' I4B d   1       2.728  -0.275  -2.471  0.00  0.00     0.013 C 
ATOM     10  C3' I4B d   1       1.455  -2.380  -2.155  0.00  0.00     0.013 C 
ENDBRANCH   7   8
ENDBRANCH   1   7
TORSDOF 2
ENDMDL
