MODEL 1
REMARK minimizedAffinity -4.75565004
REMARK minimizedRMSD -1
REMARK  2 active torsions:
REMARK  status: ('A' for Active; 'I' for Inactive)
REMARK    1  A    between atoms: C2'_3  and  C1'_4 
REMARK    2  A    between atoms: C1'_4  and  C1_5 
ROOT
ATOM      1  C1  I4B d   1       0.593   0.074  -0.962  0.00  0.00    -0.075 A 
ATOM      2  C2  I4B d   1       0.816  -0.978  -1.816  0.00  0.00     0.003 A 
ATOM      3  C3  I4B d   1       2.071  -1.124  -2.455  0.00  0.00     0.002 A 
ATOM      4  C4  I4B d   1       3.051  -0.174  -2.253  0.00  0.00    -0.004 A 
ATOM      5  C5  I4B d   1       2.831   0.879  -1.369  0.00  0.00     0.002 A 
ATOM      6  C6  I4B d   1       1.599   0.997  -0.710  0.00  0.00     0.003 A 
ENDROOT
BRANCH   1   7
ATOM      7  C1' I4B d   1      -0.755   0.215  -0.330  0.00  0.00     0.060 C 
BRANCH   7   8
ATOM      8  C2' I4B d   1      -0.588   0.056   1.168  0.00  0.00    -0.013 C 
ATOM      9  C4' I4B d   1      -1.775   0.608   1.911  0.00  0.00     0.013 C 
ATOM     10  C3' I4B d   1      -0.397  -1.403   1.459  0.00  0.00     0.013 C 
ENDBRANCH   7   8
ENDBRANCH   1   7
TORSDOF 2
ENDMDL
