MODEL 1
REMARK minimizedAffinity -4.67145061
REMARK minimizedRMSD -1
REMARK  0 active torsions:
REMARK  status: ('A' for Active; 'I' for Inactive)
ROOT
ATOM      1  C1  DEN d   1       3.427  -2.184  -0.241  0.00  0.00     0.130 A 
ATOM      2  C2  DEN d   1       3.608  -3.625  -0.397  0.00  0.00    -0.031 A 
ATOM      3  C3  DEN d   1       2.311  -4.280  -0.131  0.00  0.00     0.027 A 
ATOM      4  C4  DEN d   1       0.051  -3.208   0.497  0.00  0.00     0.027 A 
ATOM      5  C5  DEN d   1      -0.593  -2.019   0.757  0.00  0.00    -0.003 A 
ATOM      6  C6  DEN d   1       0.059  -0.814   0.736  0.00  0.00     0.001 A 
ATOM      7  C7  DEN d   1       1.387  -0.768   0.405  0.00  0.00     0.017 A 
ATOM      8  C8  DEN d   1       2.046  -1.963   0.148  0.00  0.00    -0.094 A 
ATOM      9  C9  DEN d   1       1.366  -3.169   0.163  0.00  0.00    -0.072 A 
ENDROOT
TORSDOF 0
ENDMDL
