MODEL 1
REMARK minimizedAffinity 0.772903502
REMARK minimizedRMSD -1
REMARK  0 active torsions:
REMARK  status: ('A' for Active; 'I' for Inactive)
ROOT
ATOM      1  C1  DEN d   1       2.161  -1.945  -0.744  0.00  0.00     0.130 A 
ATOM      2  C2  DEN d   1       2.381  -3.375  -0.548  0.00  0.00    -0.031 A 
ATOM      3  C3  DEN d   1       1.535  -3.817   0.578  0.00  0.00     0.027 A 
ATOM      4  C4  DEN d   1      -0.090  -2.434   2.028  0.00  0.00     0.027 A 
ATOM      5  C5  DEN d   1      -0.604  -1.176   2.248  0.00  0.00    -0.003 A 
ATOM      6  C6  DEN d   1      -0.212  -0.088   1.514  0.00  0.00     0.001 A 
ATOM      7  C7  DEN d   1       0.690  -0.246   0.494  0.00  0.00     0.017 A 
ATOM      8  C8  DEN d   1       1.219  -1.511   0.272  0.00  0.00    -0.094 A 
ATOM      9  C9  DEN d   1       0.800  -2.600   1.017  0.00  0.00    -0.072 A 
ENDROOT
TORSDOF 0
ENDMDL
