MODEL 1
REMARK minimizedAffinity 1.5112673
REMARK minimizedRMSD -1
REMARK  0 active torsions:
REMARK  status: ('A' for Active; 'I' for Inactive)
ROOT
ATOM      1  C1  DEN d   1       3.846  -2.770   0.076  0.00  0.00     0.130 A 
ATOM      2  C2  DEN d   1       3.809  -4.217  -0.117  0.00  0.00    -0.031 A 
ATOM      3  C3  DEN d   1       2.405  -4.659   0.004  0.00  0.00     0.027 A 
ATOM      4  C4  DEN d   1       0.295  -3.249   0.463  0.00  0.00     0.027 A 
ATOM      5  C5  DEN d   1      -0.174  -1.977   0.709  0.00  0.00    -0.003 A 
ATOM      6  C6  DEN d   1       0.661  -0.895   0.794  0.00  0.00     0.001 A 
ATOM      7  C7  DEN d   1       2.006  -1.057   0.587  0.00  0.00     0.017 A 
ATOM      8  C8  DEN d   1       2.487  -2.337   0.346  0.00  0.00    -0.094 A 
ATOM      9  C9  DEN d   1       1.625  -3.416   0.252  0.00  0.00    -0.072 A 
ENDROOT
TORSDOF 0
ENDMDL
