MODEL 1
REMARK minimizedAffinity -5.36855793
REMARK minimizedRMSD -1
REMARK  0 active torsions:
REMARK  status: ('A' for Active; 'I' for Inactive)
ROOT
ATOM      1  C1  DEN d   1      -1.706  -1.171   0.855  0.00  0.00     0.130 A 
ATOM      2  C2  DEN d   1      -1.542   0.242   1.182  0.00  0.00    -0.031 A 
ATOM      3  C3  DEN d   1      -0.096   0.533   1.239  0.00  0.00     0.027 A 
ATOM      4  C4  DEN d   1       1.896  -1.059   0.850  0.00  0.00     0.027 A 
ATOM      5  C5  DEN d   1       2.256  -2.356   0.558  0.00  0.00    -0.003 A 
ATOM      6  C6  DEN d   1       1.329  -3.348   0.379  0.00  0.00     0.001 A 
ATOM      7  C7  DEN d   1      -0.006  -3.050   0.446  0.00  0.00     0.017 A 
ATOM      8  C8  DEN d   1      -0.377  -1.746   0.748  0.00  0.00    -0.094 A 
ATOM      9  C9  DEN d   1       0.575  -0.754   0.913  0.00  0.00    -0.072 A 
ENDROOT
TORSDOF 0
ENDMDL
