MODEL 1
REMARK minimizedAffinity -4.00126219
REMARK minimizedRMSD -1
REMARK  0 active torsions:
REMARK  status: ('A' for Active; 'I' for Inactive)
ROOT
ATOM      1  C1  DEN d   1       2.275  -4.069   0.441  0.00  0.00     0.130 A 
ATOM      2  C2  DEN d   1       3.647  -3.668   0.143  0.00  0.00    -0.031 A 
ATOM      3  C3  DEN d   1       3.705  -2.192   0.158  0.00  0.00     0.027 A 
ATOM      4  C4  DEN d   1       1.815  -0.499   0.618  0.00  0.00     0.027 A 
ATOM      5  C5  DEN d   1       0.475  -0.364   0.907  0.00  0.00    -0.003 A 
ATOM      6  C6  DEN d   1      -0.359  -1.444   1.027  0.00  0.00     0.001 A 
ATOM      7  C7  DEN d   1       0.148  -2.710   0.901  0.00  0.00     0.017 A 
ATOM      8  C8  DEN d   1       1.496  -2.854   0.602  0.00  0.00    -0.094 A 
ATOM      9  C9  DEN d   1       2.326  -1.750   0.497  0.00  0.00    -0.072 A 
ENDROOT
TORSDOF 0
ENDMDL
