MODEL 1
REMARK minimizedAffinity -2.27421927
REMARK minimizedRMSD -1
REMARK  0 active torsions:
REMARK  status: ('A' for Active; 'I' for Inactive)
ROOT
ATOM      1  C1  DEN d   1      -5.331  -3.290   2.237  0.00  0.00     0.130 A 
ATOM      2  C2  DEN d   1      -5.137  -4.419   1.331  0.00  0.00    -0.031 A 
ATOM      3  C3  DEN d   1      -5.261  -5.662   2.118  0.00  0.00     0.027 A 
ATOM      4  C4  DEN d   1      -5.738  -5.948   4.637  0.00  0.00     0.027 A 
ATOM      5  C5  DEN d   1      -5.964  -5.279   5.819  0.00  0.00    -0.003 A 
ATOM      6  C6  DEN d   1      -5.962  -3.911   5.896  0.00  0.00     0.001 A 
ATOM      7  C7  DEN d   1      -5.773  -3.168   4.761  0.00  0.00     0.017 A 
ATOM      8  C8  DEN d   1      -5.537  -3.835   3.567  0.00  0.00    -0.094 A 
ATOM      9  C9  DEN d   1      -5.555  -5.218   3.507  0.00  0.00    -0.072 A 
ENDROOT
TORSDOF 0
ENDMDL
