MODEL 1
REMARK minimizedAffinity -0.482793182
REMARK minimizedRMSD -1
REMARK  0 active torsions:
REMARK  status: ('A' for Active; 'I' for Inactive)
ROOT
ATOM      1  C1  DEN d   1      -4.895  -3.007   2.532  0.00  0.00     0.130 A 
ATOM      2  C2  DEN d   1      -5.244  -3.822   1.371  0.00  0.00    -0.031 A 
ATOM      3  C3  DEN d   1      -5.738  -5.125   1.861  0.00  0.00     0.027 A 
ATOM      4  C4  DEN d   1      -5.999  -5.953   4.289  0.00  0.00     0.027 A 
ATOM      5  C5  DEN d   1      -5.821  -5.620   5.614  0.00  0.00    -0.003 A 
ATOM      6  C6  DEN d   1      -5.294  -4.416   6.000  0.00  0.00     0.001 A 
ATOM      7  C7  DEN d   1      -4.969  -3.482   5.052  0.00  0.00     0.017 A 
ATOM      8  C8  DEN d   1      -5.139  -3.813   3.714  0.00  0.00    -0.094 A 
ATOM      9  C9  DEN d   1      -5.684  -5.031   3.344  0.00  0.00    -0.072 A 
ENDROOT
TORSDOF 0
ENDMDL
