MODEL 1
REMARK minimizedAffinity 1.61303949
REMARK minimizedRMSD -1
REMARK  0 active torsions:
REMARK  status: ('A' for Active; 'I' for Inactive)
ROOT
ATOM      1  C1  DEN d   1       0.717  -4.143  -0.228  0.00  0.00     0.130 A 
ATOM      2  C2  DEN d   1       2.144  -4.448  -0.263  0.00  0.00    -0.031 A 
ATOM      3  C3  DEN d   1       2.875  -3.278   0.263  0.00  0.00     0.027 A 
ATOM      4  C4  DEN d   1       1.938  -1.036   1.130  0.00  0.00     0.027 A 
ATOM      5  C5  DEN d   1       0.789  -0.307   1.344  0.00  0.00    -0.003 A 
ATOM      6  C6  DEN d   1      -0.452  -0.789   1.021  0.00  0.00     0.001 A 
ATOM      7  C7  DEN d   1      -0.577  -2.052   0.507  0.00  0.00     0.017 A 
ATOM      8  C8  DEN d   1       0.578  -2.790   0.281  0.00  0.00    -0.094 A 
ATOM      9  C9  DEN d   1       1.822  -2.291   0.625  0.00  0.00    -0.072 A 
ENDROOT
TORSDOF 0
ENDMDL
