MODEL 1
REMARK minimizedAffinity -1.66378701
REMARK minimizedRMSD -1
REMARK  0 active torsions:
REMARK  status: ('A' for Active; 'I' for Inactive)
ROOT
ATOM      1  C1  DEN d   1       0.215  -2.901   0.628  0.00  0.00     0.130 A 
ATOM      2  C2  DEN d   1       0.215  -1.470   0.919  0.00  0.00    -0.031 A 
ATOM      3  C3  DEN d   1       1.611  -0.993   0.869  0.00  0.00     0.027 A 
ATOM      4  C4  DEN d   1       3.763  -2.324   0.367  0.00  0.00     0.027 A 
ATOM      5  C5  DEN d   1       4.269  -3.571   0.072  0.00  0.00    -0.003 A 
ATOM      6  C6  DEN d   1       3.470  -4.679  -0.025  0.00  0.00     0.001 A 
ATOM      7  C7  DEN d   1       2.114  -4.554   0.132  0.00  0.00     0.017 A 
ATOM      8  C8  DEN d   1       1.598  -3.302   0.437  0.00  0.00    -0.094 A 
ATOM      9  C9  DEN d   1       2.421  -2.191   0.518  0.00  0.00    -0.072 A 
ENDROOT
TORSDOF 0
ENDMDL
