MODEL 1
REMARK minimizedAffinity 1.29980028
REMARK minimizedRMSD -1
REMARK  0 active torsions:
REMARK  status: ('A' for Active; 'I' for Inactive)
ROOT
ATOM      1  C1  DEN d   1       0.847  -4.184   0.154  0.00  0.00     0.130 A 
ATOM      2  C2  DEN d   1       2.196  -4.549  -0.268  0.00  0.00    -0.031 A 
ATOM      3  C3  DEN d   1       3.036  -3.336  -0.213  0.00  0.00     0.027 A 
ATOM      4  C4  DEN d   1       2.382  -0.941   0.486  0.00  0.00     0.027 A 
ATOM      5  C5  DEN d   1       1.347  -0.139   0.912  0.00  0.00    -0.003 A 
ATOM      6  C6  DEN d   1       0.075  -0.618   1.082  0.00  0.00     0.001 A 
ATOM      7  C7  DEN d   1      -0.185  -1.946   0.867  0.00  0.00     0.017 A 
ATOM      8  C8  DEN d   1       0.852  -2.759   0.429  0.00  0.00    -0.094 A 
ATOM      9  C9  DEN d   1       2.134  -2.258   0.276  0.00  0.00    -0.072 A 
ENDROOT
TORSDOF 0
ENDMDL
