MODEL 1
REMARK minimizedAffinity -2.14750338
REMARK minimizedRMSD -1
REMARK  0 active torsions:
REMARK  status: ('A' for Active; 'I' for Inactive)
ROOT
ATOM      1  C1  DEN d   1       2.952   4.095  -5.480  0.00  0.00     0.130 A 
ATOM      2  C2  DEN d   1       3.513   3.596  -4.228  0.00  0.00    -0.031 A 
ATOM      3  C3  DEN d   1       2.591   3.964  -3.135  0.00  0.00     0.027 A 
ATOM      4  C4  DEN d   1       0.358   5.248  -3.260  0.00  0.00     0.027 A 
ATOM      5  C5  DEN d   1      -0.525   5.885  -4.104  0.00  0.00    -0.003 A 
ATOM      6  C6  DEN d   1      -0.296   5.998  -5.450  0.00  0.00     0.001 A 
ATOM      7  C7  DEN d   1       0.822   5.428  -5.999  0.00  0.00     0.017 A 
ATOM      8  C8  DEN d   1       1.720   4.790  -5.153  0.00  0.00    -0.094 A 
ATOM      9  C9  DEN d   1       1.465   4.675  -3.797  0.00  0.00    -0.072 A 
ENDROOT
TORSDOF 0
ENDMDL
