MODEL 1
REMARK minimizedAffinity -0.174037352
REMARK minimizedRMSD -1
REMARK  0 active torsions:
REMARK  status: ('A' for Active; 'I' for Inactive)
ROOT
ATOM      1  C1  DEN d   1       1.232  -0.492   1.650  0.00  0.00     0.130 A 
ATOM      2  C2  DEN d   1      -0.209  -0.373   1.853  0.00  0.00    -0.031 A 
ATOM      3  C3  DEN d   1      -0.851  -1.575   1.283  0.00  0.00     0.027 A 
ATOM      4  C4  DEN d   1       0.241  -3.599   0.116  0.00  0.00     0.027 A 
ATOM      5  C5  DEN d   1       1.435  -4.145  -0.300  0.00  0.00    -0.003 A 
ATOM      6  C6  DEN d   1       2.632  -3.502  -0.127  0.00  0.00     0.001 A 
ATOM      7  C7  DEN d   1       2.666  -2.294   0.518  0.00  0.00     0.017 A 
ATOM      8  C8  DEN d   1       1.466  -1.734   0.934  0.00  0.00    -0.094 A 
ATOM      9  C9  DEN d   1       0.267  -2.405   0.761  0.00  0.00    -0.072 A 
ENDROOT
TORSDOF 0
ENDMDL
