MODEL 1
REMARK minimizedAffinity 0.719066679
REMARK minimizedRMSD -1
REMARK  0 active torsions:
REMARK  status: ('A' for Active; 'I' for Inactive)
ROOT
ATOM      1  C1  DEN d   1       2.381  -3.209  -0.198  0.00  0.00     0.130 A 
ATOM      2  C2  DEN d   1       1.608  -4.387  -0.580  0.00  0.00    -0.031 A 
ATOM      3  C3  DEN d   1       0.201  -4.153  -0.198  0.00  0.00     0.027 A 
ATOM      4  C4  DEN d   1      -0.851  -2.091   0.939  0.00  0.00     0.027 A 
ATOM      5  C5  DEN d   1      -0.591  -0.845   1.465  0.00  0.00    -0.003 A 
ATOM      6  C6  DEN d   1       0.673  -0.318   1.504  0.00  0.00     0.001 A 
ATOM      7  C7  DEN d   1       1.719  -1.021   0.967  0.00  0.00     0.017 A 
ATOM      8  C8  DEN d   1       1.466  -2.281   0.442  0.00  0.00    -0.094 A 
ATOM      9  C9  DEN d   1       0.179  -2.791   0.400  0.00  0.00    -0.072 A 
ENDROOT
TORSDOF 0
ENDMDL
