MODEL 1
REMARK minimizedAffinity -1.21595681
REMARK minimizedRMSD -1
REMARK  0 active torsions:
REMARK  status: ('A' for Active; 'I' for Inactive)
ROOT
ATOM      1  C1  DEN d   1       1.452  -0.309   0.660  0.00  0.00     0.130 A 
ATOM      2  C2  DEN d   1       0.010  -0.297   0.889  0.00  0.00    -0.031 A 
ATOM      3  C3  DEN d   1      -0.487  -1.680   0.740  0.00  0.00     0.027 A 
ATOM      4  C4  DEN d   1       0.830  -3.826   0.184  0.00  0.00     0.027 A 
ATOM      5  C5  DEN d   1       2.077  -4.335  -0.107  0.00  0.00    -0.003 A 
ATOM      6  C6  DEN d   1       3.187  -3.538  -0.195  0.00  0.00     0.001 A 
ATOM      7  C7  DEN d   1       3.081  -2.196   0.054  0.00  0.00     0.017 A 
ATOM      8  C8  DEN d   1       1.827  -1.675   0.341  0.00  0.00    -0.094 A 
ATOM      9  C9  DEN d   1       0.718  -2.498   0.438  0.00  0.00    -0.072 A 
ENDROOT
TORSDOF 0
ENDMDL
