MODEL 1
REMARK minimizedAffinity 5.09628868
REMARK minimizedRMSD -1
REMARK  0 active torsions:
REMARK  status: ('A' for Active; 'I' for Inactive)
ROOT
ATOM      1  C1  DEN d   1       2.080  -3.640   0.758  0.00  0.00     0.130 A 
ATOM      2  C2  DEN d   1       1.521  -4.397  -0.360  0.00  0.00    -0.031 A 
ATOM      3  C3  DEN d   1       0.264  -3.742  -0.771  0.00  0.00     0.027 A 
ATOM      4  C4  DEN d   1      -0.865  -1.638   0.204  0.00  0.00     0.027 A 
ATOM      5  C5  DEN d   1      -0.772  -0.659   1.169  0.00  0.00    -0.003 A 
ATOM      6  C6  DEN d   1       0.252  -0.625   2.078  0.00  0.00     0.001 A 
ATOM      7  C7  DEN d   1       1.249  -1.563   2.013  0.00  0.00     0.017 A 
ATOM      8  C8  DEN d   1       1.158  -2.557   1.048  0.00  0.00    -0.094 A 
ATOM      9  C9  DEN d   1       0.121  -2.567   0.130  0.00  0.00    -0.072 A 
ENDROOT
TORSDOF 0
ENDMDL
