MODEL 1
REMARK minimizedAffinity -1.70545483
REMARK minimizedRMSD -1
REMARK  0 active torsions:
REMARK  status: ('A' for Active; 'I' for Inactive)
ROOT
ATOM      1  C1  DEN d   1       3.169  -1.913  -0.281  0.00  0.00     0.130 A 
ATOM      2  C2  DEN d   1       3.155  -3.361  -0.467  0.00  0.00    -0.031 A 
ATOM      3  C3  DEN d   1       1.797  -3.849  -0.149  0.00  0.00     0.027 A 
ATOM      4  C4  DEN d   1      -0.274  -2.508   0.603  0.00  0.00     0.027 A 
ATOM      5  C5  DEN d   1      -0.746  -1.251   0.912  0.00  0.00    -0.003 A 
ATOM      6  C6  DEN d   1       0.055  -0.141   0.877  0.00  0.00     0.001 A 
ATOM      7  C7  DEN d   1       1.362  -0.259   0.483  0.00  0.00     0.017 A 
ATOM      8  C8  DEN d   1       1.848  -1.524   0.177  0.00  0.00    -0.094 A 
ATOM      9  C9  DEN d   1       1.018  -2.632   0.207  0.00  0.00    -0.072 A 
ENDROOT
TORSDOF 0
ENDMDL
