MODEL 1
REMARK minimizedAffinity -4.76893282
REMARK minimizedRMSD -1
REMARK  3 active torsions:
REMARK  status: ('A' for Active; 'I' for Inactive)
REMARK    1  A    between atoms: C3'_2  and  C2'_3 
REMARK    2  A    between atoms: C2'_3  and  C1'_4 
REMARK    3  A    between atoms: C1'_4  and  C1_5 
ROOT
ATOM      1  C1  N4B d   1       0.178   0.604  -0.178  0.00  0.00    -0.075 A 
ATOM      2  C2  N4B d   1       0.102   0.721   1.227  0.00  0.00     0.002 A 
ATOM      3  C3  N4B d   1      -0.421   1.857   1.794  0.00  0.00     0.002 A 
ATOM      4  C4  N4B d   1      -0.856   2.892   0.981  0.00  0.00    -0.004 A 
ATOM      5  C5  N4B d   1      -0.803   2.761  -0.376  0.00  0.00     0.002 A 
ATOM      6  C6  N4B d   1      -0.283   1.623  -0.960  0.00  0.00     0.002 A 
ENDROOT
BRANCH   1   7
ATOM      7  C1' N4B d   1       0.820  -0.583  -0.843  0.00  0.00     0.057 C 
BRANCH   7   8
ATOM      8  C2' N4B d   1      -0.191  -1.722  -0.921  0.00  0.00     0.009 C 
BRANCH   8   9
ATOM      9  C3' N4B d   1       0.479  -3.060  -1.184  0.00  0.00     0.004 C 
ATOM     10  C4' N4B d   1      -0.183  -4.194  -0.460  0.00  0.00     0.003 C 
ENDBRANCH   8   9
ENDBRANCH   7   8
ENDBRANCH   1   7
TORSDOF 3
ENDMDL
