MODEL 1
REMARK minimizedAffinity 0.602531493
REMARK minimizedRMSD -1
REMARK  3 active torsions:
REMARK  status: ('A' for Active; 'I' for Inactive)
REMARK    1  A    between atoms: C3'_2  and  C2'_3 
REMARK    2  A    between atoms: C2'_3  and  C1'_4 
REMARK    3  A    between atoms: C1'_4  and  C1_5 
ROOT
ATOM      1  C1  N4B d   1      -0.189  -0.068   0.283  0.00  0.00    -0.075 A 
ATOM      2  C2  N4B d   1       0.092   0.856  -0.747  0.00  0.00     0.002 A 
ATOM      3  C3  N4B d   1       0.495   2.131  -0.435  0.00  0.00     0.002 A 
ATOM      4  C4  N4B d   1       0.604   2.509   0.895  0.00  0.00    -0.004 A 
ATOM      5  C5  N4B d   1       0.355   1.603   1.884  0.00  0.00     0.002 A 
ATOM      6  C6  N4B d   1      -0.047   0.317   1.585  0.00  0.00     0.002 A 
ENDROOT
BRANCH   1   7
ATOM      7  C1' N4B d   1      -0.715  -1.447  -0.009  0.00  0.00     0.057 C 
BRANCH   7   8
ATOM      8  C2' N4B d   1       0.437  -2.446   0.054  0.00  0.00     0.009 C 
BRANCH   8   9
ATOM      9  C3' N4B d   1      -0.053  -3.882  -0.001  0.00  0.00     0.004 C 
ATOM     10  C4' N4B d   1       1.011  -4.873   0.367  0.00  0.00     0.003 C 
ENDBRANCH   8   9
ENDBRANCH   7   8
ENDBRANCH   1   7
TORSDOF 3
ENDMDL
