MODEL 1
REMARK minimizedAffinity -1.33465087
REMARK minimizedRMSD -1
REMARK  0 active torsions:
REMARK  status: ('A' for Active; 'I' for Inactive)
ROOT
ATOM      1  C1  BNZ d   1       0.089   0.600   1.325  0.00  0.00     0.000 A 
ATOM      2  C2  BNZ d   1       1.279   0.399   0.677  0.00  0.00     0.000 A 
ATOM      3  C3  BNZ d   1       1.371  -0.483  -0.363  0.00  0.00     0.000 A 
ATOM      4  C4  BNZ d   1       0.283  -1.194  -0.727  0.00  0.00     0.000 A 
ATOM      5  C5  BNZ d   1      -0.921  -1.010  -0.077  0.00  0.00     0.000 A 
ATOM      6  C6  BNZ d   1      -1.019  -0.092   0.943  0.00  0.00     0.000 A 
ENDROOT
TORSDOF 0
ENDMDL
