MODEL 1
REMARK minimizedAffinity -2.51726627
REMARK minimizedRMSD -1
REMARK  0 active torsions:
REMARK  status: ('A' for Active; 'I' for Inactive)
ROOT
ATOM      1  C1  BNZ d   1       0.649   1.859   2.272  0.00  0.00     0.000 A 
ATOM      2  C2  BNZ d   1       1.735   2.180   3.043  0.00  0.00     0.000 A 
ATOM      3  C3  BNZ d   1       3.001   1.877   2.627  0.00  0.00     0.000 A 
ATOM      4  C4  BNZ d   1       3.178   1.219   1.464  0.00  0.00     0.000 A 
ATOM      5  C5  BNZ d   1       2.093   0.880   0.681  0.00  0.00     0.000 A 
ATOM      6  C6  BNZ d   1       0.822   1.221   1.083  0.00  0.00     0.000 A 
ENDROOT
TORSDOF 0
ENDMDL
