MODEL 1
REMARK minimizedAffinity 1.62470937
REMARK minimizedRMSD -1
REMARK  0 active torsions:
REMARK  status: ('A' for Active; 'I' for Inactive)
ROOT
ATOM      1  C1  BNZ d   1      -0.540   0.543   2.038  0.00  0.00     0.000 A 
ATOM      2  C2  BNZ d   1      -0.288  -0.198   0.914  0.00  0.00     0.000 A 
ATOM      3  C3  BNZ d   1       0.727   0.143   0.065  0.00  0.00     0.000 A 
ATOM      4  C4  BNZ d   1       1.463   1.244   0.318  0.00  0.00     0.000 A 
ATOM      5  C5  BNZ d   1       1.216   2.006   1.443  0.00  0.00     0.000 A 
ATOM      6  C6  BNZ d   1       0.218   1.638   2.316  0.00  0.00     0.000 A 
ENDROOT
TORSDOF 0
ENDMDL
