MODEL 1
REMARK minimizedAffinity -1.38551009
REMARK minimizedRMSD -1
REMARK  0 active torsions:
REMARK  status: ('A' for Active; 'I' for Inactive)
ROOT
ATOM      1  C1  BNZ d   1      -0.650  -3.930   1.836  0.00  0.00     0.000 A 
ATOM      2  C2  BNZ d   1      -1.033  -5.245   1.828  0.00  0.00     0.000 A 
ATOM      3  C3  BNZ d   1      -2.147  -5.645   1.144  0.00  0.00     0.000 A 
ATOM      4  C4  BNZ d   1      -2.898  -4.725   0.504  0.00  0.00     0.000 A 
ATOM      5  C5  BNZ d   1      -2.530  -3.394   0.511  0.00  0.00     0.000 A 
ATOM      6  C6  BNZ d   1      -1.386  -3.001   1.168  0.00  0.00     0.000 A 
ENDROOT
TORSDOF 0
ENDMDL
