MODEL 1
REMARK minimizedAffinity -2.01255989
REMARK minimizedRMSD -1
REMARK  0 active torsions:
REMARK  status: ('A' for Active; 'I' for Inactive)
ROOT
ATOM      1  C1  BNZ d   1       1.520   1.462  -1.634  0.00  0.00     0.000 A 
ATOM      2  C2  BNZ d   1       0.594   1.525  -2.642  0.00  0.00     0.000 A 
ATOM      3  C3  BNZ d   1      -0.099   0.412  -3.026  0.00  0.00     0.000 A 
ATOM      4  C4  BNZ d   1       0.162  -0.770  -2.432  0.00  0.00     0.000 A 
ATOM      5  C5  BNZ d   1       1.099  -0.852  -1.421  0.00  0.00     0.000 A 
ATOM      6  C6  BNZ d   1       1.767   0.278  -1.010  0.00  0.00     0.000 A 
ENDROOT
TORSDOF 0
ENDMDL
