MODEL 1
REMARK minimizedAffinity -0.665090382
REMARK minimizedRMSD -1
REMARK  0 active torsions:
REMARK  status: ('A' for Active; 'I' for Inactive)
ROOT
ATOM      1  C1  BNZ d   1      -1.246   2.331   1.816  0.00  0.00     0.000 A 
ATOM      2  C2  BNZ d   1      -0.222   2.914   1.117  0.00  0.00     0.000 A 
ATOM      3  C3  BNZ d   1       1.068   2.494   1.284  0.00  0.00     0.000 A 
ATOM      4  C4  BNZ d   1       1.337   1.521   2.179  0.00  0.00     0.000 A 
ATOM      5  C5  BNZ d   1       0.318   0.931   2.899  0.00  0.00     0.000 A 
ATOM      6  C6  BNZ d   1      -0.984   1.329   2.699  0.00  0.00     0.000 A 
ENDROOT
TORSDOF 0
ENDMDL
