MODEL 1
REMARK minimizedAffinity 1.14268315
REMARK minimizedRMSD -1
REMARK  0 active torsions:
REMARK  status: ('A' for Active; 'I' for Inactive)
ROOT
ATOM      1  C1  BNZ d   1       1.847  -0.167  -0.450  0.00  0.00     0.000 A 
ATOM      2  C2  BNZ d   1       0.681   0.300  -0.995  0.00  0.00     0.000 A 
ATOM      3  C3  BNZ d   1       0.516   0.361  -2.350  0.00  0.00     0.000 A 
ATOM      4  C4  BNZ d   1       1.531  -0.006  -3.159  0.00  0.00     0.000 A 
ATOM      5  C5  BNZ d   1       2.717  -0.471  -2.625  0.00  0.00     0.000 A 
ATOM      6  C6  BNZ d   1       2.865  -0.568  -1.261  0.00  0.00     0.000 A 
ENDROOT
TORSDOF 0
ENDMDL
