MODEL 1
REMARK minimizedAffinity 6.76773739
REMARK minimizedRMSD -1
REMARK  0 active torsions:
REMARK  status: ('A' for Active; 'I' for Inactive)
ROOT
ATOM      1  C1  BNZ d   1       0.226   2.951   2.064  0.00  0.00     0.000 A 
ATOM      2  C2  BNZ d   1      -1.081   2.901   1.661  0.00  0.00     0.000 A 
ATOM      3  C3  BNZ d   1      -1.820   1.762   1.821  0.00  0.00     0.000 A 
ATOM      4  C4  BNZ d   1      -1.240   0.663   2.345  0.00  0.00     0.000 A 
ATOM      5  C5  BNZ d   1       0.080   0.695   2.747  0.00  0.00     0.000 A 
ATOM      6  C6  BNZ d   1       0.810   1.855   2.621  0.00  0.00     0.000 A 
ENDROOT
TORSDOF 0
ENDMDL
