MODEL 1
REMARK minimizedAffinity 0.262272239
REMARK minimizedRMSD -1
REMARK  0 active torsions:
REMARK  status: ('A' for Active; 'I' for Inactive)
ROOT
ATOM      1  C1  BNZ d   1      -3.799  -3.110  -1.740  0.00  0.00     0.000 A 
ATOM      2  C2  BNZ d   1      -2.684  -3.731  -1.244  0.00  0.00     0.000 A 
ATOM      3  C3  BNZ d   1      -2.686  -5.074  -0.988  0.00  0.00     0.000 A 
ATOM      4  C4  BNZ d   1      -3.814  -5.785  -1.189  0.00  0.00     0.000 A 
ATOM      5  C5  BNZ d   1      -4.950  -5.172  -1.680  0.00  0.00     0.000 A 
ATOM      6  C6  BNZ d   1      -4.932  -3.827  -1.973  0.00  0.00     0.000 A 
ENDROOT
TORSDOF 0
ENDMDL
