MODEL 1
REMARK minimizedAffinity -3.71012807
REMARK minimizedRMSD -1
REMARK  0 active torsions:
REMARK  status: ('A' for Active; 'I' for Inactive)
ROOT
ATOM      1  C1  BNZ d   1      -0.394   3.240   1.549  0.00  0.00     0.000 A 
ATOM      2  C2  BNZ d   1      -1.219   2.180   1.816  0.00  0.00     0.000 A 
ATOM      3  C3  BNZ d   1      -0.755   0.897   1.746  0.00  0.00     0.000 A 
ATOM      4  C4  BNZ d   1       0.521   0.673   1.369  0.00  0.00     0.000 A 
ATOM      5  C5  BNZ d   1       1.362   1.731   1.088  0.00  0.00     0.000 A 
ATOM      6  C6  BNZ d   1       0.902   3.023   1.198  0.00  0.00     0.000 A 
ENDROOT
TORSDOF 0
ENDMDL
