MODEL 1
REMARK minimizedAffinity 6.82466412
REMARK minimizedRMSD -1
REMARK  0 active torsions:
REMARK  status: ('A' for Active; 'I' for Inactive)
ROOT
ATOM      1  C1  BNZ d   1       2.581   1.474   1.097  0.00  0.00     0.000 A 
ATOM      2  C2  BNZ d   1       3.363   1.087   0.042  0.00  0.00     0.000 A 
ATOM      3  C3  BNZ d   1       3.028   0.001  -0.717  0.00  0.00     0.000 A 
ATOM      4  C4  BNZ d   1       1.934  -0.720  -0.396  0.00  0.00     0.000 A 
ATOM      5  C5  BNZ d   1       1.140  -0.348   0.671  0.00  0.00     0.000 A 
ATOM      6  C6  BNZ d   1       1.459   0.769   1.408  0.00  0.00     0.000 A 
ENDROOT
TORSDOF 0
ENDMDL
