MODEL 1
REMARK minimizedAffinity 9.07066822
REMARK minimizedRMSD -1
REMARK  0 active torsions:
REMARK  status: ('A' for Active; 'I' for Inactive)
ROOT
ATOM      1  C1  BNZ d   1       0.569   2.505   2.337  0.00  0.00     0.000 A 
ATOM      2  C2  BNZ d   1      -0.612   2.416   1.649  0.00  0.00     0.000 A 
ATOM      3  C3  BNZ d   1      -1.511   1.426   1.928  0.00  0.00     0.000 A 
ATOM      4  C4  BNZ d   1      -1.212   0.503   2.865  0.00  0.00     0.000 A 
ATOM      5  C5  BNZ d   1      -0.022   0.574   3.561  0.00  0.00     0.000 A 
ATOM      6  C6  BNZ d   1       0.864   1.595   3.305  0.00  0.00     0.000 A 
ENDROOT
TORSDOF 0
ENDMDL
