MODEL 1
REMARK minimizedAffinity -1.50099385
REMARK minimizedRMSD -1
REMARK  0 active torsions:
REMARK  status: ('A' for Active; 'I' for Inactive)
ROOT
ATOM      1  C1  BNZ d   1      -4.499   4.906   1.606  0.00  0.00     0.000 A 
ATOM      2  C2  BNZ d   1      -4.500   3.813   2.431  0.00  0.00     0.000 A 
ATOM      3  C3  BNZ d   1      -5.256   3.796   3.569  0.00  0.00     0.000 A 
ATOM      4  C4  BNZ d   1      -5.980   4.885   3.901  0.00  0.00     0.000 A 
ATOM      5  C5  BNZ d   1      -5.983   5.998   3.085  0.00  0.00     0.000 A 
ATOM      6  C6  BNZ d   1      -5.250   5.997   1.920  0.00  0.00     0.000 A 
ENDROOT
TORSDOF 0
ENDMDL
