MODEL 1
REMARK minimizedAffinity -2.43212581
REMARK minimizedRMSD -1
REMARK  0 active torsions:
REMARK  status: ('A' for Active; 'I' for Inactive)
ROOT
ATOM      1  C1  BNZ d   1       0.392   0.050   0.893  0.00  0.00     0.000 A 
ATOM      2  C2  BNZ d   1       1.145   1.050   1.448  0.00  0.00     0.000 A 
ATOM      3  C3  BNZ d   1       0.568   2.004   2.239  0.00  0.00     0.000 A 
ATOM      4  C4  BNZ d   1      -0.765   1.980   2.441  0.00  0.00     0.000 A 
ATOM      5  C5  BNZ d   1      -1.539   0.984   1.881  0.00  0.00     0.000 A 
ATOM      6  C6  BNZ d   1      -0.950   0.003   1.118  0.00  0.00     0.000 A 
ENDROOT
TORSDOF 0
ENDMDL
