MODEL 1
REMARK minimizedAffinity -1.37644351
REMARK minimizedRMSD -1
REMARK  0 active torsions:
REMARK  status: ('A' for Active; 'I' for Inactive)
ROOT
ATOM      1  C1  BNZ d   1       1.044   0.660   0.116  0.00  0.00     0.000 A 
ATOM      2  C2  BNZ d   1       1.539   1.902   0.413  0.00  0.00     0.000 A 
ATOM      3  C3  BNZ d   1       0.808   2.789   1.151  0.00  0.00     0.000 A 
ATOM      4  C4  BNZ d   1      -0.433   2.450   1.556  0.00  0.00     0.000 A 
ATOM      5  C5  BNZ d   1      -0.951   1.206   1.257  0.00  0.00     0.000 A 
ATOM      6  C6  BNZ d   1      -0.196   0.300   0.547  0.00  0.00     0.000 A 
ENDROOT
TORSDOF 0
ENDMDL
