MODEL 1
REMARK minimizedAffinity 5.6213727
REMARK minimizedRMSD -1
REMARK  0 active torsions:
REMARK  status: ('A' for Active; 'I' for Inactive)
ROOT
ATOM      1  C1  BNZ d   1       0.211   1.129   1.017  0.00  0.00     0.000 A 
ATOM      2  C2  BNZ d   1       0.683   0.220   0.109  0.00  0.00     0.000 A 
ATOM      3  C3  BNZ d   1       2.020   0.133  -0.165  0.00  0.00     0.000 A 
ATOM      4  C4  BNZ d   1       2.876   0.982   0.439  0.00  0.00     0.000 A 
ATOM      5  C5  BNZ d   1       2.414   1.911   1.350  0.00  0.00     0.000 A 
ATOM      6  C6  BNZ d   1       1.073   1.969   1.652  0.00  0.00     0.000 A 
ENDROOT
TORSDOF 0
ENDMDL
