MODEL 1
REMARK minimizedAffinity -3.53378582
REMARK minimizedRMSD -1
REMARK  3 active torsions:
REMARK  status: ('A' for Active; 'I' for Inactive)
REMARK    1  A    between atoms: C3'_2  and  C2'_3 
REMARK    2  A    between atoms: C2'_3  and  C1'_4 
REMARK    3  A    between atoms: C1'_4  and  C1_5 
ROOT
ATOM      1  C1  N4B d   1       0.894  -0.657  -1.914  0.00  0.00    -0.075 A 
ATOM      2  C2  N4B d   1      -0.069  -0.834  -2.932  0.00  0.00     0.002 A 
ATOM      3  C3  N4B d   1       0.108  -0.237  -4.155  0.00  0.00     0.002 A 
ATOM      4  C4  N4B d   1       1.224   0.555  -4.378  0.00  0.00    -0.004 A 
ATOM      5  C5  N4B d   1       2.163   0.701  -3.398  0.00  0.00     0.002 A 
ATOM      6  C6  N4B d   1       2.000   0.103  -2.165  0.00  0.00     0.002 A 
ENDROOT
BRANCH   1   7
ATOM      7  C1' N4B d   1       0.703  -1.220  -0.532  0.00  0.00     0.057 C 
BRANCH   7   8
ATOM      8  C2' N4B d   1       0.189  -0.119   0.391  0.00  0.00     0.009 C 
BRANCH   8   9
ATOM      9  C3' N4B d   1      -1.321   0.026   0.317  0.00  0.00     0.004 C 
ATOM     10  C4' N4B d   1      -1.926   0.463   1.618  0.00  0.00     0.003 C 
ENDBRANCH   8   9
ENDBRANCH   7   8
ENDBRANCH   1   7
TORSDOF 3
ENDMDL
