MODEL 1
REMARK minimizedAffinity -4.44928789
REMARK minimizedRMSD -1
REMARK  3 active torsions:
REMARK  status: ('A' for Active; 'I' for Inactive)
REMARK    1  A    between atoms: C3'_2  and  C2'_3 
REMARK    2  A    between atoms: C2'_3  and  C1'_4 
REMARK    3  A    between atoms: C1'_4  and  C1_5 
ROOT
ATOM      1  C1  N4B d   1      -0.071  -0.357   0.242  0.00  0.00    -0.075 A 
ATOM      2  C2  N4B d   1       0.307  -0.357   1.603  0.00  0.00     0.002 A 
ATOM      3  C3  N4B d   1      -0.619  -0.057   2.572  0.00  0.00     0.002 A 
ATOM      4  C4  N4B d   1      -1.917   0.264   2.205  0.00  0.00    -0.004 A 
ATOM      5  C5  N4B d   1      -2.280   0.238   0.890  0.00  0.00     0.002 A 
ATOM      6  C6  N4B d   1      -1.361  -0.066  -0.095  0.00  0.00     0.002 A 
ENDROOT
BRANCH   1   7
ATOM      7  C1' N4B d   1       0.926  -0.595  -0.859  0.00  0.00     0.057 C 
BRANCH   7   8
ATOM      8  C2' N4B d   1       0.338  -0.110  -2.181  0.00  0.00     0.009 C 
BRANCH   8   9
ATOM      9  C3' N4B d   1       1.312   0.769  -2.947  0.00  0.00     0.004 C 
ATOM     10  C4' N4B d   1       0.714   1.347  -4.195  0.00  0.00     0.003 C 
ENDBRANCH   8   9
ENDBRANCH   7   8
ENDBRANCH   1   7
TORSDOF 3
ENDMDL
