MODEL 1
REMARK minimizedAffinity -4.04306936
REMARK minimizedRMSD -1
REMARK  3 active torsions:
REMARK  status: ('A' for Active; 'I' for Inactive)
REMARK    1  A    between atoms: C3'_2  and  C2'_3 
REMARK    2  A    between atoms: C2'_3  and  C1'_4 
REMARK    3  A    between atoms: C1'_4  and  C1_5 
ROOT
ATOM      1  C1  N4B d   1      -0.148  -0.316  -0.066  0.00  0.00    -0.075 A 
ATOM      2  C2  N4B d   1       0.230  -0.028   1.263  0.00  0.00     0.002 A 
ATOM      3  C3  N4B d   1      -0.647   0.615   2.102  0.00  0.00     0.002 A 
ATOM      4  C4  N4B d   1      -1.894   0.996   1.630  0.00  0.00    -0.004 A 
ATOM      5  C5  N4B d   1      -2.261   0.692   0.352  0.00  0.00     0.002 A 
ATOM      6  C6  N4B d   1      -1.392   0.042  -0.501  0.00  0.00     0.002 A 
ENDROOT
BRANCH   1   7
ATOM      7  C1' N4B d   1       0.807  -0.941  -1.046  0.00  0.00     0.057 C 
BRANCH   7   8
ATOM      8  C2' N4B d   1       1.146   0.075  -2.133  0.00  0.00     0.009 C 
BRANCH   8   9
ATOM      9  C3' N4B d   1       0.457  -0.248  -3.447  0.00  0.00     0.004 C 
ATOM     10  C4' N4B d   1       0.432   0.917  -4.392  0.00  0.00     0.003 C 
ENDBRANCH   8   9
ENDBRANCH   7   8
ENDBRANCH   1   7
TORSDOF 3
ENDMDL
