MODEL 1
REMARK minimizedAffinity -0.143254966
REMARK minimizedRMSD -1
REMARK  1 active torsions:
REMARK  status: ('A' for Active; 'I' for Inactive)
REMARK    1  A    between atoms: C1_2  and  C2_3 
ROOT
ATOM      1  C2  UNL d   1       5.360  -2.828   5.218  0.00  0.00    -0.073 A 
ATOM      2  C3  UNL d   1       4.170  -2.405   5.822  0.00  0.00    -0.002 A 
ATOM      3  C4  UNL d   1       3.579  -1.199   5.446  0.00  0.00     0.004 A 
ATOM      4  C5  UNL d   1       4.165  -0.407   4.459  0.00  0.00    -0.004 A 
ATOM      5  C6  UNL d   1       5.348  -0.817   3.836  0.00  0.00    -0.075 A 
ATOM      6  C7  UNL d   1       5.993   0.024   2.774  0.00  0.00     0.076 C 
ATOM      7  C8  UNL d   1       5.938  -2.029   4.221  0.00  0.00     0.001 A 
ENDROOT
BRANCH   1   8
ATOM      8  C1  UNL d   1       5.999  -4.133   5.617  0.00  0.00     0.053 C 
ATOM      9  C   UNL d   1       5.994  -5.141   4.478  0.00  0.00     0.018 C 
ENDBRANCH   1   8
TORSDOF 1
ENDMDL
