MODEL 1
REMARK minimizedAffinity 5.61003351
REMARK minimizedRMSD -1
REMARK  1 active torsions:
REMARK  status: ('A' for Active; 'I' for Inactive)
REMARK    1  A    between atoms: C1_2  and  C2_3 
ROOT
ATOM      1  C2  UNL d   1       0.775   1.320  -3.783  0.00  0.00    -0.073 A 
ATOM      2  C3  UNL d   1       1.148   0.153  -4.461  0.00  0.00    -0.002 A 
ATOM      3  C4  UNL d   1       1.171  -1.072  -3.794  0.00  0.00     0.004 A 
ATOM      4  C5  UNL d   1       0.815  -1.145  -2.447  0.00  0.00    -0.004 A 
ATOM      5  C6  UNL d   1       0.428   0.007  -1.756  0.00  0.00    -0.075 A 
ATOM      6  C7  UNL d   1       0.044  -0.054  -0.307  0.00  0.00     0.076 C 
ATOM      7  C8  UNL d   1       0.409   1.235  -2.432  0.00  0.00     0.001 A 
ENDROOT
BRANCH   1   8
ATOM      8  C1  UNL d   1       0.742   2.644  -4.501  0.00  0.00     0.053 C 
ATOM      9  C   UNL d   1       1.112   2.506  -5.969  0.00  0.00     0.018 C 
ENDBRANCH   1   8
TORSDOF 1
ENDMDL
