MODEL 1
REMARK minimizedAffinity -4.36815119
REMARK minimizedRMSD -1
REMARK  1 active torsions:
REMARK  status: ('A' for Active; 'I' for Inactive)
REMARK    1  A    between atoms: C1_2  and  C2_3 
ROOT
ATOM      1  C2  UNL d   1      -3.284   2.380   4.907  0.00  0.00    -0.073 A 
ATOM      2  C3  UNL d   1      -3.433   2.496   3.520  0.00  0.00    -0.002 A 
ATOM      3  C4  UNL d   1      -3.688   3.740   2.941  0.00  0.00     0.004 A 
ATOM      4  C5  UNL d   1      -3.790   4.879   3.739  0.00  0.00    -0.004 A 
ATOM      5  C6  UNL d   1      -3.633   4.785   5.126  0.00  0.00    -0.075 A 
ATOM      6  C7  UNL d   1      -3.742   6.000   5.999  0.00  0.00     0.076 C 
ATOM      7  C8  UNL d   1      -3.379   3.532   5.700  0.00  0.00     0.001 A 
ENDROOT
BRANCH   1   8
ATOM      8  C1  UNL d   1      -3.001   1.040   5.536  0.00  0.00     0.053 C 
ATOM      9  C   UNL d   1      -2.999  -0.082   4.511  0.00  0.00     0.018 C 
ENDBRANCH   1   8
TORSDOF 1
ENDMDL
