MODEL 1
REMARK minimizedAffinity 9.38075924
REMARK minimizedRMSD -1
REMARK  1 active torsions:
REMARK  status: ('A' for Active; 'I' for Inactive)
REMARK    1  A    between atoms: C1_2  and  C2_3 
ROOT
ATOM      1  C2  UNL d   1       5.949  -1.510  -4.018  0.00  0.00    -0.073 A 
ATOM      2  C3  UNL d   1       5.969  -1.379  -5.411  0.00  0.00    -0.002 A 
ATOM      3  C4  UNL d   1       5.988  -0.114  -6.000  0.00  0.00     0.004 A 
ATOM      4  C5  UNL d   1       5.994   1.031  -5.203  0.00  0.00    -0.004 A 
ATOM      5  C6  UNL d   1       5.986   0.921  -3.809  0.00  0.00    -0.075 A 
ATOM      6  C7  UNL d   1       5.989   2.143  -2.938  0.00  0.00     0.076 C 
ATOM      7  C8  UNL d   1       5.964  -0.353  -3.226  0.00  0.00     0.001 A 
ENDROOT
BRANCH   1   8
ATOM      8  C1  UNL d   1       5.935  -2.874  -3.378  0.00  0.00     0.053 C 
ATOM      9  C   UNL d   1       5.747  -3.982  -4.401  0.00  0.00     0.018 C 
ENDBRANCH   1   8
TORSDOF 1
ENDMDL
