MODEL 1
REMARK minimizedAffinity 12.0848265
REMARK minimizedRMSD -1
REMARK  1 active torsions:
REMARK  status: ('A' for Active; 'I' for Inactive)
REMARK    1  A    between atoms: C1_2  and  C2_3 
ROOT
ATOM      1  C2  UNL d   1       1.015  -0.936  -2.887  0.00  0.00    -0.073 A 
ATOM      2  C3  UNL d   1       0.552  -0.782  -1.575  0.00  0.00    -0.002 A 
ATOM      3  C4  UNL d   1       0.278   0.489  -1.069  0.00  0.00     0.004 A 
ATOM      4  C5  UNL d   1       0.456   1.617  -1.870  0.00  0.00    -0.004 A 
ATOM      5  C6  UNL d   1       0.907   1.483  -3.187  0.00  0.00    -0.075 A 
ATOM      6  C7  UNL d   1       1.107   2.687  -4.060  0.00  0.00     0.076 C 
ATOM      7  C8  UNL d   1       1.183   0.204  -3.687  0.00  0.00     0.001 A 
ENDROOT
BRANCH   1   8
ATOM      8  C1  UNL d   1       1.307  -2.307  -3.440  0.00  0.00     0.053 C 
ATOM      9  C   UNL d   1       0.467  -3.382  -2.769  0.00  0.00     0.018 C 
ENDBRANCH   1   8
TORSDOF 1
ENDMDL
