MODEL 1
REMARK minimizedAffinity 7.75815296
REMARK minimizedRMSD -1
REMARK  1 active torsions:
REMARK  status: ('A' for Active; 'I' for Inactive)
REMARK    1  A    between atoms: C1_2  and  C2_3 
ROOT
ATOM      1  C2  UNL d   1       1.674   0.796  -1.977  0.00  0.00    -0.073 A 
ATOM      2  C3  UNL d   1       2.176   1.778  -2.840  0.00  0.00    -0.002 A 
ATOM      3  C4  UNL d   1       2.888   2.865  -2.333  0.00  0.00     0.004 A 
ATOM      4  C5  UNL d   1       3.113   2.979  -0.961  0.00  0.00    -0.004 A 
ATOM      5  C6  UNL d   1       2.630   2.002  -0.084  0.00  0.00    -0.075 A 
ATOM      6  C7  UNL d   1       2.861   2.111   1.395  0.00  0.00     0.076 C 
ATOM      7  C8  UNL d   1       1.913   0.915  -0.601  0.00  0.00     0.001 A 
ENDROOT
BRANCH   1   8
ATOM      8  C1  UNL d   1       0.910  -0.383  -2.521  0.00  0.00     0.053 C 
ATOM      9  C   UNL d   1       1.654  -1.692  -2.310  0.00  0.00     0.018 C 
ENDBRANCH   1   8
TORSDOF 1
ENDMDL
