MODEL 1
REMARK minimizedAffinity 3.56302238
REMARK minimizedRMSD -1
REMARK  1 active torsions:
REMARK  status: ('A' for Active; 'I' for Inactive)
REMARK    1  A    between atoms: C1_2  and  C2_3 
ROOT
ATOM      1  C2  UNL d   1       5.204   2.572  -5.263  0.00  0.00    -0.073 A 
ATOM      2  C3  UNL d   1       4.059   2.954  -5.971  0.00  0.00    -0.002 A 
ATOM      3  C4  UNL d   1       3.331   4.078  -5.581  0.00  0.00     0.004 A 
ATOM      4  C5  UNL d   1       3.742   4.835  -4.484  0.00  0.00    -0.004 A 
ATOM      5  C6  UNL d   1       4.890   4.477  -3.771  0.00  0.00    -0.075 A 
ATOM      6  C7  UNL d   1       5.345   5.280  -2.587  0.00  0.00     0.076 C 
ATOM      7  C8  UNL d   1       5.615   3.345  -4.167  0.00  0.00     0.001 A 
ENDROOT
BRANCH   1   8
ATOM      8  C1  UNL d   1       5.997   1.362  -5.684  0.00  0.00     0.053 C 
ATOM      9  C   UNL d   1       5.974   0.269  -4.628  0.00  0.00     0.018 C 
ENDBRANCH   1   8
TORSDOF 1
ENDMDL
