MODEL 1
REMARK minimizedAffinity 12.3597069
REMARK minimizedRMSD -1
REMARK  1 active torsions:
REMARK  status: ('A' for Active; 'I' for Inactive)
REMARK    1  A    between atoms: C1_2  and  C2_3 
ROOT
ATOM      1  C2  UNL d   1      -0.221  -1.391  -0.406  0.00  0.00    -0.073 A 
ATOM      2  C3  UNL d   1      -0.002  -0.021  -0.588  0.00  0.00    -0.002 A 
ATOM      3  C4  UNL d   1       0.532   0.455  -1.787  0.00  0.00     0.004 A 
ATOM      4  C5  UNL d   1       0.845  -0.432  -2.817  0.00  0.00    -0.004 A 
ATOM      5  C6  UNL d   1       0.622  -1.804  -2.658  0.00  0.00    -0.075 A 
ATOM      6  C7  UNL d   1       0.956  -2.771  -3.756  0.00  0.00     0.076 C 
ATOM      7  C8  UNL d   1       0.089  -2.274  -1.451  0.00  0.00     0.001 A 
ENDROOT
BRANCH   1   8
ATOM      8  C1  UNL d   1      -0.803  -1.909   0.884  0.00  0.00     0.053 C 
ATOM      9  C   UNL d   1      -1.907  -2.925   0.643  0.00  0.00     0.018 C 
ENDBRANCH   1   8
TORSDOF 1
ENDMDL
