MODEL 1
REMARK minimizedAffinity 8.37391376
REMARK minimizedRMSD -1
REMARK  1 active torsions:
REMARK  status: ('A' for Active; 'I' for Inactive)
REMARK    1  A    between atoms: C1_2  and  C2_3 
ROOT
ATOM      1  C2  UNL d   1       3.271   3.636  -5.380  0.00  0.00    -0.073 A 
ATOM      2  C3  UNL d   1       4.353   2.880  -5.844  0.00  0.00    -0.002 A 
ATOM      3  C4  UNL d   1       5.614   3.023  -5.263  0.00  0.00     0.004 A 
ATOM      4  C5  UNL d   1       5.804   3.916  -4.209  0.00  0.00    -0.004 A 
ATOM      5  C6  UNL d   1       4.732   4.672  -3.723  0.00  0.00    -0.075 A 
ATOM      6  C7  UNL d   1       4.920   5.639  -2.591  0.00  0.00     0.076 C 
ATOM      7  C8  UNL d   1       3.469   4.524  -4.314  0.00  0.00     0.001 A 
ENDROOT
BRANCH   1   8
ATOM      8  C1  UNL d   1       1.906   3.480  -6.000  0.00  0.00     0.053 C 
ATOM      9  C   UNL d   1       1.128   4.786  -6.000  0.00  0.00     0.018 C 
ENDBRANCH   1   8
TORSDOF 1
ENDMDL
