MODEL 1
REMARK minimizedAffinity 9.42815399
REMARK minimizedRMSD -1
REMARK  1 active torsions:
REMARK  status: ('A' for Active; 'I' for Inactive)
REMARK    1  A    between atoms: C1_2  and  C2_3 
ROOT
ATOM      1  C2  UNL d   1       3.156   3.536  -5.489  0.00  0.00    -0.073 A 
ATOM      2  C3  UNL d   1       4.109   2.642  -5.991  0.00  0.00    -0.002 A 
ATOM      3  C4  UNL d   1       5.419   2.666  -5.510  0.00  0.00     0.004 A 
ATOM      4  C5  UNL d   1       5.788   3.576  -4.521  0.00  0.00    -0.004 A 
ATOM      5  C6  UNL d   1       4.847   4.470  -3.998  0.00  0.00    -0.075 A 
ATOM      6  C7  UNL d   1       5.228   5.457  -2.935  0.00  0.00     0.076 C 
ATOM      7  C8  UNL d   1       3.534   4.442  -4.488  0.00  0.00     0.001 A 
ENDROOT
BRANCH   1   8
ATOM      8  C1  UNL d   1       1.739   3.511  -6.000  0.00  0.00     0.053 C 
ATOM      9  C   UNL d   1       1.107   4.894  -5.998  0.00  0.00     0.018 C 
ENDBRANCH   1   8
TORSDOF 1
ENDMDL
