MODEL 1
REMARK minimizedAffinity -0.362567455
REMARK minimizedRMSD -1
REMARK  1 active torsions:
REMARK  status: ('A' for Active; 'I' for Inactive)
REMARK    1  A    between atoms: C1_2  and  C2_3 
ROOT
ATOM      1  C2  UNL d   1       0.837  -0.006  -0.668  0.00  0.00    -0.073 A 
ATOM      2  C3  UNL d   1       0.415   0.991  -1.555  0.00  0.00    -0.002 A 
ATOM      3  C4  UNL d   1       0.936   2.282  -1.463  0.00  0.00     0.004 A 
ATOM      4  C5  UNL d   1       1.888   2.587  -0.490  0.00  0.00    -0.004 A 
ATOM      5  C6  UNL d   1       2.331   1.601   0.397  0.00  0.00    -0.075 A 
ATOM      6  C7  UNL d   1       3.353   1.914   1.450  0.00  0.00     0.076 C 
ATOM      7  C8  UNL d   1       1.801   0.308   0.300  0.00  0.00     0.001 A 
ENDROOT
BRANCH   1   8
ATOM      8  C1  UNL d   1       0.281  -1.403  -0.768  0.00  0.00     0.053 C 
ATOM      9  C   UNL d   1       0.751  -2.286   0.377  0.00  0.00     0.018 C 
ENDBRANCH   1   8
TORSDOF 1
ENDMDL
