MODEL 1
REMARK minimizedAffinity 8.13169003
REMARK minimizedRMSD -1
REMARK  1 active torsions:
REMARK  status: ('A' for Active; 'I' for Inactive)
REMARK    1  A    between atoms: C1_2  and  C2_3 
ROOT
ATOM      1  C2  UNL d   1       4.827   3.135  -5.161  0.00  0.00    -0.073 A 
ATOM      2  C3  UNL d   1       3.710   3.055  -6.000  0.00  0.00    -0.002 A 
ATOM      3  C4  UNL d   1       2.629   3.919  -5.818  0.00  0.00     0.004 A 
ATOM      4  C5  UNL d   1       2.657   4.874  -4.802  0.00  0.00    -0.004 A 
ATOM      5  C6  UNL d   1       3.769   4.977  -3.961  0.00  0.00    -0.075 A 
ATOM      6  C7  UNL d   1       3.814   5.998  -2.862  0.00  0.00     0.076 C 
ATOM      7  C8  UNL d   1       4.850   4.105  -4.148  0.00  0.00     0.001 A 
ENDROOT
BRANCH   1   8
ATOM      8  C1  UNL d   1       6.000   2.209  -5.357  0.00  0.00     0.053 C 
ATOM      9  C   UNL d   1       6.000   1.068  -4.352  0.00  0.00     0.018 C 
ENDBRANCH   1   8
TORSDOF 1
ENDMDL
