MODEL 1
REMARK minimizedAffinity -4.46574068
REMARK minimizedRMSD -1
REMARK  0 active torsions:
REMARK  status: ('A' for Active; 'I' for Inactive)
ROOT
ATOM      1  C   UNL d   1      -0.111   0.734   3.515  0.00  0.00     0.023 A 
ATOM      2  C1  UNL d   1      -1.114   1.040   2.595  0.00  0.00     0.003 A 
ATOM      3  C2  UNL d   1      -1.007   0.603   1.273  0.00  0.00     0.048 A 
ATOM      4  C3  UNL d   1       0.106  -0.139   0.878  0.00  0.00     0.023 A 
ATOM      5  C4  UNL d   1       1.112  -0.447   1.795  0.00  0.00     0.048 A 
ATOM      6  C5  UNL d   1       1.001  -0.008   3.116  0.00  0.00     0.003 A 
ATOM      7  I   UNL d   1       0.267  -0.789  -1.089  0.00  0.00    -0.146 I 
ENDROOT
TORSDOF 0
ENDMDL
