MODEL 1
REMARK minimizedAffinity -4.46014309
REMARK minimizedRMSD -1
REMARK  0 active torsions:
REMARK  status: ('A' for Active; 'I' for Inactive)
ROOT
ATOM      1  C   UNL d   1      -0.129   0.836   2.667  0.00  0.00     0.023 A 
ATOM      2  C1  UNL d   1       1.122   0.434   2.201  0.00  0.00     0.003 A 
ATOM      3  C2  UNL d   1       1.287   0.068   0.864  0.00  0.00     0.048 A 
ATOM      4  C3  UNL d   1       0.195   0.108  -0.003  0.00  0.00     0.023 A 
ATOM      5  C4  UNL d   1      -1.059   0.510   0.458  0.00  0.00     0.048 A 
ATOM      6  C5  UNL d   1      -1.219   0.874   1.797  0.00  0.00     0.003 A 
ATOM      7  I   UNL d   1       0.437  -0.436  -1.994  0.00  0.00    -0.146 I 
ENDROOT
TORSDOF 0
ENDMDL
