MODEL 1
REMARK minimizedAffinity -3.32102561
REMARK minimizedRMSD -1
REMARK  0 active torsions:
REMARK  status: ('A' for Active; 'I' for Inactive)
ROOT
ATOM      1  C   UNL d   1       1.352   0.500  -3.645  0.00  0.00     0.023 A 
ATOM      2  C1  UNL d   1       0.936   0.958  -4.895  0.00  0.00     0.003 A 
ATOM      3  C2  UNL d   1      -0.133   0.338  -5.546  0.00  0.00     0.048 A 
ATOM      4  C3  UNL d   1      -0.781  -0.739  -4.941  0.00  0.00     0.023 A 
ATOM      5  C4  UNL d   1      -0.368  -1.199  -3.690  0.00  0.00     0.048 A 
ATOM      6  C5  UNL d   1       0.701  -0.577  -3.043  0.00  0.00     0.003 A 
ATOM      7  I   UNL d   1      -2.372  -1.663  -5.908  0.00  0.00    -0.146 I 
ENDROOT
TORSDOF 0
ENDMDL
