MODEL 1
REMARK minimizedAffinity -3.00779629
REMARK minimizedRMSD -1
REMARK  0 active torsions:
REMARK  status: ('A' for Active; 'I' for Inactive)
ROOT
ATOM      1  C   UNL d   1       1.514   0.013  -4.107  0.00  0.00     0.023 A 
ATOM      2  C1  UNL d   1       0.534  -0.921  -3.770  0.00  0.00     0.003 A 
ATOM      3  C2  UNL d   1       0.037  -0.974  -2.466  0.00  0.00     0.048 A 
ATOM      4  C3  UNL d   1       0.523  -0.089  -1.504  0.00  0.00     0.023 A 
ATOM      5  C4  UNL d   1       1.503   0.848  -1.838  0.00  0.00     0.048 A 
ATOM      6  C5  UNL d   1       1.998   0.896  -3.142  0.00  0.00     0.003 A 
ATOM      7  I   UNL d   1      -0.215  -0.165   0.437  0.00  0.00    -0.146 I 
ENDROOT
TORSDOF 0
ENDMDL
