MODEL 1
REMARK minimizedAffinity -1.48816979
REMARK minimizedRMSD -1
REMARK  0 active torsions:
REMARK  status: ('A' for Active; 'I' for Inactive)
ROOT
ATOM      1  C   UNL d   1       0.402  -0.061   0.971  0.00  0.00     0.023 A 
ATOM      2  C1  UNL d   1       1.368  -0.745   0.233  0.00  0.00     0.003 A 
ATOM      3  C2  UNL d   1       1.213  -0.902  -1.146  0.00  0.00     0.048 A 
ATOM      4  C3  UNL d   1       0.090  -0.372  -1.780  0.00  0.00     0.023 A 
ATOM      5  C4  UNL d   1      -0.879   0.314  -1.046  0.00  0.00     0.048 A 
ATOM      6  C5  UNL d   1      -0.720   0.468   0.333  0.00  0.00     0.003 A 
ATOM      7  I   UNL d   1      -0.142  -0.604  -3.832  0.00  0.00    -0.146 I 
ENDROOT
TORSDOF 0
ENDMDL
