MODEL 1
REMARK minimizedAffinity -1.83117855
REMARK minimizedRMSD -1
REMARK  0 active torsions:
REMARK  status: ('A' for Active; 'I' for Inactive)
ROOT
ATOM      1  C   UNL d   1       0.859   1.341  -4.652  0.00  0.00     0.023 A 
ATOM      2  C1  UNL d   1      -0.263   0.683  -4.147  0.00  0.00     0.003 A 
ATOM      3  C2  UNL d   1      -0.145  -0.138  -3.024  0.00  0.00     0.048 A 
ATOM      4  C3  UNL d   1       1.096  -0.296  -2.410  0.00  0.00     0.023 A 
ATOM      5  C4  UNL d   1       2.221   0.362  -2.911  0.00  0.00     0.048 A 
ATOM      6  C5  UNL d   1       2.099   1.181  -4.035  0.00  0.00     0.003 A 
ATOM      7  I   UNL d   1       1.274  -1.517  -0.737  0.00  0.00    -0.146 I 
ENDROOT
TORSDOF 0
ENDMDL
