MODEL 1
REMARK minimizedAffinity -1.01794457
REMARK minimizedRMSD -1
REMARK  0 active torsions:
REMARK  status: ('A' for Active; 'I' for Inactive)
ROOT
ATOM      1  C   UNL d   1       1.227   0.739  -4.904  0.00  0.00     0.023 A 
ATOM      2  C1  UNL d   1       2.157   0.455  -3.904  0.00  0.00     0.003 A 
ATOM      3  C2  UNL d   1       1.723   0.088  -2.629  0.00  0.00     0.048 A 
ATOM      4  C3  UNL d   1       0.357   0.007  -2.360  0.00  0.00     0.023 A 
ATOM      5  C4  UNL d   1      -0.577   0.289  -3.358  0.00  0.00     0.048 A 
ATOM      6  C5  UNL d   1      -0.138   0.656  -4.631  0.00  0.00     0.003 A 
ATOM      7  I   UNL d   1      -0.292  -0.539  -0.463  0.00  0.00    -0.146 I 
ENDROOT
TORSDOF 0
ENDMDL
