MODEL 1
REMARK minimizedAffinity -0.967775941
REMARK minimizedRMSD -1
REMARK  0 active torsions:
REMARK  status: ('A' for Active; 'I' for Inactive)
ROOT
ATOM      1  C   UNL d   1      -0.776   1.386   3.056  0.00  0.00     0.023 A 
ATOM      2  C1  UNL d   1      -1.451   0.331   2.441  0.00  0.00     0.003 A 
ATOM      3  C2  UNL d   1      -1.011  -0.159   1.211  0.00  0.00     0.048 A 
ATOM      4  C3  UNL d   1       0.107   0.408   0.600  0.00  0.00     0.023 A 
ATOM      5  C4  UNL d   1       0.787   1.463   1.211  0.00  0.00     0.048 A 
ATOM      6  C5  UNL d   1       0.342   1.951   2.441  0.00  0.00     0.003 A 
ATOM      7  I   UNL d   1       0.765  -0.321  -1.232  0.00  0.00    -0.146 I 
ENDROOT
TORSDOF 0
ENDMDL
