MODEL 1
REMARK minimizedAffinity 2.53520751
REMARK minimizedRMSD -1
REMARK  0 active torsions:
REMARK  status: ('A' for Active; 'I' for Inactive)
ROOT
ATOM      1  C   UNL d   1      -2.582   0.005   1.179  0.00  0.00     0.023 A 
ATOM      2  C1  UNL d   1      -1.959  -0.574   0.073  0.00  0.00     0.003 A 
ATOM      3  C2  UNL d   1      -0.567  -0.688   0.035  0.00  0.00     0.048 A 
ATOM      4  C3  UNL d   1       0.194  -0.222   1.106  0.00  0.00     0.023 A 
ATOM      5  C4  UNL d   1      -0.426   0.357   2.215  0.00  0.00     0.048 A 
ATOM      6  C5  UNL d   1      -1.817   0.469   2.248  0.00  0.00     0.003 A 
ATOM      7  I   UNL d   1       2.265  -0.391   1.052  0.00  0.00    -0.146 I 
ENDROOT
TORSDOF 0
ENDMDL
