MODEL 1
REMARK minimizedAffinity -3.72142887
REMARK minimizedRMSD -1
REMARK  0 active torsions:
REMARK  status: ('A' for Active; 'I' for Inactive)
ROOT
ATOM      1  C   UNL d   1      -0.978   1.205   2.617  0.00  0.00     0.023 A 
ATOM      2  C1  UNL d   1      -1.857   0.651   1.686  0.00  0.00     0.003 A 
ATOM      3  C2  UNL d   1      -1.360   0.035   0.536  0.00  0.00     0.048 A 
ATOM      4  C3  UNL d   1       0.017  -0.025   0.324  0.00  0.00     0.023 A 
ATOM      5  C4  UNL d   1       0.900   0.527   1.253  0.00  0.00     0.048 A 
ATOM      6  C5  UNL d   1       0.399   1.143   2.401  0.00  0.00     0.003 A 
ATOM      7  I   UNL d   1       0.759  -0.942  -1.387  0.00  0.00    -0.146 I 
ENDROOT
TORSDOF 0
ENDMDL
