MODEL 1
REMARK minimizedAffinity -2.13567686
REMARK minimizedRMSD -1
REMARK  0 active torsions:
REMARK  status: ('A' for Active; 'I' for Inactive)
ROOT
ATOM      1  C   UNL d   1      -1.178   0.825   3.003  0.00  0.00     0.023 A 
ATOM      2  C1  UNL d   1       0.183   0.920   2.712  0.00  0.00     0.003 A 
ATOM      3  C2  UNL d   1       0.674   0.436   1.498  0.00  0.00     0.048 A 
ATOM      4  C3  UNL d   1      -0.202  -0.141   0.579  0.00  0.00     0.023 A 
ATOM      5  C4  UNL d   1      -1.564  -0.238   0.865  0.00  0.00     0.048 A 
ATOM      6  C5  UNL d   1      -2.051   0.247   2.081  0.00  0.00     0.003 A 
ATOM      7  I   UNL d   1       0.527  -0.862  -1.230  0.00  0.00    -0.146 I 
ENDROOT
TORSDOF 0
ENDMDL
