MODEL 1
REMARK minimizedAffinity -4.21334505
REMARK minimizedRMSD -1
REMARK  0 active torsions:
REMARK  status: ('A' for Active; 'I' for Inactive)
ROOT
ATOM      1  C   UNL d   1      -0.952   1.157   2.770  0.00  0.00     0.023 A 
ATOM      2  C1  UNL d   1       0.390   0.851   2.542  0.00  0.00     0.003 A 
ATOM      3  C2  UNL d   1       0.787   0.320   1.313  0.00  0.00     0.048 A 
ATOM      4  C3  UNL d   1      -0.162   0.098   0.316  0.00  0.00     0.023 A 
ATOM      5  C4  UNL d   1      -1.506   0.404   0.539  0.00  0.00     0.048 A 
ATOM      6  C5  UNL d   1      -1.899   0.934   1.770  0.00  0.00     0.003 A 
ATOM      7  I   UNL d   1       0.427  -0.691  -1.514  0.00  0.00    -0.146 I 
ENDROOT
TORSDOF 0
ENDMDL
