MODEL 1
REMARK minimizedAffinity 12.741889
REMARK minimizedRMSD -1
REMARK  0 active torsions:
REMARK  status: ('A' for Active; 'I' for Inactive)
ROOT
ATOM      1  O1  BZF d   1      -1.314  -3.797  -5.309  0.00  0.00    -0.204 OA
ATOM      2  C2  BZF d   1      -0.680  -4.982  -4.989  0.00  0.00     0.174 A 
ATOM      3  C3  BZF d   1      -1.565  -5.999  -4.939  0.00  0.00    -0.012 A 
ATOM      4  C3A BZF d   1      -2.815  -5.430  -5.338  0.00  0.00    -0.107 A 
ATOM      5  C4  BZF d   1      -4.071  -5.943  -5.501  0.00  0.00     0.055 A 
ATOM      6  C5  BZF d   1      -5.089  -5.105  -5.831  0.00  0.00    -0.016 A 
ATOM      7  C6  BZF d   1      -4.888  -3.751  -5.999  0.00  0.00     0.022 A 
ATOM      8  C7  BZF d   1      -3.660  -3.197  -5.853  0.00  0.00     0.029 A 
ATOM      9  C7A BZF d   1      -2.623  -4.046  -5.553  0.00  0.00     0.058 A 
ENDROOT
TORSDOF 0
ENDMDL
