MODEL 1
REMARK minimizedAffinity 14.4712582
REMARK minimizedRMSD -1
REMARK  0 active torsions:
REMARK  status: ('A' for Active; 'I' for Inactive)
ROOT
ATOM      1  O1  BZF d   1       2.412   4.130   0.011  0.00  0.00    -0.204 OA
ATOM      2  C2  BZF d   1       2.301   5.377  -0.574  0.00  0.00     0.174 A 
ATOM      3  C3  BZF d   1       1.083   5.537  -1.131  0.00  0.00    -0.012 A 
ATOM      4  C3A BZF d   1       0.358   4.349  -0.799  0.00  0.00    -0.107 A 
ATOM      5  C4  BZF d   1      -0.913   3.922  -1.056  0.00  0.00     0.055 A 
ATOM      6  C5  BZF d   1      -1.287   2.680  -0.653  0.00  0.00    -0.016 A 
ATOM      7  C6  BZF d   1      -0.415   1.836   0.004  0.00  0.00     0.022 A 
ATOM      8  C7  BZF d   1       0.855   2.217   0.286  0.00  0.00     0.029 A 
ATOM      9  C7A BZF d   1       1.225   3.485  -0.091  0.00  0.00     0.058 A 
ENDROOT
TORSDOF 0
ENDMDL
