MODEL 1
REMARK minimizedAffinity 14.595603
REMARK minimizedRMSD -1
REMARK  0 active torsions:
REMARK  status: ('A' for Active; 'I' for Inactive)
ROOT
ATOM      1  O1  BZF d   1      -5.997   2.308  -1.264  0.00  0.00    -0.204 OA
ATOM      2  C2  BZF d   1      -5.520   1.018  -1.389  0.00  0.00     0.174 A 
ATOM      3  C3  BZF d   1      -4.974   0.826  -2.607  0.00  0.00    -0.012 A 
ATOM      4  C3A BZF d   1      -5.035   2.101  -3.253  0.00  0.00    -0.107 A 
ATOM      5  C4  BZF d   1      -4.634   2.555  -4.477  0.00  0.00     0.055 A 
ATOM      6  C5  BZF d   1      -4.907   3.839  -4.827  0.00  0.00    -0.016 A 
ATOM      7  C6  BZF d   1      -5.582   4.695  -3.981  0.00  0.00     0.022 A 
ATOM      8  C7  BZF d   1      -5.995   4.292  -2.755  0.00  0.00     0.029 A 
ATOM      9  C7A BZF d   1      -5.692   3.005  -2.385  0.00  0.00     0.058 A 
ENDROOT
TORSDOF 0
ENDMDL
