MODEL 1
REMARK minimizedAffinity 5.95526409
REMARK minimizedRMSD -1
REMARK  0 active torsions:
REMARK  status: ('A' for Active; 'I' for Inactive)
ROOT
ATOM      1  O1  BZF d   1      -0.537   1.889  -2.909  0.00  0.00    -0.204 OA
ATOM      2  C2  BZF d   1      -0.052   0.607  -2.737  0.00  0.00     0.174 A 
ATOM      3  C3  BZF d   1       0.293   0.395  -1.451  0.00  0.00    -0.012 A 
ATOM      4  C3A BZF d   1      -0.080   1.590  -0.759  0.00  0.00    -0.107 A 
ATOM      5  C4  BZF d   1      -0.005   1.981   0.547  0.00  0.00     0.055 A 
ATOM      6  C5  BZF d   1      -0.388   3.241   0.883  0.00  0.00    -0.016 A 
ATOM      7  C6  BZF d   1      -0.846   4.137  -0.062  0.00  0.00     0.022 A 
ATOM      8  C7  BZF d   1      -0.943   3.793  -1.369  0.00  0.00     0.029 A 
ATOM      9  C7A BZF d   1      -0.588   2.509  -1.706  0.00  0.00     0.058 A 
ENDROOT
TORSDOF 0
ENDMDL
