MODEL 1
REMARK minimizedAffinity 0.95614332
REMARK minimizedRMSD -1
REMARK  0 active torsions:
REMARK  status: ('A' for Active; 'I' for Inactive)
ROOT
ATOM      1  O1  BZF d   1      -0.549   0.951  -1.450  0.00  0.00    -0.204 OA
ATOM      2  C2  BZF d   1      -0.772   1.800  -2.516  0.00  0.00     0.174 A 
ATOM      3  C3  BZF d   1      -0.812   3.084  -2.104  0.00  0.00    -0.012 A 
ATOM      4  C3A BZF d   1      -0.509   3.041  -0.707  0.00  0.00    -0.107 A 
ATOM      5  C4  BZF d   1      -0.383   4.000   0.257  0.00  0.00     0.055 A 
ATOM      6  C5  BZF d   1      -0.152   3.620   1.541  0.00  0.00    -0.016 A 
ATOM      7  C6  BZF d   1      -0.047   2.292   1.897  0.00  0.00     0.022 A 
ATOM      8  C7  BZF d   1      -0.160   1.304   0.976  0.00  0.00     0.029 A 
ATOM      9  C7A BZF d   1      -0.360   1.686  -0.328  0.00  0.00     0.058 A 
ENDROOT
TORSDOF 0
ENDMDL
