MODEL 1
REMARK minimizedAffinity 4.6499567
REMARK minimizedRMSD -1
REMARK  0 active torsions:
REMARK  status: ('A' for Active; 'I' for Inactive)
ROOT
ATOM      1  O1  BZF d   1      -0.117   0.428  -1.276  0.00  0.00    -0.204 OA
ATOM      2  C2  BZF d   1      -0.470   1.444  -2.144  0.00  0.00     0.174 A 
ATOM      3  C3  BZF d   1      -0.672   2.597  -1.473  0.00  0.00    -0.012 A 
ATOM      4  C3A BZF d   1      -0.341   2.304  -0.112  0.00  0.00    -0.107 A 
ATOM      5  C4  BZF d   1      -0.327   3.049   1.032  0.00  0.00     0.055 A 
ATOM      6  C5  BZF d   1      -0.025   2.444   2.210  0.00  0.00    -0.016 A 
ATOM      7  C6  BZF d   1       0.262   1.097   2.282  0.00  0.00     0.022 A 
ATOM      8  C7  BZF d   1       0.266   0.317   1.173  0.00  0.00     0.029 A 
ATOM      9  C7A BZF d   1      -0.007   0.933  -0.024  0.00  0.00     0.058 A 
ENDROOT
TORSDOF 0
ENDMDL
