MODEL 1
REMARK minimizedAffinity 3.19880009
REMARK minimizedRMSD -1
REMARK  0 active torsions:
REMARK  status: ('A' for Active; 'I' for Inactive)
ROOT
ATOM      1  O1  BZF d   1      -0.153   1.063   1.287  0.00  0.00    -0.204 OA
ATOM      2  C2  BZF d   1      -0.512   2.199   1.987  0.00  0.00     0.174 A 
ATOM      3  C3  BZF d   1      -0.841   3.197   1.141  0.00  0.00    -0.012 A 
ATOM      4  C3A BZF d   1      -0.766   2.622  -0.167  0.00  0.00    -0.107 A 
ATOM      5  C4  BZF d   1      -0.997   3.110  -1.421  0.00  0.00     0.055 A 
ATOM      6  C5  BZF d   1      -0.763   2.311  -2.494  0.00  0.00    -0.016 A 
ATOM      7  C6  BZF d   1      -0.294   1.021  -2.350  0.00  0.00     0.022 A 
ATOM      8  C7  BZF d   1      -0.055   0.491  -1.126  0.00  0.00     0.029 A 
ATOM      9  C7A BZF d   1      -0.322   1.286  -0.038  0.00  0.00     0.058 A 
ENDROOT
TORSDOF 0
ENDMDL
