MODEL 1
REMARK minimizedAffinity 6.85764837
REMARK minimizedRMSD -1
REMARK  0 active torsions:
REMARK  status: ('A' for Active; 'I' for Inactive)
ROOT
ATOM      1  O1  BZF d   1       0.885  -1.105   3.574  0.00  0.00    -0.204 OA
ATOM      2  C2  BZF d   1       0.045  -1.293   4.655  0.00  0.00     0.174 A 
ATOM      3  C3  BZF d   1      -0.884  -0.318   4.713  0.00  0.00    -0.012 A 
ATOM      4  C3A BZF d   1      -0.666   0.481   3.547  0.00  0.00    -0.107 A 
ATOM      5  C4  BZF d   1      -1.281   1.589   3.039  0.00  0.00     0.055 A 
ATOM      6  C5  BZF d   1      -0.777   2.170   1.919  0.00  0.00    -0.016 A 
ATOM      7  C6  BZF d   1       0.343   1.673   1.284  0.00  0.00     0.022 A 
ATOM      8  C7  BZF d   1       0.985   0.573   1.748  0.00  0.00     0.029 A 
ATOM      9  C7A BZF d   1       0.458  -0.035   2.861  0.00  0.00     0.058 A 
ENDROOT
TORSDOF 0
ENDMDL
