MODEL 1
REMARK minimizedAffinity 21.7027016
REMARK minimizedRMSD -1
REMARK  0 active torsions:
REMARK  status: ('A' for Active; 'I' for Inactive)
ROOT
ATOM      1  C   UNL d   1      -1.054  -2.697  -3.592  0.00  0.00     0.124 A 
ATOM      2  C1  UNL d   1      -0.925  -2.982  -2.240  0.00  0.00     0.062 A 
ATOM      3  C2  UNL d   1       0.121  -3.782  -1.790  0.00  0.00     0.162 A 
ATOM      4  C3  UNL d   1       1.047  -4.303  -2.693  0.00  0.00    -0.034 A 
ATOM      5  C4  UNL d   1       0.911  -4.013  -4.052  0.00  0.00     0.162 A 
ATOM      6  C5  UNL d   1      -0.137  -3.213  -4.497  0.00  0.00     0.062 A 
ATOM      7  F   UNL d   1      -0.260  -2.939  -5.804  0.00  0.00    -0.097 F 
ATOM      8  F1  UNL d   1       1.784  -4.497  -4.947  0.00  0.00    -0.096 F 
ATOM      9  I   UNL d   1       2.613  -5.500  -2.024  0.00  0.00    -0.060 I 
ATOM     10  F2  UNL d   1       0.221  -4.040  -0.477  0.00  0.00    -0.096 F 
ATOM     11  F3  UNL d   1      -1.811  -2.485  -1.365  0.00  0.00    -0.097 F 
ATOM     12  F4  UNL d   1      -2.062  -1.927  -4.023  0.00  0.00    -0.092 F 
ENDROOT
TORSDOF 0
ENDMDL
