MODEL 1
REMARK minimizedAffinity 6.92680216
REMARK minimizedRMSD -1
REMARK  0 active torsions:
REMARK  status: ('A' for Active; 'I' for Inactive)
ROOT
ATOM      1  C   UNL d   1      -5.017   4.333  -2.319  0.00  0.00     0.124 A 
ATOM      2  C1  UNL d   1      -4.799   4.742  -3.627  0.00  0.00     0.062 A 
ATOM      3  C2  UNL d   1      -4.984   3.851  -4.680  0.00  0.00     0.162 A 
ATOM      4  C3  UNL d   1      -5.391   2.540  -4.429  0.00  0.00    -0.034 A 
ATOM      5  C4  UNL d   1      -5.608   2.136  -3.110  0.00  0.00     0.162 A 
ATOM      6  C5  UNL d   1      -5.421   3.031  -2.062  0.00  0.00     0.062 A 
ATOM      7  F   UNL d   1      -5.632   2.633  -0.798  0.00  0.00    -0.097 F 
ATOM      8  F1  UNL d   1      -6.000   0.883  -2.833  0.00  0.00    -0.096 F 
ATOM      9  I   UNL d   1      -5.670   1.204  -6.000  0.00  0.00    -0.060 I 
ATOM     10  F2  UNL d   1      -4.767   4.273  -5.934  0.00  0.00    -0.096 F 
ATOM     11  F3  UNL d   1      -4.408   6.000  -3.879  0.00  0.00    -0.097 F 
ATOM     12  F4  UNL d   1      -4.837   5.193  -1.308  0.00  0.00    -0.092 F 
ENDROOT
TORSDOF 0
ENDMDL
