MODEL 1
REMARK minimizedAffinity 18.3115597
REMARK minimizedRMSD -1
REMARK  0 active torsions:
REMARK  status: ('A' for Active; 'I' for Inactive)
ROOT
ATOM      1  C   UNL d   1       0.432  -3.064  -0.991  0.00  0.00     0.124 A 
ATOM      2  C1  UNL d   1       0.792  -4.360  -1.330  0.00  0.00     0.062 A 
ATOM      3  C2  UNL d   1       2.132  -4.738  -1.327  0.00  0.00     0.162 A 
ATOM      4  C3  UNL d   1       3.122  -3.818  -0.982  0.00  0.00    -0.034 A 
ATOM      5  C4  UNL d   1       2.752  -2.516  -0.643  0.00  0.00     0.162 A 
ATOM      6  C5  UNL d   1       1.412  -2.143  -0.647  0.00  0.00     0.062 A 
ATOM      7  F   UNL d   1       1.066  -0.890  -0.319  0.00  0.00    -0.097 F 
ATOM      8  F1  UNL d   1       3.679  -1.606  -0.306  0.00  0.00    -0.096 F 
ATOM      9  I   UNL d   1       5.126  -4.380  -0.977  0.00  0.00    -0.060 I 
ATOM     10  F2  UNL d   1       2.451  -5.998  -1.660  0.00  0.00    -0.096 F 
ATOM     11  F3  UNL d   1      -0.152  -5.252  -1.663  0.00  0.00    -0.097 F 
ATOM     12  F4  UNL d   1      -0.857  -2.702  -0.995  0.00  0.00    -0.092 F 
ENDROOT
TORSDOF 0
ENDMDL
