MODEL 1
REMARK minimizedAffinity 16.7932205
REMARK minimizedRMSD -1
REMARK  0 active torsions:
REMARK  status: ('A' for Active; 'I' for Inactive)
ROOT
ATOM      1  C   UNL d   1       1.064   2.448   1.708  0.00  0.00     0.124 A 
ATOM      2  C1  UNL d   1       0.356   2.122   0.560  0.00  0.00     0.062 A 
ATOM      3  C2  UNL d   1       0.056   3.105  -0.380  0.00  0.00     0.162 A 
ATOM      4  C3  UNL d   1       0.466   4.422  -0.176  0.00  0.00    -0.034 A 
ATOM      5  C4  UNL d   1       1.177   4.742   0.982  0.00  0.00     0.162 A 
ATOM      6  C5  UNL d   1       1.474   3.757   1.918  0.00  0.00     0.062 A 
ATOM      7  F   UNL d   1       2.159   4.073   3.027  0.00  0.00    -0.097 F 
ATOM      8  F1  UNL d   1       1.587   5.999   1.210  0.00  0.00    -0.096 F 
ATOM      9  I   UNL d   1       0.020   5.894  -1.578  0.00  0.00    -0.060 I 
ATOM     10  F2  UNL d   1      -0.630   2.762  -1.480  0.00  0.00    -0.096 F 
ATOM     11  F3  UNL d   1      -0.042   0.858   0.355  0.00  0.00    -0.097 F 
ATOM     12  F4  UNL d   1       1.350   1.501   2.611  0.00  0.00    -0.092 F 
ENDROOT
TORSDOF 0
ENDMDL
