MODEL 1
REMARK minimizedAffinity 18.7958012
REMARK minimizedRMSD -1
REMARK  0 active torsions:
REMARK  status: ('A' for Active; 'I' for Inactive)
ROOT
ATOM      1  C   UNL d   1      -1.116   5.253  -2.279  0.00  0.00     0.124 A 
ATOM      2  C1  UNL d   1      -1.840   5.260  -1.095  0.00  0.00     0.062 A 
ATOM      3  C2  UNL d   1      -1.411   4.504  -0.007  0.00  0.00     0.162 A 
ATOM      4  C3  UNL d   1      -0.252   3.734  -0.099  0.00  0.00    -0.034 A 
ATOM      5  C4  UNL d   1       0.470   3.731  -1.294  0.00  0.00     0.162 A 
ATOM      6  C5  UNL d   1       0.038   4.488  -2.377  0.00  0.00     0.062 A 
ATOM      7  F   UNL d   1       0.739   4.479  -3.521  0.00  0.00    -0.097 F 
ATOM      8  F1  UNL d   1       1.590   3.001  -1.416  0.00  0.00    -0.096 F 
ATOM      9  I   UNL d   1       0.392   2.602   1.524  0.00  0.00    -0.060 I 
ATOM     10  F2  UNL d   1      -2.131   4.530   1.124  0.00  0.00    -0.096 F 
ATOM     11  F3  UNL d   1      -2.955   5.997  -0.997  0.00  0.00    -0.097 F 
ATOM     12  F4  UNL d   1      -1.531   5.981  -3.324  0.00  0.00    -0.092 F 
ENDROOT
TORSDOF 0
ENDMDL
