MODEL 1
REMARK minimizedAffinity 19.1016102
REMARK minimizedRMSD -1
REMARK  0 active torsions:
REMARK  status: ('A' for Active; 'I' for Inactive)
ROOT
ATOM      1  C   UNL d   1       0.118  -2.918  -0.746  0.00  0.00     0.124 A 
ATOM      2  C1  UNL d   1       0.412  -4.250  -1.000  0.00  0.00     0.062 A 
ATOM      3  C2  UNL d   1       1.726  -4.704  -0.927  0.00  0.00     0.162 A 
ATOM      4  C3  UNL d   1       2.757  -3.824  -0.598  0.00  0.00    -0.034 A 
ATOM      5  C4  UNL d   1       2.454  -2.485  -0.344  0.00  0.00     0.162 A 
ATOM      6  C5  UNL d   1       1.139  -2.037  -0.418  0.00  0.00     0.062 A 
ATOM      7  F   UNL d   1       0.857  -0.749  -0.172  0.00  0.00    -0.097 F 
ATOM      8  F1  UNL d   1       3.421  -1.612  -0.025  0.00  0.00    -0.096 F 
ATOM      9  I   UNL d   1       4.723  -4.498  -0.488  0.00  0.00    -0.060 I 
ATOM     10  F2  UNL d   1       1.981  -5.997  -1.178  0.00  0.00    -0.096 F 
ATOM     11  F3  UNL d   1      -0.572  -5.104  -1.317  0.00  0.00    -0.097 F 
ATOM     12  F4  UNL d   1      -1.147  -2.484  -0.817  0.00  0.00    -0.092 F 
ENDROOT
TORSDOF 0
ENDMDL
