MODEL 1
REMARK minimizedAffinity 13.4032011
REMARK minimizedRMSD -1
REMARK  0 active torsions:
REMARK  status: ('A' for Active; 'I' for Inactive)
ROOT
ATOM      1  C   UNL d   1       2.055   3.822   1.474  0.00  0.00     0.124 A 
ATOM      2  C1  UNL d   1       2.376   4.729   0.473  0.00  0.00     0.062 A 
ATOM      3  C2  UNL d   1       1.414   5.118  -0.454  0.00  0.00     0.162 A 
ATOM      4  C3  UNL d   1       0.120   4.601  -0.385  0.00  0.00    -0.034 A 
ATOM      5  C4  UNL d   1      -0.195   3.688   0.624  0.00  0.00     0.162 A 
ATOM      6  C5  UNL d   1       0.771   3.303   1.548  0.00  0.00     0.062 A 
ATOM      7  F   UNL d   1       0.459   2.427   2.514  0.00  0.00    -0.097 F 
ATOM      8  F1  UNL d   1      -1.429   3.172   0.720  0.00  0.00    -0.096 F 
ATOM      9  I   UNL d   1      -1.322   5.180  -1.769  0.00  0.00    -0.060 I 
ATOM     10  F2  UNL d   1       1.752   5.996  -1.410  0.00  0.00    -0.096 F 
ATOM     11  F3  UNL d   1       3.617   5.232   0.399  0.00  0.00    -0.097 F 
ATOM     12  F4  UNL d   1       2.984   3.449   2.364  0.00  0.00    -0.092 F 
ENDROOT
TORSDOF 0
ENDMDL
