MODEL 1
REMARK minimizedAffinity 3.87436008
REMARK minimizedRMSD -1
REMARK  0 active torsions:
REMARK  status: ('A' for Active; 'I' for Inactive)
ROOT
ATOM      1  C   UNL d   1      -0.094   4.757  -1.774  0.00  0.00     0.124 A 
ATOM      2  C1  UNL d   1       0.551   4.034  -0.779  0.00  0.00     0.062 A 
ATOM      3  C2  UNL d   1       0.121   2.751  -0.456  0.00  0.00     0.162 A 
ATOM      4  C3  UNL d   1      -0.959   2.180  -1.129  0.00  0.00    -0.034 A 
ATOM      5  C4  UNL d   1      -1.603   2.913  -2.128  0.00  0.00     0.162 A 
ATOM      6  C5  UNL d   1      -1.170   4.195  -2.447  0.00  0.00     0.062 A 
ATOM      7  F   UNL d   1      -1.794   4.892  -3.408  0.00  0.00    -0.097 F 
ATOM      8  F1  UNL d   1      -2.645   2.394  -2.795  0.00  0.00    -0.096 F 
ATOM      9  I   UNL d   1      -1.605   0.261  -0.649  0.00  0.00    -0.060 I 
ATOM     10  F2  UNL d   1       0.762   2.076   0.510  0.00  0.00    -0.096 F 
ATOM     11  F3  UNL d   1       1.590   4.575  -0.126  0.00  0.00    -0.097 F 
ATOM     12  F4  UNL d   1       0.321   5.992  -2.082  0.00  0.00    -0.092 F 
ENDROOT
TORSDOF 0
ENDMDL
