MODEL 1
REMARK minimizedAffinity -0.463830411
REMARK minimizedRMSD -1
REMARK  2 active torsions:
REMARK  status: ('A' for Active; 'I' for Inactive)
REMARK    1  A    between atoms: C2'_3  and  C1'_4 
REMARK    2  A    between atoms: C1'_4  and  C1_5 
ROOT
ATOM      1  C1  I4B d   1       1.983  -2.192  -0.102  0.00  0.00    -0.075 A 
ATOM      2  C2  I4B d   1       1.560  -3.496  -0.031  0.00  0.00     0.003 A 
ATOM      3  C3  I4B d   1       2.503  -4.552  -0.011  0.00  0.00     0.002 A 
ATOM      4  C4  I4B d   1       3.849  -4.263  -0.114  0.00  0.00    -0.004 A 
ATOM      5  C5  I4B d   1       4.277  -2.940  -0.163  0.00  0.00     0.002 A 
ATOM      6  C6  I4B d   1       3.340  -1.897  -0.145  0.00  0.00     0.003 A 
ENDROOT
BRANCH   1   7
ATOM      7  C1' I4B d   1       0.959  -1.103  -0.154  0.00  0.00     0.060 C 
BRANCH   7   8
ATOM      8  C2' I4B d   1       0.297  -1.019   1.206  0.00  0.00    -0.013 C 
ATOM      9  C4' I4B d   1       1.089  -0.148   2.145  0.00  0.00     0.013 C 
ATOM     10  C3' I4B d   1      -1.091  -0.486   1.013  0.00  0.00     0.013 C 
ENDBRANCH   7   8
ENDBRANCH   1   7
TORSDOF 2
ENDMDL
