MODEL 1
REMARK minimizedAffinity 5.91858006
REMARK minimizedRMSD -1
REMARK  2 active torsions:
REMARK  status: ('A' for Active; 'I' for Inactive)
REMARK    1  A    between atoms: C2'_3  and  C1'_4 
REMARK    2  A    between atoms: C1'_4  and  C1_5 
ROOT
ATOM      1  C1  I4B d   1       0.845  -1.103   1.780  0.00  0.00    -0.075 A 
ATOM      2  C2  I4B d   1      -0.189  -0.228   1.998  0.00  0.00     0.003 A 
ATOM      3  C3  I4B d   1      -1.163  -0.010   0.993  0.00  0.00     0.002 A 
ATOM      4  C4  I4B d   1      -1.036  -0.647  -0.225  0.00  0.00    -0.004 A 
ATOM      5  C5  I4B d   1       0.001  -1.552  -0.436  0.00  0.00     0.002 A 
ATOM      6  C6  I4B d   1       0.940  -1.791   0.577  0.00  0.00     0.003 A 
ENDROOT
BRANCH   1   7
ATOM      7  C1' I4B d   1       1.874  -1.284   2.851  0.00  0.00     0.060 C 
BRANCH   7   8
ATOM      8  C2' I4B d   1       3.078  -0.438   2.490  0.00  0.00    -0.013 C 
ATOM      9  C4' I4B d   1       4.267  -1.298   2.152  0.00  0.00     0.013 C 
ATOM     10  C3' I4B d   1       2.697   0.438   1.334  0.00  0.00     0.013 C 
ENDBRANCH   7   8
ENDBRANCH   1   7
TORSDOF 2
ENDMDL
