MODEL 1
REMARK minimizedAffinity 1.58592677
REMARK minimizedRMSD -1
REMARK  2 active torsions:
REMARK  status: ('A' for Active; 'I' for Inactive)
REMARK    1  A    between atoms: C2'_3  and  C1'_4 
REMARK    2  A    between atoms: C1'_4  and  C1_5 
ROOT
ATOM      1  C1  I4B d   1       5.064   4.404  -1.253  0.00  0.00    -0.075 A 
ATOM      2  C2  I4B d   1       5.994   5.366  -0.946  0.00  0.00     0.003 A 
ATOM      3  C3  I4B d   1       5.975   5.997   0.322  0.00  0.00     0.002 A 
ATOM      4  C4  I4B d   1       4.985   5.673   1.227  0.00  0.00    -0.004 A 
ATOM      5  C5  I4B d   1       4.057   4.681   0.923  0.00  0.00     0.002 A 
ATOM      6  C6  I4B d   1       4.104   4.033  -0.321  0.00  0.00     0.003 A 
ENDROOT
BRANCH   1   7
ATOM      7  C1' I4B d   1       5.093   3.782  -2.613  0.00  0.00     0.060 C 
BRANCH   7   8
ATOM      8  C2' I4B d   1       3.746   3.134  -2.859  0.00  0.00    -0.013 C 
ATOM      9  C4' I4B d   1       3.076   3.714  -4.076  0.00  0.00     0.013 C 
ATOM     10  C3' I4B d   1       3.964   1.658  -3.013  0.00  0.00     0.013 C 
ENDBRANCH   7   8
ENDBRANCH   1   7
TORSDOF 2
ENDMDL
