MODEL 1
REMARK minimizedAffinity 1.83454466
REMARK minimizedRMSD -1
REMARK  2 active torsions:
REMARK  status: ('A' for Active; 'I' for Inactive)
REMARK    1  A    between atoms: C2'_3  and  C1'_4 
REMARK    2  A    between atoms: C1'_4  and  C1_5 
ROOT
ATOM      1  C1  I4B d   1       4.074   5.272  -0.698  0.00  0.00    -0.075 A 
ATOM      2  C2  I4B d   1       4.017   3.907  -0.833  0.00  0.00     0.003 A 
ATOM      3  C3  I4B d   1       4.971   3.229  -1.629  0.00  0.00     0.002 A 
ATOM      4  C4  I4B d   1       5.929   3.955  -2.308  0.00  0.00    -0.004 A 
ATOM      5  C5  I4B d   1       6.000   5.336  -2.151  0.00  0.00     0.002 A 
ATOM      6  C6  I4B d   1       5.074   5.998  -1.331  0.00  0.00     0.003 A 
ENDROOT
BRANCH   1   7
ATOM      7  C1' I4B d   1       3.030   5.959   0.124  0.00  0.00     0.060 C 
BRANCH   7   8
ATOM      8  C2' I4B d   1       3.420   5.825   1.582  0.00  0.00    -0.013 C 
ATOM      9  C4' I4B d   1       2.987   4.495   2.142  0.00  0.00     0.013 C 
ATOM     10  C3' I4B d   1       4.907   5.995   1.681  0.00  0.00     0.013 C 
ENDBRANCH   7   8
ENDBRANCH   1   7
TORSDOF 2
ENDMDL
