MODEL 1
REMARK minimizedAffinity 1.865785
REMARK minimizedRMSD -1
REMARK  2 active torsions:
REMARK  status: ('A' for Active; 'I' for Inactive)
REMARK    1  A    between atoms: C2'_3  and  C1'_4 
REMARK    2  A    between atoms: C1'_4  and  C1_5 
ROOT
ATOM      1  C1  I4B d   1       4.105   3.935  -2.296  0.00  0.00    -0.075 A 
ATOM      2  C2  I4B d   1       3.134   3.936  -3.266  0.00  0.00     0.003 A 
ATOM      3  C3  I4B d   1       2.794   2.736  -3.935  0.00  0.00     0.002 A 
ATOM      4  C4  I4B d   1       3.479   1.575  -3.640  0.00  0.00    -0.004 A 
ATOM      5  C5  I4B d   1       4.448   1.571  -2.640  0.00  0.00     0.002 A 
ATOM      6  C6  I4B d   1       4.754   2.756  -1.954  0.00  0.00     0.003 A 
ENDROOT
BRANCH   1   7
ATOM      7  C1' I4B d   1       4.463   5.228  -1.633  0.00  0.00     0.060 C 
BRANCH   7   8
ATOM      8  C2' I4B d   1       4.896   4.920  -0.214  0.00  0.00    -0.013 C 
ATOM      9  C4' I4B d   1       5.979   5.862   0.242  0.00  0.00     0.013 C 
ATOM     10  C3' I4B d   1       3.688   5.017   0.670  0.00  0.00     0.013 C 
ENDBRANCH   7   8
ENDBRANCH   1   7
TORSDOF 2
ENDMDL
