MODEL 1
REMARK minimizedAffinity -5.36810684
REMARK minimizedRMSD -1
REMARK  2 active torsions:
REMARK  status: ('A' for Active; 'I' for Inactive)
REMARK    1  A    between atoms: C2'_3  and  C1'_4 
REMARK    2  A    between atoms: C1'_4  and  C1_5 
ROOT
ATOM      1  C1  I4B d   1      -1.375  -1.029   1.182  0.00  0.00    -0.075 A 
ATOM      2  C2  I4B d   1      -0.033  -0.751   1.257  0.00  0.00     0.003 A 
ATOM      3  C3  I4B d   1       0.912  -1.637   0.685  0.00  0.00     0.002 A 
ATOM      4  C4  I4B d   1       0.477  -2.807   0.097  0.00  0.00    -0.004 A 
ATOM      5  C5  I4B d   1      -0.885  -3.077   0.002  0.00  0.00     0.002 A 
ATOM      6  C6  I4B d   1      -1.818  -2.177   0.537  0.00  0.00     0.003 A 
ENDROOT
BRANCH   1   7
ATOM      7  C1' I4B d   1      -2.343  -0.088   1.825  0.00  0.00     0.060 C 
BRANCH   7   8
ATOM      8  C2' I4B d   1      -2.512   1.106   0.909  0.00  0.00    -0.013 C 
ATOM      9  C4' I4B d   1      -3.867   1.103   0.252  0.00  0.00     0.013 C 
ATOM     10  C3' I4B d   1      -2.308   2.348   1.724  0.00  0.00     0.013 C 
ENDBRANCH   7   8
ENDBRANCH   1   7
TORSDOF 2
ENDMDL
