MODEL 1
REMARK minimizedAffinity -0.148669824
REMARK minimizedRMSD -1
REMARK  2 active torsions:
REMARK  status: ('A' for Active; 'I' for Inactive)
REMARK    1  A    between atoms: C2'_3  and  C1'_4 
REMARK    2  A    between atoms: C1'_4  and  C1_5 
ROOT
ATOM      1  C1  I4B d   1       1.657  -1.369   0.384  0.00  0.00    -0.075 A 
ATOM      2  C2  I4B d   1       0.435  -1.530  -0.219  0.00  0.00     0.003 A 
ATOM      3  C3  I4B d   1      -0.720  -0.928   0.338  0.00  0.00     0.002 A 
ATOM      4  C4  I4B d   1      -0.615  -0.219   1.517  0.00  0.00    -0.004 A 
ATOM      5  C5  I4B d   1       0.629  -0.038   2.115  0.00  0.00     0.002 A 
ATOM      6  C6  I4B d   1       1.774  -0.605   1.538  0.00  0.00     0.003 A 
ENDROOT
BRANCH   1   7
ATOM      7  C1' I4B d   1       2.850  -2.046  -0.212  0.00  0.00     0.060 C 
BRANCH   7   8
ATOM      8  C2' I4B d   1       2.499  -3.504  -0.430  0.00  0.00    -0.013 C 
ATOM      9  C4' I4B d   1       3.677  -4.397  -0.142  0.00  0.00     0.013 C 
ATOM     10  C3' I4B d   1       1.337  -3.837   0.458  0.00  0.00     0.013 C 
ENDBRANCH   7   8
ENDBRANCH   1   7
TORSDOF 2
ENDMDL
