MODEL 1
REMARK minimizedAffinity 1.70030904
REMARK minimizedRMSD -1
REMARK  2 active torsions:
REMARK  status: ('A' for Active; 'I' for Inactive)
REMARK    1  A    between atoms: C2'_3  and  C1'_4 
REMARK    2  A    between atoms: C1'_4  and  C1_5 
ROOT
ATOM      1  C1  I4B d   1       1.575  -1.734   0.606  0.00  0.00    -0.075 A 
ATOM      2  C2  I4B d   1       1.632  -0.673   1.475  0.00  0.00     0.003 A 
ATOM      3  C3  I4B d   1       0.476   0.104   1.728  0.00  0.00     0.002 A 
ATOM      4  C4  I4B d   1      -0.696  -0.182   1.058  0.00  0.00    -0.004 A 
ATOM      5  C5  I4B d   1      -0.758  -1.273   0.195  0.00  0.00     0.002 A 
ATOM      6  C6  I4B d   1       0.381  -2.062  -0.023  0.00  0.00     0.003 A 
ENDROOT
BRANCH   1   7
ATOM      7  C1' I4B d   1       2.823  -2.513   0.337  0.00  0.00     0.060 C 
BRANCH   7   8
ATOM      8  C2' I4B d   1       2.461  -3.985   0.325  0.00  0.00    -0.013 C 
ATOM      9  C4' I4B d   1       1.420  -4.282  -0.722  0.00  0.00     0.013 C 
ATOM     10  C3' I4B d   1       3.716  -4.768   0.078  0.00  0.00     0.013 C 
ENDBRANCH   7   8
ENDBRANCH   1   7
TORSDOF 2
ENDMDL
