MODEL 1
REMARK minimizedAffinity -0.430265754
REMARK minimizedRMSD -1
REMARK  2 active torsions:
REMARK  status: ('A' for Active; 'I' for Inactive)
REMARK    1  A    between atoms: C2'_3  and  C1'_4 
REMARK    2  A    between atoms: C1'_4  and  C1_5 
ROOT
ATOM      1  C1  I4B d   1      -0.189  -0.878   0.978  0.00  0.00    -0.075 A 
ATOM      2  C2  I4B d   1       0.771  -0.189   1.678  0.00  0.00     0.003 A 
ATOM      3  C3  I4B d   1       2.143  -0.407   1.408  0.00  0.00     0.002 A 
ATOM      4  C4  I4B d   1       2.511  -1.353   0.473  0.00  0.00    -0.004 A 
ATOM      5  C5  I4B d   1       1.536  -2.033  -0.252  0.00  0.00     0.002 A 
ATOM      6  C6  I4B d   1       0.178  -1.786  -0.007  0.00  0.00     0.003 A 
ENDROOT
BRANCH   1   7
ATOM      7  C1' I4B d   1      -1.629  -0.647   1.311  0.00  0.00     0.060 C 
BRANCH   7   8
ATOM      8  C2' I4B d   1      -2.020   0.714   0.773  0.00  0.00    -0.013 C 
ATOM      9  C4' I4B d   1      -3.435   0.711   0.259  0.00  0.00     0.013 C 
ATOM     10  C3' I4B d   1      -1.847   1.715   1.877  0.00  0.00     0.013 C 
ENDBRANCH   7   8
ENDBRANCH   1   7
TORSDOF 2
ENDMDL
