MODEL 1
REMARK minimizedAffinity 1.3913753
REMARK minimizedRMSD -1
REMARK  2 active torsions:
REMARK  status: ('A' for Active; 'I' for Inactive)
REMARK    1  A    between atoms: C2'_3  and  C1'_4 
REMARK    2  A    between atoms: C1'_4  and  C1_5 
ROOT
ATOM      1  C1  I4B d   1       4.476   3.876  -0.201  0.00  0.00    -0.075 A 
ATOM      2  C2  I4B d   1       5.392   4.894  -0.104  0.00  0.00     0.003 A 
ATOM      3  C3  I4B d   1       5.186   5.953   0.814  0.00  0.00     0.002 A 
ATOM      4  C4  I4B d   1       4.035   5.980   1.573  0.00  0.00    -0.004 A 
ATOM      5  C5  I4B d   1       3.119   4.935   1.490  0.00  0.00     0.002 A 
ATOM      6  C6  I4B d   1       3.346   3.870   0.607  0.00  0.00     0.003 A 
ENDROOT
BRANCH   1   7
ATOM      7  C1' I4B d   1       4.708   2.791  -1.204  0.00  0.00     0.060 C 
BRANCH   7   8
ATOM      8  C2' I4B d   1       3.401   2.052  -1.403  0.00  0.00    -0.013 C 
ATOM      9  C4' I4B d   1       2.751   2.434  -2.707  0.00  0.00     0.013 C 
ATOM     10  C3' I4B d   1       3.688   0.581  -1.352  0.00  0.00     0.013 C 
ENDBRANCH   7   8
ENDBRANCH   1   7
TORSDOF 2
ENDMDL
