MODEL 1
REMARK minimizedAffinity 4.17437696
REMARK minimizedRMSD -1
REMARK  2 active torsions:
REMARK  status: ('A' for Active; 'I' for Inactive)
REMARK    1  A    between atoms: C2'_3  and  C1'_4 
REMARK    2  A    between atoms: C1'_4  and  C1_5 
ROOT
ATOM      1  C1  I4B d   1       3.593   4.083  -1.943  0.00  0.00    -0.075 A 
ATOM      2  C2  I4B d   1       4.279   3.041  -1.370  0.00  0.00     0.003 A 
ATOM      3  C3  I4B d   1       4.179   1.738  -1.914  0.00  0.00     0.002 A 
ATOM      4  C4  I4B d   1       3.349   1.513  -2.993  0.00  0.00    -0.004 A 
ATOM      5  C5  I4B d   1       2.672   2.574  -3.587  0.00  0.00     0.002 A 
ATOM      6  C6  I4B d   1       2.805   3.870  -3.067  0.00  0.00     0.003 A 
ENDROOT
BRANCH   1   7
ATOM      7  C1' I4B d   1       3.695   5.441  -1.324  0.00  0.00     0.060 C 
BRANCH   7   8
ATOM      8  C2' I4B d   1       4.030   5.261   0.143  0.00  0.00    -0.013 C 
ATOM      9  C4' I4B d   1       5.334   5.929   0.490  0.00  0.00     0.013 C 
ATOM     10  C3' I4B d   1       2.899   5.827   0.949  0.00  0.00     0.013 C 
ENDBRANCH   7   8
ENDBRANCH   1   7
TORSDOF 2
ENDMDL
