MODEL 1
REMARK minimizedAffinity 7.35548449
REMARK minimizedRMSD -1
REMARK  2 active torsions:
REMARK  status: ('A' for Active; 'I' for Inactive)
REMARK    1  A    between atoms: C2'_3  and  C1'_4 
REMARK    2  A    between atoms: C1'_4  and  C1_5 
ROOT
ATOM      1  C1  I4B d   1       0.086  -1.215   0.687  0.00  0.00    -0.075 A 
ATOM      2  C2  I4B d   1      -0.102  -2.521   0.307  0.00  0.00     0.003 A 
ATOM      3  C3  I4B d   1       0.980  -3.277  -0.205  0.00  0.00     0.002 A 
ATOM      4  C4  I4B d   1       2.212  -2.677  -0.367  0.00  0.00    -0.004 A 
ATOM      5  C5  I4B d   1       2.407  -1.360   0.039  0.00  0.00     0.002 A 
ATOM      6  C6  I4B d   1       1.340  -0.628   0.581  0.00  0.00     0.003 A 
ENDROOT
BRANCH   1   7
ATOM      7  C1' I4B d   1      -1.086  -0.436   1.193  0.00  0.00     0.060 C 
BRANCH   7   8
ATOM      8  C2' I4B d   1      -2.316  -0.902   0.442  0.00  0.00    -0.013 C 
ATOM      9  C4' I4B d   1      -3.154  -1.825   1.286  0.00  0.00     0.013 C 
ATOM     10  C3' I4B d   1      -3.095   0.312   0.031  0.00  0.00     0.013 C 
ENDBRANCH   7   8
ENDBRANCH   1   7
TORSDOF 2
ENDMDL
