MODEL 1
REMARK minimizedAffinity 3.69522715
REMARK minimizedRMSD -1
REMARK  2 active torsions:
REMARK  status: ('A' for Active; 'I' for Inactive)
REMARK    1  A    between atoms: C2'_3  and  C1'_4 
REMARK    2  A    between atoms: C1'_4  and  C1_5 
ROOT
ATOM      1  C1  I4B d   1      -0.388  -0.544   1.181  0.00  0.00    -0.075 A 
ATOM      2  C2  I4B d   1       0.635   0.137   1.792  0.00  0.00     0.003 A 
ATOM      3  C3  I4B d   1       1.979  -0.111   1.421  0.00  0.00     0.002 A 
ATOM      4  C4  I4B d   1       2.255  -1.079   0.477  0.00  0.00    -0.004 A 
ATOM      5  C5  I4B d   1       1.216  -1.752  -0.158  0.00  0.00     0.002 A 
ATOM      6  C6  I4B d   1      -0.115  -1.474   0.187  0.00  0.00     0.003 A 
ENDROOT
BRANCH   1   7
ATOM      7  C1' I4B d   1      -1.793  -0.280   1.621  0.00  0.00     0.060 C 
BRANCH   7   8
ATOM      8  C2' I4B d   1      -2.257   1.001   0.958  0.00  0.00    -0.013 C 
ATOM      9  C4' I4B d   1      -3.634   0.842   0.369  0.00  0.00     0.013 C 
ATOM     10  C3' I4B d   1      -2.231   2.091   1.988  0.00  0.00     0.013 C 
ENDBRANCH   7   8
ENDBRANCH   1   7
TORSDOF 2
ENDMDL
