MODEL 1
REMARK minimizedAffinity -3.42459798
REMARK minimizedRMSD -1
REMARK  1 active torsions:
REMARK  status: ('A' for Active; 'I' for Inactive)
REMARK    1  A    between atoms: N_2  and  C1_3 
ROOT
ATOM      1  C1  UNL d   1       0.631  -1.159  -0.201  0.00  0.00     0.143 A 
ATOM      2  C2  UNL d   1       1.855  -1.547  -0.756  0.00  0.00    -0.057 A 
ATOM      3  C3  UNL d   1       2.944  -1.890   0.054  0.00  0.00     0.033 A 
ATOM      4  C4  UNL d   1       2.837  -1.821   1.439  0.00  0.00    -0.042 A 
ATOM      5  C5  UNL d   1       1.638  -1.413   2.013  0.00  0.00     0.033 A 
ATOM      6  C6  UNL d   1       0.552  -1.079   1.199  0.00  0.00    -0.057 A 
ENDROOT
BRANCH   1   7
ATOM      7  N   UNL d   1      -0.458  -0.711  -0.953  0.00  0.00    -0.732 N 
ATOM      8  C   UNL d   1      -1.115   0.536  -0.629  0.00  0.00     0.284 C 
ATOM      9  H3  UNL d   1      -0.331  -0.868  -1.950  0.00  0.00     0.395 HD
ENDBRANCH   1   7
TORSDOF 1
ENDMDL
