MODEL 1
REMARK minimizedAffinity -4.12420177
REMARK minimizedRMSD -1
REMARK  1 active torsions:
REMARK  status: ('A' for Active; 'I' for Inactive)
REMARK    1  A    between atoms: N_2  and  C1_3 
ROOT
ATOM      1  C1  UNL d   1      -1.133   0.270  -0.088  0.00  0.00     0.143 A 
ATOM      2  C2  UNL d   1      -0.119   1.131   0.348  0.00  0.00    -0.057 A 
ATOM      3  C3  UNL d   1       1.200   0.685   0.491  0.00  0.00     0.033 A 
ATOM      4  C4  UNL d   1       1.525  -0.642   0.227  0.00  0.00    -0.042 A 
ATOM      5  C5  UNL d   1       0.529  -1.521  -0.183  0.00  0.00     0.033 A 
ATOM      6  C6  UNL d   1      -0.786  -1.068  -0.330  0.00  0.00    -0.057 A 
ENDROOT
BRANCH   1   7
ATOM      7  N   UNL d   1      -2.482   0.628  -0.155  0.00  0.00    -0.732 N 
ATOM      8  C   UNL d   1      -3.213   0.975   1.045  0.00  0.00     0.284 C 
ATOM      9  H3  UNL d   1      -2.686   1.225  -0.953  0.00  0.00     0.395 HD
ENDBRANCH   1   7
TORSDOF 1
ENDMDL
