MODEL 1
REMARK minimizedAffinity -3.14739943
REMARK minimizedRMSD -1
REMARK  1 active torsions:
REMARK  status: ('A' for Active; 'I' for Inactive)
REMARK    1  A    between atoms: N_2  and  C1_3 
ROOT
ATOM      1  C1  UNL d   1      -1.304   0.414   0.066  0.00  0.00     0.143 A 
ATOM      2  C2  UNL d   1      -2.338   1.108  -0.572  0.00  0.00    -0.057 A 
ATOM      3  C3  UNL d   1      -3.595   1.248   0.027  0.00  0.00     0.033 A 
ATOM      4  C4  UNL d   1      -3.851   0.671   1.267  0.00  0.00    -0.042 A 
ATOM      5  C5  UNL d   1      -2.845  -0.044   1.908  0.00  0.00     0.033 A 
ATOM      6  C6  UNL d   1      -1.590  -0.176   1.307  0.00  0.00    -0.057 A 
ENDROOT
BRANCH   1   7
ATOM      7  N   UNL d   1      -0.063   0.155  -0.521  0.00  0.00    -0.732 N 
ATOM      8  C   UNL d   1       0.591  -1.122  -0.331  0.00  0.00     0.284 C 
ATOM      9  H3  UNL d   1       0.001   0.518  -1.470  0.00  0.00     0.395 HD
ENDBRANCH   1   7
TORSDOF 1
ENDMDL
