MODEL 1
REMARK minimizedAffinity -4.48865843
REMARK minimizedRMSD -1
REMARK  1 active torsions:
REMARK  status: ('A' for Active; 'I' for Inactive)
REMARK    1  A    between atoms: N_2  and  C1_3 
ROOT
ATOM      1  C1  UNL d   1       1.060  -0.098   0.283  0.00  0.00     0.143 A 
ATOM      2  C2  UNL d   1       2.124  -1.001   0.382  0.00  0.00    -0.057 A 
ATOM      3  C3  UNL d   1       3.441  -0.556   0.549  0.00  0.00     0.033 A 
ATOM      4  C4  UNL d   1       3.721   0.805   0.592  0.00  0.00    -0.042 A 
ATOM      5  C5  UNL d   1       2.683   1.722   0.470  0.00  0.00     0.033 A 
ATOM      6  C6  UNL d   1       1.369   1.271   0.310  0.00  0.00    -0.057 A 
ENDROOT
BRANCH   1   7
ATOM      7  N   UNL d   1      -0.259  -0.475   0.017  0.00  0.00    -0.732 N 
ATOM      8  C   UNL d   1      -1.259   0.519  -0.305  0.00  0.00     0.284 C 
ATOM      9  H3  UNL d   1      -0.315  -1.319  -0.548  0.00  0.00     0.395 HD
ENDBRANCH   1   7
TORSDOF 1
ENDMDL
