MODEL 1
REMARK minimizedAffinity -3.93909407
REMARK minimizedRMSD -1
REMARK  1 active torsions:
REMARK  status: ('A' for Active; 'I' for Inactive)
REMARK    1  A    between atoms: N_2  and  C1_3 
ROOT
ATOM      1  C1  UNL d   1       3.105   0.532  -0.147  0.00  0.00     0.143 A 
ATOM      2  C2  UNL d   1       1.746   0.858  -0.207  0.00  0.00    -0.057 A 
ATOM      3  C3  UNL d   1       0.758  -0.095   0.069  0.00  0.00     0.033 A 
ATOM      4  C4  UNL d   1       1.113  -1.403   0.383  0.00  0.00    -0.042 A 
ATOM      5  C5  UNL d   1       2.457  -1.756   0.423  0.00  0.00     0.033 A 
ATOM      6  C6  UNL d   1       3.439  -0.798   0.153  0.00  0.00    -0.057 A 
ENDROOT
BRANCH   1   7
ATOM      7  N   UNL d   1       4.132   1.408  -0.507  0.00  0.00    -0.732 N 
ATOM      8  C   UNL d   1       5.076   1.052  -1.545  0.00  0.00     0.284 C 
ATOM      9  H3  UNL d   1       3.822   2.376  -0.542  0.00  0.00     0.395 HD
ENDBRANCH   1   7
TORSDOF 1
ENDMDL
