MODEL 1
REMARK minimizedAffinity -5.16921759
REMARK minimizedRMSD -1
REMARK  1 active torsions:
REMARK  status: ('A' for Active; 'I' for Inactive)
REMARK    1  A    between atoms: N_2  and  C1_3 
ROOT
ATOM      1  C1  UNL d   1       0.377   0.151  -0.554  0.00  0.00     0.143 A 
ATOM      2  C2  UNL d   1       1.018   1.387  -0.423  0.00  0.00    -0.057 A 
ATOM      3  C3  UNL d   1       2.408   1.501  -0.549  0.00  0.00     0.033 A 
ATOM      4  C4  UNL d   1       3.187   0.372  -0.780  0.00  0.00    -0.042 A 
ATOM      5  C5  UNL d   1       2.573  -0.871  -0.888  0.00  0.00     0.033 A 
ATOM      6  C6  UNL d   1       1.185  -0.978  -0.768  0.00  0.00    -0.057 A 
ENDROOT
BRANCH   1   7
ATOM      7  N   UNL d   1      -0.990  -0.043  -0.341  0.00  0.00    -0.732 N 
ATOM      8  C   UNL d   1      -1.950   0.956  -0.759  0.00  0.00     0.284 C 
ATOM      9  H3  UNL d   1      -1.280  -1.001  -0.525  0.00  0.00     0.395 HD
ENDBRANCH   1   7
TORSDOF 1
ENDMDL
