MODEL 1
REMARK minimizedAffinity -3.82004046
REMARK minimizedRMSD -1
REMARK  0 active torsions:
REMARK  status: ('A' for Active; 'I' for Inactive)
ROOT
ATOM      1  C1  DEN d   1      -1.194  -0.069   1.079  0.00  0.00     0.130 A 
ATOM      2  C2  DEN d   1      -1.422   1.169   0.339  0.00  0.00    -0.031 A 
ATOM      3  C3  DEN d   1      -0.239   1.418  -0.509  0.00  0.00     0.027 A 
ATOM      4  C4  DEN d   1       1.910   0.013  -0.749  0.00  0.00     0.027 A 
ATOM      5  C5  DEN d   1       2.567  -1.117  -0.314  0.00  0.00    -0.003 A 
ATOM      6  C6  DEN d   1       2.036  -1.951   0.633  0.00  0.00     0.001 A 
ATOM      7  C7  DEN d   1       0.791  -1.693   1.144  0.00  0.00     0.017 A 
ATOM      8  C8  DEN d   1       0.126  -0.552   0.715  0.00  0.00    -0.094 A 
ATOM      9  C9  DEN d   1       0.674   0.273  -0.252  0.00  0.00    -0.072 A 
ENDROOT
TORSDOF 0
ENDMDL
