MODEL 1
REMARK minimizedAffinity -3.96531892
REMARK minimizedRMSD -1
REMARK  0 active torsions:
REMARK  status: ('A' for Active; 'I' for Inactive)
ROOT
ATOM      1  C1  DEN d   1      -0.963   0.208   0.428  0.00  0.00     0.130 A 
ATOM      2  C2  DEN d   1      -0.659   0.828  -0.859  0.00  0.00    -0.031 A 
ATOM      3  C3  DEN d   1       0.733   0.484  -1.213  0.00  0.00     0.027 A 
ATOM      4  C4  DEN d   1       2.436  -0.944   0.096  0.00  0.00     0.027 A 
ATOM      5  C5  DEN d   1       2.640  -1.672   1.247  0.00  0.00    -0.003 A 
ATOM      6  C6  DEN d   1       1.677  -1.796   2.213  0.00  0.00     0.001 A 
ATOM      7  C7  DEN d   1       0.449  -1.219   2.026  0.00  0.00     0.017 A 
ATOM      8  C8  DEN d   1       0.238  -0.477   0.871  0.00  0.00    -0.094 A 
ATOM      9  C9  DEN d   1       1.220  -0.374  -0.099  0.00  0.00    -0.072 A 
ENDROOT
TORSDOF 0
ENDMDL
