MODEL 1
REMARK minimizedAffinity -1.43439782
REMARK minimizedRMSD -1
REMARK  0 active torsions:
REMARK  status: ('A' for Active; 'I' for Inactive)
ROOT
ATOM      1  C1  DEN d   1      -1.283   0.982   0.331  0.00  0.00     0.130 A 
ATOM      2  C2  DEN d   1      -0.925   1.897  -0.749  0.00  0.00    -0.031 A 
ATOM      3  C3  DEN d   1       0.469   1.612  -1.146  0.00  0.00     0.027 A 
ATOM      4  C4  DEN d   1       2.096  -0.153  -0.202  0.00  0.00     0.027 A 
ATOM      5  C5  DEN d   1       2.247  -1.155   0.731  0.00  0.00    -0.003 A 
ATOM      6  C6  DEN d   1       1.252  -1.489   1.611  0.00  0.00     0.001 A 
ATOM      7  C7  DEN d   1       0.045  -0.846   1.547  0.00  0.00     0.017 A 
ATOM      8  C8  DEN d   1      -0.113   0.171   0.614  0.00  0.00    -0.094 A 
ATOM      9  C9  DEN d   1       0.900   0.485  -0.275  0.00  0.00    -0.072 A 
ENDROOT
TORSDOF 0
ENDMDL
