MODEL 1
REMARK minimizedAffinity -2.99528098
REMARK minimizedRMSD -1
REMARK  0 active torsions:
REMARK  status: ('A' for Active; 'I' for Inactive)
ROOT
ATOM      1  C1  DEN d   1      -0.951  -0.531   1.507  0.00  0.00     0.130 A 
ATOM      2  C2  DEN d   1      -1.585   0.567   0.782  0.00  0.00    -0.031 A 
ATOM      3  C3  DEN d   1      -0.551   1.230  -0.038  0.00  0.00     0.027 A 
ATOM      4  C4  DEN d   1       1.955   0.663  -0.257  0.00  0.00     0.027 A 
ATOM      5  C5  DEN d   1       2.958  -0.178   0.173  0.00  0.00    -0.003 A 
ATOM      6  C6  DEN d   1       2.737  -1.166   1.095  0.00  0.00     0.001 A 
ATOM      7  C7  DEN d   1       1.474  -1.367   1.585  0.00  0.00     0.017 A 
ATOM      8  C8  DEN d   1       0.459  -0.518   1.162  0.00  0.00    -0.094 A 
ATOM      9  C9  DEN d   1       0.700   0.467   0.219  0.00  0.00    -0.072 A 
ENDROOT
TORSDOF 0
ENDMDL
