MODEL 1
REMARK minimizedAffinity -5.16321754
REMARK minimizedRMSD -1
REMARK  0 active torsions:
REMARK  status: ('A' for Active; 'I' for Inactive)
ROOT
ATOM      1  C1  DEN d   1       0.777  -1.700   3.221  0.00  0.00     0.130 A 
ATOM      2  C2  DEN d   1      -0.508  -1.021   3.369  0.00  0.00    -0.031 A 
ATOM      3  C3  DEN d   1      -0.798  -0.315   2.105  0.00  0.00     0.027 A 
ATOM      4  C4  DEN d   1       0.605  -0.211  -0.056  0.00  0.00     0.027 A 
ATOM      5  C5  DEN d   1       1.777  -0.620  -0.655  0.00  0.00    -0.003 A 
ATOM      6  C6  DEN d   1       2.705  -1.383   0.003  0.00  0.00     0.001 A 
ATOM      7  C7  DEN d   1       2.457  -1.799   1.284  0.00  0.00     0.017 A 
ATOM      8  C8  DEN d   1       1.282  -1.385   1.897  0.00  0.00    -0.094 A 
ATOM      9  C9  DEN d   1       0.350  -0.624   1.211  0.00  0.00    -0.072 A 
ENDROOT
TORSDOF 0
ENDMDL
