MODEL 1
REMARK minimizedAffinity -2.14271426
REMARK minimizedRMSD -1
REMARK  0 active torsions:
REMARK  status: ('A' for Active; 'I' for Inactive)
ROOT
ATOM      1  C1  DEN d   1      -0.781  -0.873   1.269  0.00  0.00     0.130 A 
ATOM      2  C2  DEN d   1      -1.391   0.096   0.363  0.00  0.00    -0.031 A 
ATOM      3  C3  DEN d   1      -0.308   0.762  -0.389  0.00  0.00     0.027 A 
ATOM      4  C4  DEN d   1       2.239   0.384  -0.241  0.00  0.00     0.027 A 
ATOM      5  C5  DEN d   1       3.234  -0.327   0.393  0.00  0.00    -0.003 A 
ATOM      6  C6  DEN d   1       2.964  -1.239   1.379  0.00  0.00     0.001 A 
ATOM      7  C7  DEN d   1       1.665  -1.496   1.729  0.00  0.00     0.017 A 
ATOM      8  C8  DEN d   1       0.657  -0.777   1.099  0.00  0.00    -0.094 A 
ATOM      9  C9  DEN d   1       0.949   0.131   0.096  0.00  0.00    -0.072 A 
ENDROOT
TORSDOF 0
ENDMDL
