MODEL 1
REMARK minimizedAffinity -1.40067959
REMARK minimizedRMSD -1
REMARK  0 active torsions:
REMARK  status: ('A' for Active; 'I' for Inactive)
ROOT
ATOM      1  C1  DEN d   1      -0.615   0.780   0.364  0.00  0.00     0.130 A 
ATOM      2  C2  DEN d   1      -1.104   0.019   1.511  0.00  0.00    -0.031 A 
ATOM      3  C3  DEN d   1      -0.002  -0.836   1.995  0.00  0.00     0.027 A 
ATOM      4  C4  DEN d   1       2.404  -1.051   1.088  0.00  0.00     0.027 A 
ATOM      5  C5  DEN d   1       3.282  -0.614   0.121  0.00  0.00    -0.003 A 
ATOM      6  C6  DEN d   1       2.916   0.285  -0.845  0.00  0.00     0.001 A 
ATOM      7  C7  DEN d   1       1.651   0.811  -0.839  0.00  0.00     0.017 A 
ATOM      8  C8  DEN d   1       0.758   0.370   0.128  0.00  0.00    -0.094 A 
ATOM      9  C9  DEN d   1       1.150  -0.530   1.104  0.00  0.00    -0.072 A 
ENDROOT
TORSDOF 0
ENDMDL
