MODEL 1
REMARK minimizedAffinity -3.86159658
REMARK minimizedRMSD -1
REMARK  0 active torsions:
REMARK  status: ('A' for Active; 'I' for Inactive)
ROOT
ATOM      1  C1  DEN d   1      -1.358   0.230   0.297  0.00  0.00     0.130 A 
ATOM      2  C2  DEN d   1      -1.231   1.373  -0.602  0.00  0.00    -0.031 A 
ATOM      3  C3  DEN d   1       0.132   1.357  -1.171  0.00  0.00     0.027 A 
ATOM      4  C4  DEN d   1       2.045  -0.321  -0.753  0.00  0.00     0.027 A 
ATOM      5  C5  DEN d   1       2.415  -1.452  -0.059  0.00  0.00    -0.003 A 
ATOM      6  C6  DEN d   1       1.571  -2.077   0.821  0.00  0.00     0.001 A 
ATOM      7  C7  DEN d   1       0.299  -1.601   0.996  0.00  0.00     0.017 A 
ATOM      8  C8  DEN d   1      -0.079  -0.456   0.306  0.00  0.00    -0.094 A 
ATOM      9  C9  DEN d   1       0.785   0.154  -0.588  0.00  0.00    -0.072 A 
ENDROOT
TORSDOF 0
ENDMDL
