MODEL 1
REMARK minimizedAffinity -4.19547749
REMARK minimizedRMSD -1
REMARK  0 active torsions:
REMARK  status: ('A' for Active; 'I' for Inactive)
ROOT
ATOM      1  C1  DEN d   1       0.235   1.446  -0.200  0.00  0.00     0.130 A 
ATOM      2  C2  DEN d   1      -0.920   0.819   0.436  0.00  0.00    -0.031 A 
ATOM      3  C3  DEN d   1      -0.462  -0.421   1.094  0.00  0.00     0.027 A 
ATOM      4  C4  DEN d   1       1.912  -1.424   1.192  0.00  0.00     0.027 A 
ATOM      5  C5  DEN d   1       3.219  -1.257   0.790  0.00  0.00    -0.003 A 
ATOM      6  C6  DEN d   1       3.613  -0.205   0.008  0.00  0.00     0.001 A 
ATOM      7  C7  DEN d   1       2.699   0.747  -0.360  0.00  0.00     0.017 A 
ATOM      8  C8  DEN d   1       1.378   0.582   0.035  0.00  0.00    -0.094 A 
ATOM      9  C9  DEN d   1       1.002  -0.483   0.836  0.00  0.00    -0.072 A 
ENDROOT
TORSDOF 0
ENDMDL
