MODEL 1
REMARK minimizedAffinity -1.32837367
REMARK minimizedRMSD -1
REMARK  0 active torsions:
REMARK  status: ('A' for Active; 'I' for Inactive)
ROOT
ATOM      1  C1  DEN d   1      -1.690   1.605  -2.816  0.00  0.00     0.130 A 
ATOM      2  C2  DEN d   1      -2.957   0.927  -3.078  0.00  0.00    -0.031 A 
ATOM      3  C3  DEN d   1      -3.173  -0.066  -2.007  0.00  0.00     0.027 A 
ATOM      4  C4  DEN d   1      -1.680  -0.615   0.023  0.00  0.00     0.027 A 
ATOM      5  C5  DEN d   1      -0.499  -0.310   0.662  0.00  0.00    -0.003 A 
ATOM      6  C6  DEN d   1       0.377   0.622   0.173  0.00  0.00     0.001 A 
ATOM      7  C7  DEN d   1       0.063   1.316  -0.966  0.00  0.00     0.017 A 
ATOM      8  C8  DEN d   1      -1.122   1.009  -1.620  0.00  0.00    -0.094 A 
ATOM      9  C9  DEN d   1      -2.000   0.072  -1.103  0.00  0.00    -0.072 A 
ENDROOT
TORSDOF 0
ENDMDL
