MODEL 1
REMARK minimizedAffinity -3.14389658
REMARK minimizedRMSD -1
REMARK  0 active torsions:
REMARK  status: ('A' for Active; 'I' for Inactive)
ROOT
ATOM      1  C1  DEN d   1      -0.431   0.778   0.137  0.00  0.00     0.130 A 
ATOM      2  C2  DEN d   1      -1.144  -0.037   1.118  0.00  0.00    -0.031 A 
ATOM      3  C3  DEN d   1      -2.422  -0.463   0.514  0.00  0.00     0.027 A 
ATOM      4  C4  DEN d   1      -3.361   0.053  -1.832  0.00  0.00     0.027 A 
ATOM      5  C5  DEN d   1      -3.123   0.714  -3.016  0.00  0.00    -0.003 A 
ATOM      6  C6  DEN d   1      -1.995   1.465  -3.218  0.00  0.00     0.001 A 
ATOM      7  C7  DEN d   1      -1.042   1.536  -2.237  0.00  0.00     0.017 A 
ATOM      8  C8  DEN d   1      -1.279   0.878  -1.038  0.00  0.00    -0.094 A 
ATOM      9  C9  DEN d   1      -2.419   0.114  -0.857  0.00  0.00    -0.072 A 
ENDROOT
TORSDOF 0
ENDMDL
