MODEL 1
REMARK minimizedAffinity 12.4250803
REMARK minimizedRMSD -1
REMARK  0 active torsions:
REMARK  status: ('A' for Active; 'I' for Inactive)
ROOT
ATOM      1  C1  DEN d   1       2.366  -0.503   1.973  0.00  0.00     0.130 A 
ATOM      2  C2  DEN d   1       3.612  -0.882   1.313  0.00  0.00    -0.031 A 
ATOM      3  C3  DEN d   1       3.487  -0.557  -0.122  0.00  0.00     0.027 A 
ATOM      4  C4  DEN d   1       1.496   0.497  -1.379  0.00  0.00     0.027 A 
ATOM      5  C5  DEN d   1       0.213   0.981  -1.245  0.00  0.00    -0.003 A 
ATOM      6  C6  DEN d   1      -0.449   0.972  -0.046  0.00  0.00     0.001 A 
ATOM      7  C7  DEN d   1       0.186   0.512   1.077  0.00  0.00     0.017 A 
ATOM      8  C8  DEN d   1       1.477   0.016   0.949  0.00  0.00    -0.094 A 
ATOM      9  C9  DEN d   1       2.134   0.045  -0.270  0.00  0.00    -0.072 A 
ENDROOT
TORSDOF 0
ENDMDL
