MODEL 1
REMARK minimizedAffinity -2.54419184
REMARK minimizedRMSD -1
REMARK  0 active torsions:
REMARK  status: ('A' for Active; 'I' for Inactive)
ROOT
ATOM      1  C1  DEN d   1      -2.687   1.520  -2.870  0.00  0.00     0.130 A 
ATOM      2  C2  DEN d   1      -1.487   2.339  -3.022  0.00  0.00    -0.031 A 
ATOM      3  C3  DEN d   1      -0.724   2.269  -1.760  0.00  0.00     0.027 A 
ATOM      4  C4  DEN d   1      -1.277   0.975   0.401  0.00  0.00     0.027 A 
ATOM      5  C5  DEN d   1      -2.194   0.147   1.011  0.00  0.00    -0.003 A 
ATOM      6  C6  DEN d   1      -3.347  -0.250   0.386  0.00  0.00     0.001 A 
ATOM      7  C7  DEN d   1      -3.591   0.144  -0.903  0.00  0.00     0.017 A 
ATOM      8  C8  DEN d   1      -2.675   0.984  -1.521  0.00  0.00    -0.094 A 
ATOM      9  C9  DEN d   1      -1.509   1.365  -0.878  0.00  0.00    -0.072 A 
ENDROOT
TORSDOF 0
ENDMDL
