MODEL 1
REMARK minimizedAffinity -5.28093433
REMARK minimizedRMSD -1
REMARK  0 active torsions:
REMARK  status: ('A' for Active; 'I' for Inactive)
ROOT
ATOM      1  C1  DEN d   1       1.500  -1.071  -0.288  0.00  0.00     0.130 A 
ATOM      2  C2  DEN d   1       1.859  -2.225   0.532  0.00  0.00    -0.031 A 
ATOM      3  C3  DEN d   1       0.892  -2.312   1.645  0.00  0.00     0.027 A 
ATOM      4  C4  DEN d   1      -1.118  -0.785   2.173  0.00  0.00     0.027 A 
ATOM      5  C5  DEN d   1      -1.815   0.332   1.769  0.00  0.00    -0.003 A 
ATOM      6  C6  DEN d   1      -1.440   1.073   0.680  0.00  0.00     0.001 A 
ATOM      7  C7  DEN d   1      -0.363   0.680  -0.070  0.00  0.00     0.017 A 
ATOM      8  C8  DEN d   1       0.350  -0.440   0.335  0.00  0.00    -0.094 A 
ATOM      9  C9  DEN d   1      -0.053  -1.183   1.432  0.00  0.00    -0.072 A 
ENDROOT
TORSDOF 0
ENDMDL
