MODEL 1
REMARK minimizedAffinity -3.85123038
REMARK minimizedRMSD -1
REMARK  1 active torsions:
REMARK  status: ('A' for Active; 'I' for Inactive)
REMARK    1  A    between atoms: C1_2  and  C2_3 
ROOT
ATOM      1  C2  UNL d   1       0.060   0.367   0.282  0.00  0.00    -0.073 A 
ATOM      2  C3  UNL d   1       1.208  -0.103  -0.366  0.00  0.00    -0.002 A 
ATOM      3  C4  UNL d   1       2.004  -1.081   0.231  0.00  0.00     0.004 A 
ATOM      4  C5  UNL d   1       1.658  -1.605   1.476  0.00  0.00    -0.004 A 
ATOM      5  C6  UNL d   1       0.508  -1.157   2.134  0.00  0.00    -0.075 A 
ATOM      6  C7  UNL d   1       0.122  -1.709   3.476  0.00  0.00     0.076 C 
ATOM      7  C8  UNL d   1      -0.285  -0.172   1.530  0.00  0.00     0.001 A 
ENDROOT
BRANCH   1   8
ATOM      8  C1  UNL d   1      -0.807   1.418  -0.361  0.00  0.00     0.053 C 
ATOM      9  C   UNL d   1      -1.477   0.908  -1.627  0.00  0.00     0.018 C 
ENDBRANCH   1   8
TORSDOF 1
ENDMDL
