MODEL 1
REMARK minimizedAffinity -1.19804645
REMARK minimizedRMSD -1
REMARK  1 active torsions:
REMARK  status: ('A' for Active; 'I' for Inactive)
REMARK    1  A    between atoms: C1_2  and  C2_3 
ROOT
ATOM      1  C2  UNL d   1      -0.559   0.000  -1.155  0.00  0.00    -0.073 A 
ATOM      2  C3  UNL d   1      -1.582   0.333  -0.259  0.00  0.00    -0.002 A 
ATOM      3  C4  UNL d   1      -1.508  -0.067   1.075  0.00  0.00     0.004 A 
ATOM      4  C5  UNL d   1      -0.410  -0.798   1.529  0.00  0.00    -0.004 A 
ATOM      5  C6  UNL d   1       0.628  -1.130   0.652  0.00  0.00    -0.075 A 
ATOM      6  C7  UNL d   1       1.815  -1.918   1.124  0.00  0.00     0.076 C 
ATOM      7  C8  UNL d   1       0.545  -0.727  -0.687  0.00  0.00     0.001 A 
ENDROOT
BRANCH   1   8
ATOM      8  C1  UNL d   1      -0.632   0.436  -2.596  0.00  0.00     0.053 C 
ATOM      9  C   UNL d   1      -1.910   1.202  -2.896  0.00  0.00     0.018 C 
ENDBRANCH   1   8
TORSDOF 1
ENDMDL
