MODEL 1
REMARK minimizedAffinity -3.32375073
REMARK minimizedRMSD -1
REMARK  1 active torsions:
REMARK  status: ('A' for Active; 'I' for Inactive)
REMARK    1  A    between atoms: C1_2  and  C2_3 
ROOT
ATOM      1  C2  UNL d   1      -0.727   0.951  -0.328  0.00  0.00    -0.073 A 
ATOM      2  C3  UNL d   1      -1.320   0.551   0.874  0.00  0.00    -0.002 A 
ATOM      3  C4  UNL d   1      -0.727  -0.441   1.657  0.00  0.00     0.004 A 
ATOM      4  C5  UNL d   1       0.467  -1.036   1.250  0.00  0.00    -0.004 A 
ATOM      5  C6  UNL d   1       1.081  -0.641   0.058  0.00  0.00    -0.075 A 
ATOM      6  C7  UNL d   1       2.365  -1.273  -0.395  0.00  0.00     0.076 C 
ATOM      7  C8  UNL d   1       0.478   0.354  -0.724  0.00  0.00     0.001 A 
ENDROOT
BRANCH   1   8
ATOM      8  C1  UNL d   1      -1.360   2.026  -1.174  0.00  0.00     0.053 C 
ATOM      9  C   UNL d   1      -2.236   1.445  -2.272  0.00  0.00     0.018 C 
ENDBRANCH   1   8
TORSDOF 1
ENDMDL
