MODEL 1
REMARK minimizedAffinity 7.75036716
REMARK minimizedRMSD -1
REMARK  1 active torsions:
REMARK  status: ('A' for Active; 'I' for Inactive)
REMARK    1  A    between atoms: C1_2  and  C2_3 
ROOT
ATOM      1  C2  UNL d   1      -3.719   3.812  -1.942  0.00  0.00    -0.073 A 
ATOM      2  C3  UNL d   1      -3.765   5.198  -1.755  0.00  0.00    -0.002 A 
ATOM      3  C4  UNL d   1      -2.693   5.999  -2.153  0.00  0.00     0.004 A 
ATOM      4  C5  UNL d   1      -1.570   5.424  -2.746  0.00  0.00    -0.004 A 
ATOM      5  C6  UNL d   1      -1.510   4.042  -2.952  0.00  0.00    -0.075 A 
ATOM      6  C7  UNL d   1      -0.307   3.407  -3.587  0.00  0.00     0.076 C 
ATOM      7  C8  UNL d   1      -2.589   3.244  -2.548  0.00  0.00     0.001 A 
ENDROOT
BRANCH   1   8
ATOM      8  C1  UNL d   1      -4.876   2.944  -1.520  0.00  0.00     0.053 C 
ATOM      9  C   UNL d   1      -4.515   1.467  -1.531  0.00  0.00     0.018 C 
ENDBRANCH   1   8
TORSDOF 1
ENDMDL
