MODEL 1
REMARK minimizedAffinity -2.37816882
REMARK minimizedRMSD -1
REMARK  1 active torsions:
REMARK  status: ('A' for Active; 'I' for Inactive)
REMARK    1  A    between atoms: C1_2  and  C2_3 
ROOT
ATOM      1  C2  UNL d   1      -1.399   0.404  -1.489  0.00  0.00    -0.073 A 
ATOM      2  C3  UNL d   1      -1.240  -0.987  -1.499  0.00  0.00    -0.002 A 
ATOM      3  C4  UNL d   1      -0.124  -1.573  -0.899  0.00  0.00     0.004 A 
ATOM      4  C5  UNL d   1       0.839  -0.777  -0.279  0.00  0.00    -0.004 A 
ATOM      5  C6  UNL d   1       0.691   0.614  -0.248  0.00  0.00    -0.075 A 
ATOM      6  C7  UNL d   1       1.719   1.484   0.414  0.00  0.00     0.076 C 
ATOM      7  C8  UNL d   1      -0.431   1.195  -0.854  0.00  0.00     0.001 A 
ENDROOT
BRANCH   1   8
ATOM      8  C1  UNL d   1      -2.605   1.041  -2.129  0.00  0.00     0.053 C 
ATOM      9  C   UNL d   1      -2.248   1.781  -3.408  0.00  0.00     0.018 C 
ENDBRANCH   1   8
TORSDOF 1
ENDMDL
