MODEL 1
REMARK minimizedAffinity -4.11486769
REMARK minimizedRMSD -1
REMARK  1 active torsions:
REMARK  status: ('A' for Active; 'I' for Inactive)
REMARK    1  A    between atoms: C1_2  and  C2_3 
ROOT
ATOM      1  C2  UNL d   1       0.116   0.505  -0.007  0.00  0.00    -0.073 A 
ATOM      2  C3  UNL d   1       1.296   0.705  -0.731  0.00  0.00    -0.002 A 
ATOM      3  C4  UNL d   1       2.404  -0.115  -0.514  0.00  0.00     0.004 A 
ATOM      4  C5  UNL d   1       2.342  -1.146   0.423  0.00  0.00    -0.004 A 
ATOM      5  C6  UNL d   1       1.167  -1.370   1.148  0.00  0.00    -0.075 A 
ATOM      6  C7  UNL d   1       1.084  -2.473   2.161  0.00  0.00     0.076 C 
ATOM      7  C8  UNL d   1       0.059  -0.540   0.927  0.00  0.00     0.001 A 
ENDROOT
BRANCH   1   8
ATOM      8  C1  UNL d   1      -1.085   1.384  -0.242  0.00  0.00     0.053 C 
ATOM      9  C   UNL d   1      -1.423   1.504  -1.720  0.00  0.00     0.018 C 
ENDBRANCH   1   8
TORSDOF 1
ENDMDL
