MODEL 1
REMARK minimizedAffinity -2.89974284
REMARK minimizedRMSD -1
REMARK  1 active torsions:
REMARK  status: ('A' for Active; 'I' for Inactive)
REMARK    1  A    between atoms: C1_2  and  C2_3 
ROOT
ATOM      1  C2  UNL d   1       0.435   0.036  -1.222  0.00  0.00    -0.073 A 
ATOM      2  C3  UNL d   1       0.440   0.886  -0.110  0.00  0.00    -0.002 A 
ATOM      3  C4  UNL d   1      -0.498   1.913  -0.004  0.00  0.00     0.004 A 
ATOM      4  C5  UNL d   1      -1.455   2.097  -1.003  0.00  0.00    -0.004 A 
ATOM      5  C6  UNL d   1      -1.484   1.250  -2.116  0.00  0.00    -0.075 A 
ATOM      6  C7  UNL d   1      -2.504   1.435  -3.200  0.00  0.00     0.076 C 
ATOM      7  C8  UNL d   1      -0.536   0.222  -2.216  0.00  0.00     0.001 A 
ENDROOT
BRANCH   1   8
ATOM      8  C1  UNL d   1       1.442  -1.079  -1.337  0.00  0.00     0.053 C 
ATOM      9  C   UNL d   1       2.339  -1.166  -0.113  0.00  0.00     0.018 C 
ENDBRANCH   1   8
TORSDOF 1
ENDMDL
