MODEL 1
REMARK minimizedAffinity -1.66760242
REMARK minimizedRMSD -1
REMARK  1 active torsions:
REMARK  status: ('A' for Active; 'I' for Inactive)
REMARK    1  A    between atoms: C1_2  and  C2_3 
ROOT
ATOM      1  C2  UNL d   1       0.747   0.070  -0.507  0.00  0.00    -0.073 A 
ATOM      2  C3  UNL d   1       1.052  -0.736  -1.609  0.00  0.00    -0.002 A 
ATOM      3  C4  UNL d   1       0.405  -0.536  -2.829  0.00  0.00     0.004 A 
ATOM      4  C5  UNL d   1      -0.547   0.474  -2.962  0.00  0.00    -0.004 A 
ATOM      5  C6  UNL d   1      -0.858   1.298  -1.875  0.00  0.00    -0.075 A 
ATOM      6  C7  UNL d   1      -1.881   2.388  -2.000  0.00  0.00     0.076 C 
ATOM      7  C8  UNL d   1      -0.206   1.089  -0.652  0.00  0.00     0.001 A 
ENDROOT
BRANCH   1   8
ATOM      8  C1  UNL d   1       1.447  -0.138   0.811  0.00  0.00     0.053 C 
ATOM      9  C   UNL d   1       2.471  -1.260   0.742  0.00  0.00     0.018 C 
ENDBRANCH   1   8
TORSDOF 1
ENDMDL
