MODEL 1
REMARK minimizedAffinity -3.17361903
REMARK minimizedRMSD -1
REMARK  1 active torsions:
REMARK  status: ('A' for Active; 'I' for Inactive)
REMARK    1  A    between atoms: C1_2  and  C2_3 
ROOT
ATOM      1  C2  UNL d   1       0.129   0.294  -0.034  0.00  0.00    -0.073 A 
ATOM      2  C3  UNL d   1       0.605  -0.104  -1.288  0.00  0.00    -0.002 A 
ATOM      3  C4  UNL d   1       1.673  -0.997  -1.386  0.00  0.00     0.004 A 
ATOM      4  C5  UNL d   1       2.271  -1.506  -0.233  0.00  0.00    -0.004 A 
ATOM      5  C6  UNL d   1       1.802  -1.129   1.030  0.00  0.00    -0.075 A 
ATOM      6  C7  UNL d   1       2.436  -1.665   2.280  0.00  0.00     0.076 C 
ATOM      7  C8  UNL d   1       0.731  -0.230   1.120  0.00  0.00     0.001 A 
ENDROOT
BRANCH   1   8
ATOM      8  C1  UNL d   1      -1.028   1.252   0.077  0.00  0.00     0.053 C 
ATOM      9  C   UNL d   1      -1.417   1.835  -1.273  0.00  0.00     0.018 C 
ENDBRANCH   1   8
TORSDOF 1
ENDMDL
