MODEL 1
REMARK minimizedAffinity 7.55596447
REMARK minimizedRMSD -1
REMARK  1 active torsions:
REMARK  status: ('A' for Active; 'I' for Inactive)
REMARK    1  A    between atoms: C1_2  and  C2_3 
ROOT
ATOM      1  C2  UNL d   1      -2.422   0.938  -0.468  0.00  0.00    -0.073 A 
ATOM      2  C3  UNL d   1      -1.907   1.096   0.824  0.00  0.00    -0.002 A 
ATOM      3  C4  UNL d   1      -1.497  -0.017   1.560  0.00  0.00     0.004 A 
ATOM      4  C5  UNL d   1      -1.589  -1.295   1.010  0.00  0.00    -0.004 A 
ATOM      5  C6  UNL d   1      -2.089  -1.472  -0.284  0.00  0.00    -0.075 A 
ATOM      6  C7  UNL d   1      -2.197  -2.841  -0.890  0.00  0.00     0.076 C 
ATOM      7  C8  UNL d   1      -2.502  -0.350  -1.016  0.00  0.00     0.001 A 
ENDROOT
BRANCH   1   8
ATOM      8  C1  UNL d   1      -2.860   2.137  -1.268  0.00  0.00     0.053 C 
ATOM      9  C   UNL d   1      -1.766   2.632  -2.200  0.00  0.00     0.018 C 
ENDBRANCH   1   8
TORSDOF 1
ENDMDL
