MODEL 1
REMARK minimizedAffinity 5.72262812
REMARK minimizedRMSD -1
REMARK  1 active torsions:
REMARK  status: ('A' for Active; 'I' for Inactive)
REMARK    1  A    between atoms: N_2  and  C1_3 
ROOT
ATOM      1  C1  UNL d   1      -1.057  -1.107   2.323  0.00  0.00     0.143 A 
ATOM      2  C2  UNL d   1      -1.823  -0.163   3.015  0.00  0.00    -0.057 A 
ATOM      3  C3  UNL d   1      -1.460   0.268   4.296  0.00  0.00     0.033 A 
ATOM      4  C4  UNL d   1      -0.336  -0.260   4.922  0.00  0.00    -0.042 A 
ATOM      5  C5  UNL d   1       0.427  -1.218   4.263  0.00  0.00     0.033 A 
ATOM      6  C6  UNL d   1       0.063  -1.640   2.981  0.00  0.00    -0.057 A 
ENDROOT
BRANCH   1   7
ATOM      7  N   UNL d   1      -1.420  -1.649   1.087  0.00  0.00    -0.732 N 
ATOM      8  C   UNL d   1      -1.406  -3.081   0.878  0.00  0.00     0.284 C 
ATOM      9  H3  UNL d   1      -2.222  -1.177   0.676  0.00  0.00     0.395 HD
ENDBRANCH   1   7
TORSDOF 1
ENDMDL
