MODEL 1
REMARK minimizedAffinity 9.6645155
REMARK minimizedRMSD -1
REMARK  1 active torsions:
REMARK  status: ('A' for Active; 'I' for Inactive)
REMARK    1  A    between atoms: N_2  and  C1_3 
ROOT
ATOM      1  C1  UNL d   1      -5.825   2.026  -1.226  0.00  0.00     0.143 A 
ATOM      2  C2  UNL d   1      -5.999   1.732  -2.583  0.00  0.00    -0.057 A 
ATOM      3  C3  UNL d   1      -5.763   0.445  -3.083  0.00  0.00     0.033 A 
ATOM      4  C4  UNL d   1      -5.320  -0.566  -2.237  0.00  0.00    -0.042 A 
ATOM      5  C5  UNL d   1      -5.116  -0.290  -0.889  0.00  0.00     0.033 A 
ATOM      6  C6  UNL d   1      -5.360   0.995  -0.395  0.00  0.00    -0.057 A 
ENDROOT
BRANCH   1   7
ATOM      7  N   UNL d   1      -5.949   3.308  -0.686  0.00  0.00    -0.732 N 
ATOM      8  C   UNL d   1      -5.162   4.406  -1.206  0.00  0.00     0.284 C 
ATOM      9  H3  UNL d   1      -6.915   3.551  -0.479  0.00  0.00     0.395 HD
ENDBRANCH   1   7
TORSDOF 1
ENDMDL
