MODEL 1
REMARK minimizedAffinity 6.99719
REMARK minimizedRMSD -1
REMARK  1 active torsions:
REMARK  status: ('A' for Active; 'I' for Inactive)
REMARK    1  A    between atoms: N_2  and  C1_3 
ROOT
ATOM      1  C1  UNL d   1       5.572   4.345  -2.012  0.00  0.00     0.143 A 
ATOM      2  C2  UNL d   1       5.294   5.644  -1.573  0.00  0.00    -0.057 A 
ATOM      3  C3  UNL d   1       5.392   5.991  -0.220  0.00  0.00     0.033 A 
ATOM      4  C4  UNL d   1       5.743   5.033   0.725  0.00  0.00    -0.042 A 
ATOM      5  C5  UNL d   1       6.000   3.730   0.316  0.00  0.00     0.033 A 
ATOM      6  C6  UNL d   1       5.906   3.391  -1.038  0.00  0.00    -0.057 A 
ENDROOT
BRANCH   1   7
ATOM      7  N   UNL d   1       5.396   3.915  -3.329  0.00  0.00    -0.732 N 
ATOM      8  C   UNL d   1       4.099   3.471  -3.793  0.00  0.00     0.284 C 
ATOM      9  H3  UNL d   1       5.902   4.492  -3.997  0.00  0.00     0.395 HD
ENDBRANCH   1   7
TORSDOF 1
ENDMDL
