MODEL 1
REMARK minimizedAffinity 3.78005791
REMARK minimizedRMSD -1
REMARK  1 active torsions:
REMARK  status: ('A' for Active; 'I' for Inactive)
REMARK    1  A    between atoms: N_2  and  C1_3 
ROOT
ATOM      1  C1  UNL d   1       5.160   3.524   1.348  0.00  0.00     0.143 A 
ATOM      2  C2  UNL d   1       5.899   3.649   0.166  0.00  0.00    -0.057 A 
ATOM      3  C3  UNL d   1       5.994   4.874  -0.504  0.00  0.00     0.033 A 
ATOM      4  C4  UNL d   1       5.326   5.994  -0.019  0.00  0.00    -0.042 A 
ATOM      5  C5  UNL d   1       4.565   5.887   1.140  0.00  0.00     0.033 A 
ATOM      6  C6  UNL d   1       4.479   4.662   1.809  0.00  0.00    -0.057 A 
ENDROOT
BRANCH   1   7
ATOM      7  N   UNL d   1       4.946   2.311   2.007  0.00  0.00    -0.732 N 
ATOM      8  C   UNL d   1       3.958   1.372   1.520  0.00  0.00     0.284 C 
ATOM      9  H3  UNL d   1       5.813   1.879   2.317  0.00  0.00     0.395 HD
ENDBRANCH   1   7
TORSDOF 1
ENDMDL
