MODEL 1
REMARK minimizedAffinity 10.0623646
REMARK minimizedRMSD -1
REMARK  1 active torsions:
REMARK  status: ('A' for Active; 'I' for Inactive)
REMARK    1  A    between atoms: N_2  and  C1_3 
ROOT
ATOM      1  C1  UNL d   1       5.605   3.764  -0.209  0.00  0.00     0.143 A 
ATOM      2  C2  UNL d   1       5.999   3.664   1.130  0.00  0.00    -0.057 A 
ATOM      3  C3  UNL d   1       5.502   2.650   1.959  0.00  0.00     0.033 A 
ATOM      4  C4  UNL d   1       4.578   1.733   1.470  0.00  0.00    -0.042 A 
ATOM      5  C5  UNL d   1       4.154   1.828   0.149  0.00  0.00     0.033 A 
ATOM      6  C6  UNL d   1       4.658   2.839  -0.676  0.00  0.00    -0.057 A 
ENDROOT
BRANCH   1   7
ATOM      7  N   UNL d   1       5.987   4.807  -1.056  0.00  0.00    -0.732 N 
ATOM      8  C   UNL d   1       4.999   5.530  -1.826  0.00  0.00     0.284 C 
ATOM      9  H3  UNL d   1       6.708   5.396  -0.646  0.00  0.00     0.395 HD
ENDBRANCH   1   7
TORSDOF 1
ENDMDL
