MODEL 1
REMARK minimizedAffinity 20.4930115
REMARK minimizedRMSD -1
REMARK  1 active torsions:
REMARK  status: ('A' for Active; 'I' for Inactive)
REMARK    1  A    between atoms: N_2  and  C1_3 
ROOT
ATOM      1  C1  UNL d   1      -0.213   5.012  -3.765  0.00  0.00     0.143 A 
ATOM      2  C2  UNL d   1      -1.550   5.182  -3.389  0.00  0.00    -0.057 A 
ATOM      3  C3  UNL d   1      -2.511   5.626  -4.305  0.00  0.00     0.033 A 
ATOM      4  C4  UNL d   1      -2.144   5.937  -5.611  0.00  0.00    -0.042 A 
ATOM      5  C5  UNL d   1      -0.817   5.800  -6.000  0.00  0.00     0.033 A 
ATOM      6  C6  UNL d   1       0.137   5.349  -5.082  0.00  0.00    -0.057 A 
ENDROOT
BRANCH   1   7
ATOM      7  N   UNL d   1       0.808   4.668  -2.875  0.00  0.00    -0.732 N 
ATOM      8  C   UNL d   1       1.551   3.438  -3.046  0.00  0.00     0.284 C 
ATOM      9  H3  UNL d   1       1.381   5.467  -2.614  0.00  0.00     0.395 HD
ENDBRANCH   1   7
TORSDOF 1
ENDMDL
