MODEL 1
REMARK minimizedAffinity 11.9429007
REMARK minimizedRMSD -1
REMARK  1 active torsions:
REMARK  status: ('A' for Active; 'I' for Inactive)
REMARK    1  A    between atoms: N_2  and  C1_3 
ROOT
ATOM      1  C1  UNL d   1       3.234   3.786  -3.038  0.00  0.00     0.143 A 
ATOM      2  C2  UNL d   1       2.827   2.981  -4.108  0.00  0.00    -0.057 A 
ATOM      3  C3  UNL d   1       3.716   2.631  -5.132  0.00  0.00     0.033 A 
ATOM      4  C4  UNL d   1       5.023   3.105  -5.119  0.00  0.00    -0.042 A 
ATOM      5  C5  UNL d   1       5.443   3.927  -4.079  0.00  0.00     0.033 A 
ATOM      6  C6  UNL d   1       4.553   4.267  -3.055  0.00  0.00    -0.057 A 
ENDROOT
BRANCH   1   7
ATOM      7  N   UNL d   1       2.372   4.249  -2.041  0.00  0.00    -0.732 N 
ATOM      8  C   UNL d   1       1.616   5.468  -2.229  0.00  0.00     0.284 C 
ATOM      9  H3  UNL d   1       1.846   3.497  -1.602  0.00  0.00     0.395 HD
ENDBRANCH   1   7
TORSDOF 1
ENDMDL
