MODEL 1
REMARK minimizedAffinity 13.6576777
REMARK minimizedRMSD -1
REMARK  1 active torsions:
REMARK  status: ('A' for Active; 'I' for Inactive)
REMARK    1  A    between atoms: N_2  and  C1_3 
ROOT
ATOM      1  C1  UNL d   1       2.509   1.414  -1.226  0.00  0.00     0.143 A 
ATOM      2  C2  UNL d   1       3.251   0.229  -1.271  0.00  0.00    -0.057 A 
ATOM      3  C3  UNL d   1       3.641  -0.429  -0.098  0.00  0.00     0.033 A 
ATOM      4  C4  UNL d   1       3.321   0.105   1.145  0.00  0.00    -0.042 A 
ATOM      5  C5  UNL d   1       2.606   1.296   1.215  0.00  0.00     0.033 A 
ATOM      6  C6  UNL d   1       2.213   1.944   0.040  0.00  0.00    -0.057 A 
ENDROOT
BRANCH   1   7
ATOM      7  N   UNL d   1       2.176   2.167  -2.354  0.00  0.00    -0.732 N 
ATOM      8  C   UNL d   1       2.421   3.593  -2.388  0.00  0.00     0.284 C 
ATOM      9  H3  UNL d   1       2.401   1.686  -3.222  0.00  0.00     0.395 HD
ENDBRANCH   1   7
TORSDOF 1
ENDMDL
