MODEL 1
REMARK minimizedAffinity 11.6490765
REMARK minimizedRMSD -1
REMARK  1 active torsions:
REMARK  status: ('A' for Active; 'I' for Inactive)
REMARK    1  A    between atoms: N_2  and  C1_3 
ROOT
ATOM      1  C1  UNL d   1      -5.307   2.802   5.282  0.00  0.00     0.143 A 
ATOM      2  C2  UNL d   1      -5.676   2.845   3.933  0.00  0.00    -0.057 A 
ATOM      3  C3  UNL d   1      -5.997   4.055   3.306  0.00  0.00     0.033 A 
ATOM      4  C4  UNL d   1      -5.983   5.244   4.028  0.00  0.00    -0.042 A 
ATOM      5  C5  UNL d   1      -5.644   5.222   5.376  0.00  0.00     0.033 A 
ATOM      6  C6  UNL d   1      -5.317   4.012   5.995  0.00  0.00    -0.057 A 
ENDROOT
BRANCH   1   7
ATOM      7  N   UNL d   1      -5.071   1.619   5.987  0.00  0.00    -0.732 N 
ATOM      8  C   UNL d   1      -5.792   0.409   5.657  0.00  0.00     0.284 C 
ATOM      9  H3  UNL d   1      -4.084   1.474   6.184  0.00  0.00     0.395 HD
ENDBRANCH   1   7
TORSDOF 1
ENDMDL
