MODEL 1
REMARK minimizedAffinity 11.725749
REMARK minimizedRMSD -1
REMARK  1 active torsions:
REMARK  status: ('A' for Active; 'I' for Inactive)
REMARK    1  A    between atoms: N_2  and  C1_3 
ROOT
ATOM      1  C1  UNL d   1       4.589  -3.569  -0.638  0.00  0.00     0.143 A 
ATOM      2  C2  UNL d   1       3.587  -4.544  -0.589  0.00  0.00    -0.057 A 
ATOM      3  C3  UNL d   1       3.774  -5.743   0.110  0.00  0.00     0.033 A 
ATOM      4  C4  UNL d   1       4.981  -6.000   0.751  0.00  0.00    -0.042 A 
ATOM      5  C5  UNL d   1       6.000  -5.055   0.695  0.00  0.00     0.033 A 
ATOM      6  C6  UNL d   1       5.805  -3.857   0.001  0.00  0.00    -0.057 A 
ENDROOT
BRANCH   1   7
ATOM      7  N   UNL d   1       4.500  -2.400  -1.398  0.00  0.00    -0.732 N 
ATOM      8  C   UNL d   1       4.495  -1.102  -0.757  0.00  0.00     0.284 C 
ATOM      9  H3  UNL d   1       5.064  -2.443  -2.244  0.00  0.00     0.395 HD
ENDBRANCH   1   7
TORSDOF 1
ENDMDL
