MODEL 1
REMARK minimizedAffinity 11.2976475
REMARK minimizedRMSD -1
REMARK  1 active torsions:
REMARK  status: ('A' for Active; 'I' for Inactive)
REMARK    1  A    between atoms: N_2  and  C1_3 
ROOT
ATOM      1  C1  UNL d   1       2.005   4.824  -2.076  0.00  0.00     0.143 A 
ATOM      2  C2  UNL d   1       1.468   3.629  -2.567  0.00  0.00    -0.057 A 
ATOM      3  C3  UNL d   1       2.279   2.513  -2.807  0.00  0.00     0.033 A 
ATOM      4  C4  UNL d   1       3.650   2.582  -2.587  0.00  0.00    -0.042 A 
ATOM      5  C5  UNL d   1       4.209   3.768  -2.123  0.00  0.00     0.033 A 
ATOM      6  C6  UNL d   1       3.393   4.877  -1.879  0.00  0.00    -0.057 A 
ENDROOT
BRANCH   1   7
ATOM      7  N   UNL d   1       1.266   5.998  -1.911  0.00  0.00    -0.732 N 
ATOM      8  C   UNL d   1      -0.134   5.944  -1.549  0.00  0.00     0.284 C 
ATOM      9  H3  UNL d   1       1.793   6.723  -1.429  0.00  0.00     0.395 HD
ENDBRANCH   1   7
TORSDOF 1
ENDMDL
