MODEL 1
REMARK minimizedAffinity -4.7754488
REMARK minimizedRMSD -1
REMARK  2 active torsions:
REMARK  status: ('A' for Active; 'I' for Inactive)
REMARK    1  A    between atoms: C1_2  and  C2_3 
REMARK    2  A    between atoms: C2_3  and  C3_4 
ROOT
ATOM      1  C3  UNL d   1       0.367   0.016  -0.244  0.00  0.00    -0.075 A 
ATOM      2  C4  UNL d   1       1.366  -0.963  -0.136  0.00  0.00     0.002 A 
ATOM      3  C5  UNL d   1       1.098  -2.181   0.488  0.00  0.00     0.002 A 
ATOM      4  C6  UNL d   1      -0.164  -2.433   1.020  0.00  0.00    -0.004 A 
ATOM      5  C7  UNL d   1      -1.159  -1.461   0.934  0.00  0.00     0.002 A 
ATOM      6  C8  UNL d   1      -0.895  -0.242   0.306  0.00  0.00     0.002 A 
ENDROOT
BRANCH   1   7
ATOM      7  C2  UNL d   1       0.642   1.326  -0.944  0.00  0.00     0.056 C 
BRANCH   7   8
ATOM      8  C1  UNL d   1       1.381   1.177  -2.278  0.00  0.00     0.007 C 
ATOM      9  C   UNL d   1       0.687   1.887  -3.432  0.00  0.00     0.009 C 
ENDBRANCH   7   8
ENDBRANCH   1   7
TORSDOF 2
ENDMDL
