MODEL 1
REMARK minimizedAffinity -5.43243885
REMARK minimizedRMSD -1
REMARK  2 active torsions:
REMARK  status: ('A' for Active; 'I' for Inactive)
REMARK    1  A    between atoms: C1_2  and  C2_3 
REMARK    2  A    between atoms: C2_3  and  C3_4 
ROOT
ATOM      1  C3  UNL d   1      -0.253  -0.310   0.444  0.00  0.00    -0.075 A 
ATOM      2  C4  UNL d   1      -1.212   0.619   0.871  0.00  0.00     0.002 A 
ATOM      3  C5  UNL d   1      -2.295   0.212   1.651  0.00  0.00     0.002 A 
ATOM      4  C6  UNL d   1      -2.438  -1.128   2.004  0.00  0.00    -0.004 A 
ATOM      5  C7  UNL d   1      -1.500  -2.063   1.571  0.00  0.00     0.002 A 
ATOM      6  C8  UNL d   1      -0.413  -1.657   0.794  0.00  0.00     0.002 A 
ENDROOT
BRANCH   1   7
ATOM      7  C2  UNL d   1       0.938   0.129  -0.375  0.00  0.00     0.056 C 
BRANCH   7   8
ATOM      8  C1  UNL d   1       0.917   1.612  -0.760  0.00  0.00     0.007 C 
ATOM      9  C   UNL d   1       1.070   1.846  -2.257  0.00  0.00     0.009 C 
ENDBRANCH   7   8
ENDBRANCH   1   7
TORSDOF 2
ENDMDL
