MODEL 1
REMARK minimizedAffinity -3.7860167
REMARK minimizedRMSD -1
REMARK  2 active torsions:
REMARK  status: ('A' for Active; 'I' for Inactive)
REMARK    1  A    between atoms: C1_2  and  C2_3 
REMARK    2  A    between atoms: C2_3  and  C3_4 
ROOT
ATOM      1  C3  UNL d   1       0.267   0.130  -0.040  0.00  0.00    -0.075 A 
ATOM      2  C4  UNL d   1       0.847  -1.110   0.267  0.00  0.00     0.002 A 
ATOM      3  C5  UNL d   1       0.127  -2.073   0.973  0.00  0.00     0.002 A 
ATOM      4  C6  UNL d   1      -1.176  -1.807   1.389  0.00  0.00    -0.004 A 
ATOM      5  C7  UNL d   1      -1.756  -0.574   1.104  0.00  0.00     0.002 A 
ATOM      6  C8  UNL d   1      -1.039   0.391   0.393  0.00  0.00     0.002 A 
ENDROOT
BRANCH   1   7
ATOM      7  C2  UNL d   1       1.031   1.166  -0.830  0.00  0.00     0.056 C 
BRANCH   7   8
ATOM      8  C1  UNL d   1       0.350   1.580  -2.139  0.00  0.00     0.007 C 
ATOM      9  C   UNL d   1       1.304   2.226  -3.134  0.00  0.00     0.009 C 
ENDBRANCH   7   8
ENDBRANCH   1   7
TORSDOF 2
ENDMDL
