MODEL 1
REMARK minimizedAffinity -5.80785084
REMARK minimizedRMSD -1
REMARK  2 active torsions:
REMARK  status: ('A' for Active; 'I' for Inactive)
REMARK    1  A    between atoms: C1_2  and  C2_3 
REMARK    2  A    between atoms: C2_3  and  C3_4 
ROOT
ATOM      1  C3  UNL d   1      -0.749  -0.983   0.302  0.00  0.00    -0.075 A 
ATOM      2  C4  UNL d   1      -1.609   0.081   0.611  0.00  0.00     0.002 A 
ATOM      3  C5  UNL d   1      -2.765  -0.137   1.360  0.00  0.00     0.002 A 
ATOM      4  C6  UNL d   1      -3.082  -1.420   1.800  0.00  0.00    -0.004 A 
ATOM      5  C7  UNL d   1      -2.244  -2.487   1.486  0.00  0.00     0.002 A 
ATOM      6  C8  UNL d   1      -1.083  -2.271   0.740  0.00  0.00     0.002 A 
ENDROOT
BRANCH   1   7
ATOM      7  C2  UNL d   1       0.520  -0.748  -0.483  0.00  0.00     0.056 C 
BRANCH   7   8
ATOM      8  C1  UNL d   1       1.005   0.705  -0.464  0.00  0.00     0.007 C 
ATOM      9  C   UNL d   1       1.264   1.269  -1.855  0.00  0.00     0.009 C 
ENDBRANCH   7   8
ENDBRANCH   1   7
TORSDOF 2
ENDMDL
