MODEL 1
REMARK minimizedAffinity -4.18155909
REMARK minimizedRMSD -1
REMARK  2 active torsions:
REMARK  status: ('A' for Active; 'I' for Inactive)
REMARK    1  A    between atoms: C1_2  and  C2_3 
REMARK    2  A    between atoms: C2_3  and  C3_4 
ROOT
ATOM      1  C3  UNL d   1       0.139  -0.447   0.054  0.00  0.00    -0.075 A 
ATOM      2  C4  UNL d   1      -1.132  -0.699  -0.483  0.00  0.00     0.002 A 
ATOM      3  C5  UNL d   1      -1.872  -1.805  -0.063  0.00  0.00     0.002 A 
ATOM      4  C6  UNL d   1      -1.348  -2.676   0.889  0.00  0.00    -0.004 A 
ATOM      5  C7  UNL d   1      -0.080  -2.445   1.417  0.00  0.00     0.002 A 
ATOM      6  C8  UNL d   1       0.661  -1.338   1.002  0.00  0.00     0.002 A 
ENDROOT
BRANCH   1   7
ATOM      7  C2  UNL d   1       0.933   0.764  -0.374  0.00  0.00     0.056 C 
BRANCH   7   8
ATOM      8  C1  UNL d   1       0.708   1.173  -1.834  0.00  0.00     0.007 C 
ATOM      9  C   UNL d   1       1.924   1.836  -2.466  0.00  0.00     0.009 C 
ENDBRANCH   7   8
ENDBRANCH   1   7
TORSDOF 2
ENDMDL
