MODEL 1
REMARK minimizedAffinity -4.35620642
REMARK minimizedRMSD -1
REMARK  2 active torsions:
REMARK  status: ('A' for Active; 'I' for Inactive)
REMARK    1  A    between atoms: C1_2  and  C2_3 
REMARK    2  A    between atoms: C2_3  and  C3_4 
ROOT
ATOM      1  C3  UNL d   1       0.196   0.079  -0.050  0.00  0.00    -0.075 A 
ATOM      2  C4  UNL d   1       0.761  -1.146   0.333  0.00  0.00     0.002 A 
ATOM      3  C5  UNL d   1      -0.054  -2.224   0.681  0.00  0.00     0.002 A 
ATOM      4  C6  UNL d   1      -1.440  -2.088   0.662  0.00  0.00    -0.004 A 
ATOM      5  C7  UNL d   1      -2.012  -0.870   0.299  0.00  0.00     0.002 A 
ATOM      6  C8  UNL d   1      -1.199   0.209  -0.054  0.00  0.00     0.002 A 
ENDROOT
BRANCH   1   7
ATOM      7  C2  UNL d   1       1.071   1.240  -0.457  0.00  0.00     0.056 C 
BRANCH   7   8
ATOM      8  C1  UNL d   1       0.655   1.905  -1.773  0.00  0.00     0.007 C 
ATOM      9  C   UNL d   1       1.838   2.344  -2.625  0.00  0.00     0.009 C 
ENDBRANCH   7   8
ENDBRANCH   1   7
TORSDOF 2
ENDMDL
