MODEL 1
REMARK minimizedAffinity -1.22602189
REMARK minimizedRMSD -1
REMARK  3 active torsions:
REMARK  status: ('A' for Active; 'I' for Inactive)
REMARK    1  A    between atoms: C3'_2  and  C2'_3 
REMARK    2  A    between atoms: C2'_3  and  C1'_4 
REMARK    3  A    between atoms: C1'_4  and  C1_5 
ROOT
ATOM      1  C1  N4B d   1      -0.122   1.405   0.183  0.00  0.00    -0.075 A 
ATOM      2  C2  N4B d   1       0.429   1.000  -1.053  0.00  0.00     0.002 A 
ATOM      3  C3  N4B d   1       0.394  -0.323  -1.419  0.00  0.00     0.002 A 
ATOM      4  C4  N4B d   1      -0.167  -1.257  -0.562  0.00  0.00    -0.004 A 
ATOM      5  C5  N4B d   1      -0.719  -0.855   0.618  0.00  0.00     0.002 A 
ATOM      6  C6  N4B d   1      -0.695   0.472   0.998  0.00  0.00     0.002 A 
ENDROOT
BRANCH   1   7
ATOM      7  C1' N4B d   1      -0.031   2.827   0.666  0.00  0.00     0.057 C 
BRANCH   7   8
ATOM      8  C2' N4B d   1       1.401   3.324   0.490  0.00  0.00     0.009 C 
BRANCH   8   9
ATOM      9  C3' N4B d   1       1.756   4.403   1.500  0.00  0.00     0.004 C 
ATOM     10  C4' N4B d   1       0.584   4.823   2.337  0.00  0.00     0.003 C 
ENDBRANCH   8   9
ENDBRANCH   7   8
ENDBRANCH   1   7
TORSDOF 3
ENDMDL
