MODEL 1
REMARK minimizedAffinity -2.95371032
REMARK minimizedRMSD -1
REMARK  3 active torsions:
REMARK  status: ('A' for Active; 'I' for Inactive)
REMARK    1  A    between atoms: C3'_2  and  C2'_3 
REMARK    2  A    between atoms: C2'_3  and  C1'_4 
REMARK    3  A    between atoms: C1'_4  and  C1_5 
ROOT
ATOM      1  C1  N4B d   1       1.113   2.387  -0.209  0.00  0.00    -0.075 A 
ATOM      2  C2  N4B d   1       0.672   3.704   0.044  0.00  0.00     0.002 A 
ATOM      3  C3  N4B d   1       1.423   4.540   0.833  0.00  0.00     0.002 A 
ATOM      4  C4  N4B d   1       2.604   4.076   1.394  0.00  0.00    -0.004 A 
ATOM      5  C5  N4B d   1       3.036   2.811   1.124  0.00  0.00     0.002 A 
ATOM      6  C6  N4B d   1       2.293   1.961   0.328  0.00  0.00     0.002 A 
ENDROOT
BRANCH   1   7
ATOM      7  C1' N4B d   1       0.284   1.409  -0.996  0.00  0.00     0.057 C 
BRANCH   7   8
ATOM      8  C2' N4B d   1       0.544  -0.001  -0.474  0.00  0.00     0.009 C 
BRANCH   8   9
ATOM      9  C3' N4B d   1       0.005  -0.195   0.933  0.00  0.00     0.004 C 
ATOM     10  C4' N4B d   1      -1.415   0.261   1.079  0.00  0.00     0.003 C 
ENDBRANCH   8   9
ENDBRANCH   7   8
ENDBRANCH   1   7
TORSDOF 3
ENDMDL
