MODEL 1
REMARK minimizedAffinity -4.618855
REMARK minimizedRMSD -1
REMARK  3 active torsions:
REMARK  status: ('A' for Active; 'I' for Inactive)
REMARK    1  A    between atoms: C3'_2  and  C2'_3 
REMARK    2  A    between atoms: C2'_3  and  C1'_4 
REMARK    3  A    between atoms: C1'_4  and  C1_5 
ROOT
ATOM      1  C1  N4B d   1      -0.274  -0.030   0.360  0.00  0.00    -0.075 A 
ATOM      2  C2  N4B d   1      -1.336  -0.840   0.818  0.00  0.00     0.002 A 
ATOM      3  C3  N4B d   1      -1.200  -2.206   0.833  0.00  0.00     0.002 A 
ATOM      4  C4  N4B d   1      -0.024  -2.784   0.381  0.00  0.00    -0.004 A 
ATOM      5  C5  N4B d   1       1.008  -1.993  -0.036  0.00  0.00     0.002 A 
ATOM      6  C6  N4B d   1       0.886  -0.618  -0.053  0.00  0.00     0.002 A 
ENDROOT
BRANCH   1   7
ATOM      7  C1' N4B d   1      -0.407   1.464   0.244  0.00  0.00     0.057 C 
BRANCH   7   8
ATOM      8  C2' N4B d   1       0.959   2.066  -0.070  0.00  0.00     0.009 C 
BRANCH   8   9
ATOM      9  C3' N4B d   1       1.209   3.345   0.711  0.00  0.00     0.004 C 
ATOM     10  C4' N4B d   1       2.534   3.971   0.390  0.00  0.00     0.003 C 
ENDBRANCH   8   9
ENDBRANCH   7   8
ENDBRANCH   1   7
TORSDOF 3
ENDMDL
