MODEL 1
REMARK minimizedAffinity -4.2207942
REMARK minimizedRMSD -1
REMARK  3 active torsions:
REMARK  status: ('A' for Active; 'I' for Inactive)
REMARK    1  A    between atoms: C3'_2  and  C2'_3 
REMARK    2  A    between atoms: C2'_3  and  C1'_4 
REMARK    3  A    between atoms: C1'_4  and  C1_5 
ROOT
ATOM      1  C1  N4B d   1       0.340   1.476  -0.517  0.00  0.00    -0.075 A 
ATOM      2  C2  N4B d   1       0.435   1.108  -1.877  0.00  0.00     0.002 A 
ATOM      3  C3  N4B d   1       0.631  -0.208  -2.220  0.00  0.00     0.002 A 
ATOM      4  C4  N4B d   1       0.753  -1.165  -1.224  0.00  0.00    -0.004 A 
ATOM      5  C5  N4B d   1       0.634  -0.805   0.087  0.00  0.00     0.002 A 
ATOM      6  C6  N4B d   1       0.433   0.513   0.445  0.00  0.00     0.002 A 
ENDROOT
BRANCH   1   7
ATOM      7  C1' N4B d   1       0.211   2.913  -0.091  0.00  0.00     0.057 C 
BRANCH   7   8
ATOM      8  C2' N4B d   1       1.586   3.573  -0.135  0.00  0.00     0.009 C 
BRANCH   8   9
ATOM      9  C3' N4B d   1       2.061   3.990   1.246  0.00  0.00     0.004 C 
ATOM     10  C4' N4B d   1       0.930   4.291   2.183  0.00  0.00     0.003 C 
ENDBRANCH   8   9
ENDBRANCH   7   8
ENDBRANCH   1   7
TORSDOF 3
ENDMDL
