MODEL 1
REMARK minimizedAffinity -1.90180862
REMARK minimizedRMSD -1
REMARK  3 active torsions:
REMARK  status: ('A' for Active; 'I' for Inactive)
REMARK    1  A    between atoms: C3'_2  and  C2'_3 
REMARK    2  A    between atoms: C2'_3  and  C1'_4 
REMARK    3  A    between atoms: C1'_4  and  C1_5 
ROOT
ATOM      1  C1  N4B d   1      -0.029   0.597   0.333  0.00  0.00    -0.075 A 
ATOM      2  C2  N4B d   1       0.549   0.251  -0.908  0.00  0.00     0.002 A 
ATOM      3  C3  N4B d   1       0.715  -1.071  -1.243  0.00  0.00     0.002 A 
ATOM      4  C4  N4B d   1       0.329  -2.059  -0.349  0.00  0.00    -0.004 A 
ATOM      5  C5  N4B d   1      -0.251  -1.716   0.837  0.00  0.00     0.002 A 
ATOM      6  C6  N4B d   1      -0.428  -0.392   1.185  0.00  0.00     0.002 A 
ENDROOT
BRANCH   1   7
ATOM      7  C1' N4B d   1      -0.152   2.028   0.780  0.00  0.00     0.057 C 
BRANCH   7   8
ATOM      8  C2' N4B d   1       1.142   2.768   0.454  0.00  0.00     0.009 C 
BRANCH   8   9
ATOM      9  C3' N4B d   1       1.244   4.090   1.196  0.00  0.00     0.004 C 
ATOM     10  C4' N4B d   1      -0.049   4.495   1.839  0.00  0.00     0.003 C 
ENDBRANCH   8   9
ENDBRANCH   7   8
ENDBRANCH   1   7
TORSDOF 3
ENDMDL
