MODEL 1
REMARK minimizedAffinity -5.86098099
REMARK minimizedRMSD -1
REMARK  3 active torsions:
REMARK  status: ('A' for Active; 'I' for Inactive)
REMARK    1  A    between atoms: C3'_2  and  C2'_3 
REMARK    2  A    between atoms: C2'_3  and  C1'_4 
REMARK    3  A    between atoms: C1'_4  and  C1_5 
ROOT
ATOM      1  C1  N4B d   1       0.279   2.604   0.686  0.00  0.00    -0.075 A 
ATOM      2  C2  N4B d   1      -0.248   3.003   1.934  0.00  0.00     0.002 A 
ATOM      3  C3  N4B d   1       0.369   3.997   2.654  0.00  0.00     0.002 A 
ATOM      4  C4  N4B d   1       1.520   4.590   2.158  0.00  0.00    -0.004 A 
ATOM      5  C5  N4B d   1       2.008   4.216   0.940  0.00  0.00     0.002 A 
ATOM      6  C6  N4B d   1       1.397   3.222   0.203  0.00  0.00     0.002 A 
ENDROOT
BRANCH   1   7
ATOM      7  C1' N4B d   1      -0.311   1.464  -0.097  0.00  0.00     0.057 C 
BRANCH   7   8
ATOM      8  C2' N4B d   1      -0.725   0.355   0.866  0.00  0.00     0.009 C 
BRANCH   8   9
ATOM      9  C3' N4B d   1      -0.133  -0.988   0.475  0.00  0.00     0.004 C 
ATOM     10  C4' N4B d   1      -1.090  -2.125   0.676  0.00  0.00     0.003 C 
ENDBRANCH   8   9
ENDBRANCH   7   8
ENDBRANCH   1   7
TORSDOF 3
ENDMDL
