MODEL 1
REMARK minimizedAffinity -5.04475021
REMARK minimizedRMSD -1
REMARK  3 active torsions:
REMARK  status: ('A' for Active; 'I' for Inactive)
REMARK    1  A    between atoms: C3'_2  and  C2'_3 
REMARK    2  A    between atoms: C2'_3  and  C1'_4 
REMARK    3  A    between atoms: C1'_4  and  C1_5 
ROOT
ATOM      1  C1  N4B d   1      -0.566  -0.287   0.668  0.00  0.00    -0.075 A 
ATOM      2  C2  N4B d   1      -1.552  -1.163   1.173  0.00  0.00     0.002 A 
ATOM      3  C3  N4B d   1      -1.483  -2.507   0.895  0.00  0.00     0.002 A 
ATOM      4  C4  N4B d   1      -0.453  -2.991   0.103  0.00  0.00    -0.004 A 
ATOM      5  C5  N4B d   1       0.509  -2.142  -0.360  0.00  0.00     0.002 A 
ATOM      6  C6  N4B d   1       0.454  -0.790  -0.086  0.00  0.00     0.002 A 
ENDROOT
BRANCH   1   7
ATOM      7  C1' N4B d   1      -0.647   1.201   0.873  0.00  0.00     0.057 C 
BRANCH   7   8
ATOM      8  C2' N4B d   1       0.258   1.896  -0.140  0.00  0.00     0.009 C 
BRANCH   8   9
ATOM      9  C3' N4B d   1       1.036   3.041   0.485  0.00  0.00     0.004 C 
ATOM     10  C4' N4B d   1       2.507   2.969   0.199  0.00  0.00     0.003 C 
ENDBRANCH   8   9
ENDBRANCH   7   8
ENDBRANCH   1   7
TORSDOF 3
ENDMDL
