MODEL 1
REMARK minimizedAffinity -5.41400528
REMARK minimizedRMSD -1
REMARK  3 active torsions:
REMARK  status: ('A' for Active; 'I' for Inactive)
REMARK    1  A    between atoms: C3'_2  and  C2'_3 
REMARK    2  A    between atoms: C2'_3  and  C1'_4 
REMARK    3  A    between atoms: C1'_4  and  C1_5 
ROOT
ATOM      1  C1  N4B d   1       0.002  -0.447  -0.482  0.00  0.00    -0.075 A 
ATOM      2  C2  N4B d   1       0.068  -1.595   0.337  0.00  0.00     0.002 A 
ATOM      3  C3  N4B d   1       0.386  -2.813  -0.212  0.00  0.00     0.002 A 
ATOM      4  C4  N4B d   1       0.623  -2.910  -1.575  0.00  0.00    -0.004 A 
ATOM      5  C5  N4B d   1       0.583  -1.792  -2.355  0.00  0.00     0.002 A 
ATOM      6  C6  N4B d   1       0.268  -0.560  -1.816  0.00  0.00     0.002 A 
ENDROOT
BRANCH   1   7
ATOM      7  C1' N4B d   1      -0.426   0.890   0.058  0.00  0.00     0.057 C 
BRANCH   7   8
ATOM      8  C2' N4B d   1       0.785   1.816   0.119  0.00  0.00     0.009 C 
BRANCH   8   9
ATOM      9  C3' N4B d   1       0.468   3.120   0.832  0.00  0.00     0.004 C 
ATOM     10  C4' N4B d   1       1.647   4.044   0.904  0.00  0.00     0.003 C 
ENDBRANCH   8   9
ENDBRANCH   7   8
ENDBRANCH   1   7
TORSDOF 3
ENDMDL
