MODEL 1
REMARK minimizedAffinity -3.10970402
REMARK minimizedRMSD -1
REMARK  3 active torsions:
REMARK  status: ('A' for Active; 'I' for Inactive)
REMARK    1  A    between atoms: C3'_2  and  C2'_3 
REMARK    2  A    between atoms: C2'_3  and  C1'_4 
REMARK    3  A    between atoms: C1'_4  and  C1_5 
ROOT
ATOM      1  C1  N4B d   1      -0.458  -0.435   0.769  0.00  0.00    -0.075 A 
ATOM      2  C2  N4B d   1      -1.480  -1.363   0.474  0.00  0.00     0.002 A 
ATOM      3  C3  N4B d   1      -1.205  -2.708   0.466  0.00  0.00     0.002 A 
ATOM      4  C4  N4B d   1       0.084  -3.146   0.729  0.00  0.00    -0.004 A 
ATOM      5  C5  N4B d   1       1.061  -2.244   1.038  0.00  0.00     0.002 A 
ATOM      6  C6  N4B d   1       0.797  -0.890   1.054  0.00  0.00     0.002 A 
ENDROOT
BRANCH   1   7
ATOM      7  C1' N4B d   1      -0.690   1.050   0.706  0.00  0.00     0.057 C 
BRANCH   7   8
ATOM      8  C2' N4B d   1       0.616   1.747   0.338  0.00  0.00     0.009 C 
BRANCH   8   9
ATOM      9  C3' N4B d   1       0.633   3.198   0.788  0.00  0.00     0.004 C 
ATOM     10  C4' N4B d   1       2.022   3.731   0.977  0.00  0.00     0.003 C 
ENDBRANCH   8   9
ENDBRANCH   7   8
ENDBRANCH   1   7
TORSDOF 3
ENDMDL
