MODEL 1
REMARK minimizedAffinity -1.16148949
REMARK minimizedRMSD -1
REMARK  0 active torsions:
REMARK  status: ('A' for Active; 'I' for Inactive)
ROOT
ATOM      1  C4' PXY d   1       1.125  -0.520  -2.861  0.00  0.00     0.077 C 
ATOM      2  C1' PXY d   1      -2.559   3.931  -2.689  0.00  0.00     0.077 C 
ATOM      3  C1  PXY d   1      -1.596   2.761  -2.722  0.00  0.00    -0.082 A 
ATOM      4  C2  PXY d   1      -0.621   2.741  -3.616  0.00  0.00     0.003 A 
ATOM      5  C3  PXY d   1       0.240   1.676  -3.681  0.00  0.00     0.003 A 
ATOM      6  C4  PXY d   1       0.135   0.645  -2.785  0.00  0.00    -0.082 A 
ATOM      7  C5  PXY d   1      -0.850   0.664  -1.862  0.00  0.00     0.003 A 
ATOM      8  C6  PXY d   1      -1.739   1.734  -1.841  0.00  0.00     0.003 A 
ENDROOT
TORSDOF 0
ENDMDL
