MODEL 1
REMARK minimizedAffinity 1.99144769
REMARK minimizedRMSD -1
REMARK  0 active torsions:
REMARK  status: ('A' for Active; 'I' for Inactive)
ROOT
ATOM      1  C4' PXY d   1      -0.606  -1.099   3.391  0.00  0.00     0.077 C 
ATOM      2  C1' PXY d   1       3.970  -0.663  -0.114  0.00  0.00     0.077 C 
ATOM      3  C1  PXY d   1       2.778  -0.779   0.815  0.00  0.00    -0.082 A 
ATOM      4  C2  PXY d   1       1.608  -1.164   0.333  0.00  0.00     0.003 A 
ATOM      5  C3  PXY d   1       0.512  -1.243   1.153  0.00  0.00     0.003 A 
ATOM      6  C4  PXY d   1       0.627  -0.977   2.491  0.00  0.00    -0.082 A 
ATOM      7  C5  PXY d   1       1.820  -0.594   2.993  0.00  0.00     0.003 A 
ATOM      8  C6  PXY d   1       2.911  -0.480   2.136  0.00  0.00     0.003 A 
ENDROOT
TORSDOF 0
ENDMDL
