MODEL 1
REMARK minimizedAffinity -5.40019464
REMARK minimizedRMSD -1
REMARK  0 active torsions:
REMARK  status: ('A' for Active; 'I' for Inactive)
ROOT
ATOM      1  C4' PXY d   1      -5.052   3.070  -2.920  0.00  0.00     0.077 C 
ATOM      2  C1' PXY d   1       0.612   1.915  -2.873  0.00  0.00     0.077 C 
ATOM      3  C1  PXY d   1      -0.876   2.206  -2.881  0.00  0.00    -0.082 A 
ATOM      4  C2  PXY d   1      -1.353   3.153  -3.672  0.00  0.00     0.003 A 
ATOM      5  C3  PXY d   1      -2.691   3.451  -3.668  0.00  0.00     0.003 A 
ATOM      6  C4  PXY d   1      -3.558   2.736  -2.886  0.00  0.00    -0.082 A 
ATOM      7  C5  PXY d   1      -3.081   1.761  -2.084  0.00  0.00     0.003 A 
ATOM      8  C6  PXY d   1      -1.714   1.501  -2.072  0.00  0.00     0.003 A 
ENDROOT
TORSDOF 0
ENDMDL
