MODEL 1
REMARK minimizedAffinity -1.26501918
REMARK minimizedRMSD -1
REMARK  0 active torsions:
REMARK  status: ('A' for Active; 'I' for Inactive)
ROOT
ATOM      1  C4' PXY d   1      -0.761   1.622  -2.546  0.00  0.00     0.077 C 
ATOM      2  C1' PXY d   1      -0.570  -1.312   2.431  0.00  0.00     0.077 C 
ATOM      3  C1  PXY d   1      -0.607  -0.546   1.123  0.00  0.00    -0.082 A 
ATOM      4  C2  PXY d   1      -1.495   0.422   0.957  0.00  0.00     0.003 A 
ATOM      5  C3  PXY d   1      -1.564   1.104  -0.230  0.00  0.00     0.003 A 
ATOM      6  C4  PXY d   1      -0.680   0.828  -1.239  0.00  0.00    -0.082 A 
ATOM      7  C5  PXY d   1       0.235  -0.150  -1.074  0.00  0.00     0.003 A 
ATOM      8  C6  PXY d   1       0.262  -0.858   0.124  0.00  0.00     0.003 A 
ENDROOT
TORSDOF 0
ENDMDL
