MODEL 1
REMARK minimizedAffinity -1.01361668
REMARK minimizedRMSD -1
REMARK  0 active torsions:
REMARK  status: ('A' for Active; 'I' for Inactive)
ROOT
ATOM      1  C4' PXY d   1      -4.436   3.007  -2.216  0.00  0.00     0.077 C 
ATOM      2  C1' PXY d   1       1.289   2.457  -2.790  0.00  0.00     0.077 C 
ATOM      3  C1  PXY d   1      -0.213   2.588  -2.637  0.00  0.00    -0.082 A 
ATOM      4  C2  PXY d   1      -0.846   3.590  -3.226  0.00  0.00     0.003 A 
ATOM      5  C3  PXY d   1      -2.200   3.742  -3.072  0.00  0.00     0.003 A 
ATOM      6  C4  PXY d   1      -2.922   2.829  -2.351  0.00  0.00    -0.082 A 
ATOM      7  C5  PXY d   1      -2.285   1.799  -1.755  0.00  0.00     0.003 A 
ATOM      8  C6  PXY d   1      -0.904   1.685  -1.890  0.00  0.00     0.003 A 
ENDROOT
TORSDOF 0
ENDMDL
