MODEL 1
REMARK minimizedAffinity -5.426085
REMARK minimizedRMSD -1
REMARK  0 active torsions:
REMARK  status: ('A' for Active; 'I' for Inactive)
ROOT
ATOM      1  C4' PXY d   1       2.705  -1.617  -0.049  0.00  0.00     0.077 C 
ATOM      2  C1' PXY d   1      -2.300   0.466   1.955  0.00  0.00     0.077 C 
ATOM      3  C1  PXY d   1      -0.993  -0.081   1.418  0.00  0.00    -0.082 A 
ATOM      4  C2  PXY d   1      -0.139  -0.664   2.244  0.00  0.00     0.003 A 
ATOM      5  C3  PXY d   1       1.062  -1.136   1.780  0.00  0.00     0.003 A 
ATOM      6  C4  PXY d   1       1.369  -1.059   0.448  0.00  0.00    -0.082 A 
ATOM      7  C5  PXY d   1       0.498  -0.476  -0.403  0.00  0.00     0.003 A 
ATOM      8  C6  PXY d   1      -0.698   0.034   0.094  0.00  0.00     0.003 A 
ENDROOT
TORSDOF 0
ENDMDL
