MODEL 1
REMARK minimizedAffinity -3.97668648
REMARK minimizedRMSD -1
REMARK  0 active torsions:
REMARK  status: ('A' for Active; 'I' for Inactive)
ROOT
ATOM      1  C4' PXY d   1      -0.365   1.821  -2.212  0.00  0.00     0.077 C 
ATOM      2  C1' PXY d   1       0.296  -1.513   2.464  0.00  0.00     0.077 C 
ATOM      3  C1  PXY d   1       0.134  -0.643   1.233  0.00  0.00    -0.082 A 
ATOM      4  C2  PXY d   1      -0.685   0.396   1.270  0.00  0.00     0.003 A 
ATOM      5  C3  PXY d   1      -0.867   1.174   0.156  0.00  0.00     0.003 A 
ATOM      6  C4  PXY d   1      -0.163   0.920  -0.990  0.00  0.00    -0.082 A 
ATOM      7  C5  PXY d   1       0.683  -0.131  -1.032  0.00  0.00     0.003 A 
ATOM      8  C6  PXY d   1       0.823  -0.934   0.096  0.00  0.00     0.003 A 
ENDROOT
TORSDOF 0
ENDMDL
