MODEL 1
REMARK minimizedAffinity 11.3392935
REMARK minimizedRMSD -1
REMARK  0 active torsions:
REMARK  status: ('A' for Active; 'I' for Inactive)
ROOT
ATOM      1  C4' PXY d   1      -4.471  -0.296  -4.844  0.00  0.00     0.077 C 
ATOM      2  C1' PXY d   1      -4.792   5.286  -3.376  0.00  0.00     0.077 C 
ATOM      3  C1  PXY d   1      -4.695   3.822  -3.759  0.00  0.00    -0.082 A 
ATOM      4  C2  PXY d   1      -5.628   3.284  -4.528  0.00  0.00     0.003 A 
ATOM      5  C3  PXY d   1      -5.572   1.954  -4.857  0.00  0.00     0.003 A 
ATOM      6  C4  PXY d   1      -4.523   1.180  -4.440  0.00  0.00    -0.082 A 
ATOM      7  C5  PXY d   1      -3.562   1.724  -3.664  0.00  0.00     0.003 A 
ATOM      8  C6  PXY d   1      -3.658   3.066  -3.306  0.00  0.00     0.003 A 
ENDROOT
TORSDOF 0
ENDMDL
