MODEL 1
REMARK minimizedAffinity -2.74989963
REMARK minimizedRMSD -1
REMARK  0 active torsions:
REMARK  status: ('A' for Active; 'I' for Inactive)
ROOT
ATOM      1  C4' PXY d   1       2.601  -2.519  -0.062  0.00  0.00     0.077 C 
ATOM      2  C1' PXY d   1      -1.799   0.188   2.531  0.00  0.00     0.077 C 
ATOM      3  C1  PXY d   1      -0.639  -0.523   1.862  0.00  0.00    -0.082 A 
ATOM      4  C2  PXY d   1      -0.401  -0.321   0.577  0.00  0.00     0.003 A 
ATOM      5  C3  PXY d   1       0.624  -0.981  -0.051  0.00  0.00     0.003 A 
ATOM      6  C4  PXY d   1       1.447  -1.815   0.657  0.00  0.00    -0.082 A 
ATOM      7  C5  PXY d   1       1.218  -2.018   1.971  0.00  0.00     0.003 A 
ATOM      8  C6  PXY d   1       0.147  -1.371   2.581  0.00  0.00     0.003 A 
ENDROOT
TORSDOF 0
ENDMDL
