MODEL 1
REMARK minimizedAffinity -0.320067465
REMARK minimizedRMSD -1
REMARK  0 active torsions:
REMARK  status: ('A' for Active; 'I' for Inactive)
ROOT
ATOM      1  C4' PXY d   1      -4.502   3.817  -2.198  0.00  0.00     0.077 C 
ATOM      2  C1' PXY d   1       0.933   2.041  -3.050  0.00  0.00     0.077 C 
ATOM      3  C1  PXY d   1      -0.497   2.495  -2.830  0.00  0.00    -0.082 A 
ATOM      4  C2  PXY d   1      -0.787   3.785  -2.871  0.00  0.00     0.003 A 
ATOM      5  C3  PXY d   1      -2.068   4.216  -2.643  0.00  0.00     0.003 A 
ATOM      6  C4  PXY d   1      -3.074   3.312  -2.423  0.00  0.00    -0.082 A 
ATOM      7  C5  PXY d   1      -2.788   1.993  -2.391  0.00  0.00     0.003 A 
ATOM      8  C6  PXY d   1      -1.473   1.580  -2.584  0.00  0.00     0.003 A 
ENDROOT
TORSDOF 0
ENDMDL
