MODEL 1
REMARK minimizedAffinity 3.18084764
REMARK minimizedRMSD -1
REMARK  0 active torsions:
REMARK  status: ('A' for Active; 'I' for Inactive)
ROOT
ATOM      1  N1  IND d   1      -5.295   3.161  -5.999  0.00  0.00    -0.196 N 
ATOM      2  C2  IND d   1      -5.794   4.434  -5.998  0.00  0.00     0.054 A 
ATOM      3  C3  IND d   1      -4.797   5.329  -5.814  0.00  0.00    -0.031 A 
ATOM      4  C4  IND d   1      -2.263   4.933  -5.597  0.00  0.00     0.051 A 
ATOM      5  C5  IND d   1      -1.332   3.936  -5.502  0.00  0.00    -0.031 A 
ATOM      6  C6  IND d   1      -1.682   2.603  -5.573  0.00  0.00     0.015 A 
ATOM      7  C7  IND d   1      -2.980   2.216  -5.753  0.00  0.00    -0.016 A 
ATOM      8  C8  IND d   1      -3.928   3.225  -5.842  0.00  0.00    -0.047 A 
ATOM      9  C9  IND d   1      -3.585   4.578  -5.728  0.00  0.00    -0.096 A 
ATOM     10  HN1 IND d   1      -5.758   2.441  -6.084  0.00  0.00     0.298 HD
ENDROOT
TORSDOF 0
ENDMDL
