MODEL 1
REMARK minimizedAffinity 1.83236265
REMARK minimizedRMSD -1
REMARK  0 active torsions:
REMARK  status: ('A' for Active; 'I' for Inactive)
ROOT
ATOM      1  N1  IND d   1       2.691   1.377   1.371  0.00  0.00    -0.196 N 
ATOM      2  C2  IND d   1       2.903   2.595   1.954  0.00  0.00     0.054 A 
ATOM      3  C3  IND d   1       1.757   3.312   1.975  0.00  0.00    -0.031 A 
ATOM      4  C4  IND d   1      -0.606   2.643   1.202  0.00  0.00     0.051 A 
ATOM      5  C5  IND d   1      -1.289   1.643   0.570  0.00  0.00    -0.031 A 
ATOM      6  C6  IND d   1      -0.669   0.478   0.167  0.00  0.00     0.015 A 
ATOM      7  C7  IND d   1       0.661   0.265   0.392  0.00  0.00    -0.016 A 
ATOM      8  C8  IND d   1       1.360   1.281   1.027  0.00  0.00    -0.047 A 
ATOM      9  C9  IND d   1       0.745   2.483   1.401  0.00  0.00    -0.096 A 
ATOM     10  HN1 IND d   1       3.288   0.772   1.241  0.00  0.00     0.298 HD
ENDROOT
TORSDOF 0
ENDMDL
