MODEL 1
REMARK minimizedAffinity -0.629154682
REMARK minimizedRMSD -1
REMARK  0 active torsions:
REMARK  status: ('A' for Active; 'I' for Inactive)
ROOT
ATOM      1  N1  IND d   1      -0.326   0.855   1.352  0.00  0.00    -0.196 N 
ATOM      2  C2  IND d   1      -1.532   0.717   0.723  0.00  0.00     0.054 A 
ATOM      3  C3  IND d   1      -1.351   0.346  -0.564  0.00  0.00    -0.031 A 
ATOM      4  C4  IND d   1       0.831  -0.188  -1.821  0.00  0.00     0.051 A 
ATOM      5  C5  IND d   1       2.190  -0.169  -1.677  0.00  0.00    -0.031 A 
ATOM      6  C6  IND d   1       2.792   0.197  -0.490  0.00  0.00     0.015 A 
ATOM      7  C7  IND d   1       2.053   0.548   0.604  0.00  0.00    -0.016 A 
ATOM      8  C8  IND d   1       0.673   0.537   0.459  0.00  0.00    -0.047 A 
ATOM      9  C9  IND d   1       0.058   0.207  -0.756  0.00  0.00    -0.096 A 
ATOM     10  HN1 IND d   1      -0.211   1.099   2.168  0.00  0.00     0.298 HD
ENDROOT
TORSDOF 0
ENDMDL
