MODEL 1
REMARK minimizedAffinity 4.62808323
REMARK minimizedRMSD -1
REMARK  0 active torsions:
REMARK  status: ('A' for Active; 'I' for Inactive)
ROOT
ATOM      1  N1  IND d   1       0.723   1.709   1.124  0.00  0.00    -0.196 N 
ATOM      2  C2  IND d   1       0.592   3.054   0.917  0.00  0.00     0.054 A 
ATOM      3  C3  IND d   1      -0.698   3.367   0.662  0.00  0.00    -0.031 A 
ATOM      4  C4  IND d   1      -2.776   1.848   0.636  0.00  0.00     0.051 A 
ATOM      5  C5  IND d   1      -3.154   0.538   0.733  0.00  0.00    -0.031 A 
ATOM      6  C6  IND d   1      -2.241  -0.469   0.972  0.00  0.00     0.015 A 
ATOM      7  C7  IND d   1      -0.911  -0.200   1.136  0.00  0.00    -0.016 A 
ATOM      8  C8  IND d   1      -0.523   1.128   1.032  0.00  0.00    -0.047 A 
ATOM      9  C9  IND d   1      -1.439   2.149   0.747  0.00  0.00    -0.096 A 
ATOM     10  HN1 IND d   1       1.459   1.295   1.285  0.00  0.00     0.298 HD
ENDROOT
TORSDOF 0
ENDMDL
