MODEL 1
REMARK minimizedAffinity -1.08996642
REMARK minimizedRMSD -1
REMARK  0 active torsions:
REMARK  status: ('A' for Active; 'I' for Inactive)
ROOT
ATOM      1  N1  IND d   1       0.830  -0.998   0.831  0.00  0.00    -0.196 N 
ATOM      2  C2  IND d   1       1.963  -0.248   0.682  0.00  0.00     0.054 A 
ATOM      3  C3  IND d   1       1.652   1.066   0.617  0.00  0.00    -0.031 A 
ATOM      4  C4  IND d   1      -0.640   2.218   0.836  0.00  0.00     0.051 A 
ATOM      5  C5  IND d   1      -1.975   1.947   0.946  0.00  0.00    -0.031 A 
ATOM      6  C6  IND d   1      -2.453   0.656   1.029  0.00  0.00     0.015 A 
ATOM      7  C7  IND d   1      -1.609  -0.418   1.015  0.00  0.00    -0.016 A 
ATOM      8  C8  IND d   1      -0.253  -0.148   0.895  0.00  0.00    -0.047 A 
ATOM      9  C9  IND d   1       0.235   1.159   0.769  0.00  0.00    -0.096 A 
ATOM     10  HN1 IND d   1       0.798  -1.856   0.877  0.00  0.00     0.298 HD
ENDROOT
TORSDOF 0
ENDMDL
