MODEL 1
REMARK minimizedAffinity 5.20301533
REMARK minimizedRMSD -1
REMARK  0 active torsions:
REMARK  status: ('A' for Active; 'I' for Inactive)
ROOT
ATOM      1  N1  IND d   1       1.294   0.415   0.764  0.00  0.00    -0.196 N 
ATOM      2  C2  IND d   1       2.037   1.504   1.129  0.00  0.00     0.054 A 
ATOM      3  C3  IND d   1       1.228   2.539   1.447  0.00  0.00    -0.031 A 
ATOM      4  C4  IND d   1      -1.343   2.639   1.539  0.00  0.00     0.051 A 
ATOM      5  C5  IND d   1      -2.460   1.903   1.259  0.00  0.00    -0.031 A 
ATOM      6  C6  IND d   1      -2.381   0.607   0.792  0.00  0.00     0.015 A 
ATOM      7  C7  IND d   1      -1.177  -0.008   0.598  0.00  0.00    -0.016 A 
ATOM      8  C8  IND d   1      -0.041   0.738   0.876  0.00  0.00    -0.047 A 
ATOM      9  C9  IND d   1      -0.113   2.068   1.309  0.00  0.00    -0.096 A 
ATOM     10  HN1 IND d   1       1.608  -0.343   0.508  0.00  0.00     0.298 HD
ENDROOT
TORSDOF 0
ENDMDL
