MODEL 1
REMARK minimizedAffinity -0.355391383
REMARK minimizedRMSD -1
REMARK  0 active torsions:
REMARK  status: ('A' for Active; 'I' for Inactive)
ROOT
ATOM      1  N1  IND d   1       2.275   1.448   1.335  0.00  0.00    -0.196 N 
ATOM      2  C2  IND d   1       2.541   2.720   1.757  0.00  0.00     0.054 A 
ATOM      3  C3  IND d   1       1.402   3.448   1.802  0.00  0.00    -0.031 A 
ATOM      4  C4  IND d   1      -1.021   2.725   1.322  0.00  0.00     0.051 A 
ATOM      5  C5  IND d   1      -1.761   1.669   0.869  0.00  0.00    -0.031 A 
ATOM      6  C6  IND d   1      -1.181   0.460   0.543  0.00  0.00     0.015 A 
ATOM      7  C7  IND d   1       0.164   0.257   0.671  0.00  0.00    -0.016 A 
ATOM      8  C8  IND d   1       0.919   1.330   1.124  0.00  0.00    -0.047 A 
ATOM      9  C9  IND d   1       0.342   2.573   1.416  0.00  0.00    -0.096 A 
ATOM     10  HN1 IND d   1       2.857   0.825   1.219  0.00  0.00     0.298 HD
ENDROOT
TORSDOF 0
ENDMDL
