MODEL 1
REMARK minimizedAffinity 2.18055964
REMARK minimizedRMSD -1
REMARK  0 active torsions:
REMARK  status: ('A' for Active; 'I' for Inactive)
ROOT
ATOM      1  N1  IND d   1       2.814   1.792   1.486  0.00  0.00    -0.196 N 
ATOM      2  C2  IND d   1       3.093   2.457   2.648  0.00  0.00     0.054 A 
ATOM      3  C3  IND d   1       1.967   3.006   3.156  0.00  0.00    -0.031 A 
ATOM      4  C4  IND d   1      -0.457   2.854   2.303  0.00  0.00     0.051 A 
ATOM      5  C5  IND d   1      -1.204   2.386   1.259  0.00  0.00    -0.031 A 
ATOM      6  C6  IND d   1      -0.639   1.679   0.218  0.00  0.00     0.015 A 
ATOM      7  C7  IND d   1       0.699   1.403   0.187  0.00  0.00    -0.016 A 
ATOM      8  C8  IND d   1       1.461   1.883   1.242  0.00  0.00    -0.047 A 
ATOM      9  C9  IND d   1       0.900   2.638   2.280  0.00  0.00    -0.096 A 
ATOM     10  HN1 IND d   1       3.388   1.385   0.991  0.00  0.00     0.298 HD
ENDROOT
TORSDOF 0
ENDMDL
