MODEL 1
REMARK minimizedAffinity 2.22879863
REMARK minimizedRMSD -1
REMARK  0 active torsions:
REMARK  status: ('A' for Active; 'I' for Inactive)
ROOT
ATOM      1  N1  IND d   1       2.343   1.233   1.190  0.00  0.00    -0.196 N 
ATOM      2  C2  IND d   1       2.670  -0.041   0.815  0.00  0.00     0.054 A 
ATOM      3  C3  IND d   1       1.552  -0.767   0.590  0.00  0.00    -0.031 A 
ATOM      4  C4  IND d   1      -0.916  -0.040   0.678  0.00  0.00     0.051 A 
ATOM      5  C5  IND d   1      -1.716   1.018   1.007  0.00  0.00    -0.031 A 
ATOM      6  C6  IND d   1      -1.194   2.226   1.420  0.00  0.00     0.015 A 
ATOM      7  C7  IND d   1       0.155   2.427   1.509  0.00  0.00    -0.016 A 
ATOM      8  C8  IND d   1       0.971   1.353   1.181  0.00  0.00    -0.047 A 
ATOM      9  C9  IND d   1       0.445   0.111   0.802  0.00  0.00    -0.096 A 
ATOM     10  HN1 IND d   1       2.900   1.854   1.396  0.00  0.00     0.298 HD
ENDROOT
TORSDOF 0
ENDMDL
