MODEL 1
REMARK minimizedAffinity 0.287373215
REMARK minimizedRMSD -1
REMARK  0 active torsions:
REMARK  status: ('A' for Active; 'I' for Inactive)
ROOT
ATOM      1  N1  IND d   1      -5.395   4.599  -5.671  0.00  0.00    -0.196 N 
ATOM      2  C2  IND d   1      -5.564   3.278  -5.980  0.00  0.00     0.054 A 
ATOM      3  C3  IND d   1      -4.371   2.641  -5.992  0.00  0.00    -0.031 A 
ATOM      4  C4  IND d   1      -2.027   3.549  -5.437  0.00  0.00     0.051 A 
ATOM      5  C5  IND d   1      -1.363   4.705  -5.135  0.00  0.00    -0.031 A 
ATOM      6  C6  IND d   1      -2.023   5.908  -4.991  0.00  0.00     0.015 A 
ATOM      7  C7  IND d   1      -3.379   5.999  -5.133  0.00  0.00    -0.016 A 
ATOM      8  C8  IND d   1      -4.055   4.829  -5.446  0.00  0.00    -0.047 A 
ATOM      9  C9  IND d   1      -3.386   3.613  -5.636  0.00  0.00    -0.096 A 
ATOM     10  HN1 IND d   1      -6.020   5.188  -5.626  0.00  0.00     0.298 HD
ENDROOT
TORSDOF 0
ENDMDL
