MODEL 1
REMARK minimizedAffinity 2.73502588
REMARK minimizedRMSD -1
REMARK  0 active torsions:
REMARK  status: ('A' for Active; 'I' for Inactive)
ROOT
ATOM      1  N1  IND d   1       0.576  -1.185   0.886  0.00  0.00    -0.196 N 
ATOM      2  C2  IND d   1       1.797  -0.618   0.647  0.00  0.00     0.054 A 
ATOM      3  C3  IND d   1       1.686   0.728   0.586  0.00  0.00    -0.031 A 
ATOM      4  C4  IND d   1      -0.382   2.217   0.952  0.00  0.00     0.051 A 
ATOM      5  C5  IND d   1      -1.731   2.155   1.161  0.00  0.00    -0.031 A 
ATOM      6  C6  IND d   1      -2.393   0.951   1.295  0.00  0.00     0.015 A 
ATOM      7  C7  IND d   1      -1.726  -0.239   1.235  0.00  0.00    -0.016 A 
ATOM      8  C8  IND d   1      -0.357  -0.180   1.016  0.00  0.00    -0.047 A 
ATOM      9  C9  IND d   1       0.314   1.037   0.837  0.00  0.00    -0.096 A 
ATOM     10  HN1 IND d   1       0.418  -2.028   0.946  0.00  0.00     0.298 HD
ENDROOT
TORSDOF 0
ENDMDL
