MODEL 1
REMARK minimizedAffinity 7.23063135
REMARK minimizedRMSD -1
REMARK  0 active torsions:
REMARK  status: ('A' for Active; 'I' for Inactive)
ROOT
ATOM      1  N1  IND d   1      -3.031  -6.000  -1.193  0.00  0.00    -0.196 N 
ATOM      2  C2  IND d   1      -4.228  -5.442  -0.838  0.00  0.00     0.054 A 
ATOM      3  C3  IND d   1      -4.143  -4.093  -0.859  0.00  0.00    -0.031 A 
ATOM      4  C4  IND d   1      -2.168  -2.589  -1.544  0.00  0.00     0.051 A 
ATOM      5  C5  IND d   1      -0.852  -2.639  -1.909  0.00  0.00    -0.031 A 
ATOM      6  C6  IND d   1      -0.182  -3.836  -2.060  0.00  0.00     0.015 A 
ATOM      7  C7  IND d   1      -0.810  -5.034  -1.861  0.00  0.00    -0.016 A 
ATOM      8  C8  IND d   1      -2.144  -4.986  -1.483  0.00  0.00    -0.047 A 
ATOM      9  C9  IND d   1      -2.818  -3.774  -1.287  0.00  0.00    -0.096 A 
ATOM     10  HN1 IND d   1      -2.861  -6.842  -1.228  0.00  0.00     0.298 HD
ENDROOT
TORSDOF 0
ENDMDL
