MODEL 1
REMARK minimizedAffinity 8.3717947
REMARK minimizedRMSD -1
REMARK  0 active torsions:
REMARK  status: ('A' for Active; 'I' for Inactive)
ROOT
ATOM      1  N1  IND d   1       1.001  -0.104   0.535  0.00  0.00    -0.196 N 
ATOM      2  C2  IND d   1       1.897   0.889   0.819  0.00  0.00     0.054 A 
ATOM      3  C3  IND d   1       1.251   2.055   1.043  0.00  0.00    -0.031 A 
ATOM      4  C4  IND d   1      -1.276   2.542   1.098  0.00  0.00     0.051 A 
ATOM      5  C5  IND d   1      -2.490   1.960   0.864  0.00  0.00    -0.031 A 
ATOM      6  C6  IND d   1      -2.605   0.633   0.505  0.00  0.00     0.015 A 
ATOM      7  C7  IND d   1      -1.506  -0.168   0.375  0.00  0.00    -0.016 A 
ATOM      8  C8  IND d   1      -0.271   0.421   0.604  0.00  0.00    -0.047 A 
ATOM      9  C9  IND d   1      -0.145   1.778   0.928  0.00  0.00    -0.096 A 
ATOM     10  HN1 IND d   1       1.198  -0.918   0.344  0.00  0.00     0.298 HD
ENDROOT
TORSDOF 0
ENDMDL
