MODEL 1
REMARK minimizedAffinity 11.393527
REMARK minimizedRMSD -1
REMARK  0 active torsions:
REMARK  status: ('A' for Active; 'I' for Inactive)
ROOT
ATOM      1  N1  IND d   1      -0.242  -0.602   0.582  0.00  0.00    -0.196 N 
ATOM      2  C2  IND d   1       0.991  -0.011   0.563  0.00  0.00     0.054 A 
ATOM      3  C3  IND d   1       0.872   1.330   0.681  0.00  0.00    -0.031 A 
ATOM      4  C4  IND d   1      -1.241   2.761   1.022  0.00  0.00     0.051 A 
ATOM      5  C5  IND d   1      -2.605   2.674   1.069  0.00  0.00    -0.031 A 
ATOM      6  C6  IND d   1      -3.263   1.467   0.957  0.00  0.00     0.015 A 
ATOM      7  C7  IND d   1      -2.579   0.294   0.804  0.00  0.00    -0.016 A 
ATOM      8  C8  IND d   1      -1.195   0.379   0.749  0.00  0.00    -0.047 A 
ATOM      9  C9  IND d   1      -0.523   1.606   0.820  0.00  0.00    -0.096 A 
ATOM     10  HN1 IND d   1      -0.396  -1.444   0.504  0.00  0.00     0.298 HD
ENDROOT
TORSDOF 0
ENDMDL
