MODEL 1
REMARK minimizedAffinity 12.1464052
REMARK minimizedRMSD -1
REMARK  0 active torsions:
REMARK  status: ('A' for Active; 'I' for Inactive)
ROOT
ATOM      1  N1  IND d   1       2.023   1.932  -4.581  0.00  0.00    -0.196 N 
ATOM      2  C2  IND d   1       0.780   2.497  -4.513  0.00  0.00     0.054 A 
ATOM      3  C3  IND d   1       0.050   1.910  -3.538  0.00  0.00    -0.031 A 
ATOM      4  C4  IND d   1       0.727   0.073  -1.867  0.00  0.00     0.051 A 
ATOM      5  C5  IND d   1       1.749  -0.781  -1.562  0.00  0.00    -0.031 A 
ATOM      6  C6  IND d   1       2.940  -0.773  -2.259  0.00  0.00     0.015 A 
ATOM      7  C7  IND d   1       3.158   0.102  -3.286  0.00  0.00    -0.016 A 
ATOM      8  C8  IND d   1       2.120   0.966  -3.603  0.00  0.00    -0.047 A 
ATOM      9  C9  IND d   1       0.893   0.933  -2.927  0.00  0.00    -0.096 A 
ATOM     10  HN1 IND d   1       2.641   2.144  -5.141  0.00  0.00     0.298 HD
ENDROOT
TORSDOF 0
ENDMDL
