MODEL 1
REMARK minimizedAffinity 18.8791656
REMARK minimizedRMSD -1
REMARK  0 active torsions:
REMARK  status: ('A' for Active; 'I' for Inactive)
ROOT
ATOM      1  N1  IND d   1       5.337  -0.394  -3.383  0.00  0.00    -0.196 N 
ATOM      2  C2  IND d   1       5.999  -1.272  -2.571  0.00  0.00     0.054 A 
ATOM      3  C3  IND d   1       5.152  -1.801  -1.660  0.00  0.00    -0.031 A 
ATOM      4  C4  IND d   1       2.617  -1.444  -1.383  0.00  0.00     0.051 A 
ATOM      5  C5  IND d   1       1.574  -0.705  -1.867  0.00  0.00    -0.031 A 
ATOM      6  C6  IND d   1       1.735   0.192  -2.903  0.00  0.00     0.015 A 
ATOM      7  C7  IND d   1       2.948   0.375  -3.505  0.00  0.00    -0.016 A 
ATOM      8  C8  IND d   1       4.010  -0.368  -3.012  0.00  0.00    -0.047 A 
ATOM      9  C9  IND d   1       3.863  -1.249  -1.932  0.00  0.00    -0.096 A 
ATOM     10  HN1 IND d   1       5.690   0.066  -4.018  0.00  0.00     0.298 HD
ENDROOT
TORSDOF 0
ENDMDL
