MODEL 1
REMARK minimizedAffinity 1.9643662
REMARK minimizedRMSD -1
REMARK  3 active torsions:
REMARK  status: ('A' for Active; 'I' for Inactive)
REMARK    1  A    between atoms: C3'_2  and  C2'_3 
REMARK    2  A    between atoms: C2'_3  and  C1'_4 
REMARK    3  A    between atoms: C1'_4  and  C1_5 
ROOT
ATOM      1  C1  N4B d   1       0.981   0.410   2.536  0.00  0.00    -0.075 A 
ATOM      2  C2  N4B d   1      -0.398   0.393   2.839  0.00  0.00     0.002 A 
ATOM      3  C3  N4B d   1      -1.164  -0.692   2.488  0.00  0.00     0.002 A 
ATOM      4  C4  N4B d   1      -0.579  -1.758   1.821  0.00  0.00    -0.004 A 
ATOM      5  C5  N4B d   1       0.759  -1.745   1.556  0.00  0.00     0.002 A 
ATOM      6  C6  N4B d   1       1.541  -0.663   1.905  0.00  0.00     0.002 A 
ENDROOT
BRANCH   1   7
ATOM      7  C1' N4B d   1       1.842   1.610   2.823  0.00  0.00     0.057 C 
BRANCH   7   8
ATOM      8  C2' N4B d   1       2.932   1.709   1.760  0.00  0.00     0.009 C 
BRANCH   8   9
ATOM      9  C3' N4B d   1       3.371   3.145   1.528  0.00  0.00     0.004 C 
ATOM     10  C4' N4B d   1       3.780   3.405   0.109  0.00  0.00     0.003 C 
ENDBRANCH   8   9
ENDBRANCH   7   8
ENDBRANCH   1   7
TORSDOF 3
ENDMDL
