MODEL 1
REMARK minimizedAffinity -2.70609903
REMARK minimizedRMSD -1
REMARK  3 active torsions:
REMARK  status: ('A' for Active; 'I' for Inactive)
REMARK    1  A    between atoms: C3'_2  and  C2'_3 
REMARK    2  A    between atoms: C2'_3  and  C1'_4 
REMARK    3  A    between atoms: C1'_4  and  C1_5 
ROOT
ATOM      1  C1  N4B d   1      -1.766  -0.946  -0.569  0.00  0.00    -0.075 A 
ATOM      2  C2  N4B d   1      -2.937  -0.330  -0.077  0.00  0.00     0.002 A 
ATOM      3  C3  N4B d   1      -3.404   0.822  -0.660  0.00  0.00     0.002 A 
ATOM      4  C4  N4B d   1      -2.709   1.384  -1.720  0.00  0.00    -0.004 A 
ATOM      5  C5  N4B d   1      -1.593   0.769  -2.207  0.00  0.00     0.002 A 
ATOM      6  C6  N4B d   1      -1.114  -0.392  -1.633  0.00  0.00     0.002 A 
ENDROOT
BRANCH   1   7
ATOM      7  C1' N4B d   1      -1.169  -2.159   0.090  0.00  0.00     0.057 C 
BRANCH   7   8
ATOM      8  C2' N4B d   1      -0.844  -1.830   1.544  0.00  0.00     0.009 C 
BRANCH   8   9
ATOM      9  C3' N4B d   1       0.615  -2.095   1.874  0.00  0.00     0.004 C 
ATOM     10  C4' N4B d   1       1.557  -1.263   1.056  0.00  0.00     0.003 C 
ENDBRANCH   8   9
ENDBRANCH   7   8
ENDBRANCH   1   7
TORSDOF 3
ENDMDL
