MODEL 1
REMARK minimizedAffinity -6.62836266
REMARK minimizedRMSD -1
REMARK  3 active torsions:
REMARK  status: ('A' for Active; 'I' for Inactive)
REMARK    1  A    between atoms: C3'_2  and  C2'_3 
REMARK    2  A    between atoms: C2'_3  and  C1'_4 
REMARK    3  A    between atoms: C1'_4  and  C1_5 
ROOT
ATOM      1  C1  N4B d   1       0.232   0.079   0.708  0.00  0.00    -0.075 A 
ATOM      2  C2  N4B d   1       0.178   0.523  -0.632  0.00  0.00     0.002 A 
ATOM      3  C3  N4B d   1      -0.947   0.295  -1.386  0.00  0.00     0.002 A 
ATOM      4  C4  N4B d   1      -2.019  -0.388  -0.830  0.00  0.00    -0.004 A 
ATOM      5  C5  N4B d   1      -1.968  -0.791   0.472  0.00  0.00     0.002 A 
ATOM      6  C6  N4B d   1      -0.846  -0.566   1.243  0.00  0.00     0.002 A 
ENDROOT
BRANCH   1   7
ATOM      7  C1' N4B d   1       1.473   0.228   1.544  0.00  0.00     0.057 C 
BRANCH   7   8
ATOM      8  C2' N4B d   1       1.562   1.663   2.055  0.00  0.00     0.009 C 
BRANCH   8   9
ATOM      9  C3' N4B d   1       2.933   2.270   1.809  0.00  0.00     0.004 C 
ATOM     10  C4' N4B d   1       3.347   2.204   0.370  0.00  0.00     0.003 C 
ENDBRANCH   8   9
ENDBRANCH   7   8
ENDBRANCH   1   7
TORSDOF 3
ENDMDL
