MODEL 1
REMARK minimizedAffinity -1.53480411
REMARK minimizedRMSD -1
REMARK  3 active torsions:
REMARK  status: ('A' for Active; 'I' for Inactive)
REMARK    1  A    between atoms: C3'_2  and  C2'_3 
REMARK    2  A    between atoms: C2'_3  and  C1'_4 
REMARK    3  A    between atoms: C1'_4  and  C1_5 
ROOT
ATOM      1  C1  N4B d   1      -1.726  -1.392   0.706  0.00  0.00    -0.075 A 
ATOM      2  C2  N4B d   1      -1.032  -1.258  -0.516  0.00  0.00     0.002 A 
ATOM      3  C3  N4B d   1      -0.033  -0.323  -0.639  0.00  0.00     0.002 A 
ATOM      4  C4  N4B d   1       0.275   0.497   0.436  0.00  0.00    -0.004 A 
ATOM      5  C5  N4B d   1      -0.383   0.343   1.621  0.00  0.00     0.002 A 
ATOM      6  C6  N4B d   1      -1.387  -0.594   1.760  0.00  0.00     0.002 A 
ENDROOT
BRANCH   1   7
ATOM      7  C1' N4B d   1      -2.884  -2.340   0.862  0.00  0.00     0.057 C 
BRANCH   7   8
ATOM      8  C2' N4B d   1      -3.103  -3.083  -0.453  0.00  0.00     0.009 C 
BRANCH   8   9
ATOM      9  C3' N4B d   1      -2.665  -4.535  -0.366  0.00  0.00     0.004 C 
ATOM     10  C4' N4B d   1      -2.114  -4.895   0.982  0.00  0.00     0.003 C 
ENDBRANCH   8   9
ENDBRANCH   7   8
ENDBRANCH   1   7
TORSDOF 3
ENDMDL
