MODEL 1
REMARK minimizedAffinity -0.83230257
REMARK minimizedRMSD -1
REMARK  3 active torsions:
REMARK  status: ('A' for Active; 'I' for Inactive)
REMARK    1  A    between atoms: C3'_2  and  C2'_3 
REMARK    2  A    between atoms: C2'_3  and  C1'_4 
REMARK    3  A    between atoms: C1'_4  and  C1_5 
ROOT
ATOM      1  C1  N4B d   1      -5.720   4.956   2.764  0.00  0.00    -0.075 A 
ATOM      2  C2  N4B d   1      -5.196   6.000   1.970  0.00  0.00     0.002 A 
ATOM      3  C3  N4B d   1      -4.892   5.772   0.650  0.00  0.00     0.002 A 
ATOM      4  C4  N4B d   1      -5.084   4.509   0.110  0.00  0.00    -0.004 A 
ATOM      5  C5  N4B d   1      -5.615   3.513   0.877  0.00  0.00     0.002 A 
ATOM      6  C6  N4B d   1      -5.929   3.729   2.204  0.00  0.00     0.002 A 
ENDROOT
BRANCH   1   7
ATOM      7  C1' N4B d   1      -5.988   5.134   4.233  0.00  0.00     0.057 C 
BRANCH   7   8
ATOM      8  C2' N4B d   1      -5.998   3.767   4.910  0.00  0.00     0.009 C 
BRANCH   8   9
ATOM      9  C3' N4B d   1      -4.943   3.663   5.998  0.00  0.00     0.004 C 
ATOM     10  C4' N4B d   1      -3.924   2.600   5.719  0.00  0.00     0.003 C 
ENDBRANCH   8   9
ENDBRANCH   7   8
ENDBRANCH   1   7
TORSDOF 3
ENDMDL
