MODEL 1
REMARK minimizedAffinity -2.15321493
REMARK minimizedRMSD -1
REMARK  3 active torsions:
REMARK  status: ('A' for Active; 'I' for Inactive)
REMARK    1  A    between atoms: C3'_2  and  C2'_3 
REMARK    2  A    between atoms: C2'_3  and  C1'_4 
REMARK    3  A    between atoms: C1'_4  and  C1_5 
ROOT
ATOM      1  C1  N4B d   1      -0.571  -1.372  -0.162  0.00  0.00    -0.075 A 
ATOM      2  C2  N4B d   1      -1.178  -0.677  -1.231  0.00  0.00     0.002 A 
ATOM      3  C3  N4B d   1      -2.292  -1.196  -1.843  0.00  0.00     0.002 A 
ATOM      4  C4  N4B d   1      -2.805  -2.412  -1.417  0.00  0.00    -0.004 A 
ATOM      5  C5  N4B d   1      -2.228  -3.065  -0.367  0.00  0.00     0.002 A 
ATOM      6  C6  N4B d   1      -1.110  -2.553   0.260  0.00  0.00     0.002 A 
ENDROOT
BRANCH   1   7
ATOM      7  C1' N4B d   1       0.699  -0.887   0.482  0.00  0.00     0.057 C 
BRANCH   7   8
ATOM      8  C2' N4B d   1       0.956  -1.692   1.752  0.00  0.00     0.009 C 
BRANCH   8   9
ATOM      9  C3' N4B d   1       0.975  -0.811   2.989  0.00  0.00     0.004 C 
ATOM     10  C4' N4B d   1      -0.398  -0.535   3.527  0.00  0.00     0.003 C 
ENDBRANCH   8   9
ENDBRANCH   7   8
ENDBRANCH   1   7
TORSDOF 3
ENDMDL
