MODEL 1
REMARK minimizedAffinity -5.91306925
REMARK minimizedRMSD -1
REMARK  3 active torsions:
REMARK  status: ('A' for Active; 'I' for Inactive)
REMARK    1  A    between atoms: C3'_2  and  C2'_3 
REMARK    2  A    between atoms: C2'_3  and  C1'_4 
REMARK    3  A    between atoms: C1'_4  and  C1_5 
ROOT
ATOM      1  C1  N4B d   1       1.520   0.680   0.632  0.00  0.00    -0.075 A 
ATOM      2  C2  N4B d   1       1.370   0.618   2.034  0.00  0.00     0.002 A 
ATOM      3  C3  N4B d   1       1.938   1.583   2.829  0.00  0.00     0.002 A 
ATOM      4  C4  N4B d   1       2.673   2.605   2.248  0.00  0.00    -0.004 A 
ATOM      5  C5  N4B d   1       2.792   2.673   0.890  0.00  0.00     0.002 A 
ATOM      6  C6  N4B d   1       2.223   1.712   0.079  0.00  0.00     0.002 A 
ENDROOT
BRANCH   1   7
ATOM      7  C1' N4B d   1       0.990  -0.399  -0.273  0.00  0.00     0.057 C 
BRANCH   7   8
ATOM      8  C2' N4B d   1      -0.371   0.027  -0.816  0.00  0.00     0.009 C 
BRANCH   8   9
ATOM      9  C3' N4B d   1      -1.509  -0.737  -0.161  0.00  0.00     0.004 C 
ATOM     10  C4' N4B d   1      -2.771  -0.704  -0.970  0.00  0.00     0.003 C 
ENDBRANCH   8   9
ENDBRANCH   7   8
ENDBRANCH   1   7
TORSDOF 3
ENDMDL
