MODEL 1
REMARK minimizedAffinity -2.53557253
REMARK minimizedRMSD -1
REMARK  3 active torsions:
REMARK  status: ('A' for Active; 'I' for Inactive)
REMARK    1  A    between atoms: C3'_2  and  C2'_3 
REMARK    2  A    between atoms: C2'_3  and  C1'_4 
REMARK    3  A    between atoms: C1'_4  and  C1_5 
ROOT
ATOM      1  C1  N4B d   1       0.988   0.312   2.016  0.00  0.00    -0.075 A 
ATOM      2  C2  N4B d   1       1.098  -0.933   1.359  0.00  0.00     0.002 A 
ATOM      3  C3  N4B d   1       0.076  -1.847   1.443  0.00  0.00     0.002 A 
ATOM      4  C4  N4B d   1      -1.052  -1.547   2.192  0.00  0.00    -0.004 A 
ATOM      5  C5  N4B d   1      -1.161  -0.332   2.803  0.00  0.00     0.002 A 
ATOM      6  C6  N4B d   1      -0.144   0.597   2.723  0.00  0.00     0.002 A 
ENDROOT
BRANCH   1   7
ATOM      7  C1' N4B d   1       2.115   1.308   2.024  0.00  0.00     0.057 C 
BRANCH   7   8
ATOM      8  C2' N4B d   1       2.042   2.156   0.757  0.00  0.00     0.009 C 
BRANCH   8   9
ATOM      9  C3' N4B d   1       3.403   2.315   0.101  0.00  0.00     0.004 C 
ATOM     10  C4' N4B d   1       3.313   2.831  -1.304  0.00  0.00     0.003 C 
ENDBRANCH   8   9
ENDBRANCH   7   8
ENDBRANCH   1   7
TORSDOF 3
ENDMDL
