MODEL 1
REMARK minimizedAffinity 8.90519238
REMARK minimizedRMSD -1
REMARK  2 active torsions:
REMARK  status: ('A' for Active; 'I' for Inactive)
REMARK    1  A    between atoms: C2'_3  and  C1'_4 
REMARK    2  A    between atoms: C1'_4  and  C1_5 
ROOT
ATOM      1  C1  I4B d   1       0.655  -1.969   0.238  0.00  0.00    -0.075 A 
ATOM      2  C2  I4B d   1      -0.010  -1.452  -0.846  0.00  0.00     0.003 A 
ATOM      3  C3  I4B d   1       0.122  -2.058  -2.119  0.00  0.00     0.002 A 
ATOM      4  C4  I4B d   1       0.964  -3.140  -2.272  0.00  0.00    -0.004 A 
ATOM      5  C5  I4B d   1       1.620  -3.677  -1.168  0.00  0.00     0.002 A 
ATOM      6  C6  I4B d   1       1.455  -3.096   0.098  0.00  0.00     0.003 A 
ENDROOT
BRANCH   1   7
ATOM      7  C1' I4B d   1       0.518  -1.285   1.561  0.00  0.00     0.060 C 
BRANCH   7   8
ATOM      8  C2' I4B d   1       1.896  -1.197   2.185  0.00  0.00    -0.013 C 
ATOM      9  C4' I4B d   1       2.339   0.236   2.328  0.00  0.00     0.013 C 
ATOM     10  C3' I4B d   1       1.845  -1.883   3.518  0.00  0.00     0.013 C 
ENDBRANCH   7   8
ENDBRANCH   1   7
TORSDOF 2
ENDMDL
