MODEL 1
REMARK minimizedAffinity 3.85826397
REMARK minimizedRMSD -1
REMARK  2 active torsions:
REMARK  status: ('A' for Active; 'I' for Inactive)
REMARK    1  A    between atoms: C2'_3  and  C1'_4 
REMARK    2  A    between atoms: C1'_4  and  C1_5 
ROOT
ATOM      1  C1  I4B d   1       1.513  -3.207   0.088  0.00  0.00    -0.075 A 
ATOM      2  C2  I4B d   1       2.109  -4.226   0.789  0.00  0.00     0.003 A 
ATOM      3  C3  I4B d   1       2.576  -5.379   0.112  0.00  0.00     0.002 A 
ATOM      4  C4  I4B d   1       2.383  -5.492  -1.249  0.00  0.00    -0.004 A 
ATOM      5  C5  I4B d   1       1.800  -4.448  -1.962  0.00  0.00     0.002 A 
ATOM      6  C6  I4B d   1       1.373  -3.293  -1.291  0.00  0.00     0.003 A 
ENDROOT
BRANCH   1   7
ATOM      7  C1' I4B d   1       1.002  -2.019   0.839  0.00  0.00     0.060 C 
BRANCH   7   8
ATOM      8  C2' I4B d   1       2.165  -1.406   1.592  0.00  0.00    -0.013 C 
ATOM      9  C4' I4B d   1       2.209   0.088   1.405  0.00  0.00     0.013 C 
ATOM     10  C3' I4B d   1       2.021  -1.767   3.040  0.00  0.00     0.013 C 
ENDBRANCH   7   8
ENDBRANCH   1   7
TORSDOF 2
ENDMDL
