MODEL 1
REMARK minimizedAffinity 6.78541899
REMARK minimizedRMSD -1
REMARK  2 active torsions:
REMARK  status: ('A' for Active; 'I' for Inactive)
REMARK    1  A    between atoms: C2'_3  and  C1'_4 
REMARK    2  A    between atoms: C1'_4  and  C1_5 
ROOT
ATOM      1  C1  I4B d   1       3.572  -2.420   3.858  0.00  0.00    -0.075 A 
ATOM      2  C2  I4B d   1       4.663  -2.100   3.090  0.00  0.00     0.003 A 
ATOM      3  C3  I4B d   1       5.893  -2.776   3.281  0.00  0.00     0.002 A 
ATOM      4  C4  I4B d   1       6.000  -3.723   4.279  0.00  0.00    -0.004 A 
ATOM      5  C5  I4B d   1       4.886  -4.062   5.042  0.00  0.00     0.002 A 
ATOM      6  C6  I4B d   1       3.661  -3.416   4.822  0.00  0.00     0.003 A 
ENDROOT
BRANCH   1   7
ATOM      7  C1' I4B d   1       2.298  -1.664   3.652  0.00  0.00     0.060 C 
BRANCH   7   8
ATOM      8  C2' I4B d   1       2.235  -1.244   2.198  0.00  0.00    -0.013 C 
ATOM      9  C4' I4B d   1       0.952  -1.698   1.554  0.00  0.00     0.013 C 
ATOM     10  C3' I4B d   1       2.370   0.249   2.141  0.00  0.00     0.013 C 
ENDBRANCH   7   8
ENDBRANCH   1   7
TORSDOF 2
ENDMDL
