MODEL 1
REMARK minimizedAffinity 6.04955101
REMARK minimizedRMSD -1
REMARK  2 active torsions:
REMARK  status: ('A' for Active; 'I' for Inactive)
REMARK    1  A    between atoms: C2'_3  and  C1'_4 
REMARK    2  A    between atoms: C1'_4  and  C1_5 
ROOT
ATOM      1  C1  I4B d   1      -0.075  -2.355  -1.600  0.00  0.00    -0.075 A 
ATOM      2  C2  I4B d   1       0.482  -2.023  -0.390  0.00  0.00     0.003 A 
ATOM      3  C3  I4B d   1      -0.316  -1.447   0.628  0.00  0.00     0.002 A 
ATOM      4  C4  I4B d   1      -1.646  -1.176   0.378  0.00  0.00    -0.004 A 
ATOM      5  C5  I4B d   1      -2.214  -1.534  -0.841  0.00  0.00     0.002 A 
ATOM      6  C6  I4B d   1      -1.427  -2.139  -1.832  0.00  0.00     0.003 A 
ENDROOT
BRANCH   1   7
ATOM      7  C1' I4B d   1       0.805  -2.931  -2.664  0.00  0.00     0.060 C 
BRANCH   7   8
ATOM      8  C2' I4B d   1       2.245  -2.669  -2.272  0.00  0.00    -0.013 C 
ATOM      9  C4' I4B d   1       3.142  -3.797  -2.708  0.00  0.00     0.013 C 
ATOM     10  C3' I4B d   1       2.665  -1.371  -2.895  0.00  0.00     0.013 C 
ENDBRANCH   7   8
ENDBRANCH   1   7
TORSDOF 2
ENDMDL
