MODEL 1
REMARK minimizedAffinity 9.81898308
REMARK minimizedRMSD -1
REMARK  2 active torsions:
REMARK  status: ('A' for Active; 'I' for Inactive)
REMARK    1  A    between atoms: C2'_3  and  C1'_4 
REMARK    2  A    between atoms: C1'_4  and  C1_5 
ROOT
ATOM      1  C1  I4B d   1       2.288  -0.725   2.336  0.00  0.00    -0.075 A 
ATOM      2  C2  I4B d   1       2.577  -0.417   1.030  0.00  0.00     0.003 A 
ATOM      3  C3  I4B d   1       2.784   0.929   0.644  0.00  0.00     0.002 A 
ATOM      4  C4  I4B d   1       2.643   1.934   1.579  0.00  0.00    -0.004 A 
ATOM      5  C5  I4B d   1       2.372   1.619   2.907  0.00  0.00     0.002 A 
ATOM      6  C6  I4B d   1       2.206   0.280   3.291  0.00  0.00     0.003 A 
ENDROOT
BRANCH   1   7
ATOM      7  C1' I4B d   1       2.043  -2.154   2.703  0.00  0.00     0.060 C 
BRANCH   7   8
ATOM      8  C2' I4B d   1       3.170  -2.602   3.611  0.00  0.00    -0.013 C 
ATOM      9  C4' I4B d   1       2.987  -4.034   4.041  0.00  0.00     0.013 C 
ATOM     10  C3' I4B d   1       4.462  -2.419   2.872  0.00  0.00     0.013 C 
ENDBRANCH   7   8
ENDBRANCH   1   7
TORSDOF 2
ENDMDL
