MODEL 1
REMARK minimizedAffinity 0.464186221
REMARK minimizedRMSD -1
REMARK  2 active torsions:
REMARK  status: ('A' for Active; 'I' for Inactive)
REMARK    1  A    between atoms: C2'_3  and  C1'_4 
REMARK    2  A    between atoms: C1'_4  and  C1_5 
ROOT
ATOM      1  C1  I4B d   1       1.541  -1.788   1.663  0.00  0.00    -0.075 A 
ATOM      2  C2  I4B d   1       1.568  -2.739   2.652  0.00  0.00     0.003 A 
ATOM      3  C3  I4B d   1       2.403  -2.569   3.783  0.00  0.00     0.002 A 
ATOM      4  C4  I4B d   1       3.226  -1.464   3.860  0.00  0.00    -0.004 A 
ATOM      5  C5  I4B d   1       3.181  -0.489   2.867  0.00  0.00     0.002 A 
ATOM      6  C6  I4B d   1       2.324  -0.645   1.768  0.00  0.00     0.003 A 
ENDROOT
BRANCH   1   7
ATOM      7  C1' I4B d   1       0.673  -2.015   0.467  0.00  0.00     0.060 C 
BRANCH   7   8
ATOM      8  C2' I4B d   1       1.408  -2.948  -0.473  0.00  0.00    -0.013 C 
ATOM      9  C4' I4B d   1       1.189  -4.389  -0.093  0.00  0.00     0.013 C 
ATOM     10  C3' I4B d   1       0.925  -2.676  -1.867  0.00  0.00     0.013 C 
ENDBRANCH   7   8
ENDBRANCH   1   7
TORSDOF 2
ENDMDL
