MODEL 1
REMARK minimizedAffinity 5.33759594
REMARK minimizedRMSD -1
REMARK  2 active torsions:
REMARK  status: ('A' for Active; 'I' for Inactive)
REMARK    1  A    between atoms: C2'_3  and  C1'_4 
REMARK    2  A    between atoms: C1'_4  and  C1_5 
ROOT
ATOM      1  C1  I4B d   1       2.328  -0.418   2.928  0.00  0.00    -0.075 A 
ATOM      2  C2  I4B d   1       2.761  -0.612   1.640  0.00  0.00     0.003 A 
ATOM      3  C3  I4B d   1       3.200   0.487   0.863  0.00  0.00     0.002 A 
ATOM      4  C4  I4B d   1       3.141   1.760   1.392  0.00  0.00    -0.004 A 
ATOM      5  C5  I4B d   1       2.723   1.952   2.705  0.00  0.00     0.002 A 
ATOM      6  C6  I4B d   1       2.325   0.855   3.483  0.00  0.00     0.003 A 
ENDROOT
BRANCH   1   7
ATOM      7  C1' I4B d   1       1.840  -1.597   3.709  0.00  0.00     0.060 C 
BRANCH   7   8
ATOM      8  C2' I4B d   1       2.733  -2.776   3.380  0.00  0.00    -0.013 C 
ATOM      9  C4' I4B d   1       3.656  -3.098   4.526  0.00  0.00     0.013 C 
ATOM     10  C3' I4B d   1       1.854  -3.945   3.049  0.00  0.00     0.013 C 
ENDBRANCH   7   8
ENDBRANCH   1   7
TORSDOF 2
ENDMDL
