MODEL 1
REMARK minimizedAffinity 4.01172352
REMARK minimizedRMSD -1
REMARK  2 active torsions:
REMARK  status: ('A' for Active; 'I' for Inactive)
REMARK    1  A    between atoms: C2'_3  and  C1'_4 
REMARK    2  A    between atoms: C1'_4  and  C1_5 
ROOT
ATOM      1  C1  I4B d   1       0.779  -1.408   1.009  0.00  0.00    -0.075 A 
ATOM      2  C2  I4B d   1       0.793  -2.361   1.998  0.00  0.00     0.003 A 
ATOM      3  C3  I4B d   1       1.447  -2.102   3.227  0.00  0.00     0.002 A 
ATOM      4  C4  I4B d   1       2.112  -0.906   3.405  0.00  0.00    -0.004 A 
ATOM      5  C5  I4B d   1       2.077   0.067   2.410  0.00  0.00     0.002 A 
ATOM      6  C6  I4B d   1       1.396  -0.180   1.210  0.00  0.00     0.003 A 
ENDROOT
BRANCH   1   7
ATOM      7  C1' I4B d   1       0.108  -1.727  -0.289  0.00  0.00     0.060 C 
BRANCH   7   8
ATOM      8  C2' I4B d   1       1.146  -2.325  -1.217  0.00  0.00    -0.013 C 
ATOM      9  C4' I4B d   1       1.214  -3.822  -1.067  0.00  0.00     0.013 C 
ATOM     10  C3' I4B d   1       0.789  -1.937  -2.621  0.00  0.00     0.013 C 
ENDBRANCH   7   8
ENDBRANCH   1   7
TORSDOF 2
ENDMDL
