MODEL 1
REMARK minimizedAffinity 5.25094652
REMARK minimizedRMSD -1
REMARK  2 active torsions:
REMARK  status: ('A' for Active; 'I' for Inactive)
REMARK    1  A    between atoms: C2'_3  and  C1'_4 
REMARK    2  A    between atoms: C1'_4  and  C1_5 
ROOT
ATOM      1  C1  I4B d   1       0.152  -1.667   0.053  0.00  0.00    -0.075 A 
ATOM      2  C2  I4B d   1       0.423  -2.040  -1.240  0.00  0.00     0.003 A 
ATOM      3  C3  I4B d   1      -0.448  -1.660  -2.289  0.00  0.00     0.002 A 
ATOM      4  C4  I4B d   1      -1.598  -0.956  -1.996  0.00  0.00    -0.004 A 
ATOM      5  C5  I4B d   1      -1.859  -0.558  -0.688  0.00  0.00     0.002 A 
ATOM      6  C6  I4B d   1      -0.972  -0.905   0.341  0.00  0.00     0.003 A 
ENDROOT
BRANCH   1   7
ATOM      7  C1' I4B d   1       1.077  -2.113   1.140  0.00  0.00     0.060 C 
BRANCH   7   8
ATOM      8  C2' I4B d   1       1.439  -0.900   1.973  0.00  0.00    -0.013 C 
ATOM      9  C4' I4B d   1       2.020  -1.304   3.302  0.00  0.00     0.013 C 
ATOM     10  C3' I4B d   1       2.411  -0.072   1.186  0.00  0.00     0.013 C 
ENDBRANCH   7   8
ENDBRANCH   1   7
TORSDOF 2
ENDMDL
