MODEL 1
REMARK minimizedAffinity -0.678543031
REMARK minimizedRMSD -1
REMARK  1 active torsions:
REMARK  status: ('A' for Active; 'I' for Inactive)
REMARK    1  A    between atoms: C1_2  and  C2_3 
ROOT
ATOM      1  C2  UNL d   1      -1.045   2.411  -1.597  0.00  0.00    -0.081 A 
ATOM      2  C3  UNL d   1      -1.115   1.631  -0.436  0.00  0.00     0.006 A 
ATOM      3  C4  UNL d   1      -0.551   2.087   0.758  0.00  0.00     0.002 A 
ATOM      4  C5  UNL d   1       0.084   3.332   0.814  0.00  0.00    -0.080 A 
ATOM      5  C6  UNL d   1       0.667   3.846   2.096  0.00  0.00     0.076 C 
ATOM      6  C7  UNL d   1       0.169   4.104  -0.350  0.00  0.00     0.002 A 
ATOM      7  C8  UNL d   1      -0.394   3.648  -1.545  0.00  0.00     0.006 A 
ENDROOT
BRANCH   1   8
ATOM      8  C1  UNL d   1      -1.709   1.951  -2.870  0.00  0.00     0.054 C 
ATOM      9  C   UNL d   1      -2.839   0.973  -2.583  0.00  0.00     0.018 C 
ENDBRANCH   1   8
TORSDOF 1
ENDMDL
