MODEL 1
REMARK minimizedAffinity 14.9043751
REMARK minimizedRMSD -1
REMARK  1 active torsions:
REMARK  status: ('A' for Active; 'I' for Inactive)
REMARK    1  A    between atoms: C1_2  and  C2_3 
ROOT
ATOM      1  C2  UNL d   1      -0.794   2.599  -1.070  0.00  0.00    -0.081 A 
ATOM      2  C3  UNL d   1      -1.429   1.494  -0.490  0.00  0.00     0.006 A 
ATOM      3  C4  UNL d   1      -0.903   0.898   0.659  0.00  0.00     0.002 A 
ATOM      4  C5  UNL d   1       0.260   1.401   1.250  0.00  0.00    -0.080 A 
ATOM      5  C6  UNL d   1       0.818   0.789   2.501  0.00  0.00     0.076 C 
ATOM      6  C7  UNL d   1       0.904   2.494   0.661  0.00  0.00     0.002 A 
ATOM      7  C8  UNL d   1       0.379   3.090  -0.488  0.00  0.00     0.006 A 
ENDROOT
BRANCH   1   8
ATOM      8  C1  UNL d   1      -1.395   3.284  -2.271  0.00  0.00     0.054 C 
ATOM      9  C   UNL d   1      -0.736   2.817  -3.561  0.00  0.00     0.018 C 
ENDBRANCH   1   8
TORSDOF 1
ENDMDL
