MODEL 1
REMARK minimizedAffinity 6.47794628
REMARK minimizedRMSD -1
REMARK  1 active torsions:
REMARK  status: ('A' for Active; 'I' for Inactive)
REMARK    1  A    between atoms: C1_2  and  C2_3 
ROOT
ATOM      1  C2  UNL d   1      -1.723  -0.028   3.368  0.00  0.00    -0.081 A 
ATOM      2  C3  UNL d   1      -2.629   0.681   2.570  0.00  0.00     0.006 A 
ATOM      3  C4  UNL d   1      -2.180   1.695   1.719  0.00  0.00     0.002 A 
ATOM      4  C5  UNL d   1      -0.820   2.011   1.648  0.00  0.00    -0.080 A 
ATOM      5  C6  UNL d   1      -0.321   3.076   0.717  0.00  0.00     0.076 C 
ATOM      6  C7  UNL d   1       0.083   1.315   2.459  0.00  0.00     0.002 A 
ATOM      7  C8  UNL d   1      -0.365   0.302   3.309  0.00  0.00     0.006 A 
ENDROOT
BRANCH   1   8
ATOM      8  C1  UNL d   1      -2.195  -1.165   4.238  0.00  0.00     0.054 C 
ATOM      9  C   UNL d   1      -1.366  -2.420   4.006  0.00  0.00     0.018 C 
ENDBRANCH   1   8
TORSDOF 1
ENDMDL
