MODEL 1
REMARK minimizedAffinity 9.1814394
REMARK minimizedRMSD -1
REMARK  1 active torsions:
REMARK  status: ('A' for Active; 'I' for Inactive)
REMARK    1  A    between atoms: C1_2  and  C2_3 
ROOT
ATOM      1  C2  UNL d   1      -1.111   2.802  -1.833  0.00  0.00    -0.081 A 
ATOM      2  C3  UNL d   1      -1.221   1.929  -0.743  0.00  0.00     0.006 A 
ATOM      3  C4  UNL d   1      -0.490   2.161   0.425  0.00  0.00     0.002 A 
ATOM      4  C5  UNL d   1       0.354   3.271   0.526  0.00  0.00    -0.080 A 
ATOM      5  C6  UNL d   1       1.121   3.548   1.785  0.00  0.00     0.076 C 
ATOM      6  C7  UNL d   1       0.477   4.133  -0.569  0.00  0.00     0.002 A 
ATOM      7  C8  UNL d   1      -0.252   3.902  -1.738  0.00  0.00     0.006 A 
ENDROOT
BRANCH   1   8
ATOM      8  C1  UNL d   1      -1.947   2.591  -3.070  0.00  0.00     0.054 C 
ATOM      9  C   UNL d   1      -3.022   1.539  -2.839  0.00  0.00     0.018 C 
ENDBRANCH   1   8
TORSDOF 1
ENDMDL
