MODEL 1
REMARK minimizedAffinity 7.72680092
REMARK minimizedRMSD -1
REMARK  1 active torsions:
REMARK  status: ('A' for Active; 'I' for Inactive)
REMARK    1  A    between atoms: C1_2  and  C2_3 
ROOT
ATOM      1  C2  UNL d   1      -0.211   3.838   0.019  0.00  0.00    -0.081 A 
ATOM      2  C3  UNL d   1      -1.002   4.868   0.544  0.00  0.00     0.006 A 
ATOM      3  C4  UNL d   1      -1.885   5.572  -0.277  0.00  0.00     0.002 A 
ATOM      4  C5  UNL d   1      -1.999   5.254  -1.635  0.00  0.00    -0.080 A 
ATOM      5  C6  UNL d   1      -2.966   5.982  -2.521  0.00  0.00     0.076 C 
ATOM      6  C7  UNL d   1      -1.197   4.237  -2.164  0.00  0.00     0.002 A 
ATOM      7  C8  UNL d   1      -0.313   3.533  -1.343  0.00  0.00     0.006 A 
ENDROOT
BRANCH   1   8
ATOM      8  C1  UNL d   1       0.695   3.034   0.915  0.00  0.00     0.054 C 
ATOM      9  C   UNL d   1      -0.081   1.963   1.668  0.00  0.00     0.018 C 
ENDBRANCH   1   8
TORSDOF 1
ENDMDL
