MODEL 1
REMARK minimizedAffinity 11.2261534
REMARK minimizedRMSD -1
REMARK  1 active torsions:
REMARK  status: ('A' for Active; 'I' for Inactive)
REMARK    1  A    between atoms: C1_2  and  C2_3 
ROOT
ATOM      1  C2  UNL d   1      -0.028   4.010  -0.331  0.00  0.00    -0.081 A 
ATOM      2  C3  UNL d   1      -1.024   3.108   0.063  0.00  0.00     0.006 A 
ATOM      3  C4  UNL d   1      -2.240   3.574   0.570  0.00  0.00     0.002 A 
ATOM      4  C5  UNL d   1      -2.483   4.947   0.684  0.00  0.00    -0.080 A 
ATOM      5  C6  UNL d   1      -3.795   5.460   1.199  0.00  0.00     0.076 C 
ATOM      6  C7  UNL d   1      -1.481   5.847   0.307  0.00  0.00     0.002 A 
ATOM      7  C8  UNL d   1      -0.265   5.383  -0.200  0.00  0.00     0.006 A 
ENDROOT
BRANCH   1   8
ATOM      8  C1  UNL d   1       1.259   3.513  -0.939  0.00  0.00     0.054 C 
ATOM      9  C   UNL d   1       1.604   4.280  -2.207  0.00  0.00     0.018 C 
ENDBRANCH   1   8
TORSDOF 1
ENDMDL
