MODEL 1
REMARK minimizedAffinity 2.71645594
REMARK minimizedRMSD -1
REMARK  1 active torsions:
REMARK  status: ('A' for Active; 'I' for Inactive)
REMARK    1  A    between atoms: C1_2  and  C2_3 
ROOT
ATOM      1  C2  UNL d   1      -1.099   2.293  -1.823  0.00  0.00    -0.081 A 
ATOM      2  C3  UNL d   1      -0.868   1.887  -0.503  0.00  0.00     0.006 A 
ATOM      3  C4  UNL d   1      -0.109   2.681   0.360  0.00  0.00     0.002 A 
ATOM      4  C5  UNL d   1       0.424   3.898  -0.079  0.00  0.00    -0.080 A 
ATOM      5  C6  UNL d   1       1.214   4.774   0.847  0.00  0.00     0.076 C 
ATOM      6  C7  UNL d   1       0.208   4.296  -1.402  0.00  0.00     0.002 A 
ATOM      7  C8  UNL d   1      -0.550   3.502  -2.266  0.00  0.00     0.006 A 
ENDROOT
BRANCH   1   8
ATOM      8  C1  UNL d   1      -1.970   1.471  -2.737  0.00  0.00     0.054 C 
ATOM      9  C   UNL d   1      -3.031   0.710  -1.954  0.00  0.00     0.018 C 
ENDBRANCH   1   8
TORSDOF 1
ENDMDL
