MODEL 1
REMARK minimizedAffinity 12.0648069
REMARK minimizedRMSD -1
REMARK  1 active torsions:
REMARK  status: ('A' for Active; 'I' for Inactive)
REMARK    1  A    between atoms: C1_2  and  C2_3 
ROOT
ATOM      1  C2  UNL d   1      -1.418   5.100   0.327  0.00  0.00    -0.081 A 
ATOM      2  C3  UNL d   1      -0.136   5.571   0.015  0.00  0.00     0.006 A 
ATOM      3  C4  UNL d   1       0.772   4.754  -0.664  0.00  0.00     0.002 A 
ATOM      4  C5  UNL d   1       0.412   3.458  -1.048  0.00  0.00    -0.080 A 
ATOM      5  C6  UNL d   1       1.368   2.582  -1.803  0.00  0.00     0.076 C 
ATOM      6  C7  UNL d   1      -0.862   2.982  -0.720  0.00  0.00     0.002 A 
ATOM      7  C8  UNL d   1      -1.770   3.797  -0.042  0.00  0.00     0.006 A 
ENDROOT
BRANCH   1   8
ATOM      8  C1  UNL d   1      -2.422   6.000   1.001  0.00  0.00     0.054 C 
ATOM      9  C   UNL d   1      -3.847   5.602   0.645  0.00  0.00     0.018 C 
ENDBRANCH   1   8
TORSDOF 1
ENDMDL
