MODEL 1
REMARK minimizedAffinity 8.93856907
REMARK minimizedRMSD -1
REMARK  1 active torsions:
REMARK  status: ('A' for Active; 'I' for Inactive)
REMARK    1  A    between atoms: C1_2  and  C2_3 
ROOT
ATOM      1  C2  UNL d   1      -0.035   3.916  -0.475  0.00  0.00    -0.081 A 
ATOM      2  C3  UNL d   1      -0.683   5.099  -0.100  0.00  0.00     0.006 A 
ATOM      3  C4  UNL d   1      -1.637   5.681  -0.938  0.00  0.00     0.002 A 
ATOM      4  C5  UNL d   1      -1.965   5.085  -2.161  0.00  0.00    -0.080 A 
ATOM      5  C6  UNL d   1      -3.010   5.683  -3.056  0.00  0.00     0.076 C 
ATOM      6  C7  UNL d   1      -1.306   3.912  -2.544  0.00  0.00     0.002 A 
ATOM      7  C8  UNL d   1      -0.351   3.331  -1.706  0.00  0.00     0.006 A 
ENDROOT
BRANCH   1   8
ATOM      8  C1  UNL d   1       0.947   3.251   0.455  0.00  0.00     0.054 C 
ATOM      9  C   UNL d   1       0.317   2.062   1.167  0.00  0.00     0.018 C 
ENDBRANCH   1   8
TORSDOF 1
ENDMDL
