MODEL 1
REMARK minimizedAffinity 13.0219355
REMARK minimizedRMSD -1
REMARK  1 active torsions:
REMARK  status: ('A' for Active; 'I' for Inactive)
REMARK    1  A    between atoms: C1_2  and  C2_3 
ROOT
ATOM      1  C2  UNL d   1      -4.816  -3.883   5.037  0.00  0.00    -0.081 A 
ATOM      2  C3  UNL d   1      -4.671  -2.877   6.000  0.00  0.00     0.006 A 
ATOM      3  C4  UNL d   1      -3.606  -1.976   5.928  0.00  0.00     0.002 A 
ATOM      4  C5  UNL d   1      -2.674  -2.060   4.888  0.00  0.00    -0.080 A 
ATOM      5  C6  UNL d   1      -1.543  -1.080   4.782  0.00  0.00     0.076 C 
ATOM      6  C7  UNL d   1      -2.809  -3.076   3.935  0.00  0.00     0.002 A 
ATOM      7  C8  UNL d   1      -3.873  -3.978   4.007  0.00  0.00     0.006 A 
ENDROOT
BRANCH   1   8
ATOM      8  C1  UNL d   1      -5.999  -4.816   5.075  0.00  0.00     0.054 C 
ATOM      9  C   UNL d   1      -5.741  -6.000   5.996  0.00  0.00     0.018 C 
ENDBRANCH   1   8
TORSDOF 1
ENDMDL
