MODEL 1
REMARK minimizedAffinity -0.553403795
REMARK minimizedRMSD -1
REMARK  1 active torsions:
REMARK  status: ('A' for Active; 'I' for Inactive)
REMARK    1  A    between atoms: C1_2  and  C2_3 
ROOT
ATOM      1  C2  UNL d   1      -2.040  -3.784   5.633  0.00  0.00    -0.081 A 
ATOM      2  C3  UNL d   1      -2.227  -2.458   5.222  0.00  0.00     0.006 A 
ATOM      3  C4  UNL d   1      -3.507  -1.901   5.190  0.00  0.00     0.002 A 
ATOM      4  C5  UNL d   1      -4.620  -2.656   5.575  0.00  0.00    -0.080 A 
ATOM      5  C6  UNL d   1      -5.997  -2.059   5.573  0.00  0.00     0.076 C 
ATOM      6  C7  UNL d   1      -4.436  -3.985   5.968  0.00  0.00     0.002 A 
ATOM      7  C8  UNL d   1      -3.156  -4.544   6.000  0.00  0.00     0.006 A 
ENDROOT
BRANCH   1   8
ATOM      8  C1  UNL d   1      -0.654  -4.368   5.731  0.00  0.00     0.054 C 
ATOM      9  C   UNL d   1      -0.702  -5.874   5.945  0.00  0.00     0.018 C 
ENDBRANCH   1   8
TORSDOF 1
ENDMDL
