MODEL 1
REMARK minimizedAffinity 0.823972464
REMARK minimizedRMSD -1
REMARK  1 active torsions:
REMARK  status: ('A' for Active; 'I' for Inactive)
REMARK    1  A    between atoms: C1_2  and  C2_3 
ROOT
ATOM      1  C2  UNL d   1      -0.948  -1.400   3.409  0.00  0.00    -0.081 A 
ATOM      2  C3  UNL d   1      -1.655  -0.204   3.577  0.00  0.00     0.006 A 
ATOM      3  C4  UNL d   1      -1.429   0.879   2.725  0.00  0.00     0.002 A 
ATOM      4  C5  UNL d   1      -0.498   0.781   1.685  0.00  0.00    -0.080 A 
ATOM      5  C6  UNL d   1      -0.268   1.926   0.744  0.00  0.00     0.076 C 
ATOM      6  C7  UNL d   1       0.222  -0.408   1.527  0.00  0.00     0.002 A 
ATOM      7  C8  UNL d   1      -0.004  -1.491   2.380  0.00  0.00     0.006 A 
ENDROOT
BRANCH   1   8
ATOM      8  C1  UNL d   1      -1.236  -2.592   4.286  0.00  0.00     0.054 C 
ATOM      9  C   UNL d   1      -1.278  -3.879   3.475  0.00  0.00     0.018 C 
ENDBRANCH   1   8
TORSDOF 1
ENDMDL
