MODEL 1
REMARK minimizedAffinity 8.62875366
REMARK minimizedRMSD -1
REMARK  1 active torsions:
REMARK  status: ('A' for Active; 'I' for Inactive)
REMARK    1  A    between atoms: C1_2  and  C2_3 
ROOT
ATOM      1  C2  UNL d   1       0.002   4.167   0.365  0.00  0.00    -0.081 A 
ATOM      2  C3  UNL d   1       1.043   4.587   1.203  0.00  0.00     0.006 A 
ATOM      3  C4  UNL d   1       1.346   3.876   2.366  0.00  0.00     0.002 A 
ATOM      4  C5  UNL d   1       0.620   2.730   2.707  0.00  0.00    -0.080 A 
ATOM      5  C6  UNL d   1       0.954   1.940   3.938  0.00  0.00     0.076 C 
ATOM      6  C7  UNL d   1      -0.431   2.321   1.880  0.00  0.00     0.002 A 
ATOM      7  C8  UNL d   1      -0.735   3.031   0.716  0.00  0.00     0.006 A 
ENDROOT
BRANCH   1   8
ATOM      8  C1  UNL d   1      -0.285   4.894  -0.924  0.00  0.00     0.054 C 
ATOM      9  C   UNL d   1       0.717   4.518  -2.006  0.00  0.00     0.018 C 
ENDBRANCH   1   8
TORSDOF 1
ENDMDL
