MODEL 1
REMARK minimizedAffinity -3.34311628
REMARK minimizedRMSD -1
REMARK  0 active torsions:
REMARK  status: ('A' for Active; 'I' for Inactive)
ROOT
ATOM      1  C1  DEN d   1       2.207   0.188  -0.573  0.00  0.00     0.130 A 
ATOM      2  C2  DEN d   1       2.630  -0.845  -1.515  0.00  0.00    -0.031 A 
ATOM      3  C3  DEN d   1       1.506  -1.785  -1.696  0.00  0.00     0.027 A 
ATOM      4  C4  DEN d   1      -0.838  -1.739  -0.620  0.00  0.00     0.027 A 
ATOM      5  C5  DEN d   1      -1.658  -1.061   0.254  0.00  0.00    -0.003 A 
ATOM      6  C6  DEN d   1      -1.240   0.052   0.935  0.00  0.00     0.001 A 
ATOM      7  C7  DEN d   1       0.019   0.547   0.717  0.00  0.00     0.017 A 
ATOM      8  C8  DEN d   1       0.854  -0.135  -0.158  0.00  0.00    -0.094 A 
ATOM      9  C9  DEN d   1       0.409  -1.251  -0.845  0.00  0.00    -0.072 A 
ENDROOT
TORSDOF 0
ENDMDL
