MODEL 1
REMARK minimizedAffinity -4.17820168
REMARK minimizedRMSD -1
REMARK  0 active torsions:
REMARK  status: ('A' for Active; 'I' for Inactive)
ROOT
ATOM      1  C1  DEN d   1      -1.009  -0.645   0.682  0.00  0.00     0.130 A 
ATOM      2  C2  DEN d   1      -2.184   0.220   0.627  0.00  0.00    -0.031 A 
ATOM      3  C3  DEN d   1      -1.816   1.443  -0.114  0.00  0.00     0.027 A 
ATOM      4  C4  DEN d   1       0.445   2.076  -1.182  0.00  0.00     0.027 A 
ATOM      5  C5  DEN d   1       1.744   1.665  -1.386  0.00  0.00    -0.003 A 
ATOM      6  C6  DEN d   1       2.222   0.481  -0.890  0.00  0.00     0.001 A 
ATOM      7  C7  DEN d   1       1.382  -0.355  -0.204  0.00  0.00     0.017 A 
ATOM      8  C8  DEN d   1       0.073   0.055   0.013  0.00  0.00    -0.094 A 
ATOM      9  C9  DEN d   1      -0.395   1.250  -0.507  0.00  0.00    -0.072 A 
ENDROOT
TORSDOF 0
ENDMDL
