MODEL 1
REMARK minimizedAffinity -4.19652319
REMARK minimizedRMSD -1
REMARK  0 active torsions:
REMARK  status: ('A' for Active; 'I' for Inactive)
ROOT
ATOM      1  C1  DEN d   1      -1.450   0.552  -0.389  0.00  0.00     0.130 A 
ATOM      2  C2  DEN d   1      -1.435  -0.712   0.343  0.00  0.00    -0.031 A 
ATOM      3  C3  DEN d   1      -0.026  -1.080   0.587  0.00  0.00     0.027 A 
ATOM      4  C4  DEN d   1       2.121   0.180  -0.087  0.00  0.00     0.027 A 
ATOM      5  C5  DEN d   1       2.614   1.293  -0.733  0.00  0.00    -0.003 A 
ATOM      6  C6  DEN d   1       1.795   2.211  -1.333  0.00  0.00     0.001 A 
ATOM      7  C7  DEN d   1       0.435   2.057  -1.261  0.00  0.00     0.017 A 
ATOM      8  C8  DEN d   1      -0.069   0.934  -0.619  0.00  0.00    -0.094 A 
ATOM      9  C9  DEN d   1       0.776   0.023  -0.008  0.00  0.00    -0.072 A 
ENDROOT
TORSDOF 0
ENDMDL
