MODEL 1
REMARK minimizedAffinity -5.45886946
REMARK minimizedRMSD -1
REMARK  0 active torsions:
REMARK  status: ('A' for Active; 'I' for Inactive)
ROOT
ATOM      1  C1  DEN d   1       0.348   1.834  -1.897  0.00  0.00     0.130 A 
ATOM      2  C2  DEN d   1       1.266   2.091  -3.003  0.00  0.00    -0.031 A 
ATOM      3  C3  DEN d   1       2.213   0.960  -3.083  0.00  0.00     0.027 A 
ATOM      4  C4  DEN d   1       2.342  -1.155  -1.613  0.00  0.00     0.027 A 
ATOM      5  C5  DEN d   1       1.781  -1.812  -0.540  0.00  0.00    -0.003 A 
ATOM      6  C6  DEN d   1       0.734  -1.289   0.171  0.00  0.00     0.001 A 
ATOM      7  C7  DEN d   1       0.185  -0.093  -0.210  0.00  0.00     0.017 A 
ATOM      8  C8  DEN d   1       0.750   0.579  -1.286  0.00  0.00    -0.094 A 
ATOM      9  C9  DEN d   1       1.800   0.027  -2.000  0.00  0.00    -0.072 A 
ENDROOT
TORSDOF 0
ENDMDL
