MODEL 1
REMARK minimizedAffinity -5.55122328
REMARK minimizedRMSD -1
REMARK  0 active torsions:
REMARK  status: ('A' for Active; 'I' for Inactive)
ROOT
ATOM      1  C1  DEN d   1       0.038  -0.604   0.198  0.00  0.00     0.130 A 
ATOM      2  C2  DEN d   1      -1.024   0.396   0.264  0.00  0.00    -0.031 A 
ATOM      3  C3  DEN d   1      -0.693   1.477  -0.686  0.00  0.00     0.027 A 
ATOM      4  C4  DEN d   1       1.348   1.696  -2.248  0.00  0.00     0.027 A 
ATOM      5  C5  DEN d   1       2.524   1.101  -2.649  0.00  0.00    -0.003 A 
ATOM      6  C6  DEN d   1       2.967  -0.077  -2.109  0.00  0.00     0.001 A 
ATOM      7  C7  DEN d   1       2.207  -0.721  -1.169  0.00  0.00     0.017 A 
ATOM      8  C8  DEN d   1       1.023  -0.124  -0.755  0.00  0.00    -0.094 A 
ATOM      9  C9  DEN d   1       0.586   1.061  -1.322  0.00  0.00    -0.072 A 
ENDROOT
TORSDOF 0
ENDMDL
