MODEL 1
REMARK minimizedAffinity -6.49555016
REMARK minimizedRMSD -1
REMARK  0 active torsions:
REMARK  status: ('A' for Active; 'I' for Inactive)
ROOT
ATOM      1  C1  DEN d   1      -0.213  -1.359  -0.593  0.00  0.00     0.130 A 
ATOM      2  C2  DEN d   1      -0.955  -0.204  -0.093  0.00  0.00    -0.031 A 
ATOM      3  C3  DEN d   1      -0.118   0.996  -0.289  0.00  0.00     0.027 A 
ATOM      4  C4  DEN d   1       2.241   1.180  -1.317  0.00  0.00     0.027 A 
ATOM      5  C5  DEN d   1       3.281   0.469  -1.873  0.00  0.00    -0.003 A 
ATOM      6  C6  DEN d   1       3.245  -0.893  -2.008  0.00  0.00     0.001 A 
ATOM      7  C7  DEN d   1       2.126  -1.584  -1.624  0.00  0.00     0.017 A 
ATOM      8  C8  DEN d   1       1.075  -0.875  -1.056  0.00  0.00    -0.094 A 
ATOM      9  C9  DEN d   1       1.126   0.504  -0.939  0.00  0.00    -0.072 A 
ENDROOT
TORSDOF 0
ENDMDL
