MODEL 1
REMARK minimizedAffinity -3.45579815
REMARK minimizedRMSD -1
REMARK  0 active torsions:
REMARK  status: ('A' for Active; 'I' for Inactive)
ROOT
ATOM      1  C1  DEN d   1      -1.089   1.231  -0.220  0.00  0.00     0.130 A 
ATOM      2  C2  DEN d   1      -0.370   2.319  -0.877  0.00  0.00    -0.031 A 
ATOM      3  C3  DEN d   1       0.885   1.770  -1.429  0.00  0.00     0.027 A 
ATOM      4  C4  DEN d   1       1.777  -0.649  -1.334  0.00  0.00     0.027 A 
ATOM      5  C5  DEN d   1       1.523  -1.922  -0.874  0.00  0.00    -0.003 A 
ATOM      6  C6  DEN d   1       0.407  -2.224  -0.140  0.00  0.00     0.001 A 
ATOM      7  C7  DEN d   1      -0.521  -1.249   0.117  0.00  0.00     0.017 A 
ATOM      8  C8  DEN d   1      -0.268   0.039  -0.338  0.00  0.00    -0.094 A 
ATOM      9  C9  DEN d   1       0.860   0.321  -1.089  0.00  0.00    -0.072 A 
ENDROOT
TORSDOF 0
ENDMDL
