MODEL 1
REMARK minimizedAffinity -2.44742537
REMARK minimizedRMSD -1
REMARK  0 active torsions:
REMARK  status: ('A' for Active; 'I' for Inactive)
ROOT
ATOM      1  C1  DEN d   1       0.702  -2.418  -0.854  0.00  0.00     0.130 A 
ATOM      2  C2  DEN d   1       1.670  -2.505  -1.944  0.00  0.00    -0.031 A 
ATOM      3  C3  DEN d   1       2.199  -1.149  -2.194  0.00  0.00     0.027 A 
ATOM      4  C4  DEN d   1       1.621   1.063  -1.001  0.00  0.00     0.027 A 
ATOM      5  C5  DEN d   1       0.846   1.640  -0.020  0.00  0.00    -0.003 A 
ATOM      6  C6  DEN d   1      -0.049   0.917   0.724  0.00  0.00     0.001 A 
ATOM      7  C7  DEN d   1      -0.159  -0.434   0.527  0.00  0.00     0.017 A 
ATOM      8  C8  DEN d   1       0.614  -1.022  -0.465  0.00  0.00    -0.094 A 
ATOM      9  C9  DEN d   1       1.522  -0.276  -1.198  0.00  0.00    -0.072 A 
ENDROOT
TORSDOF 0
ENDMDL
