MODEL 1
REMARK minimizedAffinity -4.57750368
REMARK minimizedRMSD -1
REMARK  0 active torsions:
REMARK  status: ('A' for Active; 'I' for Inactive)
ROOT
ATOM      1  C1  DEN d   1      -1.385   1.426   0.517  0.00  0.00     0.130 A 
ATOM      2  C2  DEN d   1      -2.194   0.476   1.276  0.00  0.00    -0.031 A 
ATOM      3  C3  DEN d   1      -1.588  -0.862   1.125  0.00  0.00     0.027 A 
ATOM      4  C4  DEN d   1       0.515  -1.551  -0.200  0.00  0.00     0.027 A 
ATOM      5  C5  DEN d   1       1.528  -1.095  -1.014  0.00  0.00    -0.003 A 
ATOM      6  C6  DEN d   1       1.621   0.216  -1.400  0.00  0.00     0.001 A 
ATOM      7  C7  DEN d   1       0.709   1.127  -0.934  0.00  0.00     0.017 A 
ATOM      8  C8  DEN d   1      -0.319   0.673  -0.118  0.00  0.00    -0.094 A 
ATOM      9  C9  DEN d   1      -0.388  -0.654   0.270  0.00  0.00    -0.072 A 
ENDROOT
TORSDOF 0
ENDMDL
