MODEL 1
REMARK minimizedAffinity -7.03220034
REMARK minimizedRMSD -1
REMARK  0 active torsions:
REMARK  status: ('A' for Active; 'I' for Inactive)
ROOT
ATOM      1  C1  DEN d   1      -0.709   0.859   0.150  0.00  0.00     0.130 A 
ATOM      2  C2  DEN d   1      -0.638  -0.432   0.829  0.00  0.00    -0.031 A 
ATOM      3  C3  DEN d   1       0.504  -1.180   0.266  0.00  0.00     0.027 A 
ATOM      4  C4  DEN d   1       2.162  -0.467  -1.577  0.00  0.00     0.027 A 
ATOM      5  C5  DEN d   1       2.497   0.537  -2.458  0.00  0.00    -0.003 A 
ATOM      6  C6  DEN d   1       1.772   1.695  -2.556  0.00  0.00     0.001 A 
ATOM      7  C7  DEN d   1       0.701   1.897  -1.725  0.00  0.00     0.017 A 
ATOM      8  C8  DEN d   1       0.353   0.886  -0.839  0.00  0.00    -0.094 A 
ATOM      9  C9  DEN d   1       1.106  -0.272  -0.747  0.00  0.00    -0.072 A 
ENDROOT
TORSDOF 0
ENDMDL
