MODEL 1
REMARK minimizedAffinity -2.34450817
REMARK minimizedRMSD -1
REMARK  0 active torsions:
REMARK  status: ('A' for Active; 'I' for Inactive)
ROOT
ATOM      1  C1  DEN d   1       0.426   1.090   0.548  0.00  0.00     0.130 A 
ATOM      2  C2  DEN d   1       0.317  -0.122  -0.260  0.00  0.00    -0.031 A 
ATOM      3  C3  DEN d   1      -0.860  -0.879   0.210  0.00  0.00     0.027 A 
ATOM      4  C4  DEN d   1      -2.518  -0.295   2.098  0.00  0.00     0.027 A 
ATOM      5  C5  DEN d   1      -2.827   0.625   3.075  0.00  0.00    -0.003 A 
ATOM      6  C6  DEN d   1      -2.062   1.739   3.298  0.00  0.00     0.001 A 
ATOM      7  C7  DEN d   1      -0.972   1.983   2.505  0.00  0.00     0.017 A 
ATOM      8  C8  DEN d   1      -0.649   1.056   1.523  0.00  0.00    -0.094 A 
ATOM      9  C9  DEN d   1      -1.443  -0.057   1.304  0.00  0.00    -0.072 A 
ENDROOT
TORSDOF 0
ENDMDL
