MODEL 1
REMARK minimizedAffinity -3.3274951
REMARK minimizedRMSD -1
REMARK  0 active torsions:
REMARK  status: ('A' for Active; 'I' for Inactive)
ROOT
ATOM      1  C1  DEN d   1       1.133   1.456  -1.441  0.00  0.00     0.130 A 
ATOM      2  C2  DEN d   1      -0.076   2.263  -1.297  0.00  0.00    -0.031 A 
ATOM      3  C3  DEN d   1      -1.158   1.381  -0.814  0.00  0.00     0.027 A 
ATOM      4  C4  DEN d   1      -1.077  -1.139  -0.272  0.00  0.00     0.027 A 
ATOM      5  C5  DEN d   1      -0.273  -2.257  -0.250  0.00  0.00    -0.003 A 
ATOM      6  C6  DEN d   1       1.036  -2.224  -0.652  0.00  0.00     0.001 A 
ATOM      7  C7  DEN d   1       1.593  -1.038  -1.052  0.00  0.00     0.017 A 
ATOM      8  C8  DEN d   1       0.787   0.092  -1.084  0.00  0.00    -0.094 A 
ATOM      9  C9  DEN d   1      -0.531   0.041  -0.661  0.00  0.00    -0.072 A 
ENDROOT
TORSDOF 0
ENDMDL
