MODEL 1
REMARK minimizedAffinity -4.34079504
REMARK minimizedRMSD -1
REMARK  0 active torsions:
REMARK  status: ('A' for Active; 'I' for Inactive)
ROOT
ATOM      1  C1  DEN d   1       0.911  -2.600  -0.885  0.00  0.00     0.130 A 
ATOM      2  C2  DEN d   1      -0.504  -2.654  -0.527  0.00  0.00    -0.031 A 
ATOM      3  C3  DEN d   1      -0.978  -1.269  -0.334  0.00  0.00     0.027 A 
ATOM      4  C4  DEN d   1       0.333   0.941  -0.556  0.00  0.00     0.027 A 
ATOM      5  C5  DEN d   1       1.565   1.493  -0.829  0.00  0.00    -0.003 A 
ATOM      6  C6  DEN d   1       2.664   0.724  -1.104  0.00  0.00     0.001 A 
ATOM      7  C7  DEN d   1       2.543  -0.639  -1.157  0.00  0.00     0.017 A 
ATOM      8  C8  DEN d   1       1.306  -1.203  -0.875  0.00  0.00    -0.094 A 
ATOM      9  C9  DEN d   1       0.203  -0.408  -0.611  0.00  0.00    -0.072 A 
ENDROOT
TORSDOF 0
ENDMDL
