MODEL 1
REMARK minimizedAffinity -2.53164816
REMARK minimizedRMSD -1
REMARK  0 active torsions:
REMARK  status: ('A' for Active; 'I' for Inactive)
ROOT
ATOM      1  C1  DEN d   1       2.305   0.242  -1.018  0.00  0.00     0.130 A 
ATOM      2  C2  DEN d   1       2.718  -1.061  -1.532  0.00  0.00    -0.031 A 
ATOM      3  C3  DEN d   1       1.630  -2.023  -1.265  0.00  0.00     0.027 A 
ATOM      4  C4  DEN d   1      -0.644  -1.623  -0.116  0.00  0.00     0.027 A 
ATOM      5  C5  DEN d   1      -1.441  -0.683   0.499  0.00  0.00    -0.003 A 
ATOM      6  C6  DEN d   1      -1.035   0.613   0.680  0.00  0.00     0.001 A 
ATOM      7  C7  DEN d   1       0.184   1.016   0.201  0.00  0.00     0.017 A 
ATOM      8  C8  DEN d   1       0.996   0.071  -0.413  0.00  0.00    -0.094 A 
ATOM      9  C9  DEN d   1       0.562  -1.230  -0.598  0.00  0.00    -0.072 A 
ENDROOT
TORSDOF 0
ENDMDL
