MODEL 1
REMARK minimizedAffinity 12.7464199
REMARK minimizedRMSD -1
REMARK  0 active torsions:
REMARK  status: ('A' for Active; 'I' for Inactive)
ROOT
ATOM      1  C   UNL d   1       0.403  -1.965  -0.749  0.00  0.00    -0.002 A 
ATOM      2  C1  UNL d   1       1.787  -1.965  -0.845  0.00  0.00     0.010 A 
ATOM      3  C2  UNL d   1       2.517  -0.803  -0.583  0.00  0.00     0.041 A 
ATOM      4  C3  UNL d   1       1.825   0.368  -0.219  0.00  0.00    -0.075 A 
ATOM      5  S   UNL d   1       2.509   1.908   0.149  0.00  0.00     0.015 SA
ATOM      6  C4  UNL d   1       0.980   2.601   0.442  0.00  0.00     0.022 A 
ATOM      7  C5  UNL d   1      -0.039   1.694   0.268  0.00  0.00     0.026 A 
ATOM      8  C6  UNL d   1       0.431   0.393  -0.115  0.00  0.00    -0.082 A 
ATOM      9  C7  UNL d   1      -0.280  -0.801  -0.388  0.00  0.00     0.045 A 
ENDROOT
TORSDOF 0
ENDMDL
