MODEL 1
REMARK minimizedAffinity 3.35316634
REMARK minimizedRMSD -1
REMARK  0 active torsions:
REMARK  status: ('A' for Active; 'I' for Inactive)
ROOT
ATOM      1  C   UNL d   1       1.100  -2.330  -0.438  0.00  0.00    -0.002 A 
ATOM      2  C1  UNL d   1       0.534  -1.093  -0.162  0.00  0.00     0.010 A 
ATOM      3  C2  UNL d   1       1.317   0.062  -0.159  0.00  0.00     0.041 A 
ATOM      4  C3  UNL d   1       2.693  -0.046  -0.443  0.00  0.00    -0.075 A 
ATOM      5  S   UNL d   1       3.847   1.233  -0.497  0.00  0.00     0.015 SA
ATOM      6  C4  UNL d   1       5.119   0.169  -0.889  0.00  0.00     0.022 A 
ATOM      7  C5  UNL d   1       4.692  -1.135  -0.981  0.00  0.00     0.026 A 
ATOM      8  C6  UNL d   1       3.286  -1.280  -0.726  0.00  0.00    -0.082 A 
ATOM      9  C7  UNL d   1       2.465  -2.433  -0.720  0.00  0.00     0.045 A 
ENDROOT
TORSDOF 0
ENDMDL
