MODEL 1
REMARK minimizedAffinity -3.20047998
REMARK minimizedRMSD -1
REMARK  0 active torsions:
REMARK  status: ('A' for Active; 'I' for Inactive)
ROOT
ATOM      1  C   UNL d   1       2.297  -2.254  -0.120  0.00  0.00    -0.002 A 
ATOM      2  C1  UNL d   1       1.158  -2.771  -0.719  0.00  0.00     0.010 A 
ATOM      3  C2  UNL d   1       0.029  -1.971  -0.909  0.00  0.00     0.041 A 
ATOM      4  C3  UNL d   1       0.066  -0.629  -0.484  0.00  0.00    -0.075 A 
ATOM      5  S   UNL d   1      -1.196   0.538  -0.613  0.00  0.00     0.015 SA
ATOM      6  C4  UNL d   1      -0.253   1.751   0.123  0.00  0.00     0.022 A 
ATOM      7  C5  UNL d   1       0.998   1.294   0.466  0.00  0.00     0.026 A 
ATOM      8  C6  UNL d   1       1.202  -0.085   0.122  0.00  0.00    -0.082 A 
ATOM      9  C7  UNL d   1       2.330  -0.922   0.301  0.00  0.00     0.045 A 
ENDROOT
TORSDOF 0
ENDMDL
