MODEL 1
REMARK minimizedAffinity 4.58802843
REMARK minimizedRMSD -1
REMARK  0 active torsions:
REMARK  status: ('A' for Active; 'I' for Inactive)
ROOT
ATOM      1  C   UNL d   1      -1.206  -0.381  -0.800  0.00  0.00    -0.002 A 
ATOM      2  C1  UNL d   1      -0.707   0.840  -0.367  0.00  0.00     0.010 A 
ATOM      3  C2  UNL d   1       0.653   0.994  -0.092  0.00  0.00     0.041 A 
ATOM      4  C3  UNL d   1       1.513  -0.109  -0.264  0.00  0.00    -0.075 A 
ATOM      5  S   UNL d   1       3.214  -0.153   0.009  0.00  0.00     0.015 SA
ATOM      6  C4  UNL d   1       3.320  -1.793  -0.444  0.00  0.00     0.022 A 
ATOM      7  C5  UNL d   1       2.096  -2.310  -0.798  0.00  0.00     0.026 A 
ATOM      8  C6  UNL d   1       1.034  -1.347  -0.701  0.00  0.00    -0.082 A 
ATOM      9  C7  UNL d   1      -0.350  -1.472  -0.970  0.00  0.00     0.045 A 
ENDROOT
TORSDOF 0
ENDMDL
