MODEL 1
REMARK minimizedAffinity 11.7314892
REMARK minimizedRMSD -1
REMARK  0 active torsions:
REMARK  status: ('A' for Active; 'I' for Inactive)
ROOT
ATOM      1  C   UNL d   1       4.175  -2.677  -2.825  0.00  0.00    -0.002 A 
ATOM      2  C1  UNL d   1       4.379  -1.380  -2.375  0.00  0.00     0.010 A 
ATOM      3  C2  UNL d   1       3.436  -0.755  -1.557  0.00  0.00     0.041 A 
ATOM      4  C3  UNL d   1       2.273  -1.463  -1.194  0.00  0.00    -0.075 A 
ATOM      5  S   UNL d   1       0.981  -0.900  -0.201  0.00  0.00     0.015 SA
ATOM      6  C4  UNL d   1       0.128  -2.368  -0.350  0.00  0.00     0.022 A 
ATOM      7  C5  UNL d   1       0.798  -3.276  -1.135  0.00  0.00     0.026 A 
ATOM      8  C6  UNL d   1       2.045  -2.770  -1.634  0.00  0.00    -0.082 A 
ATOM      9  C7  UNL d   1       3.021  -3.376  -2.462  0.00  0.00     0.045 A 
ENDROOT
TORSDOF 0
ENDMDL
