MODEL 1
REMARK minimizedAffinity 7.74599171
REMARK minimizedRMSD -1
REMARK  0 active torsions:
REMARK  status: ('A' for Active; 'I' for Inactive)
ROOT
ATOM      1  C   UNL d   1       4.395  -1.522  -2.318  0.00  0.00    -0.002 A 
ATOM      2  C1  UNL d   1       4.443  -0.221  -1.838  0.00  0.00     0.010 A 
ATOM      3  C2  UNL d   1       3.373   0.309  -1.115  0.00  0.00     0.041 A 
ATOM      4  C3  UNL d   1       2.243  -0.498  -0.878  0.00  0.00    -0.075 A 
ATOM      5  S   UNL d   1       0.815  -0.061  -0.017  0.00  0.00     0.015 SA
ATOM      6  C4  UNL d   1       0.108  -1.592  -0.265  0.00  0.00     0.022 A 
ATOM      7  C5  UNL d   1       0.927  -2.428  -0.985  0.00  0.00     0.026 A 
ATOM      8  C6  UNL d   1       2.172  -1.812  -1.350  0.00  0.00    -0.082 A 
ATOM      9  C7  UNL d   1       3.272  -2.321  -2.081  0.00  0.00     0.045 A 
ENDROOT
TORSDOF 0
ENDMDL
