MODEL 1
REMARK minimizedAffinity 6.7986927
REMARK minimizedRMSD -1
REMARK  0 active torsions:
REMARK  status: ('A' for Active; 'I' for Inactive)
ROOT
ATOM      1  C   UNL d   1       0.520  -1.444  -0.029  0.00  0.00    -0.002 A 
ATOM      2  C1  UNL d   1       1.434  -2.405  -0.437  0.00  0.00     0.010 A 
ATOM      3  C2  UNL d   1       2.771  -2.066  -0.657  0.00  0.00     0.041 A 
ATOM      4  C3  UNL d   1       3.178  -0.732  -0.455  0.00  0.00    -0.075 A 
ATOM      5  S   UNL d   1       4.763  -0.087  -0.662  0.00  0.00     0.015 SA
ATOM      6  C4  UNL d   1       4.264   1.480  -0.212  0.00  0.00     0.022 A 
ATOM      7  C5  UNL d   1       2.924   1.527   0.092  0.00  0.00     0.026 A 
ATOM      8  C6  UNL d   1       2.276   0.253  -0.043  0.00  0.00    -0.082 A 
ATOM      9  C7  UNL d   1       0.927  -0.122   0.170  0.00  0.00     0.045 A 
ENDROOT
TORSDOF 0
ENDMDL
