MODEL 1
REMARK minimizedAffinity 1.18104875
REMARK minimizedRMSD -1
REMARK  0 active torsions:
REMARK  status: ('A' for Active; 'I' for Inactive)
ROOT
ATOM      1  C   UNL d   1       0.172  -2.194  -0.691  0.00  0.00    -0.002 A 
ATOM      2  C1  UNL d   1       1.492  -2.212  -0.264  0.00  0.00     0.010 A 
ATOM      3  C2  UNL d   1       2.134  -1.029   0.109  0.00  0.00     0.041 A 
ATOM      4  C3  UNL d   1       1.419   0.183   0.047  0.00  0.00    -0.075 A 
ATOM      5  S   UNL d   1       1.999   1.754   0.455  0.00  0.00     0.015 SA
ATOM      6  C4  UNL d   1       0.508   2.486   0.073  0.00  0.00     0.022 A 
ATOM      7  C5  UNL d   1      -0.421   1.569  -0.358  0.00  0.00     0.026 A 
ATOM      8  C6  UNL d   1       0.088   0.226  -0.379  0.00  0.00    -0.082 A 
ATOM      9  C7  UNL d   1      -0.534  -0.989  -0.752  0.00  0.00     0.045 A 
ENDROOT
TORSDOF 0
ENDMDL
