MODEL 1
REMARK minimizedAffinity 18.258976
REMARK minimizedRMSD -1
REMARK  0 active torsions:
REMARK  status: ('A' for Active; 'I' for Inactive)
ROOT
ATOM      1  C   UNL d   1       2.153  -1.735   0.338  0.00  0.00    -0.002 A 
ATOM      2  C1  UNL d   1       2.143  -1.828   1.723  0.00  0.00     0.010 A 
ATOM      3  C2  UNL d   1       1.603  -0.801   2.500  0.00  0.00     0.041 A 
ATOM      4  C3  UNL d   1       1.066   0.331   1.855  0.00  0.00    -0.075 A 
ATOM      5  S   UNL d   1       0.351   1.710   2.602  0.00  0.00     0.015 SA
ATOM      6  C4  UNL d   1       0.042   2.455   1.100  0.00  0.00     0.022 A 
ATOM      7  C5  UNL d   1       0.467   1.684   0.045  0.00  0.00     0.026 A 
ATOM      8  C6  UNL d   1       1.064   0.447   0.462  0.00  0.00    -0.082 A 
ATOM      9  C7  UNL d   1       1.620  -0.611  -0.297  0.00  0.00     0.045 A 
ENDROOT
TORSDOF 0
ENDMDL
