MODEL 1
REMARK minimizedAffinity -4.87080097
REMARK minimizedRMSD -1
REMARK  3 active torsions:
REMARK  status: ('A' for Active; 'I' for Inactive)
REMARK    1  A    between atoms: C3'_2  and  C2'_3 
REMARK    2  A    between atoms: C2'_3  and  C1'_4 
REMARK    3  A    between atoms: C1'_4  and  C1_5 
ROOT
ATOM      1  C1  N4B d   1       0.605   0.079  -0.087  0.00  0.00    -0.075 A 
ATOM      2  C2  N4B d   1       0.242   1.392  -0.460  0.00  0.00     0.002 A 
ATOM      3  C3  N4B d   1      -0.002   2.337   0.505  0.00  0.00     0.002 A 
ATOM      4  C4  N4B d   1       0.091   1.990   1.845  0.00  0.00    -0.004 A 
ATOM      5  C5  N4B d   1       0.467   0.727   2.197  0.00  0.00     0.002 A 
ATOM      6  C6  N4B d   1       0.720  -0.232   1.237  0.00  0.00     0.002 A 
ENDROOT
BRANCH   1   7
ATOM      7  C1' N4B d   1       0.799  -1.011  -1.104  0.00  0.00     0.057 C 
BRANCH   7   8
ATOM      8  C2' N4B d   1       0.101  -2.279  -0.619  0.00  0.00     0.009 C 
BRANCH   8   9
ATOM      9  C3' N4B d   1       0.198  -3.405  -1.635  0.00  0.00     0.004 C 
ATOM     10  C4' N4B d   1      -1.090  -3.638  -2.367  0.00  0.00     0.003 C 
ENDBRANCH   8   9
ENDBRANCH   7   8
ENDBRANCH   1   7
TORSDOF 3
ENDMDL
