MODEL 1
REMARK minimizedAffinity -5.33866453
REMARK minimizedRMSD -1
REMARK  3 active torsions:
REMARK  status: ('A' for Active; 'I' for Inactive)
REMARK    1  A    between atoms: C3'_2  and  C2'_3 
REMARK    2  A    between atoms: C2'_3  and  C1'_4 
REMARK    3  A    between atoms: C1'_4  and  C1_5 
ROOT
ATOM      1  C1  N4B d   1      -0.421   0.081   0.200  0.00  0.00    -0.075 A 
ATOM      2  C2  N4B d   1      -0.220   1.479   0.216  0.00  0.00     0.002 A 
ATOM      3  C3  N4B d   1      -0.614   2.217   1.305  0.00  0.00     0.002 A 
ATOM      4  C4  N4B d   1      -1.226   1.584   2.376  0.00  0.00    -0.004 A 
ATOM      5  C5  N4B d   1      -1.394   0.231   2.364  0.00  0.00     0.002 A 
ATOM      6  C6  N4B d   1      -0.999  -0.524   1.278  0.00  0.00     0.002 A 
ENDROOT
BRANCH   1   7
ATOM      7  C1' N4B d   1      -0.084  -0.756  -1.004  0.00  0.00     0.057 C 
BRANCH   7   8
ATOM      8  C2' N4B d   1      -1.342  -1.475  -1.482  0.00  0.00     0.009 C 
BRANCH   8   9
ATOM      9  C3' N4B d   1      -1.033  -2.860  -2.023  0.00  0.00     0.004 C 
ATOM     10  C4' N4B d   1       0.066  -3.547  -1.269  0.00  0.00     0.003 C 
ENDBRANCH   8   9
ENDBRANCH   7   8
ENDBRANCH   1   7
TORSDOF 3
ENDMDL
