MODEL 1
REMARK minimizedAffinity -4.18081808
REMARK minimizedRMSD -1
REMARK  3 active torsions:
REMARK  status: ('A' for Active; 'I' for Inactive)
REMARK    1  A    between atoms: C3'_2  and  C2'_3 
REMARK    2  A    between atoms: C2'_3  and  C1'_4 
REMARK    3  A    between atoms: C1'_4  and  C1_5 
ROOT
ATOM      1  C1  N4B d   1       0.606  -0.025  -0.421  0.00  0.00    -0.075 A 
ATOM      2  C2  N4B d   1       0.243   1.107  -1.182  0.00  0.00     0.002 A 
ATOM      3  C3  N4B d   1      -0.039   2.295  -0.555  0.00  0.00     0.002 A 
ATOM      4  C4  N4B d   1       0.017   2.370   0.829  0.00  0.00    -0.004 A 
ATOM      5  C5  N4B d   1       0.393   1.279   1.556  0.00  0.00     0.002 A 
ATOM      6  C6  N4B d   1       0.683   0.079   0.938  0.00  0.00     0.002 A 
ENDROOT
BRANCH   1   7
ATOM      7  C1' N4B d   1       0.840  -1.368  -1.056  0.00  0.00     0.057 C 
BRANCH   7   8
ATOM      8  C2' N4B d   1      -0.457  -2.171  -1.023  0.00  0.00     0.009 C 
BRANCH   8   9
ATOM      9  C3' N4B d   1      -0.377  -3.416  -1.889  0.00  0.00     0.004 C 
ATOM     10  C4' N4B d   1      -1.374  -4.464  -1.494  0.00  0.00     0.003 C 
ENDBRANCH   8   9
ENDBRANCH   7   8
ENDBRANCH   1   7
TORSDOF 3
ENDMDL
