MODEL 1
REMARK minimizedAffinity -3.37683916
REMARK minimizedRMSD -1
REMARK  3 active torsions:
REMARK  status: ('A' for Active; 'I' for Inactive)
REMARK    1  A    between atoms: C3'_2  and  C2'_3 
REMARK    2  A    between atoms: C2'_3  and  C1'_4 
REMARK    3  A    between atoms: C1'_4  and  C1_5 
ROOT
ATOM      1  C1  N4B d   1       0.414  -0.830  -0.239  0.00  0.00    -0.075 A 
ATOM      2  C2  N4B d   1      -0.843  -1.176   0.304  0.00  0.00     0.002 A 
ATOM      3  C3  N4B d   1      -1.221  -0.683   1.529  0.00  0.00     0.002 A 
ATOM      4  C4  N4B d   1      -0.355   0.139   2.234  0.00  0.00    -0.004 A 
ATOM      5  C5  N4B d   1       0.847   0.489   1.691  0.00  0.00     0.002 A 
ATOM      6  C6  N4B d   1       1.238   0.004   0.459  0.00  0.00     0.002 A 
ENDROOT
BRANCH   1   7
ATOM      7  C1' N4B d   1       0.906  -1.413  -1.536  0.00  0.00     0.057 C 
BRANCH   7   8
ATOM      8  C2' N4B d   1       1.154  -2.907  -1.350  0.00  0.00     0.009 C 
BRANCH   8   9
ATOM      9  C3' N4B d   1       0.050  -3.748  -1.968  0.00  0.00     0.004 C 
ATOM     10  C4' N4B d   1      -0.761  -4.484  -0.944  0.00  0.00     0.003 C 
ENDBRANCH   8   9
ENDBRANCH   7   8
ENDBRANCH   1   7
TORSDOF 3
ENDMDL
