MODEL 1
REMARK minimizedAffinity -3.79402995
REMARK minimizedRMSD -1
REMARK  1 active torsions:
REMARK  status: ('A' for Active; 'I' for Inactive)
REMARK    1  A    between atoms: C1_2  and  C2_3 
ROOT
ATOM      1  C2  UNL d   1      -1.051  -1.569  -1.375  0.00  0.00    -0.081 A 
ATOM      2  C3  UNL d   1      -2.330  -1.654  -0.811  0.00  0.00     0.006 A 
ATOM      3  C4  UNL d   1      -2.659  -0.900   0.318  0.00  0.00     0.002 A 
ATOM      4  C5  UNL d   1      -1.718  -0.042   0.897  0.00  0.00    -0.080 A 
ATOM      5  C6  UNL d   1      -2.067   0.795   2.091  0.00  0.00     0.076 C 
ATOM      6  C7  UNL d   1      -0.434   0.030   0.345  0.00  0.00     0.002 A 
ATOM      7  C8  UNL d   1      -0.105  -0.724  -0.784  0.00  0.00     0.006 A 
ENDROOT
BRANCH   1   8
ATOM      8  C1  UNL d   1      -0.714  -2.332  -2.630  0.00  0.00     0.054 C 
ATOM      9  C   UNL d   1      -0.984  -1.497  -3.874  0.00  0.00     0.018 C 
ENDBRANCH   1   8
TORSDOF 1
ENDMDL
