MODEL 1
REMARK minimizedAffinity -2.56152129
REMARK minimizedRMSD -1
REMARK  1 active torsions:
REMARK  status: ('A' for Active; 'I' for Inactive)
REMARK    1  A    between atoms: C1_2  and  C2_3 
ROOT
ATOM      1  C2  UNL d   1       0.981  -1.481   3.671  0.00  0.00    -0.081 A 
ATOM      2  C3  UNL d   1       1.075  -0.173   3.180  0.00  0.00     0.006 A 
ATOM      3  C4  UNL d   1       0.013   0.397   2.474  0.00  0.00     0.002 A 
ATOM      4  C5  UNL d   1      -1.164  -0.328   2.255  0.00  0.00    -0.080 A 
ATOM      5  C6  UNL d   1      -2.323   0.282   1.526  0.00  0.00     0.076 C 
ATOM      6  C7  UNL d   1      -1.252  -1.641   2.731  0.00  0.00     0.002 A 
ATOM      7  C8  UNL d   1      -0.189  -2.211   3.436  0.00  0.00     0.006 A 
ENDROOT
BRANCH   1   8
ATOM      8  C1  UNL d   1       2.100  -2.075   4.488  0.00  0.00     0.054 C 
ATOM      9  C   UNL d   1       2.726  -1.036   5.407  0.00  0.00     0.018 C 
ENDBRANCH   1   8
TORSDOF 1
ENDMDL
