MODEL 1
REMARK minimizedAffinity 1.84851015
REMARK minimizedRMSD -1
REMARK  1 active torsions:
REMARK  status: ('A' for Active; 'I' for Inactive)
REMARK    1  A    between atoms: C1_2  and  C2_3 
ROOT
ATOM      1  C2  UNL d   1      -1.398  -0.811   2.054  0.00  0.00    -0.081 A 
ATOM      2  C3  UNL d   1      -2.011   0.302   2.643  0.00  0.00     0.006 A 
ATOM      3  C4  UNL d   1      -3.032   0.983   1.976  0.00  0.00     0.002 A 
ATOM      4  C5  UNL d   1      -3.463   0.558   0.715  0.00  0.00    -0.080 A 
ATOM      5  C6  UNL d   1      -4.579   1.262   0.002  0.00  0.00     0.076 C 
ATOM      6  C7  UNL d   1      -2.839  -0.543   0.119  0.00  0.00     0.002 A 
ATOM      7  C8  UNL d   1      -1.817  -1.224   0.784  0.00  0.00     0.006 A 
ENDROOT
BRANCH   1   8
ATOM      8  C1  UNL d   1      -0.341  -1.587   2.798  0.00  0.00     0.054 C 
ATOM      9  C   UNL d   1       0.417  -0.696   3.771  0.00  0.00     0.018 C 
ENDBRANCH   1   8
TORSDOF 1
ENDMDL
