MODEL 1
REMARK minimizedAffinity 7.21392155
REMARK minimizedRMSD -1
REMARK  1 active torsions:
REMARK  status: ('A' for Active; 'I' for Inactive)
REMARK    1  A    between atoms: C1_2  and  C2_3 
ROOT
ATOM      1  C2  UNL d   1       1.305  -1.415   2.803  0.00  0.00    -0.081 A 
ATOM      2  C3  UNL d   1       1.260  -0.041   2.537  0.00  0.00     0.006 A 
ATOM      3  C4  UNL d   1       0.133   0.529   1.942  0.00  0.00     0.002 A 
ATOM      4  C5  UNL d   1      -0.972  -0.263   1.609  0.00  0.00    -0.080 A 
ATOM      5  C6  UNL d   1      -2.200   0.341   0.998  0.00  0.00     0.076 C 
ATOM      6  C7  UNL d   1      -0.920  -1.639   1.859  0.00  0.00     0.002 A 
ATOM      7  C8  UNL d   1       0.207  -2.209   2.454  0.00  0.00     0.006 A 
ENDROOT
BRANCH   1   8
ATOM      8  C1  UNL d   1       2.494  -2.022   3.504  0.00  0.00     0.054 C 
ATOM      9  C   UNL d   1       2.644  -1.471   4.915  0.00  0.00     0.018 C 
ENDBRANCH   1   8
TORSDOF 1
ENDMDL
