MODEL 1
REMARK minimizedAffinity 1.41696286
REMARK minimizedRMSD -1
REMARK  1 active torsions:
REMARK  status: ('A' for Active; 'I' for Inactive)
REMARK    1  A    between atoms: C1_2  and  C2_3 
ROOT
ATOM      1  C2  UNL d   1       1.084   0.597   2.041  0.00  0.00    -0.081 A 
ATOM      2  C3  UNL d   1       1.146  -0.774   2.316  0.00  0.00     0.006 A 
ATOM      3  C4  UNL d   1      -0.023  -1.536   2.388  0.00  0.00     0.002 A 
ATOM      4  C5  UNL d   1      -1.272  -0.942   2.177  0.00  0.00    -0.080 A 
ATOM      5  C6  UNL d   1      -2.532  -1.754   2.221  0.00  0.00     0.076 C 
ATOM      6  C7  UNL d   1      -1.335   0.432   1.919  0.00  0.00     0.002 A 
ATOM      7  C8  UNL d   1      -0.167   1.194   1.848  0.00  0.00     0.006 A 
ENDROOT
BRANCH   1   8
ATOM      8  C1  UNL d   1       2.346   1.409   1.899  0.00  0.00     0.054 C 
ATOM      9  C   UNL d   1       2.260   2.364   0.717  0.00  0.00     0.018 C 
ENDBRANCH   1   8
TORSDOF 1
ENDMDL
