MODEL 1
REMARK minimizedAffinity -0.79395175
REMARK minimizedRMSD -1
REMARK  1 active torsions:
REMARK  status: ('A' for Active; 'I' for Inactive)
REMARK    1  A    between atoms: C1_2  and  C2_3 
ROOT
ATOM      1  C2  UNL d   1       0.458  -0.950   3.319  0.00  0.00    -0.081 A 
ATOM      2  C3  UNL d   1       0.375   0.317   2.729  0.00  0.00     0.006 A 
ATOM      3  C4  UNL d   1      -0.727   0.662   1.943  0.00  0.00     0.002 A 
ATOM      4  C5  UNL d   1      -1.767  -0.251   1.740  0.00  0.00    -0.080 A 
ATOM      5  C6  UNL d   1      -2.970   0.118   0.923  0.00  0.00     0.076 C 
ATOM      6  C7  UNL d   1      -1.677  -1.523   2.314  0.00  0.00     0.002 A 
ATOM      7  C8  UNL d   1      -0.575  -1.869   3.100  0.00  0.00     0.006 A 
ENDROOT
BRANCH   1   8
ATOM      8  C1  UNL d   1       1.614  -1.303   4.220  0.00  0.00     0.054 C 
ATOM      9  C   UNL d   1       1.309  -0.958   5.670  0.00  0.00     0.018 C 
ENDBRANCH   1   8
TORSDOF 1
ENDMDL
