MODEL 1
REMARK minimizedAffinity -4.99454165
REMARK minimizedRMSD -1
REMARK  0 active torsions:
REMARK  status: ('A' for Active; 'I' for Inactive)
ROOT
ATOM      1  C   UNL d   1       1.195  -2.166   4.532  0.00  0.00     0.078 C 
ATOM      2  C1  UNL d   1       0.306  -1.349   3.642  0.00  0.00    -0.077 A 
ATOM      3  C2  UNL d   1      -1.087  -1.476   3.702  0.00  0.00    -0.001 A 
ATOM      4  C3  UNL d   1      -1.902  -0.716   2.861  0.00  0.00     0.003 A 
ATOM      5  C4  UNL d   1      -1.332   0.174   1.953  0.00  0.00    -0.005 A 
ATOM      6  C5  UNL d   1       0.053   0.305   1.885  0.00  0.00     0.003 A 
ATOM      7  C6  UNL d   1       0.869  -0.453   2.725  0.00  0.00    -0.001 A 
ENDROOT
TORSDOF 0
ENDMDL
