MODEL 1
REMARK minimizedAffinity 5.6598444
REMARK minimizedRMSD -1
REMARK  0 active torsions:
REMARK  status: ('A' for Active; 'I' for Inactive)
ROOT
ATOM      1  C   UNL d   1       1.826  -1.515   2.843  0.00  0.00     0.078 C 
ATOM      2  C1  UNL d   1       0.648  -0.799   2.252  0.00  0.00    -0.077 A 
ATOM      3  C2  UNL d   1       0.741   0.541   1.859  0.00  0.00    -0.001 A 
ATOM      4  C3  UNL d   1      -0.366   1.197   1.319  0.00  0.00     0.003 A 
ATOM      5  C4  UNL d   1      -1.576   0.521   1.169  0.00  0.00    -0.005 A 
ATOM      6  C5  UNL d   1      -1.679  -0.812   1.560  0.00  0.00     0.003 A 
ATOM      7  C6  UNL d   1      -0.572  -1.470   2.099  0.00  0.00    -0.001 A 
ENDROOT
TORSDOF 0
ENDMDL
