MODEL 1
REMARK minimizedAffinity -0.813038349
REMARK minimizedRMSD -1
REMARK  0 active torsions:
REMARK  status: ('A' for Active; 'I' for Inactive)
ROOT
ATOM      1  C   UNL d   1       0.066  -0.650   2.667  0.00  0.00     0.078 C 
ATOM      2  C1  UNL d   1       0.998  -1.295   3.648  0.00  0.00    -0.077 A 
ATOM      3  C2  UNL d   1       2.216  -0.695   3.988  0.00  0.00    -0.001 A 
ATOM      4  C3  UNL d   1       3.079  -1.311   4.896  0.00  0.00     0.003 A 
ATOM      5  C4  UNL d   1       2.733  -2.533   5.470  0.00  0.00    -0.005 A 
ATOM      6  C5  UNL d   1       1.523  -3.139   5.137  0.00  0.00     0.003 A 
ATOM      7  C6  UNL d   1       0.660  -2.524   4.230  0.00  0.00    -0.001 A 
ENDROOT
TORSDOF 0
ENDMDL
