MODEL 1
REMARK minimizedAffinity 5.65622807
REMARK minimizedRMSD -1
REMARK  0 active torsions:
REMARK  status: ('A' for Active; 'I' for Inactive)
ROOT
ATOM      1  C   UNL d   1       0.750  -1.129   2.671  0.00  0.00     0.078 C 
ATOM      2  C1  UNL d   1      -0.257  -0.345   1.885  0.00  0.00    -0.077 A 
ATOM      3  C2  UNL d   1      -0.197   1.052   1.825  0.00  0.00    -0.001 A 
ATOM      4  C3  UNL d   1      -1.147   1.770   1.097  0.00  0.00     0.003 A 
ATOM      5  C4  UNL d   1      -2.166   1.098   0.424  0.00  0.00    -0.005 A 
ATOM      6  C5  UNL d   1      -2.235  -0.292   0.479  0.00  0.00     0.003 A 
ATOM      7  C6  UNL d   1      -1.286  -1.012   1.207  0.00  0.00    -0.001 A 
ENDROOT
TORSDOF 0
ENDMDL
