MODEL 1
REMARK minimizedAffinity -1.71533561
REMARK minimizedRMSD -1
REMARK  0 active torsions:
REMARK  status: ('A' for Active; 'I' for Inactive)
ROOT
ATOM      1  C   UNL d   1       1.190  -2.008   4.470  0.00  0.00     0.078 C 
ATOM      2  C1  UNL d   1       0.696  -1.192   3.314  0.00  0.00    -0.077 A 
ATOM      3  C2  UNL d   1       1.553  -0.831   2.267  0.00  0.00    -0.001 A 
ATOM      4  C3  UNL d   1       1.082  -0.062   1.202  0.00  0.00     0.003 A 
ATOM      5  C4  UNL d   1      -0.248   0.353   1.172  0.00  0.00    -0.005 A 
ATOM      6  C5  UNL d   1      -1.108   0.000   2.210  0.00  0.00     0.003 A 
ATOM      7  C6  UNL d   1      -0.638  -0.768   3.277  0.00  0.00    -0.001 A 
ENDROOT
TORSDOF 0
ENDMDL
