MODEL 1
REMARK minimizedAffinity -0.958599925
REMARK minimizedRMSD -1
REMARK  0 active torsions:
REMARK  status: ('A' for Active; 'I' for Inactive)
ROOT
ATOM      1  C   UNL d   1      -1.063   0.242   1.395  0.00  0.00     0.078 C 
ATOM      2  C1  UNL d   1      -0.424  -0.715   2.357  0.00  0.00    -0.077 A 
ATOM      3  C2  UNL d   1       0.945  -0.646   2.641  0.00  0.00    -0.001 A 
ATOM      4  C3  UNL d   1       1.528  -1.550   3.531  0.00  0.00     0.003 A 
ATOM      5  C4  UNL d   1       0.749  -2.530   4.143  0.00  0.00    -0.005 A 
ATOM      6  C5  UNL d   1      -0.614  -2.608   3.864  0.00  0.00     0.003 A 
ATOM      7  C6  UNL d   1      -1.199  -1.705   2.975  0.00  0.00    -0.001 A 
ENDROOT
TORSDOF 0
ENDMDL
