MODEL 1
REMARK minimizedAffinity 0.267062753
REMARK minimizedRMSD -1
REMARK  0 active torsions:
REMARK  status: ('A' for Active; 'I' for Inactive)
ROOT
ATOM      1  C   UNL d   1       1.171  -0.936   3.755  0.00  0.00     0.078 C 
ATOM      2  C1  UNL d   1       0.138  -0.370   2.826  0.00  0.00    -0.077 A 
ATOM      3  C2  UNL d   1      -1.029  -1.082   2.527  0.00  0.00    -0.001 A 
ATOM      4  C3  UNL d   1      -1.977  -0.547   1.653  0.00  0.00     0.003 A 
ATOM      5  C4  UNL d   1      -1.767   0.701   1.070  0.00  0.00    -0.005 A 
ATOM      6  C5  UNL d   1      -0.607   1.416   1.361  0.00  0.00     0.003 A 
ATOM      7  C6  UNL d   1       0.342   0.883   2.235  0.00  0.00    -0.001 A 
ENDROOT
TORSDOF 0
ENDMDL
