MODEL 1
REMARK minimizedAffinity -0.203126878
REMARK minimizedRMSD -1
REMARK  0 active torsions:
REMARK  status: ('A' for Active; 'I' for Inactive)
ROOT
ATOM      1  C   UNL d   1       1.245  -1.627   4.159  0.00  0.00     0.078 C 
ATOM      2  C1  UNL d   1       0.737  -0.899   2.950  0.00  0.00    -0.077 A 
ATOM      3  C2  UNL d   1       1.589  -0.592   1.882  0.00  0.00    -0.001 A 
ATOM      4  C3  UNL d   1       1.105   0.094   0.767  0.00  0.00     0.003 A 
ATOM      5  C4  UNL d   1      -0.233   0.481   0.711  0.00  0.00    -0.005 A 
ATOM      6  C5  UNL d   1      -1.087   0.182   1.770  0.00  0.00     0.003 A 
ATOM      7  C6  UNL d   1      -0.605  -0.504   2.885  0.00  0.00    -0.001 A 
ENDROOT
TORSDOF 0
ENDMDL
