MODEL 1
REMARK minimizedAffinity 1.48992753
REMARK minimizedRMSD -1
REMARK  0 active torsions:
REMARK  status: ('A' for Active; 'I' for Inactive)
ROOT
ATOM      1  C   UNL d   1       1.732  -1.129   2.656  0.00  0.00     0.078 C 
ATOM      2  C1  UNL d   1       0.307  -0.762   2.369  0.00  0.00    -0.077 A 
ATOM      3  C2  UNL d   1      -0.751  -1.527   2.876  0.00  0.00    -0.001 A 
ATOM      4  C3  UNL d   1      -2.073  -1.180   2.593  0.00  0.00     0.003 A 
ATOM      5  C4  UNL d   1      -2.349  -0.067   1.801  0.00  0.00    -0.005 A 
ATOM      6  C5  UNL d   1      -1.304   0.700   1.291  0.00  0.00     0.003 A 
ATOM      7  C6  UNL d   1       0.019   0.354   1.573  0.00  0.00    -0.001 A 
ENDROOT
TORSDOF 0
ENDMDL
