MODEL 1
REMARK minimizedAffinity 7.16018486
REMARK minimizedRMSD -1
REMARK  0 active torsions:
REMARK  status: ('A' for Active; 'I' for Inactive)
ROOT
ATOM      1  C   UNL d   1       0.141  -0.355   2.362  0.00  0.00     0.078 C 
ATOM      2  C1  UNL d   1       0.809  -0.794   3.631  0.00  0.00    -0.077 A 
ATOM      3  C2  UNL d   1       0.611  -0.097   4.829  0.00  0.00    -0.001 A 
ATOM      4  C3  UNL d   1       1.248  -0.510   6.000  0.00  0.00     0.003 A 
ATOM      5  C4  UNL d   1       2.088  -1.622   5.984  0.00  0.00    -0.005 A 
ATOM      6  C5  UNL d   1       2.293  -2.321   4.796  0.00  0.00     0.003 A 
ATOM      7  C6  UNL d   1       1.657  -1.909   3.624  0.00  0.00    -0.001 A 
ENDROOT
TORSDOF 0
ENDMDL
