MODEL 1
REMARK minimizedAffinity -2.41851282
REMARK minimizedRMSD -1
REMARK  0 active torsions:
REMARK  status: ('A' for Active; 'I' for Inactive)
ROOT
ATOM      1  C   UNL d   1      -3.017  -1.156   3.189  0.00  0.00     0.078 C 
ATOM      2  C1  UNL d   1      -1.543  -0.961   2.995  0.00  0.00    -0.077 A 
ATOM      3  C2  UNL d   1      -0.655  -1.054   4.074  0.00  0.00    -0.001 A 
ATOM      4  C3  UNL d   1       0.714  -0.861   3.880  0.00  0.00     0.003 A 
ATOM      5  C4  UNL d   1       1.207  -0.572   2.609  0.00  0.00    -0.005 A 
ATOM      6  C5  UNL d   1       0.331  -0.475   1.530  0.00  0.00     0.003 A 
ATOM      7  C6  UNL d   1      -1.038  -0.669   1.722  0.00  0.00    -0.001 A 
ENDROOT
TORSDOF 0
ENDMDL
