MODEL 1
REMARK minimizedAffinity 0.519200504
REMARK minimizedRMSD -1
REMARK  0 active torsions:
REMARK  status: ('A' for Active; 'I' for Inactive)
ROOT
ATOM      1  O1  BZF d   1       1.962  -1.547  -1.211  0.00  0.00    -0.204 OA
ATOM      2  C2  BZF d   1       2.849  -2.048  -0.278  0.00  0.00     0.174 A 
ATOM      3  C3  BZF d   1       3.445  -1.047   0.401  0.00  0.00    -0.012 A 
ATOM      4  C3A BZF d   1       2.828   0.152  -0.078  0.00  0.00    -0.107 A 
ATOM      5  C4  BZF d   1       2.985   1.474   0.226  0.00  0.00     0.055 A 
ATOM      6  C5  BZF d   1       2.281   2.401  -0.476  0.00  0.00    -0.016 A 
ATOM      7  C6  BZF d   1       1.418   2.042  -1.491  0.00  0.00     0.022 A 
ATOM      8  C7  BZF d   1       1.226   0.742  -1.825  0.00  0.00     0.029 A 
ATOM      9  C7A BZF d   1       1.911  -0.198  -1.095  0.00  0.00     0.058 A 
ENDROOT
TORSDOF 0
ENDMDL
