MODEL 1
REMARK minimizedAffinity 7.26569414
REMARK minimizedRMSD -1
REMARK  0 active torsions:
REMARK  status: ('A' for Active; 'I' for Inactive)
ROOT
ATOM      1  O1  BZF d   1      -5.293  -0.377  -3.814  0.00  0.00    -0.204 OA
ATOM      2  C2  BZF d   1      -4.573  -1.508  -4.146  0.00  0.00     0.174 A 
ATOM      3  C3  BZF d   1      -3.617  -1.218  -5.052  0.00  0.00    -0.012 A 
ATOM      4  C3A BZF d   1      -3.688   0.200  -5.232  0.00  0.00    -0.107 A 
ATOM      5  C4  BZF d   1      -2.983   1.086  -5.996  0.00  0.00     0.055 A 
ATOM      6  C5  BZF d   1      -3.351   2.394  -6.000  0.00  0.00    -0.016 A 
ATOM      7  C6  BZF d   1      -4.420   2.849  -5.257  0.00  0.00     0.022 A 
ATOM      8  C7  BZF d   1      -5.147   2.009  -4.480  0.00  0.00     0.029 A 
ATOM      9  C7A BZF d   1      -4.757   0.693  -4.449  0.00  0.00     0.058 A 
ENDROOT
TORSDOF 0
ENDMDL
