MODEL 1
REMARK minimizedAffinity 2.49198723
REMARK minimizedRMSD -1
REMARK  0 active torsions:
REMARK  status: ('A' for Active; 'I' for Inactive)
ROOT
ATOM      1  O1  BZF d   1       0.157   0.118   2.471  0.00  0.00    -0.204 OA
ATOM      2  C2  BZF d   1      -0.591  -0.467   3.474  0.00  0.00     0.174 A 
ATOM      3  C3  BZF d   1      -0.296  -1.778   3.589  0.00  0.00    -0.012 A 
ATOM      4  C3A BZF d   1       0.766  -2.007   2.657  0.00  0.00    -0.107 A 
ATOM      5  C4  BZF d   1       1.497  -3.110   2.320  0.00  0.00     0.055 A 
ATOM      6  C5  BZF d   1       2.411  -3.015   1.318  0.00  0.00    -0.016 A 
ATOM      7  C6  BZF d   1       2.615  -1.837   0.631  0.00  0.00     0.022 A 
ATOM      8  C7  BZF d   1       1.917  -0.715   0.933  0.00  0.00     0.029 A 
ATOM      9  C7A BZF d   1       1.017  -0.799   1.966  0.00  0.00     0.058 A 
ENDROOT
TORSDOF 0
ENDMDL
