MODEL 1
REMARK minimizedAffinity 0.478095293
REMARK minimizedRMSD -1
REMARK  0 active torsions:
REMARK  status: ('A' for Active; 'I' for Inactive)
ROOT
ATOM      1  O1  BZF d   1       0.012  -0.969  -1.165  0.00  0.00    -0.204 OA
ATOM      2  C2  BZF d   1       1.103  -0.871  -2.006  0.00  0.00     0.174 A 
ATOM      3  C3  BZF d   1       2.247  -1.127  -1.339  0.00  0.00    -0.012 A 
ATOM      4  C3A BZF d   1       1.838  -1.492  -0.018  0.00  0.00    -0.107 A 
ATOM      5  C4  BZF d   1       2.517  -1.873   1.104  0.00  0.00     0.055 A 
ATOM      6  C5  BZF d   1       1.826  -2.090   2.253  0.00  0.00    -0.016 A 
ATOM      7  C6  BZF d   1       0.457  -1.932   2.318  0.00  0.00     0.022 A 
ATOM      8  C7  BZF d   1      -0.261  -1.561   1.230  0.00  0.00     0.029 A 
ATOM      9  C7A BZF d   1       0.431  -1.373   0.059  0.00  0.00     0.058 A 
ENDROOT
TORSDOF 0
ENDMDL
