MODEL 1
REMARK minimizedAffinity 10.6074781
REMARK minimizedRMSD -1
REMARK  0 active torsions:
REMARK  status: ('A' for Active; 'I' for Inactive)
ROOT
ATOM      1  O1  BZF d   1       0.406  -0.797  -0.137  0.00  0.00    -0.204 OA
ATOM      2  C2  BZF d   1       1.585  -1.321  -0.631  0.00  0.00     0.174 A 
ATOM      3  C3  BZF d   1       2.472  -1.524   0.365  0.00  0.00    -0.012 A 
ATOM      4  C3A BZF d   1       1.773  -1.187   1.567  0.00  0.00    -0.107 A 
ATOM      5  C4  BZF d   1       2.117  -1.198   2.888  0.00  0.00     0.055 A 
ATOM      6  C5  BZF d   1       1.227  -0.740   3.807  0.00  0.00    -0.016 A 
ATOM      7  C6  BZF d   1      -0.013  -0.259   3.439  0.00  0.00     0.022 A 
ATOM      8  C7  BZF d   1      -0.401  -0.232   2.141  0.00  0.00     0.029 A 
ATOM      9  C7A BZF d   1       0.484  -0.726   1.213  0.00  0.00     0.058 A 
ENDROOT
TORSDOF 0
ENDMDL
