MODEL 1
REMARK minimizedAffinity 9.40542221
REMARK minimizedRMSD -1
REMARK  0 active torsions:
REMARK  status: ('A' for Active; 'I' for Inactive)
ROOT
ATOM      1  O1  BZF d   1      -0.927  -0.758   1.416  0.00  0.00    -0.204 OA
ATOM      2  C2  BZF d   1      -1.743  -0.006   2.238  0.00  0.00     0.174 A 
ATOM      3  C3  BZF d   1      -1.096   0.338   3.370  0.00  0.00    -0.012 A 
ATOM      4  C3A BZF d   1       0.237  -0.157   3.206  0.00  0.00    -0.107 A 
ATOM      5  C4  BZF d   1       1.357  -0.114   3.986  0.00  0.00     0.055 A 
ATOM      6  C5  BZF d   1       2.478  -0.758   3.568  0.00  0.00    -0.016 A 
ATOM      7  C6  BZF d   1       2.513  -1.458   2.380  0.00  0.00     0.022 A 
ATOM      8  C7  BZF d   1       1.428  -1.525   1.570  0.00  0.00     0.029 A 
ATOM      9  C7A BZF d   1       0.304  -0.848   1.974  0.00  0.00     0.058 A 
ENDROOT
TORSDOF 0
ENDMDL
