MODEL 1
REMARK minimizedAffinity 9.14852428
REMARK minimizedRMSD -1
REMARK  0 active torsions:
REMARK  status: ('A' for Active; 'I' for Inactive)
ROOT
ATOM      1  O1  BZF d   1       0.140  -0.771  -1.157  0.00  0.00    -0.204 OA
ATOM      2  C2  BZF d   1       1.487  -0.976  -1.391  0.00  0.00     0.174 A 
ATOM      3  C3  BZF d   1       2.146  -1.190  -0.234  0.00  0.00    -0.012 A 
ATOM      4  C3A BZF d   1       1.134  -1.205   0.778  0.00  0.00    -0.107 A 
ATOM      5  C4  BZF d   1       1.163  -1.390   2.131  0.00  0.00     0.055 A 
ATOM      6  C5  BZF d   1       0.008  -1.272   2.838  0.00  0.00    -0.016 A 
ATOM      7  C6  BZF d   1      -1.190  -0.965   2.226  0.00  0.00     0.022 A 
ATOM      8  C7  BZF d   1      -1.268  -0.778   0.886  0.00  0.00     0.029 A 
ATOM      9  C7A BZF d   1      -0.109  -0.930   0.165  0.00  0.00     0.058 A 
ENDROOT
TORSDOF 0
ENDMDL
