MODEL 1
REMARK minimizedAffinity 10.4581556
REMARK minimizedRMSD -1
REMARK  0 active torsions:
REMARK  status: ('A' for Active; 'I' for Inactive)
ROOT
ATOM      1  O1  BZF d   1       2.167  -1.827   1.029  0.00  0.00    -0.204 OA
ATOM      2  C2  BZF d   1       1.990  -1.363  -0.260  0.00  0.00     0.174 A 
ATOM      3  C3  BZF d   1       0.822  -0.697  -0.372  0.00  0.00    -0.012 A 
ATOM      4  C3A BZF d   1       0.276  -0.670   0.950  0.00  0.00    -0.107 A 
ATOM      5  C4  BZF d   1      -0.862  -0.137   1.485  0.00  0.00     0.055 A 
ATOM      6  C5  BZF d   1      -1.136  -0.350   2.799  0.00  0.00    -0.016 A 
ATOM      7  C6  BZF d   1      -0.298  -1.093   3.605  0.00  0.00     0.022 A 
ATOM      8  C7  BZF d   1       0.845  -1.638   3.120  0.00  0.00     0.029 A 
ATOM      9  C7A BZF d   1       1.141  -1.397   1.801  0.00  0.00     0.058 A 
ENDROOT
TORSDOF 0
ENDMDL
