MODEL 1
REMARK minimizedAffinity -1.71045268
REMARK minimizedRMSD -1
REMARK  1 active torsions:
REMARK  status: ('A' for Active; 'I' for Inactive)
REMARK    1  A    between atoms: C1_2  and  C2_3 
ROOT
ATOM      1  C2  UNL d   1       0.213  -1.640  -2.023  0.00  0.00    -0.077 A 
ATOM      2  C3  UNL d   1       0.612  -1.501  -0.686  0.00  0.00     0.002 A 
ATOM      3  C4  UNL d   1       0.690  -0.236  -0.099  0.00  0.00     0.002 A 
ATOM      4  C5  UNL d   1       0.368   0.898  -0.841  0.00  0.00    -0.004 A 
ATOM      5  C6  UNL d   1      -0.028   0.771  -2.172  0.00  0.00     0.002 A 
ATOM      6  C7  UNL d   1      -0.106  -0.492  -2.760  0.00  0.00     0.002 A 
ENDROOT
BRANCH   1   7
ATOM      7  C1  UNL d   1       0.080  -3.006  -2.642  0.00  0.00     0.055 C 
ATOM      8  C   UNL d   1       1.196  -3.933  -2.183  0.00  0.00     0.019 C 
ENDBRANCH   1   7
TORSDOF 1
ENDMDL
