MODEL 1
REMARK minimizedAffinity 1.46264064
REMARK minimizedRMSD -1
REMARK  1 active torsions:
REMARK  status: ('A' for Active; 'I' for Inactive)
REMARK    1  A    between atoms: C1_2  and  C2_3 
ROOT
ATOM      1  C2  UNL d   1      -5.581   2.977  -4.778  0.00  0.00    -0.077 A 
ATOM      2  C3  UNL d   1      -5.658   3.558  -3.504  0.00  0.00     0.002 A 
ATOM      3  C4  UNL d   1      -5.234   2.850  -2.378  0.00  0.00     0.002 A 
ATOM      4  C5  UNL d   1      -4.727   1.560  -2.514  0.00  0.00    -0.004 A 
ATOM      5  C6  UNL d   1      -4.648   0.972  -3.776  0.00  0.00     0.002 A 
ATOM      6  C7  UNL d   1      -5.073   1.677  -4.903  0.00  0.00     0.002 A 
ENDROOT
BRANCH   1   7
ATOM      7  C1  UNL d   1      -5.992   3.757  -5.999  0.00  0.00     0.055 C 
ATOM      8  C   UNL d   1      -5.987   5.254  -5.728  0.00  0.00     0.019 C 
ENDBRANCH   1   7
TORSDOF 1
ENDMDL
