MODEL 1
REMARK minimizedAffinity -2.81417751
REMARK minimizedRMSD -1
REMARK  1 active torsions:
REMARK  status: ('A' for Active; 'I' for Inactive)
REMARK    1  A    between atoms: C1_2  and  C2_3 
ROOT
ATOM      1  C2  UNL d   1      -4.434   1.896  -3.657  0.00  0.00    -0.077 A 
ATOM      2  C3  UNL d   1      -5.143   3.017  -4.112  0.00  0.00     0.002 A 
ATOM      3  C4  UNL d   1      -5.906   2.943  -5.279  0.00  0.00     0.002 A 
ATOM      4  C5  UNL d   1      -5.971   1.751  -5.997  0.00  0.00    -0.004 A 
ATOM      5  C6  UNL d   1      -5.268   0.632  -5.554  0.00  0.00     0.002 A 
ATOM      6  C7  UNL d   1      -4.504   0.703  -4.389  0.00  0.00     0.002 A 
ENDROOT
BRANCH   1   7
ATOM      7  C1  UNL d   1      -3.649   1.959  -2.373  0.00  0.00     0.055 C 
ATOM      8  C   UNL d   1      -2.205   2.366  -2.625  0.00  0.00     0.019 C 
ENDBRANCH   1   7
TORSDOF 1
ENDMDL
