MODEL 1
REMARK minimizedAffinity 4.74114561
REMARK minimizedRMSD -1
REMARK  1 active torsions:
REMARK  status: ('A' for Active; 'I' for Inactive)
REMARK    1  A    between atoms: C1_2  and  C2_3 
ROOT
ATOM      1  C2  UNL d   1      -4.928   2.674  -4.620  0.00  0.00    -0.077 A 
ATOM      2  C3  UNL d   1      -6.000   1.889  -5.069  0.00  0.00     0.002 A 
ATOM      3  C4  UNL d   1      -5.990   0.506  -4.880  0.00  0.00     0.002 A 
ATOM      4  C5  UNL d   1      -4.914  -0.104  -4.238  0.00  0.00    -0.004 A 
ATOM      5  C6  UNL d   1      -3.842   0.668  -3.790  0.00  0.00     0.002 A 
ATOM      6  C7  UNL d   1      -3.850   2.050  -3.979  0.00  0.00     0.002 A 
ENDROOT
BRANCH   1   7
ATOM      7  C1  UNL d   1      -4.959   4.171  -4.779  0.00  0.00     0.055 C 
ATOM      8  C   UNL d   1      -5.944   4.593  -5.860  0.00  0.00     0.019 C 
ENDBRANCH   1   7
TORSDOF 1
ENDMDL
