MODEL 1
REMARK minimizedAffinity -1.29907632
REMARK minimizedRMSD -1
REMARK  1 active torsions:
REMARK  status: ('A' for Active; 'I' for Inactive)
REMARK    1  A    between atoms: C1_2  and  C2_3 
ROOT
ATOM      1  C2  UNL d   1      -0.647  -2.240   4.054  0.00  0.00    -0.077 A 
ATOM      2  C3  UNL d   1       0.270  -2.900   4.883  0.00  0.00     0.002 A 
ATOM      3  C4  UNL d   1       1.621  -2.962   4.533  0.00  0.00     0.002 A 
ATOM      4  C5  UNL d   1       2.066  -2.362   3.357  0.00  0.00    -0.004 A 
ATOM      5  C6  UNL d   1       1.161  -1.704   2.525  0.00  0.00     0.002 A 
ATOM      6  C7  UNL d   1      -0.190  -1.643   2.872  0.00  0.00     0.002 A 
ENDROOT
BRANCH   1   7
ATOM      7  C1  UNL d   1      -2.096  -2.130   4.453  0.00  0.00     0.055 C 
ATOM      8  C   UNL d   1      -2.243  -1.957   5.958  0.00  0.00     0.019 C 
ENDBRANCH   1   7
TORSDOF 1
ENDMDL
