MODEL 1
REMARK minimizedAffinity 0.88532877
REMARK minimizedRMSD -1
REMARK  1 active torsions:
REMARK  status: ('A' for Active; 'I' for Inactive)
REMARK    1  A    between atoms: C1_2  and  C2_3 
ROOT
ATOM      1  C2  UNL d   1       3.237  -4.023  -2.309  0.00  0.00    -0.077 A 
ATOM      2  C3  UNL d   1       3.550  -3.798  -3.657  0.00  0.00     0.002 A 
ATOM      3  C4  UNL d   1       2.534  -3.602  -4.595  0.00  0.00     0.002 A 
ATOM      4  C5  UNL d   1       1.200  -3.624  -4.194  0.00  0.00    -0.004 A 
ATOM      5  C6  UNL d   1       0.878  -3.848  -2.856  0.00  0.00     0.002 A 
ATOM      6  C7  UNL d   1       1.892  -4.046  -1.917  0.00  0.00     0.002 A 
ENDROOT
BRANCH   1   7
ATOM      7  C1  UNL d   1       4.332  -4.186  -1.288  0.00  0.00     0.055 C 
ATOM      8  C   UNL d   1       5.396  -3.109  -1.441  0.00  0.00     0.019 C 
ENDBRANCH   1   7
TORSDOF 1
ENDMDL
