MODEL 1
REMARK minimizedAffinity 4.66639948
REMARK minimizedRMSD -1
REMARK  1 active torsions:
REMARK  status: ('A' for Active; 'I' for Inactive)
REMARK    1  A    between atoms: C1_2  and  C2_3 
ROOT
ATOM      1  C2  UNL d   1      -1.378   1.100  -1.078  0.00  0.00    -0.077 A 
ATOM      2  C3  UNL d   1      -1.561  -0.052  -0.301  0.00  0.00     0.002 A 
ATOM      3  C4  UNL d   1      -0.589  -0.444   0.621  0.00  0.00     0.002 A 
ATOM      4  C5  UNL d   1       0.571   0.313   0.778  0.00  0.00    -0.004 A 
ATOM      5  C6  UNL d   1       0.763   1.459   0.008  0.00  0.00     0.002 A 
ATOM      6  C7  UNL d   1      -0.207   1.852  -0.915  0.00  0.00     0.002 A 
ENDROOT
BRANCH   1   7
ATOM      7  C1  UNL d   1      -2.448   1.551  -2.038  0.00  0.00     0.055 C 
ATOM      8  C   UNL d   1      -2.673   3.054  -1.950  0.00  0.00     0.019 C 
ENDBRANCH   1   7
TORSDOF 1
ENDMDL
