MODEL 1
REMARK minimizedAffinity 1.00217998
REMARK minimizedRMSD -1
REMARK  1 active torsions:
REMARK  status: ('A' for Active; 'I' for Inactive)
REMARK    1  A    between atoms: C1_2  and  C2_3 
ROOT
ATOM      1  C2  UNL d   1       0.198   2.718   0.704  0.00  0.00    -0.077 A 
ATOM      2  C3  UNL d   1      -0.020   2.634   2.086  0.00  0.00     0.002 A 
ATOM      3  C4  UNL d   1       0.356   3.684   2.926  0.00  0.00     0.002 A 
ATOM      4  C5  UNL d   1       0.948   4.826   2.393  0.00  0.00    -0.004 A 
ATOM      5  C6  UNL d   1       1.172   4.919   1.019  0.00  0.00     0.002 A 
ATOM      6  C7  UNL d   1       0.798   3.870   0.179  0.00  0.00     0.002 A 
ENDROOT
BRANCH   1   7
ATOM      7  C1  UNL d   1      -0.251   1.607  -0.210  0.00  0.00     0.055 C 
ATOM      8  C   UNL d   1       0.867   1.173  -1.146  0.00  0.00     0.019 C 
ENDBRANCH   1   7
TORSDOF 1
ENDMDL
