MODEL 1
REMARK minimizedAffinity 3.89577913
REMARK minimizedRMSD -1
REMARK  1 active torsions:
REMARK  status: ('A' for Active; 'I' for Inactive)
REMARK    1  A    between atoms: C1_2  and  C2_3 
ROOT
ATOM      1  C2  UNL d   1      -4.250   1.967  -3.014  0.00  0.00    -0.077 A 
ATOM      2  C3  UNL d   1      -5.187   3.000  -3.155  0.00  0.00     0.002 A 
ATOM      3  C4  UNL d   1      -5.994   3.071  -4.292  0.00  0.00     0.002 A 
ATOM      4  C5  UNL d   1      -5.874   2.111  -5.295  0.00  0.00    -0.004 A 
ATOM      5  C6  UNL d   1      -4.943   1.081  -5.164  0.00  0.00     0.002 A 
ATOM      6  C7  UNL d   1      -4.136   1.009  -4.029  0.00  0.00     0.002 A 
ENDROOT
BRANCH   1   7
ATOM      7  C1  UNL d   1      -3.414   1.861  -1.765  0.00  0.00     0.055 C 
ATOM      8  C   UNL d   1      -4.258   1.456  -0.566  0.00  0.00     0.019 C 
ENDBRANCH   1   7
TORSDOF 1
ENDMDL
