MODEL 1
REMARK minimizedAffinity -0.135516062
REMARK minimizedRMSD -1
REMARK  1 active torsions:
REMARK  status: ('A' for Active; 'I' for Inactive)
REMARK    1  A    between atoms: C1_2  and  C2_3 
ROOT
ATOM      1  C2  UNL d   1      -4.942   2.597  -4.964  0.00  0.00    -0.077 A 
ATOM      2  C3  UNL d   1      -5.843   3.139  -5.892  0.00  0.00     0.002 A 
ATOM      3  C4  UNL d   1      -6.000   4.522  -5.999  0.00  0.00     0.002 A 
ATOM      4  C5  UNL d   1      -5.256   5.375  -5.186  0.00  0.00    -0.004 A 
ATOM      5  C6  UNL d   1      -4.359   4.846  -4.259  0.00  0.00     0.002 A 
ATOM      6  C7  UNL d   1      -4.202   3.463  -4.149  0.00  0.00     0.002 A 
ENDROOT
BRANCH   1   7
ATOM      7  C1  UNL d   1      -4.735   1.107  -4.881  0.00  0.00     0.055 C 
ATOM      8  C   UNL d   1      -5.999   0.351  -5.263  0.00  0.00     0.019 C 
ENDBRANCH   1   7
TORSDOF 1
ENDMDL
