MODEL 1
REMARK minimizedAffinity 3.22327399
REMARK minimizedRMSD -1
REMARK  1 active torsions:
REMARK  status: ('A' for Active; 'I' for Inactive)
REMARK    1  A    between atoms: C1_2  and  C2_3 
ROOT
ATOM      1  C2  UNL d   1       0.221   0.509   0.271  0.00  0.00    -0.077 A 
ATOM      2  C3  UNL d   1      -1.070   0.996   0.517  0.00  0.00     0.002 A 
ATOM      3  C4  UNL d   1      -1.564   1.060   1.821  0.00  0.00     0.002 A 
ATOM      4  C5  UNL d   1      -0.773   0.642   2.889  0.00  0.00    -0.004 A 
ATOM      5  C6  UNL d   1       0.512   0.155   2.654  0.00  0.00     0.002 A 
ATOM      6  C7  UNL d   1       1.007   0.089   1.351  0.00  0.00     0.002 A 
ENDROOT
BRANCH   1   7
ATOM      7  C1  UNL d   1       0.774   0.486  -1.131  0.00  0.00     0.055 C 
ATOM      8  C   UNL d   1       1.294   1.855  -1.543  0.00  0.00     0.019 C 
ENDBRANCH   1   7
TORSDOF 1
ENDMDL
