MODEL 1
REMARK minimizedAffinity -1.59135187
REMARK minimizedRMSD -1
REMARK  0 active torsions:
REMARK  status: ('A' for Active; 'I' for Inactive)
ROOT
ATOM      1  C   UNL d   1      -0.193   1.844   2.254  0.00  0.00    -0.002 A 
ATOM      2  C1  UNL d   1       0.072   0.523   2.588  0.00  0.00     0.010 A 
ATOM      3  C2  UNL d   1       0.368  -0.415   1.597  0.00  0.00     0.041 A 
ATOM      4  C3  UNL d   1       0.396   0.002   0.251  0.00  0.00    -0.075 A 
ATOM      5  S   UNL d   1       0.737  -0.971  -1.131  0.00  0.00     0.015 SA
ATOM      6  C4  UNL d   1       0.540   0.343  -2.198  0.00  0.00     0.022 A 
ATOM      7  C5  UNL d   1       0.221   1.504  -1.533  0.00  0.00     0.026 A 
ATOM      8  C6  UNL d   1       0.134   1.326  -0.110  0.00  0.00    -0.082 A 
ATOM      9  C7  UNL d   1      -0.164   2.253   0.918  0.00  0.00     0.045 A 
ENDROOT
TORSDOF 0
ENDMDL
