MODEL 1
REMARK minimizedAffinity -4.13100958
REMARK minimizedRMSD -1
REMARK  0 active torsions:
REMARK  status: ('A' for Active; 'I' for Inactive)
ROOT
ATOM      1  C   UNL d   1      -0.823  -3.936  -1.421  0.00  0.00    -0.002 A 
ATOM      2  C1  UNL d   1       0.555  -4.020  -1.277  0.00  0.00     0.010 A 
ATOM      3  C2  UNL d   1       1.282  -2.947  -0.758  0.00  0.00     0.041 A 
ATOM      4  C3  UNL d   1       0.594  -1.777  -0.380  0.00  0.00    -0.075 A 
ATOM      5  S   UNL d   1       1.276  -0.338   0.280  0.00  0.00     0.015 SA
ATOM      6  C4  UNL d   1      -0.245   0.422   0.389  0.00  0.00     0.022 A 
ATOM      7  C5  UNL d   1      -1.260  -0.387  -0.064  0.00  0.00     0.026 A 
ATOM      8  C6  UNL d   1      -0.793  -1.669  -0.514  0.00  0.00    -0.082 A 
ATOM      9  C7  UNL d   1      -1.502  -2.773  -1.044  0.00  0.00     0.045 A 
ENDROOT
TORSDOF 0
ENDMDL
