MODEL 1
REMARK minimizedAffinity 4.03753805
REMARK minimizedRMSD -1
REMARK  0 active torsions:
REMARK  status: ('A' for Active; 'I' for Inactive)
ROOT
ATOM      1  C   UNL d   1      -1.455  -4.339  -2.235  0.00  0.00    -0.002 A 
ATOM      2  C1  UNL d   1      -1.755  -3.815  -3.484  0.00  0.00     0.010 A 
ATOM      3  C2  UNL d   1      -1.206  -2.599  -3.894  0.00  0.00     0.041 A 
ATOM      4  C3  UNL d   1      -0.339  -1.913  -3.021  0.00  0.00    -0.075 A 
ATOM      5  S   UNL d   1       0.452  -0.409  -3.310  0.00  0.00     0.015 SA
ATOM      6  C4  UNL d   1       1.208  -0.427  -1.783  0.00  0.00     0.022 A 
ATOM      7  C5  UNL d   1       0.876  -1.546  -1.057  0.00  0.00     0.026 A 
ATOM      8  C6  UNL d   1      -0.021  -2.421  -1.758  0.00  0.00    -0.082 A 
ATOM      9  C7  UNL d   1      -0.595  -3.656  -1.371  0.00  0.00     0.045 A 
ENDROOT
TORSDOF 0
ENDMDL
