MODEL 1
REMARK minimizedAffinity 3.093436
REMARK minimizedRMSD -1
REMARK  0 active torsions:
REMARK  status: ('A' for Active; 'I' for Inactive)
ROOT
ATOM      1  C   UNL d   1       0.692  -0.913   4.144  0.00  0.00    -0.002 A 
ATOM      2  C1  UNL d   1       0.962  -1.631   2.988  0.00  0.00     0.010 A 
ATOM      3  C2  UNL d   1       0.867  -1.022   1.735  0.00  0.00     0.041 A 
ATOM      4  C3  UNL d   1       0.496   0.335   1.664  0.00  0.00    -0.075 A 
ATOM      5  S   UNL d   1       0.317   1.290   0.239  0.00  0.00     0.015 SA
ATOM      6  C4  UNL d   1      -0.120   2.674   1.133  0.00  0.00     0.022 A 
ATOM      7  C5  UNL d   1      -0.135   2.432   2.486  0.00  0.00     0.026 A 
ATOM      8  C6  UNL d   1       0.221   1.080   2.814  0.00  0.00    -0.082 A 
ATOM      9  C7  UNL d   1       0.324   0.433   4.069  0.00  0.00     0.045 A 
ENDROOT
TORSDOF 0
ENDMDL
