MODEL 1
REMARK minimizedAffinity -1.32423067
REMARK minimizedRMSD -1
REMARK  0 active torsions:
REMARK  status: ('A' for Active; 'I' for Inactive)
ROOT
ATOM      1  C   UNL d   1      -1.198  -2.164   3.796  0.00  0.00     0.172 C 
ATOM      2  N   UNL d   1      -1.200  -2.566   2.409  0.00  0.00    -0.070 N 
ATOM      3  C1  UNL d   1      -0.683  -3.734   1.915  0.00  0.00    -0.004 A 
ATOM      4  C2  UNL d   1      -0.881  -3.740   0.551  0.00  0.00    -0.047 A 
ATOM      5  C3  UNL d   1      -1.538  -2.533   0.213  0.00  0.00    -0.047 A 
ATOM      6  C4  UNL d   1      -1.723  -1.825   1.382  0.00  0.00    -0.004 A 
ENDROOT
TORSDOF 0
ENDMDL
