MODEL 1
REMARK minimizedAffinity -1.34678769
REMARK minimizedRMSD -1
REMARK  0 active torsions:
REMARK  status: ('A' for Active; 'I' for Inactive)
ROOT
ATOM      1  C   UNL d   1       4.401  -0.002   5.949  0.00  0.00     0.172 C 
ATOM      2  N   UNL d   1       4.733   1.404   5.968  0.00  0.00    -0.070 N 
ATOM      3  C1  UNL d   1       6.000   1.924   5.973  0.00  0.00    -0.004 A 
ATOM      4  C2  UNL d   1       5.891   3.298   5.991  0.00  0.00    -0.047 A 
ATOM      5  C3  UNL d   1       4.511   3.614   6.000  0.00  0.00    -0.047 A 
ATOM      6  C4  UNL d   1       3.817   2.422   5.985  0.00  0.00    -0.004 A 
ENDROOT
TORSDOF 0
ENDMDL
