MODEL 1
REMARK minimizedAffinity 7.60547161
REMARK minimizedRMSD -1
REMARK  0 active torsions:
REMARK  status: ('A' for Active; 'I' for Inactive)
ROOT
ATOM      1  C   UNL d   1       6.000   2.856  -1.160  0.00  0.00     0.172 C 
ATOM      2  N   UNL d   1       5.548   3.896  -0.266  0.00  0.00    -0.070 N 
ATOM      3  C1  UNL d   1       4.690   3.725   0.789  0.00  0.00    -0.004 A 
ATOM      4  C2  UNL d   1       4.510   4.953   1.389  0.00  0.00    -0.047 A 
ATOM      5  C3  UNL d   1       5.285   5.894   0.670  0.00  0.00    -0.047 A 
ATOM      6  C4  UNL d   1       5.917   5.213  -0.349  0.00  0.00    -0.004 A 
ENDROOT
TORSDOF 0
ENDMDL
