MODEL 1
REMARK minimizedAffinity 8.18796349
REMARK minimizedRMSD -1
REMARK  0 active torsions:
REMARK  status: ('A' for Active; 'I' for Inactive)
ROOT
ATOM      1  C   UNL d   1       0.540   3.009  -3.747  0.00  0.00     0.172 C 
ATOM      2  N   UNL d   1      -0.733   2.868  -4.415  0.00  0.00    -0.070 N 
ATOM      3  C1  UNL d   1      -0.941   2.965  -5.765  0.00  0.00    -0.004 A 
ATOM      4  C2  UNL d   1      -2.285   2.770  -6.000  0.00  0.00    -0.047 A 
ATOM      5  C3  UNL d   1      -2.906   2.548  -4.748  0.00  0.00    -0.047 A 
ATOM      6  C4  UNL d   1      -1.922   2.614  -3.784  0.00  0.00    -0.004 A 
ENDROOT
TORSDOF 0
ENDMDL
