MODEL 1
REMARK minimizedAffinity 8.24712944
REMARK minimizedRMSD -1
REMARK  0 active torsions:
REMARK  status: ('A' for Active; 'I' for Inactive)
ROOT
ATOM      1  C   UNL d   1       5.002   4.430  -0.580  0.00  0.00     0.172 C 
ATOM      2  N   UNL d   1       4.011   3.380  -0.544  0.00  0.00    -0.070 N 
ATOM      3  C1  UNL d   1       3.405   2.816  -1.635  0.00  0.00    -0.004 A 
ATOM      4  C2  UNL d   1       2.528   1.855  -1.181  0.00  0.00    -0.047 A 
ATOM      5  C3  UNL d   1       2.608   1.842   0.232  0.00  0.00    -0.047 A 
ATOM      6  C4  UNL d   1       3.534   2.796   0.600  0.00  0.00    -0.004 A 
ENDROOT
TORSDOF 0
ENDMDL
