MODEL 1
REMARK minimizedAffinity 2.43097281
REMARK minimizedRMSD -1
REMARK  0 active torsions:
REMARK  status: ('A' for Active; 'I' for Inactive)
ROOT
ATOM      1  C   UNL d   1      -3.841   5.993  -2.503  0.00  0.00     0.172 C 
ATOM      2  N   UNL d   1      -4.468   5.647  -1.249  0.00  0.00    -0.070 N 
ATOM      3  C1  UNL d   1      -3.891   4.922  -0.241  0.00  0.00    -0.004 A 
ATOM      4  C2  UNL d   1      -4.811   4.810   0.779  0.00  0.00    -0.047 A 
ATOM      5  C3  UNL d   1      -5.981   5.491   0.370  0.00  0.00    -0.047 A 
ATOM      6  C4  UNL d   1      -5.742   6.000  -0.889  0.00  0.00    -0.004 A 
ENDROOT
TORSDOF 0
ENDMDL
