MODEL 1
REMARK minimizedAffinity 6.59542036
REMARK minimizedRMSD -1
REMARK  0 active torsions:
REMARK  status: ('A' for Active; 'I' for Inactive)
ROOT
ATOM      1  C   UNL d   1      -4.125   2.909   1.102  0.00  0.00     0.172 C 
ATOM      2  N   UNL d   1      -4.660   4.146   0.583  0.00  0.00    -0.070 N 
ATOM      3  C1  UNL d   1      -4.100   4.904  -0.410  0.00  0.00    -0.004 A 
ATOM      4  C2  UNL d   1      -4.911   5.999  -0.613  0.00  0.00    -0.047 A 
ATOM      5  C3  UNL d   1      -5.997   5.896   0.289  0.00  0.00    -0.047 A 
ATOM      6  C4  UNL d   1      -5.816   4.739   1.018  0.00  0.00    -0.004 A 
ENDROOT
TORSDOF 0
ENDMDL
