MODEL 1
REMARK minimizedAffinity 0.491529554
REMARK minimizedRMSD -1
REMARK  0 active torsions:
REMARK  status: ('A' for Active; 'I' for Inactive)
ROOT
ATOM      1  C   UNL d   1      -4.030   5.591  -1.914  0.00  0.00     0.172 C 
ATOM      2  N   UNL d   1      -4.691   5.228  -0.682  0.00  0.00    -0.070 N 
ATOM      3  C1  UNL d   1      -5.597   6.000  -0.004  0.00  0.00    -0.004 A 
ATOM      4  C2  UNL d   1      -5.993   5.300   1.115  0.00  0.00    -0.047 A 
ATOM      5  C3  UNL d   1      -5.301   4.066   1.111  0.00  0.00    -0.047 A 
ATOM      6  C4  UNL d   1      -4.502   4.047  -0.013  0.00  0.00    -0.004 A 
ENDROOT
TORSDOF 0
ENDMDL
