MODEL 1
REMARK minimizedAffinity 10.8686304
REMARK minimizedRMSD -1
REMARK  0 active torsions:
REMARK  status: ('A' for Active; 'I' for Inactive)
ROOT
ATOM      1  C   UNL d   1      -3.122  -1.708  -0.080  0.00  0.00     0.172 C 
ATOM      2  N   UNL d   1      -2.610  -1.908  -1.415  0.00  0.00    -0.070 N 
ATOM      3  C1  UNL d   1      -3.007  -1.224  -2.533  0.00  0.00    -0.004 A 
ATOM      4  C2  UNL d   1      -2.283  -1.706  -3.602  0.00  0.00    -0.047 A 
ATOM      5  C3  UNL d   1      -1.423  -2.716  -3.110  0.00  0.00    -0.047 A 
ATOM      6  C4  UNL d   1      -1.646  -2.820  -1.753  0.00  0.00    -0.004 A 
ENDROOT
TORSDOF 0
ENDMDL
