MODEL 1
REMARK minimizedAffinity -0.720885575
REMARK minimizedRMSD -1
REMARK  0 active torsions:
REMARK  status: ('A' for Active; 'I' for Inactive)
ROOT
ATOM      1  C   UNL d   1      -5.913   5.502   2.127  0.00  0.00     0.172 C 
ATOM      2  N   UNL d   1      -5.270   5.594   0.838  0.00  0.00    -0.070 N 
ATOM      3  C1  UNL d   1      -3.959   5.294   0.576  0.00  0.00    -0.004 A 
ATOM      4  C2  UNL d   1      -3.737   5.510  -0.767  0.00  0.00    -0.047 A 
ATOM      5  C3  UNL d   1      -4.955   5.957  -1.331  0.00  0.00    -0.047 A 
ATOM      6  C4  UNL d   1      -5.887   6.000  -0.316  0.00  0.00    -0.004 A 
ENDROOT
TORSDOF 0
ENDMDL
