MODEL 1
REMARK minimizedAffinity 11.0542917
REMARK minimizedRMSD -1
REMARK  0 active torsions:
REMARK  status: ('A' for Active; 'I' for Inactive)
ROOT
ATOM      1  C   UNL d   1       2.723  -0.374  -2.023  0.00  0.00     0.172 C 
ATOM      2  N   UNL d   1       4.055  -0.386  -2.580  0.00  0.00    -0.070 N 
ATOM      3  C1  UNL d   1       4.779  -1.505  -2.892  0.00  0.00    -0.004 A 
ATOM      4  C2  UNL d   1       5.994  -1.095  -3.398  0.00  0.00    -0.047 A 
ATOM      5  C3  UNL d   1       6.000   0.320  -3.389  0.00  0.00    -0.047 A 
ATOM      6  C4  UNL d   1       4.787   0.733  -2.878  0.00  0.00    -0.004 A 
ENDROOT
TORSDOF 0
ENDMDL
