MODEL 1
REMARK minimizedAffinity 4.09898424
REMARK minimizedRMSD -1
REMARK  0 active torsions:
REMARK  status: ('A' for Active; 'I' for Inactive)
ROOT
ATOM      1  C   UNL d   1       4.616   5.981   0.287  0.00  0.00     0.172 C 
ATOM      2  N   UNL d   1       4.663   4.584  -0.078  0.00  0.00    -0.070 N 
ATOM      3  C1  UNL d   1       3.826   3.608   0.393  0.00  0.00    -0.004 A 
ATOM      4  C2  UNL d   1       4.196   2.417  -0.194  0.00  0.00    -0.047 A 
ATOM      5  C3  UNL d   1       5.294   2.687  -1.045  0.00  0.00    -0.047 A 
ATOM      6  C4  UNL d   1       5.562   4.036  -0.954  0.00  0.00    -0.004 A 
ENDROOT
TORSDOF 0
ENDMDL
