MODEL 1
REMARK minimizedAffinity 7.71946526
REMARK minimizedRMSD -1
REMARK  0 active torsions:
REMARK  status: ('A' for Active; 'I' for Inactive)
ROOT
ATOM      1  C   UNL d   1      -3.485  -0.741   0.351  0.00  0.00     0.172 C 
ATOM      2  N   UNL d   1      -2.503  -1.758   0.645  0.00  0.00    -0.070 N 
ATOM      3  C1  UNL d   1      -2.007  -2.054   1.886  0.00  0.00    -0.004 A 
ATOM      4  C2  UNL d   1      -1.097  -3.079   1.744  0.00  0.00    -0.047 A 
ATOM      5  C3  UNL d   1      -1.043  -3.409   0.369  0.00  0.00    -0.047 A 
ATOM      6  C4  UNL d   1      -1.923  -2.576  -0.289  0.00  0.00    -0.004 A 
ENDROOT
TORSDOF 0
ENDMDL
