MODEL 1
REMARK minimizedAffinity 3.66198468
REMARK minimizedRMSD -1
REMARK  0 active torsions:
REMARK  status: ('A' for Active; 'I' for Inactive)
ROOT
ATOM      1  C   UNL d   1      -0.279  -3.339   1.435  0.00  0.00     0.172 C 
ATOM      2  N   UNL d   1      -1.240  -2.414   0.881  0.00  0.00    -0.070 N 
ATOM      3  C1  UNL d   1      -2.309  -1.879   1.549  0.00  0.00    -0.004 A 
ATOM      4  C2  UNL d   1      -2.978  -1.048   0.676  0.00  0.00    -0.047 A 
ATOM      5  C3  UNL d   1      -2.287  -1.085  -0.558  0.00  0.00    -0.047 A 
ATOM      6  C4  UNL d   1      -1.215  -1.939  -0.403  0.00  0.00    -0.004 A 
ENDROOT
TORSDOF 0
ENDMDL
