MODEL 1
REMARK minimizedAffinity 10.7783852
REMARK minimizedRMSD -1
REMARK  0 active torsions:
REMARK  status: ('A' for Active; 'I' for Inactive)
ROOT
ATOM      1  C   UNL d   1      -1.837  -1.408  -2.444  0.00  0.00     0.172 C 
ATOM      2  N   UNL d   1      -2.046  -1.564  -1.024  0.00  0.00    -0.070 N 
ATOM      3  C1  UNL d   1      -2.995  -0.915  -0.280  0.00  0.00    -0.004 A 
ATOM      4  C2  UNL d   1      -2.869  -1.336   1.026  0.00  0.00    -0.047 A 
ATOM      5  C3  UNL d   1      -1.806  -2.269   1.069  0.00  0.00    -0.047 A 
ATOM      6  C4  UNL d   1      -1.314  -2.391  -0.213  0.00  0.00    -0.004 A 
ENDROOT
TORSDOF 0
ENDMDL
