MODEL 1
REMARK minimizedAffinity 5.72866678
REMARK minimizedRMSD -1
REMARK  0 active torsions:
REMARK  status: ('A' for Active; 'I' for Inactive)
ROOT
ATOM      1  C   UNL d   1       5.236   5.855  -0.454  0.00  0.00     0.172 C 
ATOM      2  N   UNL d   1       5.233   4.420  -0.295  0.00  0.00    -0.070 N 
ATOM      3  C1  UNL d   1       5.990   3.536  -1.016  0.00  0.00    -0.004 A 
ATOM      4  C2  UNL d   1       5.700   2.266  -0.565  0.00  0.00    -0.047 A 
ATOM      5  C3  UNL d   1       4.735   2.392   0.462  0.00  0.00    -0.047 A 
ATOM      6  C4  UNL d   1       4.463   3.736   0.608  0.00  0.00    -0.004 A 
ENDROOT
TORSDOF 0
ENDMDL
