MODEL 1
REMARK minimizedAffinity 3.9262085
REMARK minimizedRMSD -1
REMARK  0 active torsions:
REMARK  status: ('A' for Active; 'I' for Inactive)
ROOT
ATOM      1  C   UNL d   1      -2.624   1.330   5.691  0.00  0.00     0.172 C 
ATOM      2  N   UNL d   1      -2.579  -0.112   5.619  0.00  0.00    -0.070 N 
ATOM      3  C1  UNL d   1      -1.524  -0.856   5.163  0.00  0.00    -0.004 A 
ATOM      4  C2  UNL d   1      -1.874  -2.186   5.256  0.00  0.00    -0.047 A 
ATOM      5  C3  UNL d   1      -3.185  -2.243   5.784  0.00  0.00    -0.047 A 
ATOM      6  C4  UNL d   1      -3.598  -0.945   6.000  0.00  0.00    -0.004 A 
ENDROOT
TORSDOF 0
ENDMDL
