MODEL 1
REMARK minimizedAffinity 13.8459082
REMARK minimizedRMSD -1
REMARK  0 active torsions:
REMARK  status: ('A' for Active; 'I' for Inactive)
ROOT
ATOM      1  C   UNL d   1      -1.448  -5.477  -1.227  0.00  0.00     0.020 A 
ATOM      2  C1  UNL d   1      -2.205  -4.934  -2.264  0.00  0.00     0.020 A 
ATOM      3  C2  UNL d   1      -1.765  -3.783  -2.921  0.00  0.00     0.034 A 
ATOM      4  C3  UNL d   1      -0.565  -3.171  -2.541  0.00  0.00     0.017 A 
ATOM      5  C4  UNL d   1       0.194  -3.716  -1.500  0.00  0.00     0.017 A 
ATOM      6  C5  UNL d   1      -0.251  -4.869  -0.846  0.00  0.00     0.034 A 
ATOM      7 Cl   UNL d   1       1.685  -3.018  -0.975  0.00  0.00    -0.070 Cl
ATOM      8 Cl1  UNL d   1      -0.082  -1.750  -3.397  0.00  0.00    -0.070 Cl
ENDROOT
TORSDOF 0
ENDMDL
