MODEL 1
REMARK minimizedAffinity 11.0420256
REMARK minimizedRMSD -1
REMARK  0 active torsions:
REMARK  status: ('A' for Active; 'I' for Inactive)
ROOT
ATOM      1  C   UNL d   1      -4.961   5.841   5.999  0.00  0.00     0.020 A 
ATOM      2  C1  UNL d   1      -5.998   5.048   5.508  0.00  0.00     0.020 A 
ATOM      3  C2  UNL d   1      -5.842   4.365   4.300  0.00  0.00     0.034 A 
ATOM      4  C3  UNL d   1      -4.647   4.473   3.579  0.00  0.00     0.017 A 
ATOM      5  C4  UNL d   1      -3.608   5.269   4.072  0.00  0.00     0.017 A 
ATOM      6  C5  UNL d   1      -3.769   5.951   5.282  0.00  0.00     0.034 A 
ATOM      7 Cl   UNL d   1      -2.104   5.452   3.239  0.00  0.00    -0.070 Cl
ATOM      8 Cl1  UNL d   1      -4.524   3.600   2.093  0.00  0.00    -0.070 Cl
ENDROOT
TORSDOF 0
ENDMDL
