MODEL 1
REMARK minimizedAffinity 1.29920328
REMARK minimizedRMSD -1
REMARK  0 active torsions:
REMARK  status: ('A' for Active; 'I' for Inactive)
ROOT
ATOM      1  C   UNL d   1      -0.907  -2.893  -1.480  0.00  0.00     0.020 A 
ATOM      2  C1  UNL d   1       0.282  -2.976  -0.756  0.00  0.00     0.020 A 
ATOM      3  C2  UNL d   1       0.968  -1.812  -0.403  0.00  0.00     0.034 A 
ATOM      4  C3  UNL d   1       0.465  -0.559  -0.773  0.00  0.00     0.017 A 
ATOM      5  C4  UNL d   1      -0.729  -0.477  -1.499  0.00  0.00     0.017 A 
ATOM      6  C5  UNL d   1      -1.412  -1.645  -1.850  0.00  0.00     0.034 A 
ATOM      7 Cl   UNL d   1      -1.412   1.033  -1.991  0.00  0.00    -0.070 Cl
ATOM      8 Cl1  UNL d   1       1.364   0.839  -0.302  0.00  0.00    -0.070 Cl
ENDROOT
TORSDOF 0
ENDMDL
