MODEL 1
REMARK minimizedAffinity 2.37064314
REMARK minimizedRMSD -1
REMARK  0 active torsions:
REMARK  status: ('A' for Active; 'I' for Inactive)
ROOT
ATOM      1  C   UNL d   1       3.022  -2.528  -2.353  0.00  0.00     0.020 A 
ATOM      2  C1  UNL d   1       4.009  -1.684  -2.860  0.00  0.00     0.020 A 
ATOM      3  C2  UNL d   1       4.177  -0.405  -2.325  0.00  0.00     0.034 A 
ATOM      4  C3  UNL d   1       3.356   0.034  -1.280  0.00  0.00     0.017 A 
ATOM      5  C4  UNL d   1       2.365  -0.814  -0.772  0.00  0.00     0.017 A 
ATOM      6  C5  UNL d   1       2.201  -2.093  -1.311  0.00  0.00     0.034 A 
ATOM      7 Cl   UNL d   1       1.314  -0.342   0.517  0.00  0.00    -0.070 Cl
ATOM      8 Cl1  UNL d   1       3.620   1.628  -0.667  0.00  0.00    -0.070 Cl
ENDROOT
TORSDOF 0
ENDMDL
