MODEL 1
REMARK minimizedAffinity 2.67672086
REMARK minimizedRMSD -1
REMARK  0 active torsions:
REMARK  status: ('A' for Active; 'I' for Inactive)
ROOT
ATOM      1  C   UNL d   1       3.321   1.018  -0.942  0.00  0.00     0.020 A 
ATOM      2  C1  UNL d   1       2.177   1.336  -0.212  0.00  0.00     0.020 A 
ATOM      3  C2  UNL d   1       1.155   0.395  -0.070  0.00  0.00     0.034 A 
ATOM      4  C3  UNL d   1       1.275  -0.868  -0.660  0.00  0.00     0.017 A 
ATOM      5  C4  UNL d   1       2.423  -1.187  -1.393  0.00  0.00     0.017 A 
ATOM      6  C5  UNL d   1       3.444  -0.241  -1.532  0.00  0.00     0.034 A 
ATOM      7 Cl   UNL d   1       2.643  -2.725  -2.150  0.00  0.00    -0.070 Cl
ATOM      8 Cl1  UNL d   1      -0.028  -1.983  -0.444  0.00  0.00    -0.070 Cl
ENDROOT
TORSDOF 0
ENDMDL
