MODEL 1
REMARK minimizedAffinity 13.3214817
REMARK minimizedRMSD -1
REMARK  0 active torsions:
REMARK  status: ('A' for Active; 'I' for Inactive)
ROOT
ATOM      1  C   UNL d   1      -1.521   0.570  -1.610  0.00  0.00     0.020 A 
ATOM      2  C1  UNL d   1      -2.429  -0.255  -2.272  0.00  0.00     0.020 A 
ATOM      3  C2  UNL d   1      -3.785  -0.205  -1.944  0.00  0.00     0.034 A 
ATOM      4  C3  UNL d   1      -4.237   0.672  -0.951  0.00  0.00     0.017 A 
ATOM      5  C4  UNL d   1      -3.325   1.500  -0.287  0.00  0.00     0.017 A 
ATOM      6  C5  UNL d   1      -1.968   1.446  -0.620  0.00  0.00     0.034 A 
ATOM      7 Cl   UNL d   1      -3.807   2.608   0.949  0.00  0.00    -0.070 Cl
ATOM      8 Cl1  UNL d   1      -5.929   0.682  -0.597  0.00  0.00    -0.070 Cl
ENDROOT
TORSDOF 0
ENDMDL
