MODEL 1
REMARK minimizedAffinity 12.2406521
REMARK minimizedRMSD -1
REMARK  0 active torsions:
REMARK  status: ('A' for Active; 'I' for Inactive)
ROOT
ATOM      1  C   UNL d   1       3.349   0.834  -2.026  0.00  0.00     0.020 A 
ATOM      2  C1  UNL d   1       3.943   2.055  -1.708  0.00  0.00     0.020 A 
ATOM      3  C2  UNL d   1       3.963   2.498  -0.384  0.00  0.00     0.034 A 
ATOM      4  C3  UNL d   1       3.388   1.720   0.627  0.00  0.00     0.017 A 
ATOM      5  C4  UNL d   1       2.793   0.495   0.307  0.00  0.00     0.017 A 
ATOM      6  C5  UNL d   1       2.776   0.056  -1.020  0.00  0.00     0.034 A 
ATOM      7 Cl   UNL d   1       2.064  -0.521   1.501  0.00  0.00    -0.070 Cl
ATOM      8 Cl1  UNL d   1       3.450   2.330   2.243  0.00  0.00    -0.070 Cl
ENDROOT
TORSDOF 0
ENDMDL
