MODEL 1
REMARK minimizedAffinity 13.7952814
REMARK minimizedRMSD -1
REMARK  0 active torsions:
REMARK  status: ('A' for Active; 'I' for Inactive)
ROOT
ATOM      1  C   UNL d   1       2.213  -2.650  -1.389  0.00  0.00     0.020 A 
ATOM      2  C1  UNL d   1       2.708  -3.195  -0.205  0.00  0.00     0.020 A 
ATOM      3  C2  UNL d   1       3.525  -2.429   0.628  0.00  0.00     0.034 A 
ATOM      4  C3  UNL d   1       3.850  -1.113   0.278  0.00  0.00     0.017 A 
ATOM      5  C4  UNL d   1       3.352  -0.567  -0.910  0.00  0.00     0.017 A 
ATOM      6  C5  UNL d   1       2.534  -1.339  -1.741  0.00  0.00     0.034 A 
ATOM      7 Cl   UNL d   1       3.708   1.050  -1.409  0.00  0.00    -0.070 Cl
ATOM      8 Cl1  UNL d   1       4.865  -0.222   1.356  0.00  0.00    -0.070 Cl
ENDROOT
TORSDOF 0
ENDMDL
