MODEL 1
REMARK minimizedAffinity 10.2259731
REMARK minimizedRMSD -1
REMARK  0 active torsions:
REMARK  status: ('A' for Active; 'I' for Inactive)
ROOT
ATOM      1  C   UNL d   1      -2.329  -0.372  -3.000  0.00  0.00     0.020 A 
ATOM      2  C1  UNL d   1      -1.257  -0.091  -2.154  0.00  0.00     0.020 A 
ATOM      3  C2  UNL d   1      -1.493   0.371  -0.857  0.00  0.00     0.034 A 
ATOM      4  C3  UNL d   1      -2.804   0.553  -0.403  0.00  0.00     0.017 A 
ATOM      5  C4  UNL d   1      -3.880   0.270  -1.253  0.00  0.00     0.017 A 
ATOM      6  C5  UNL d   1      -3.638  -0.193  -2.550  0.00  0.00     0.034 A 
ATOM      7 Cl   UNL d   1      -5.525   0.469  -0.763  0.00  0.00    -0.070 Cl
ATOM      8 Cl1  UNL d   1      -3.023   1.127   1.212  0.00  0.00    -0.070 Cl
ENDROOT
TORSDOF 0
ENDMDL
