MODEL 1
REMARK minimizedAffinity -3.37190056
REMARK minimizedRMSD -1
REMARK  3 active torsions:
REMARK  status: ('A' for Active; 'I' for Inactive)
REMARK    1  A    between atoms: C3'_2  and  C2'_3 
REMARK    2  A    between atoms: C2'_3  and  C1'_4 
REMARK    3  A    between atoms: C1'_4  and  C1_5 
ROOT
ATOM      1  C1  N4B d   1       0.480  -0.407  -3.424  0.00  0.00    -0.075 A 
ATOM      2  C2  N4B d   1      -0.302  -1.558  -3.667  0.00  0.00     0.002 A 
ATOM      3  C3  N4B d   1      -0.950  -1.705  -4.869  0.00  0.00     0.002 A 
ATOM      4  C4  N4B d   1      -0.847  -0.711  -5.831  0.00  0.00    -0.004 A 
ATOM      5  C5  N4B d   1      -0.069   0.385  -5.597  0.00  0.00     0.002 A 
ATOM      6  C6  N4B d   1       0.591   0.545  -4.396  0.00  0.00     0.002 A 
ENDROOT
BRANCH   1   7
ATOM      7  C1' N4B d   1       1.138  -0.161  -2.094  0.00  0.00     0.057 C 
BRANCH   7   8
ATOM      8  C2' N4B d   1       0.369  -0.909  -1.009  0.00  0.00     0.009 C 
BRANCH   8   9
ATOM      9  C3' N4B d   1       0.272  -0.105   0.276  0.00  0.00     0.004 C 
ATOM     10  C4' N4B d   1      -1.137   0.281   0.615  0.00  0.00     0.003 C 
ENDBRANCH   8   9
ENDBRANCH   7   8
ENDBRANCH   1   7
TORSDOF 3
ENDMDL
