MODEL 1
REMARK minimizedAffinity -3.93703079
REMARK minimizedRMSD -1
REMARK  3 active torsions:
REMARK  status: ('A' for Active; 'I' for Inactive)
REMARK    1  A    between atoms: C3'_2  and  C2'_3 
REMARK    2  A    between atoms: C2'_3  and  C1'_4 
REMARK    3  A    between atoms: C1'_4  and  C1_5 
ROOT
ATOM      1  C1  N4B d   1      -0.012  -0.177  -0.488  0.00  0.00    -0.075 A 
ATOM      2  C2  N4B d   1      -1.396  -0.397  -0.309  0.00  0.00     0.002 A 
ATOM      3  C3  N4B d   1      -2.021   0.056   0.827  0.00  0.00     0.002 A 
ATOM      4  C4  N4B d   1      -1.284   0.713   1.800  0.00  0.00    -0.004 A 
ATOM      5  C5  N4B d   1       0.047   0.944   1.608  0.00  0.00     0.002 A 
ATOM      6  C6  N4B d   1       0.688   0.497   0.470  0.00  0.00     0.002 A 
ENDROOT
BRANCH   1   7
ATOM      7  C1' N4B d   1       0.733  -0.729  -1.673  0.00  0.00     0.057 C 
BRANCH   7   8
ATOM      8  C2' N4B d   1       1.427   0.415  -2.405  0.00  0.00     0.009 C 
BRANCH   8   9
ATOM      9  C3' N4B d   1       1.496   0.172  -3.903  0.00  0.00     0.004 C 
ATOM     10  C4' N4B d   1       0.534   1.025  -4.674  0.00  0.00     0.003 C 
ENDBRANCH   8   9
ENDBRANCH   7   8
ENDBRANCH   1   7
TORSDOF 3
ENDMDL
