MODEL 1
REMARK minimizedAffinity -4.85868073
REMARK minimizedRMSD -1
REMARK  3 active torsions:
REMARK  status: ('A' for Active; 'I' for Inactive)
REMARK    1  A    between atoms: C3'_2  and  C2'_3 
REMARK    2  A    between atoms: C2'_3  and  C1'_4 
REMARK    3  A    between atoms: C1'_4  and  C1_5 
ROOT
ATOM      1  C1  N4B d   1       0.290  -0.303   0.167  0.00  0.00    -0.075 A 
ATOM      2  C2  N4B d   1      -1.096  -0.043   0.243  0.00  0.00     0.002 A 
ATOM      3  C3  N4B d   1      -1.603   0.673   1.300  0.00  0.00     0.002 A 
ATOM      4  C4  N4B d   1      -0.750   1.121   2.297  0.00  0.00    -0.004 A 
ATOM      5  C5  N4B d   1       0.591   0.886   2.203  0.00  0.00     0.002 A 
ATOM      6  C6  N4B d   1       1.115   0.172   1.145  0.00  0.00     0.002 A 
ENDROOT
BRANCH   1   7
ATOM      7  C1' N4B d   1       0.879  -1.155  -0.925  0.00  0.00     0.057 C 
BRANCH   7   8
ATOM      8  C2' N4B d   1       0.376  -0.655  -2.276  0.00  0.00     0.009 C 
BRANCH   8   9
ATOM      9  C3' N4B d   1       1.316   0.370  -2.888  0.00  0.00     0.004 C 
ATOM     10  C4' N4B d   1       1.149   0.498  -4.372  0.00  0.00     0.003 C 
ENDBRANCH   8   9
ENDBRANCH   7   8
ENDBRANCH   1   7
TORSDOF 3
ENDMDL
