MODEL 1
REMARK minimizedAffinity 0.671779931
REMARK minimizedRMSD -1
REMARK  3 active torsions:
REMARK  status: ('A' for Active; 'I' for Inactive)
REMARK    1  A    between atoms: C3'_2  and  C2'_3 
REMARK    2  A    between atoms: C2'_3  and  C1'_4 
REMARK    3  A    between atoms: C1'_4  and  C1_5 
ROOT
ATOM      1  C1  N4B d   1      -0.171  -0.293  -0.463  0.00  0.00    -0.075 A 
ATOM      2  C2  N4B d   1       0.997  -0.439   0.318  0.00  0.00     0.002 A 
ATOM      3  C3  N4B d   1       0.961  -0.167   1.664  0.00  0.00     0.002 A 
ATOM      4  C4  N4B d   1      -0.220   0.270   2.244  0.00  0.00    -0.004 A 
ATOM      5  C5  N4B d   1      -1.350   0.384   1.488  0.00  0.00     0.002 A 
ATOM      6  C6  N4B d   1      -1.330   0.110   0.135  0.00  0.00     0.002 A 
ENDROOT
BRANCH   1   7
ATOM      7  C1' N4B d   1      -0.160  -0.497  -1.953  0.00  0.00     0.057 C 
BRANCH   7   8
ATOM      8  C2' N4B d   1       0.809   0.497  -2.587  0.00  0.00     0.009 C 
BRANCH   8   9
ATOM      9  C3' N4B d   1       0.648   0.564  -4.096  0.00  0.00     0.004 C 
ATOM     10  C4' N4B d   1       1.936   0.856  -4.806  0.00  0.00     0.003 C 
ENDBRANCH   8   9
ENDBRANCH   7   8
ENDBRANCH   1   7
TORSDOF 3
ENDMDL
