MODEL 1
REMARK minimizedAffinity 3.74772978
REMARK minimizedRMSD -1
REMARK  0 active torsions:
REMARK  status: ('A' for Active; 'I' for Inactive)
ROOT
ATOM      1  C   UNL d   1      -0.995  -3.491  -1.868  0.00  0.00     0.124 A 
ATOM      2  C1  UNL d   1      -0.233  -2.669  -2.687  0.00  0.00     0.062 A 
ATOM      3  C2  UNL d   1       0.555  -1.665  -2.132  0.00  0.00     0.162 A 
ATOM      4  C3  UNL d   1       0.587  -1.478  -0.750  0.00  0.00    -0.034 A 
ATOM      5  C4  UNL d   1      -0.183  -2.308   0.067  0.00  0.00     0.162 A 
ATOM      6  C5  UNL d   1      -0.970  -3.310  -0.493  0.00  0.00     0.062 A 
ATOM      7  F   UNL d   1      -1.705  -4.103   0.300  0.00  0.00    -0.097 F 
ATOM      8  F1  UNL d   1      -0.176  -2.156   1.399  0.00  0.00    -0.096 F 
ATOM      9  I   UNL d   1       1.765   0.022   0.083  0.00  0.00    -0.060 I 
ATOM     10  F2  UNL d   1       1.282  -0.886  -2.947  0.00  0.00    -0.096 F 
ATOM     11  F3  UNL d   1      -0.257  -2.841  -4.017  0.00  0.00    -0.097 F 
ATOM     12  F4  UNL d   1      -1.754  -4.455  -2.405  0.00  0.00    -0.092 F 
ENDROOT
TORSDOF 0
ENDMDL
