MODEL 1
REMARK minimizedAffinity -1.9380579
REMARK minimizedRMSD -1
REMARK  0 active torsions:
REMARK  status: ('A' for Active; 'I' for Inactive)
ROOT
ATOM      1  C   UNL d   1       0.756   2.344   0.191  0.00  0.00     0.124 A 
ATOM      2  C1  UNL d   1       1.615   1.314  -0.163  0.00  0.00     0.062 A 
ATOM      3  C2  UNL d   1       1.141   0.009  -0.262  0.00  0.00     0.162 A 
ATOM      4  C3  UNL d   1      -0.202  -0.273  -0.008  0.00  0.00    -0.034 A 
ATOM      5  C4  UNL d   1      -1.060   0.769   0.348  0.00  0.00     0.162 A 
ATOM      6  C5  UNL d   1      -0.581   2.071   0.446  0.00  0.00     0.062 A 
ATOM      7  F   UNL d   1      -1.413   3.066   0.788  0.00  0.00    -0.097 F 
ATOM      8  F1  UNL d   1      -2.356   0.533   0.599  0.00  0.00    -0.096 F 
ATOM      9  I   UNL d   1      -0.915  -2.222  -0.155  0.00  0.00    -0.060 I 
ATOM     10  F2  UNL d   1       1.994  -0.967  -0.605  0.00  0.00    -0.096 F 
ATOM     11  F3  UNL d   1       2.907   1.575  -0.409  0.00  0.00    -0.097 F 
ATOM     12  F4  UNL d   1       1.215   3.599   0.286  0.00  0.00    -0.092 F 
ENDROOT
TORSDOF 0
ENDMDL
