MODEL 1
REMARK minimizedAffinity -2.83164024
REMARK minimizedRMSD -1
REMARK  0 active torsions:
REMARK  status: ('A' for Active; 'I' for Inactive)
ROOT
ATOM      1  C   UNL d   1       1.826   1.477   0.012  0.00  0.00     0.124 A 
ATOM      2  C1  UNL d   1       0.774   2.381   0.033  0.00  0.00     0.062 A 
ATOM      3  C2  UNL d   1      -0.492   1.973   0.443  0.00  0.00     0.162 A 
ATOM      4  C3  UNL d   1      -0.713   0.653   0.838  0.00  0.00    -0.034 A 
ATOM      5  C4  UNL d   1       0.351  -0.251   0.813  0.00  0.00     0.162 A 
ATOM      6  C5  UNL d   1       1.614   0.162   0.402  0.00  0.00     0.062 A 
ATOM      7  F   UNL d   1       2.630  -0.713   0.383  0.00  0.00    -0.097 F 
ATOM      8  F1  UNL d   1       0.174  -1.527   1.186  0.00  0.00    -0.096 F 
ATOM      9  I   UNL d   1      -2.604   0.039   1.452  0.00  0.00    -0.060 I 
ATOM     10  F2  UNL d   1      -1.491   2.869   0.453  0.00  0.00    -0.096 F 
ATOM     11  F3  UNL d   1       0.976   3.652  -0.344  0.00  0.00    -0.097 F 
ATOM     12  F4  UNL d   1       3.043   1.872  -0.384  0.00  0.00    -0.092 F 
ENDROOT
TORSDOF 0
ENDMDL
