MODEL 1
REMARK minimizedAffinity -2.06887364
REMARK minimizedRMSD -1
REMARK  0 active torsions:
REMARK  status: ('A' for Active; 'I' for Inactive)
ROOT
ATOM      1  C   UNL d   1       0.186  -2.129  -0.674  0.00  0.00     0.124 A 
ATOM      2  C1  UNL d   1      -0.734  -1.378  -1.394  0.00  0.00     0.062 A 
ATOM      3  C2  UNL d   1      -0.764   0.007  -1.261  0.00  0.00     0.162 A 
ATOM      4  C3  UNL d   1       0.130   0.652  -0.406  0.00  0.00    -0.034 A 
ATOM      5  C4  UNL d   1       1.051  -0.110   0.315  0.00  0.00     0.162 A 
ATOM      6  C5  UNL d   1       1.077  -1.494   0.179  0.00  0.00     0.062 A 
ATOM      7  F   UNL d   1       1.966  -2.218   0.875  0.00  0.00    -0.097 F 
ATOM      8  F1  UNL d   1       1.925   0.477   1.146  0.00  0.00    -0.096 F 
ATOM      9  I   UNL d   1       0.089   2.723  -0.205  0.00  0.00    -0.060 I 
ATOM     10  F2  UNL d   1      -1.663   0.707  -1.969  0.00  0.00    -0.096 F 
ATOM     11  F3  UNL d   1      -1.597  -1.989  -2.218  0.00  0.00    -0.097 F 
ATOM     12  F4  UNL d   1       0.211  -3.461  -0.803  0.00  0.00    -0.092 F 
ENDROOT
TORSDOF 0
ENDMDL
