MODEL 1
REMARK minimizedAffinity 1.31361413
REMARK minimizedRMSD -1
REMARK  0 active torsions:
REMARK  status: ('A' for Active; 'I' for Inactive)
ROOT
ATOM      1  C   UNL d   1       1.191  -1.100   0.389  0.00  0.00     0.124 A 
ATOM      2  C1  UNL d   1      -0.137  -0.716   0.263  0.00  0.00     0.062 A 
ATOM      3  C2  UNL d   1      -0.498   0.618   0.427  0.00  0.00     0.162 A 
ATOM      4  C3  UNL d   1       0.470   1.578   0.720  0.00  0.00    -0.034 A 
ATOM      5  C4  UNL d   1       1.803   1.184   0.847  0.00  0.00     0.162 A 
ATOM      6  C5  UNL d   1       2.159  -0.151   0.681  0.00  0.00     0.062 A 
ATOM      7  F   UNL d   1       3.442  -0.520   0.804  0.00  0.00    -0.097 F 
ATOM      8  F1  UNL d   1       2.760   2.081   1.127  0.00  0.00    -0.096 F 
ATOM      9  I   UNL d   1      -0.066   3.574   0.967  0.00  0.00    -0.060 I 
ATOM     10  F2  UNL d   1      -1.789   0.961   0.299  0.00  0.00    -0.096 F 
ATOM     11  F3  UNL d   1      -1.075  -1.632  -0.018  0.00  0.00    -0.097 F 
ATOM     12  F4  UNL d   1       1.535  -2.385   0.231  0.00  0.00    -0.092 F 
ENDROOT
TORSDOF 0
ENDMDL
