MODEL 1
REMARK minimizedAffinity 4.00803375
REMARK minimizedRMSD -1
REMARK  0 active torsions:
REMARK  status: ('A' for Active; 'I' for Inactive)
ROOT
ATOM      1  C   UNL d   1       0.740   2.642   0.504  0.00  0.00     0.124 A 
ATOM      2  C1  UNL d   1       1.644   1.837  -0.176  0.00  0.00     0.062 A 
ATOM      3  C2  UNL d   1       1.322   0.516  -0.470  0.00  0.00     0.162 A 
ATOM      4  C3  UNL d   1       0.088  -0.010  -0.085  0.00  0.00    -0.034 A 
ATOM      5  C4  UNL d   1      -0.815   0.805   0.600  0.00  0.00     0.162 A 
ATOM      6  C5  UNL d   1      -0.488   2.125   0.891  0.00  0.00     0.062 A 
ATOM      7  F   UNL d   1      -1.363   2.901   1.549  0.00  0.00    -0.097 F 
ATOM      8  F1  UNL d   1      -2.010   0.331   0.985  0.00  0.00    -0.096 F 
ATOM      9  I   UNL d   1      -0.398  -1.986  -0.523  0.00  0.00    -0.060 I 
ATOM     10  F2  UNL d   1       2.214  -0.239  -1.128  0.00  0.00    -0.096 F 
ATOM     11  F3  UNL d   1       2.832   2.334  -0.550  0.00  0.00    -0.097 F 
ATOM     12  F4  UNL d   1       1.054   3.913   0.787  0.00  0.00    -0.092 F 
ENDROOT
TORSDOF 0
ENDMDL
