MODEL 1
REMARK minimizedAffinity -1.20782542
REMARK minimizedRMSD -1
REMARK  0 active torsions:
REMARK  status: ('A' for Active; 'I' for Inactive)
ROOT
ATOM      1  C   UNL d   1       0.775  -1.426   0.679  0.00  0.00     0.124 A 
ATOM      2  C1  UNL d   1       1.914  -0.653   0.856  0.00  0.00     0.062 A 
ATOM      3  C2  UNL d   1       1.843   0.733   0.750  0.00  0.00     0.162 A 
ATOM      4  C3  UNL d   1       0.627   1.356   0.466  0.00  0.00    -0.034 A 
ATOM      5  C4  UNL d   1      -0.514   0.571   0.289  0.00  0.00     0.162 A 
ATOM      6  C5  UNL d   1      -0.437  -0.814   0.396  0.00  0.00     0.062 A 
ATOM      7  F   UNL d   1      -1.539  -1.559   0.225  0.00  0.00    -0.097 F 
ATOM      8  F1  UNL d   1      -1.699   1.137   0.015  0.00  0.00    -0.096 F 
ATOM      9  I   UNL d   1       0.516   3.428   0.307  0.00  0.00    -0.060 I 
ATOM     10  F2  UNL d   1       2.960   1.455   0.925  0.00  0.00    -0.096 F 
ATOM     11  F3  UNL d   1       3.087  -1.242   1.128  0.00  0.00    -0.097 F 
ATOM     12  F4  UNL d   1       0.847  -2.760   0.781  0.00  0.00    -0.092 F 
ENDROOT
TORSDOF 0
ENDMDL
