MODEL 1
REMARK minimizedAffinity 3.60878611
REMARK minimizedRMSD -1
REMARK  0 active torsions:
REMARK  status: ('A' for Active; 'I' for Inactive)
ROOT
ATOM      1  C   UNL d   1      -0.357  -1.132   0.323  0.00  0.00     0.124 A 
ATOM      2  C1  UNL d   1       0.917  -0.742  -0.066  0.00  0.00     0.062 A 
ATOM      3  C2  UNL d   1       1.283   0.600  -0.018  0.00  0.00     0.162 A 
ATOM      4  C3  UNL d   1       0.374   1.562   0.422  0.00  0.00    -0.034 A 
ATOM      5  C4  UNL d   1      -0.906   1.162   0.810  0.00  0.00     0.162 A 
ATOM      6  C5  UNL d   1      -1.267  -0.181   0.761  0.00  0.00     0.062 A 
ATOM      7  F   UNL d   1      -2.498  -0.556   1.137  0.00  0.00    -0.097 F 
ATOM      8  F1  UNL d   1      -1.805   2.061   1.238  0.00  0.00    -0.096 F 
ATOM      9  I   UNL d   1       0.917   3.570   0.495  0.00  0.00    -0.060 I 
ATOM     10  F2  UNL d   1       2.521   0.949  -0.399  0.00  0.00    -0.096 F 
ATOM     11  F3  UNL d   1       1.798  -1.660  -0.490  0.00  0.00    -0.097 F 
ATOM     12  F4  UNL d   1      -0.706  -2.424   0.275  0.00  0.00    -0.092 F 
ENDROOT
TORSDOF 0
ENDMDL
