MODEL 1
REMARK minimizedAffinity -3.07124233
REMARK minimizedRMSD -1
REMARK  0 active torsions:
REMARK  status: ('A' for Active; 'I' for Inactive)
ROOT
ATOM      1  C   UNL d   1       2.227   1.999   0.404  0.00  0.00     0.124 A 
ATOM      2  C1  UNL d   1       1.128   2.839   0.513  0.00  0.00     0.062 A 
ATOM      3  C2  UNL d   1      -0.115   2.324   0.869  0.00  0.00     0.162 A 
ATOM      4  C3  UNL d   1      -0.266   0.960   1.120  0.00  0.00    -0.034 A 
ATOM      5  C4  UNL d   1       0.844   0.121   1.007  0.00  0.00     0.162 A 
ATOM      6  C5  UNL d   1       2.084   0.640   0.651  0.00  0.00     0.062 A 
ATOM      7  F   UNL d   1       3.144  -0.173   0.546  0.00  0.00    -0.097 F 
ATOM      8  F1  UNL d   1       0.734  -1.195   1.241  0.00  0.00    -0.096 F 
ATOM      9  I   UNL d   1      -2.123   0.186   1.653  0.00  0.00    -0.060 I 
ATOM     10  F2  UNL d   1      -1.159   3.160   0.967  0.00  0.00    -0.096 F 
ATOM     11  F3  UNL d   1       1.264   4.152   0.274  0.00  0.00    -0.097 F 
ATOM     12  F4  UNL d   1       3.422   2.497   0.061  0.00  0.00    -0.092 F 
ENDROOT
TORSDOF 0
ENDMDL
