MODEL 1
REMARK minimizedAffinity -4.62523031
REMARK minimizedRMSD -1
REMARK  0 active torsions:
REMARK  status: ('A' for Active; 'I' for Inactive)
ROOT
ATOM      1  C   UNL d   1       1.505   2.643   0.493  0.00  0.00     0.124 A 
ATOM      2  C1  UNL d   1       0.247   2.505  -0.079  0.00  0.00     0.062 A 
ATOM      3  C2  UNL d   1      -0.317   1.242  -0.231  0.00  0.00     0.162 A 
ATOM      4  C3  UNL d   1       0.375   0.106   0.189  0.00  0.00    -0.034 A 
ATOM      5  C4  UNL d   1       1.640   0.253   0.762  0.00  0.00     0.162 A 
ATOM      6  C5  UNL d   1       2.200   1.518   0.912  0.00  0.00     0.062 A 
ATOM      7  F   UNL d   1       3.414   1.649   1.464  0.00  0.00    -0.097 F 
ATOM      8  F1  UNL d   1       2.333  -0.818   1.177  0.00  0.00    -0.096 F 
ATOM      9  I   UNL d   1      -0.466  -1.784  -0.037  0.00  0.00    -0.060 I 
ATOM     10  F2  UNL d   1      -1.534   1.138  -0.786  0.00  0.00    -0.096 F 
ATOM     11  F3  UNL d   1      -0.425   3.591  -0.486  0.00  0.00    -0.097 F 
ATOM     12  F4  UNL d   1       2.046   3.860   0.637  0.00  0.00    -0.092 F 
ENDROOT
TORSDOF 0
ENDMDL
