MODEL 1
REMARK minimizedAffinity -1.10869217
REMARK minimizedRMSD -1
REMARK  0 active torsions:
REMARK  status: ('A' for Active; 'I' for Inactive)
ROOT
ATOM      1  C   UNL d   1       1.887   1.340  -0.316  0.00  0.00     0.124 A 
ATOM      2  C1  UNL d   1       1.396   0.092   0.042  0.00  0.00     0.062 A 
ATOM      3  C2  UNL d   1       0.056  -0.061   0.385  0.00  0.00     0.162 A 
ATOM      4  C3  UNL d   1      -0.804   1.038   0.371  0.00  0.00    -0.034 A 
ATOM      5  C4  UNL d   1      -0.302   2.290   0.011  0.00  0.00     0.162 A 
ATOM      6  C5  UNL d   1       1.038   2.438  -0.331  0.00  0.00     0.062 A 
ATOM      7  F   UNL d   1       1.510   3.644  -0.677  0.00  0.00    -0.097 F 
ATOM      8  F1  UNL d   1      -1.101   3.367  -0.013  0.00  0.00    -0.096 F 
ATOM      9  I   UNL d   1      -2.808   0.813   0.884  0.00  0.00    -0.060 I 
ATOM     10  F2  UNL d   1      -0.391  -1.278   0.726  0.00  0.00    -0.096 F 
ATOM     11  F3  UNL d   1       2.215  -0.969   0.058  0.00  0.00    -0.097 F 
ATOM     12  F4  UNL d   1       3.177   1.485  -0.645  0.00  0.00    -0.092 F 
ENDROOT
TORSDOF 0
ENDMDL
