MODEL 1
REMARK minimizedAffinity -3.19585204
REMARK minimizedRMSD -1
REMARK  0 active torsions:
REMARK  status: ('A' for Active; 'I' for Inactive)
ROOT
ATOM      1  C   UNL d   1       0.450   2.771   0.182  0.00  0.00     0.124 A 
ATOM      2  C1  UNL d   1       1.520   1.911  -0.025  0.00  0.00     0.062 A 
ATOM      3  C2  UNL d   1       1.321   0.533  -0.024  0.00  0.00     0.162 A 
ATOM      4  C3  UNL d   1       0.047   0.006   0.184  0.00  0.00    -0.034 A 
ATOM      5  C4  UNL d   1      -1.024   0.877   0.393  0.00  0.00     0.162 A 
ATOM      6  C5  UNL d   1      -0.820   2.253   0.391  0.00  0.00     0.062 A 
ATOM      7  F   UNL d   1      -1.855   3.082   0.591  0.00  0.00    -0.097 F 
ATOM      8  F1  UNL d   1      -2.263   0.404   0.596  0.00  0.00    -0.096 F 
ATOM      9  I   UNL d   1      -0.254  -2.053   0.186  0.00  0.00    -0.060 I 
ATOM     10  F2  UNL d   1       2.373  -0.274  -0.227  0.00  0.00    -0.096 F 
ATOM     11  F3  UNL d   1       2.749   2.409  -0.226  0.00  0.00    -0.097 F 
ATOM     12  F4  UNL d   1       0.644   4.096   0.182  0.00  0.00    -0.092 F 
ENDROOT
TORSDOF 0
ENDMDL
