MODEL 1
REMARK minimizedAffinity 0.289696097
REMARK minimizedRMSD -1
REMARK  0 active torsions:
REMARK  status: ('A' for Active; 'I' for Inactive)
ROOT
ATOM      1  C   UNL d   1      -1.108   2.094   0.695  0.00  0.00     0.124 A 
ATOM      2  C1  UNL d   1      -1.772   0.922   1.030  0.00  0.00     0.062 A 
ATOM      3  C2  UNL d   1      -1.278  -0.308   0.607  0.00  0.00     0.162 A 
ATOM      4  C3  UNL d   1      -0.111  -0.374  -0.155  0.00  0.00    -0.034 A 
ATOM      5  C4  UNL d   1       0.550   0.809  -0.489  0.00  0.00     0.162 A 
ATOM      6  C5  UNL d   1       0.052   2.036  -0.065  0.00  0.00     0.062 A 
ATOM      7  F   UNL d   1       0.695   3.167  -0.390  0.00  0.00    -0.097 F 
ATOM      8  F1  UNL d   1       1.674   0.782  -1.221  0.00  0.00    -0.096 F 
ATOM      9  I   UNL d   1       0.631  -2.212  -0.789  0.00  0.00    -0.060 I 
ATOM     10  F2  UNL d   1      -1.940  -1.425   0.946  0.00  0.00    -0.096 F 
ATOM     11  F3  UNL d   1      -2.894   0.975   1.763  0.00  0.00    -0.097 F 
ATOM     12  F4  UNL d   1      -1.587   3.276   1.102  0.00  0.00    -0.092 F 
ENDROOT
TORSDOF 0
ENDMDL
