MODEL 1
REMARK minimizedAffinity -0.549520671
REMARK minimizedRMSD -1
REMARK  0 active torsions:
REMARK  status: ('A' for Active; 'I' for Inactive)
ROOT
ATOM      1  C   UNL d   1       0.462  -0.969   0.833  0.00  0.00     0.124 A 
ATOM      2  C1  UNL d   1      -0.689  -0.201   0.721  0.00  0.00     0.062 A 
ATOM      3  C2  UNL d   1      -0.602   1.140   0.358  0.00  0.00     0.162 A 
ATOM      4  C3  UNL d   1       0.640   1.722   0.104  0.00  0.00    -0.034 A 
ATOM      5  C4  UNL d   1       1.792   0.943   0.220  0.00  0.00     0.162 A 
ATOM      6  C5  UNL d   1       1.701  -0.397   0.582  0.00  0.00     0.062 A 
ATOM      7  F   UNL d   1       2.813  -1.138   0.690  0.00  0.00    -0.097 F 
ATOM      8  F1  UNL d   1       3.003   1.471  -0.017  0.00  0.00    -0.096 F 
ATOM      9  I   UNL d   1       0.773   3.727  -0.437  0.00  0.00    -0.060 I 
ATOM     10  F2  UNL d   1      -1.731   1.859   0.258  0.00  0.00    -0.096 F 
ATOM     11  F3  UNL d   1      -1.887  -0.751   0.963  0.00  0.00    -0.097 F 
ATOM     12  F4  UNL d   1       0.376  -2.259   1.182  0.00  0.00    -0.092 F 
ENDROOT
TORSDOF 0
ENDMDL
