MODEL 1
REMARK minimizedAffinity 1.63563561
REMARK minimizedRMSD -1
REMARK  0 active torsions:
REMARK  status: ('A' for Active; 'I' for Inactive)
ROOT
ATOM      1  C   UNL d   1       0.421   2.634   0.679  0.00  0.00     0.124 A 
ATOM      2  C1  UNL d   1      -0.733   2.102   1.239  0.00  0.00     0.062 A 
ATOM      3  C2  UNL d   1      -1.268   0.916   0.745  0.00  0.00     0.162 A 
ATOM      4  C3  UNL d   1      -0.650   0.253  -0.315  0.00  0.00    -0.034 A 
ATOM      5  C4  UNL d   1       0.509   0.795  -0.874  0.00  0.00     0.162 A 
ATOM      6  C5  UNL d   1       1.040   1.980  -0.377  0.00  0.00     0.062 A 
ATOM      7  F   UNL d   1       2.155   2.492  -0.919  0.00  0.00    -0.097 F 
ATOM      8  F1  UNL d   1       1.129   0.183  -1.894  0.00  0.00    -0.096 F 
ATOM      9  I   UNL d   1      -1.448  -1.520  -1.057  0.00  0.00    -0.060 I 
ATOM     10  F2  UNL d   1      -2.383   0.426   1.305  0.00  0.00    -0.096 F 
ATOM     11  F3  UNL d   1      -1.333   2.733   2.258  0.00  0.00    -0.097 F 
ATOM     12  F4  UNL d   1       0.933   3.776   1.156  0.00  0.00    -0.092 F 
ENDROOT
TORSDOF 0
ENDMDL
