MODEL 1
REMARK minimizedAffinity -1.30928922
REMARK minimizedRMSD -1
REMARK  0 active torsions:
REMARK  status: ('A' for Active; 'I' for Inactive)
ROOT
ATOM      1  C   UNL d   1       0.756  -1.071   1.282  0.00  0.00     0.124 A 
ATOM      2  C1  UNL d   1       1.887  -0.399   0.839  0.00  0.00     0.062 A 
ATOM      3  C2  UNL d   1       1.790   0.919   0.400  0.00  0.00     0.162 A 
ATOM      4  C3  UNL d   1       0.558   1.573   0.404  0.00  0.00    -0.034 A 
ATOM      5  C4  UNL d   1      -0.574   0.890   0.851  0.00  0.00     0.162 A 
ATOM      6  C5  UNL d   1      -0.472  -0.427   1.288  0.00  0.00     0.062 A 
ATOM      7  F   UNL d   1      -1.565  -1.075   1.717  0.00  0.00    -0.097 F 
ATOM      8  F1  UNL d   1      -1.774   1.489   0.868  0.00  0.00    -0.096 F 
ATOM      9  I   UNL d   1       0.409   3.543  -0.252  0.00  0.00    -0.060 I 
ATOM     10  F2  UNL d   1       2.898   1.544  -0.024  0.00  0.00    -0.096 F 
ATOM     11  F3  UNL d   1       3.075  -1.020   0.831  0.00  0.00    -0.097 F 
ATOM     12  F4  UNL d   1       0.852  -2.339   1.703  0.00  0.00    -0.092 F 
ENDROOT
TORSDOF 0
ENDMDL
