MODEL 1
REMARK minimizedAffinity -3.19771886
REMARK minimizedRMSD -1
REMARK  0 active torsions:
REMARK  status: ('A' for Active; 'I' for Inactive)
ROOT
ATOM      1  C1  BNZ d   1      -1.314   0.653   1.067  0.00  0.00     0.000 A 
ATOM      2  C2  BNZ d   1      -1.814   0.083  -0.074  0.00  0.00     0.000 A 
ATOM      3  C3  BNZ d   1      -0.995  -0.587  -0.939  0.00  0.00     0.000 A 
ATOM      4  C4  BNZ d   1       0.327  -0.653  -0.684  0.00  0.00     0.000 A 
ATOM      5  C5  BNZ d   1       0.849  -0.076   0.457  0.00  0.00     0.000 A 
ATOM      6  C6  BNZ d   1       0.016   0.565   1.345  0.00  0.00     0.000 A 
ENDROOT
TORSDOF 0
ENDMDL
