MODEL 1
REMARK minimizedAffinity -3.20379257
REMARK minimizedRMSD -1
REMARK  0 active torsions:
REMARK  status: ('A' for Active; 'I' for Inactive)
ROOT
ATOM      1  C1  BNZ d   1       1.258   0.709  -4.554  0.00  0.00     0.000 A 
ATOM      2  C2  BNZ d   1       2.130   0.442  -3.532  0.00  0.00     0.000 A 
ATOM      3  C3  BNZ d   1       1.720  -0.244  -2.424  0.00  0.00     0.000 A 
ATOM      4  C4  BNZ d   1       0.432  -0.628  -2.320  0.00  0.00     0.000 A 
ATOM      5  C5  BNZ d   1      -0.462  -0.358  -3.337  0.00  0.00     0.000 A 
ATOM      6  C6  BNZ d   1      -0.037   0.299  -4.469  0.00  0.00     0.000 A 
ENDROOT
TORSDOF 0
ENDMDL
