MODEL 1
REMARK minimizedAffinity -4.38455248
REMARK minimizedRMSD -1
REMARK  0 active torsions:
REMARK  status: ('A' for Active; 'I' for Inactive)
ROOT
ATOM      1  C1  BNZ d   1      -2.114  -0.050   0.099  0.00  0.00     0.000 A 
ATOM      2  C2  BNZ d   1      -2.086   0.660   1.270  0.00  0.00     0.000 A 
ATOM      3  C3  BNZ d   1      -0.899   1.054   1.821  0.00  0.00     0.000 A 
ATOM      4  C4  BNZ d   1       0.258   0.703   1.225  0.00  0.00     0.000 A 
ATOM      5  C5  BNZ d   1       0.247  -0.021   0.049  0.00  0.00     0.000 A 
ATOM      6  C6  BNZ d   1      -0.950  -0.382  -0.524  0.00  0.00     0.000 A 
ENDROOT
TORSDOF 0
ENDMDL
