MODEL 1
REMARK minimizedAffinity -3.34783721
REMARK minimizedRMSD -1
REMARK  0 active torsions:
REMARK  status: ('A' for Active; 'I' for Inactive)
ROOT
ATOM      1  C1  BNZ d   1      -0.066  -0.118   0.467  0.00  0.00     0.000 A 
ATOM      2  C2  BNZ d   1      -1.240   0.337   1.006  0.00  0.00     0.000 A 
ATOM      3  C3  BNZ d   1      -1.376   0.496   2.357  0.00  0.00     0.000 A 
ATOM      4  C4  BNZ d   1      -0.352   0.162   3.169  0.00  0.00     0.000 A 
ATOM      5  C5  BNZ d   1       0.834  -0.307   2.642  0.00  0.00     0.000 A 
ATOM      6  C6  BNZ d   1       0.980  -0.429   1.279  0.00  0.00     0.000 A 
ENDROOT
TORSDOF 0
ENDMDL
