MODEL 1
REMARK minimizedAffinity -3.64417195
REMARK minimizedRMSD -1
REMARK  0 active torsions:
REMARK  status: ('A' for Active; 'I' for Inactive)
ROOT
ATOM      1  C1  BNZ d   1      -0.017  -0.218   0.389  0.00  0.00     0.000 A 
ATOM      2  C2  BNZ d   1       0.911  -0.265   1.395  0.00  0.00     0.000 A 
ATOM      3  C3  BNZ d   1       0.621   0.226   2.637  0.00  0.00     0.000 A 
ATOM      4  C4  BNZ d   1      -0.580   0.797   2.861  0.00  0.00     0.000 A 
ATOM      5  C5  BNZ d   1      -1.522   0.860   1.854  0.00  0.00     0.000 A 
ATOM      6  C6  BNZ d   1      -1.241   0.330   0.615  0.00  0.00     0.000 A 
ENDROOT
TORSDOF 0
ENDMDL
