MODEL 1
REMARK minimizedAffinity -2.40698028
REMARK minimizedRMSD -1
REMARK  0 active torsions:
REMARK  status: ('A' for Active; 'I' for Inactive)
ROOT
ATOM      1  C1  BNZ d   1       0.145  -1.363  -1.362  0.00  0.00     0.000 A 
ATOM      2  C2  BNZ d   1       0.453  -1.247  -2.692  0.00  0.00     0.000 A 
ATOM      3  C3  BNZ d   1       0.872  -0.055  -3.212  0.00  0.00     0.000 A 
ATOM      4  C4  BNZ d   1       0.945   1.028  -2.412  0.00  0.00     0.000 A 
ATOM      5  C5  BNZ d   1       0.630   0.930  -1.072  0.00  0.00     0.000 A 
ATOM      6  C6  BNZ d   1       0.245  -0.280  -0.543  0.00  0.00     0.000 A 
ENDROOT
TORSDOF 0
ENDMDL
