MODEL 1
REMARK minimizedAffinity -1.93769789
REMARK minimizedRMSD -1
REMARK  0 active torsions:
REMARK  status: ('A' for Active; 'I' for Inactive)
ROOT
ATOM      1  C1  BNZ d   1      -0.571   0.007   0.068  0.00  0.00     0.000 A 
ATOM      2  C2  BNZ d   1      -1.817   0.454   0.419  0.00  0.00     0.000 A 
ATOM      3  C3  BNZ d   1      -2.136   0.682   1.729  0.00  0.00     0.000 A 
ATOM      4  C4  BNZ d   1      -1.222   0.426   2.688  0.00  0.00     0.000 A 
ATOM      5  C5  BNZ d   1       0.035  -0.034   2.350  0.00  0.00     0.000 A 
ATOM      6  C6  BNZ d   1       0.365  -0.225   1.028  0.00  0.00     0.000 A 
ENDROOT
TORSDOF 0
ENDMDL
