MODEL 1
REMARK minimizedAffinity -1.13012624
REMARK minimizedRMSD -1
REMARK  0 active torsions:
REMARK  status: ('A' for Active; 'I' for Inactive)
ROOT
ATOM      1  C1  BNZ d   1       2.101   0.220  -1.678  0.00  0.00     0.000 A 
ATOM      2  C2  BNZ d   1       2.031   0.621  -2.986  0.00  0.00     0.000 A 
ATOM      3  C3  BNZ d   1       1.114   0.073  -3.838  0.00  0.00     0.000 A 
ATOM      4  C4  BNZ d   1       0.295  -0.902  -3.393  0.00  0.00     0.000 A 
ATOM      5  C5  BNZ d   1       0.359  -1.324  -2.080  0.00  0.00     0.000 A 
ATOM      6  C6  BNZ d   1       1.258  -0.743  -1.215  0.00  0.00     0.000 A 
ENDROOT
TORSDOF 0
ENDMDL
