MODEL 1
REMARK minimizedAffinity -2.92201853
REMARK minimizedRMSD -1
REMARK  0 active torsions:
REMARK  status: ('A' for Active; 'I' for Inactive)
ROOT
ATOM      1  C1  BNZ d   1      -1.090   0.035  -0.588  0.00  0.00     0.000 A 
ATOM      2  C2  BNZ d   1      -2.210   0.531   0.025  0.00  0.00     0.000 A 
ATOM      3  C3  BNZ d   1      -2.223   0.771   1.370  0.00  0.00     0.000 A 
ATOM      4  C4  BNZ d   1      -1.132   0.477   2.107  0.00  0.00     0.000 A 
ATOM      5  C5  BNZ d   1       0.002  -0.032   1.506  0.00  0.00     0.000 A 
ATOM      6  C6  BNZ d   1       0.025  -0.236   0.145  0.00  0.00     0.000 A 
ENDROOT
TORSDOF 0
ENDMDL
