MODEL 1
REMARK minimizedAffinity -2.39755344
REMARK minimizedRMSD -1
REMARK  0 active torsions:
REMARK  status: ('A' for Active; 'I' for Inactive)
ROOT
ATOM      1  C1  BNZ d   1       1.240   0.273  -2.682  0.00  0.00     0.000 A 
ATOM      2  C2  BNZ d   1       1.218   1.339  -3.541  0.00  0.00     0.000 A 
ATOM      3  C3  BNZ d   1       0.339   1.378  -4.587  0.00  0.00     0.000 A 
ATOM      4  C4  BNZ d   1      -0.489   0.334  -4.796  0.00  0.00     0.000 A 
ATOM      5  C5  BNZ d   1      -0.473  -0.753  -3.944  0.00  0.00     0.000 A 
ATOM      6  C6  BNZ d   1       0.387  -0.771  -2.870  0.00  0.00     0.000 A 
ENDROOT
TORSDOF 0
ENDMDL
