MODEL 1
REMARK minimizedAffinity -2.18574309
REMARK minimizedRMSD -1
REMARK  0 active torsions:
REMARK  status: ('A' for Active; 'I' for Inactive)
ROOT
ATOM      1  C1  BNZ d   1      -1.543   0.457  -0.151  0.00  0.00     0.000 A 
ATOM      2  C2  BNZ d   1      -1.001   0.180  -1.378  0.00  0.00     0.000 A 
ATOM      3  C3  BNZ d   1       0.172  -0.514  -1.483  0.00  0.00     0.000 A 
ATOM      4  C4  BNZ d   1       0.821  -0.894  -0.364  0.00  0.00     0.000 A 
ATOM      5  C5  BNZ d   1       0.292  -0.613   0.880  0.00  0.00     0.000 A 
ATOM      6  C6  BNZ d   1      -0.909   0.051   0.982  0.00  0.00     0.000 A 
ENDROOT
TORSDOF 0
ENDMDL
