MODEL 1
REMARK minimizedAffinity 1.64362228
REMARK minimizedRMSD -1
REMARK  0 active torsions:
REMARK  status: ('A' for Active; 'I' for Inactive)
ROOT
ATOM      1  C1  BNZ d   1      -5.818  -3.241  -4.832  0.00  0.00     0.000 A 
ATOM      2  C2  BNZ d   1      -5.997  -3.940  -5.996  0.00  0.00     0.000 A 
ATOM      3  C3  BNZ d   1      -5.992  -5.307  -6.000  0.00  0.00     0.000 A 
ATOM      4  C4  BNZ d   1      -5.767  -5.972  -4.849  0.00  0.00     0.000 A 
ATOM      5  C5  BNZ d   1      -5.575  -5.282  -3.668  0.00  0.00     0.000 A 
ATOM      6  C6  BNZ d   1      -5.620  -3.907  -3.661  0.00  0.00     0.000 A 
ENDROOT
TORSDOF 0
ENDMDL
