MODEL 1
REMARK minimizedAffinity 0.908870816
REMARK minimizedRMSD -1
REMARK  0 active torsions:
REMARK  status: ('A' for Active; 'I' for Inactive)
ROOT
ATOM      1  C1  BNZ d   1      -5.990  -3.765  -3.970  0.00  0.00     0.000 A 
ATOM      2  C2  BNZ d   1      -5.986  -5.134  -4.002  0.00  0.00     0.000 A 
ATOM      3  C3  BNZ d   1      -5.349  -5.809  -5.006  0.00  0.00     0.000 A 
ATOM      4  C4  BNZ d   1      -4.752  -5.115  -5.996  0.00  0.00     0.000 A 
ATOM      5  C5  BNZ d   1      -4.756  -3.735  -5.984  0.00  0.00     0.000 A 
ATOM      6  C6  BNZ d   1      -5.364  -3.059  -4.951  0.00  0.00     0.000 A 
ENDROOT
TORSDOF 0
ENDMDL
