MODEL 1
REMARK minimizedAffinity -0.362173468
REMARK minimizedRMSD -1
REMARK  0 active torsions:
REMARK  status: ('A' for Active; 'I' for Inactive)
ROOT
ATOM      1  C1  BNZ d   1      -0.516  -2.969   0.702  0.00  0.00     0.000 A 
ATOM      2  C2  BNZ d   1      -1.780  -3.417   0.983  0.00  0.00     0.000 A 
ATOM      3  C3  BNZ d   1      -2.196  -4.648   0.559  0.00  0.00     0.000 A 
ATOM      4  C4  BNZ d   1      -1.364  -5.411  -0.179  0.00  0.00     0.000 A 
ATOM      5  C5  BNZ d   1      -0.091  -4.969  -0.479  0.00  0.00     0.000 A 
ATOM      6  C6  BNZ d   1       0.338  -3.746  -0.017  0.00  0.00     0.000 A 
ENDROOT
TORSDOF 0
ENDMDL
