MODEL 1
REMARK minimizedAffinity 4.3381424
REMARK minimizedRMSD -1
REMARK  0 active torsions:
REMARK  status: ('A' for Active; 'I' for Inactive)
ROOT
ATOM      1  C1  BNZ d   1      -4.400   4.475  -3.030  0.00  0.00     0.000 A 
ATOM      2  C2  BNZ d   1      -4.114   4.475  -4.369  0.00  0.00     0.000 A 
ATOM      3  C3  BNZ d   1      -3.665   3.342  -4.989  0.00  0.00     0.000 A 
ATOM      4  C4  BNZ d   1      -3.466   2.223  -4.262  0.00  0.00     0.000 A 
ATOM      5  C5  BNZ d   1      -3.741   2.210  -2.909  0.00  0.00     0.000 A 
ATOM      6  C6  BNZ d   1      -4.229   3.342  -2.296  0.00  0.00     0.000 A 
ENDROOT
TORSDOF 0
ENDMDL
