MODEL 1
REMARK minimizedAffinity 3.46555948
REMARK minimizedRMSD -1
REMARK  0 active torsions:
REMARK  status: ('A' for Active; 'I' for Inactive)
ROOT
ATOM      1  C1  BNZ d   1       1.055  -1.209   2.628  0.00  0.00     0.000 A 
ATOM      2  C2  BNZ d   1       0.766  -1.474   3.940  0.00  0.00     0.000 A 
ATOM      3  C3  BNZ d   1       1.157  -2.649   4.520  0.00  0.00     0.000 A 
ATOM      4  C4  BNZ d   1       1.800  -3.573   3.777  0.00  0.00     0.000 A 
ATOM      5  C5  BNZ d   1       2.090  -3.324   2.451  0.00  0.00     0.000 A 
ATOM      6  C6  BNZ d   1       1.730  -2.125   1.881  0.00  0.00     0.000 A 
ENDROOT
TORSDOF 0
ENDMDL
