MODEL 1
REMARK minimizedAffinity 7.94050503
REMARK minimizedRMSD -1
REMARK  0 active torsions:
REMARK  status: ('A' for Active; 'I' for Inactive)
ROOT
ATOM      1  C1  BNZ d   1      -3.906   4.589  -2.428  0.00  0.00     0.000 A 
ATOM      2  C2  BNZ d   1      -3.708   5.036  -3.708  0.00  0.00     0.000 A 
ATOM      3  C3  BNZ d   1      -3.569   4.154  -4.743  0.00  0.00     0.000 A 
ATOM      4  C4  BNZ d   1      -3.588   2.829  -4.492  0.00  0.00     0.000 A 
ATOM      5  C5  BNZ d   1      -3.777   2.363  -3.207  0.00  0.00     0.000 A 
ATOM      6  C6  BNZ d   1      -3.956   3.254  -2.173  0.00  0.00     0.000 A 
ENDROOT
TORSDOF 0
ENDMDL
