MODEL 1
REMARK minimizedAffinity 5.80263138
REMARK minimizedRMSD -1
REMARK  0 active torsions:
REMARK  status: ('A' for Active; 'I' for Inactive)
ROOT
ATOM      1  C1  BNZ d   1       0.650  -0.715   3.628  0.00  0.00     0.000 A 
ATOM      2  C2  BNZ d   1       0.660  -0.032   4.815  0.00  0.00     0.000 A 
ATOM      3  C3  BNZ d   1       0.860  -0.686   5.998  0.00  0.00     0.000 A 
ATOM      4  C4  BNZ d   1       1.010  -2.027   5.997  0.00  0.00     0.000 A 
ATOM      5  C5  BNZ d   1       0.993  -2.731   4.810  0.00  0.00     0.000 A 
ATOM      6  C6  BNZ d   1       0.830  -2.064   3.617  0.00  0.00     0.000 A 
ENDROOT
TORSDOF 0
ENDMDL
