MODEL 1
REMARK minimizedAffinity 7.82457733
REMARK minimizedRMSD -1
REMARK  0 active torsions:
REMARK  status: ('A' for Active; 'I' for Inactive)
ROOT
ATOM      1  C1  BNZ d   1       1.607  -3.238   3.733  0.00  0.00     0.000 A 
ATOM      2  C2  BNZ d   1       1.851  -3.269   2.386  0.00  0.00     0.000 A 
ATOM      3  C3  BNZ d   1       1.656  -2.158   1.614  0.00  0.00     0.000 A 
ATOM      4  C4  BNZ d   1       1.180  -1.031   2.181  0.00  0.00     0.000 A 
ATOM      5  C5  BNZ d   1       0.920  -0.987   3.537  0.00  0.00     0.000 A 
ATOM      6  C6  BNZ d   1       1.154  -2.096   4.318  0.00  0.00     0.000 A 
ENDROOT
TORSDOF 0
ENDMDL
