MODEL 1
REMARK minimizedAffinity 5.59842205
REMARK minimizedRMSD -1
REMARK  0 active torsions:
REMARK  status: ('A' for Active; 'I' for Inactive)
ROOT
ATOM      1  C1  BNZ d   1       1.827  -2.242   5.998  0.00  0.00     0.000 A 
ATOM      2  C2  BNZ d   1       1.092  -1.647   5.008  0.00  0.00     0.000 A 
ATOM      3  C3  BNZ d   1       1.040  -2.188   3.753  0.00  0.00     0.000 A 
ATOM      4  C4  BNZ d   1       1.755  -3.299   3.480  0.00  0.00     0.000 A 
ATOM      5  C5  BNZ d   1       2.508  -3.905   4.466  0.00  0.00     0.000 A 
ATOM      6  C6  BNZ d   1       2.526  -3.380   5.738  0.00  0.00     0.000 A 
ENDROOT
TORSDOF 0
ENDMDL
