MODEL 1
REMARK minimizedAffinity 6.93114614
REMARK minimizedRMSD -1
REMARK  0 active torsions:
REMARK  status: ('A' for Active; 'I' for Inactive)
ROOT
ATOM      1  C1  BNZ d   1       2.018  -3.773   3.148  0.00  0.00     0.000 A 
ATOM      2  C2  BNZ d   1       1.962  -2.999   2.020  0.00  0.00     0.000 A 
ATOM      3  C3  BNZ d   1       1.451  -1.732   2.065  0.00  0.00     0.000 A 
ATOM      4  C4  BNZ d   1       0.961  -1.256   3.228  0.00  0.00     0.000 A 
ATOM      5  C5  BNZ d   1       1.003  -2.027   4.372  0.00  0.00     0.000 A 
ATOM      6  C6  BNZ d   1       1.553  -3.288   4.331  0.00  0.00     0.000 A 
ENDROOT
TORSDOF 0
ENDMDL
