MODEL 1
REMARK minimizedAffinity 4.0634079
REMARK minimizedRMSD -1
REMARK  0 active torsions:
REMARK  status: ('A' for Active; 'I' for Inactive)
ROOT
ATOM      1  C1  BNZ d   1       5.656  -3.199  -4.535  0.00  0.00     0.000 A 
ATOM      2  C2  BNZ d   1       5.738  -4.049  -3.464  0.00  0.00     0.000 A 
ATOM      3  C3  BNZ d   1       5.929  -5.390  -3.648  0.00  0.00     0.000 A 
ATOM      4  C4  BNZ d   1       5.997  -5.884  -4.901  0.00  0.00     0.000 A 
ATOM      5  C5  BNZ d   1       5.906  -5.042  -5.991  0.00  0.00     0.000 A 
ATOM      6  C6  BNZ d   1       5.753  -3.687  -5.802  0.00  0.00     0.000 A 
ENDROOT
TORSDOF 0
ENDMDL
