MODEL 1
REMARK minimizedAffinity 4.77854252
REMARK minimizedRMSD -1
REMARK  0 active torsions:
REMARK  status: ('A' for Active; 'I' for Inactive)
ROOT
ATOM      1  C1  BNZ d   1       1.989  -2.602   1.647  0.00  0.00     0.000 A 
ATOM      2  C2  BNZ d   1       1.134  -1.673   2.177  0.00  0.00     0.000 A 
ATOM      3  C3  BNZ d   1       1.038  -0.421   1.637  0.00  0.00     0.000 A 
ATOM      4  C4  BNZ d   1       1.825  -0.087   0.594  0.00  0.00     0.000 A 
ATOM      5  C5  BNZ d   1       2.699  -1.010   0.054  0.00  0.00     0.000 A 
ATOM      6  C6  BNZ d   1       2.765  -2.281   0.576  0.00  0.00     0.000 A 
ENDROOT
TORSDOF 0
ENDMDL
