MODEL 1
REMARK minimizedAffinity -4.03255367
REMARK minimizedRMSD -1
REMARK  0 active torsions:
REMARK  status: ('A' for Active; 'I' for Inactive)
ROOT
ATOM      1  N1  IND d   1      -1.061  -1.611   0.316  0.00  0.00    -0.196 N 
ATOM      2  C2  IND d   1      -2.378  -1.253   0.231  0.00  0.00     0.054 A 
ATOM      3  C3  IND d   1      -2.497   0.093   0.177  0.00  0.00    -0.031 A 
ATOM      4  C4  IND d   1      -0.662   1.896   0.113  0.00  0.00     0.051 A 
ATOM      5  C5  IND d   1       0.692   2.059   0.205  0.00  0.00    -0.031 A 
ATOM      6  C6  IND d   1       1.548   0.985   0.338  0.00  0.00     0.015 A 
ATOM      7  C7  IND d   1       1.081  -0.298   0.373  0.00  0.00    -0.016 A 
ATOM      8  C8  IND d   1      -0.294  -0.467   0.288  0.00  0.00    -0.047 A 
ATOM      9  C9  IND d   1      -1.171   0.622   0.196  0.00  0.00    -0.096 A 
ATOM     10  HN1 IND d   1      -0.763  -2.415   0.377  0.00  0.00     0.298 HD
ENDROOT
TORSDOF 0
ENDMDL
