MODEL 1
REMARK minimizedAffinity 0.727789819
REMARK minimizedRMSD -1
REMARK  0 active torsions:
REMARK  status: ('A' for Active; 'I' for Inactive)
ROOT
ATOM      1  N1  IND d   1       2.686   2.027   0.699  0.00  0.00    -0.196 N 
ATOM      2  C2  IND d   1       2.335   3.278   1.125  0.00  0.00     0.054 A 
ATOM      3  C3  IND d   1       1.011   3.330   1.391  0.00  0.00    -0.031 A 
ATOM      4  C4  IND d   1      -0.752   1.456   1.294  0.00  0.00     0.051 A 
ATOM      5  C5  IND d   1      -0.916   0.150   0.926  0.00  0.00    -0.031 A 
ATOM      6  C6  IND d   1       0.133  -0.613   0.457  0.00  0.00     0.015 A 
ATOM      7  C7  IND d   1       1.395  -0.100   0.349  0.00  0.00    -0.016 A 
ATOM      8  C8  IND d   1       1.564   1.228   0.714  0.00  0.00    -0.047 A 
ATOM      9  C9  IND d   1       0.494   2.020   1.151  0.00  0.00    -0.096 A 
ATOM     10  HN1 IND d   1       3.475   1.781   0.462  0.00  0.00     0.298 HD
ENDROOT
TORSDOF 0
ENDMDL
