MODEL 1
REMARK minimizedAffinity 2.34887671
REMARK minimizedRMSD -1
REMARK  0 active torsions:
REMARK  status: ('A' for Active; 'I' for Inactive)
ROOT
ATOM      1  N1  IND d   1       0.826  -0.745  -0.763  0.00  0.00    -0.196 N 
ATOM      2  C2  IND d   1       0.761   0.561  -1.161  0.00  0.00     0.054 A 
ATOM      3  C3  IND d   1       0.524   1.364  -0.099  0.00  0.00    -0.031 A 
ATOM      4  C4  IND d   1       0.312   0.759   2.394  0.00  0.00     0.051 A 
ATOM      5  C5  IND d   1       0.264  -0.311   3.243  0.00  0.00    -0.031 A 
ATOM      6  C6  IND d   1       0.408  -1.607   2.791  0.00  0.00     0.015 A 
ATOM      7  C7  IND d   1       0.616  -1.881   1.468  0.00  0.00    -0.016 A 
ATOM      8  C8  IND d   1       0.657  -0.797   0.603  0.00  0.00    -0.047 A 
ATOM      9  C9  IND d   1       0.470   0.517   1.050  0.00  0.00    -0.096 A 
ATOM     10  HN1 IND d   1       0.952  -1.421  -1.280  0.00  0.00     0.298 HD
ENDROOT
TORSDOF 0
ENDMDL
