MODEL 1
REMARK minimizedAffinity -5.64395666
REMARK minimizedRMSD -1
REMARK  0 active torsions:
REMARK  status: ('A' for Active; 'I' for Inactive)
ROOT
ATOM      1  N1  IND d   1       0.333  -1.173   0.763  0.00  0.00    -0.196 N 
ATOM      2  C2  IND d   1       0.612  -0.019   0.085  0.00  0.00     0.054 A 
ATOM      3  C3  IND d   1      -0.497   0.439  -0.539  0.00  0.00    -0.031 A 
ATOM      4  C4  IND d   1      -2.898  -0.490  -0.500  0.00  0.00     0.051 A 
ATOM      5  C5  IND d   1      -3.637  -1.546  -0.047  0.00  0.00    -0.031 A 
ATOM      6  C6  IND d   1      -3.079  -2.551   0.717  0.00  0.00     0.015 A 
ATOM      7  C7  IND d   1      -1.759  -2.531   1.068  0.00  0.00    -0.016 A 
ATOM      8  C8  IND d   1      -1.004  -1.463   0.604  0.00  0.00    -0.047 A 
ATOM      9  C9  IND d   1      -1.554  -0.463  -0.208  0.00  0.00    -0.096 A 
ATOM     10  HN1 IND d   1       0.898  -1.639   1.214  0.00  0.00     0.298 HD
ENDROOT
TORSDOF 0
ENDMDL
