MODEL 1
REMARK minimizedAffinity -3.24990273
REMARK minimizedRMSD -1
REMARK  0 active torsions:
REMARK  status: ('A' for Active; 'I' for Inactive)
ROOT
ATOM      1  N1  IND d   1       1.355   3.164   0.755  0.00  0.00    -0.196 N 
ATOM      2  C2  IND d   1       2.606   3.253   1.300  0.00  0.00     0.054 A 
ATOM      3  C3  IND d   1       3.146   2.021   1.441  0.00  0.00    -0.031 A 
ATOM      4  C4  IND d   1       2.196  -0.270   0.753  0.00  0.00     0.051 A 
ATOM      5  C5  IND d   1       1.072  -0.864   0.250  0.00  0.00    -0.031 A 
ATOM      6  C6  IND d   1      -0.036  -0.130  -0.120  0.00  0.00     0.015 A 
ATOM      7  C7  IND d   1      -0.058   1.232  -0.011  0.00  0.00    -0.016 A 
ATOM      8  C8  IND d   1       1.079   1.837   0.506  0.00  0.00    -0.047 A 
ATOM      9  C9  IND d   1       2.191   1.094   0.922  0.00  0.00    -0.096 A 
ATOM     10  HN1 IND d   1       0.829   3.825   0.596  0.00  0.00     0.298 HD
ENDROOT
TORSDOF 0
ENDMDL
