MODEL 1
REMARK minimizedAffinity -5.45217848
REMARK minimizedRMSD -1
REMARK  0 active torsions:
REMARK  status: ('A' for Active; 'I' for Inactive)
ROOT
ATOM      1  N1  IND d   1      -0.035  -0.538   0.436  0.00  0.00    -0.196 N 
ATOM      2  C2  IND d   1      -0.017   0.626  -0.281  0.00  0.00     0.054 A 
ATOM      3  C3  IND d   1      -1.204   0.815  -0.901  0.00  0.00    -0.031 A 
ATOM      4  C4  IND d   1      -3.349  -0.605  -0.796  0.00  0.00     0.051 A 
ATOM      5  C5  IND d   1      -3.839  -1.780  -0.300  0.00  0.00    -0.031 A 
ATOM      6  C6  IND d   1      -3.072  -2.617   0.485  0.00  0.00     0.015 A 
ATOM      7  C7  IND d   1      -1.784  -2.303   0.813  0.00  0.00    -0.016 A 
ATOM      8  C8  IND d   1      -1.280  -1.114   0.306  0.00  0.00    -0.047 A 
ATOM      9  C9  IND d   1      -2.040  -0.281  -0.526  0.00  0.00    -0.096 A 
ATOM     10  HN1 IND d   1       0.621  -0.857   0.891  0.00  0.00     0.298 HD
ENDROOT
TORSDOF 0
ENDMDL
