MODEL 1
REMARK minimizedAffinity -5.01676702
REMARK minimizedRMSD -1
REMARK  0 active torsions:
REMARK  status: ('A' for Active; 'I' for Inactive)
ROOT
ATOM      1  N1  IND d   1       0.368  -1.263   0.991  0.00  0.00    -0.196 N 
ATOM      2  C2  IND d   1       0.648  -0.127   0.286  0.00  0.00     0.054 A 
ATOM      3  C3  IND d   1      -0.450   0.297  -0.379  0.00  0.00    -0.031 A 
ATOM      4  C4  IND d   1      -2.838  -0.663  -0.373  0.00  0.00     0.051 A 
ATOM      5  C5  IND d   1      -3.575  -1.716   0.093  0.00  0.00    -0.031 A 
ATOM      6  C6  IND d   1      -3.024  -2.690   0.901  0.00  0.00     0.015 A 
ATOM      7  C7  IND d   1      -1.713  -2.641   1.284  0.00  0.00    -0.016 A 
ATOM      8  C8  IND d   1      -0.961  -1.577   0.807  0.00  0.00    -0.047 A 
ATOM      9  C9  IND d   1      -1.503  -0.609  -0.048  0.00  0.00    -0.096 A 
ATOM     10  HN1 IND d   1       0.927  -1.708   1.470  0.00  0.00     0.298 HD
ENDROOT
TORSDOF 0
ENDMDL
