MODEL 1
REMARK minimizedAffinity -5.87157631
REMARK minimizedRMSD -1
REMARK  0 active torsions:
REMARK  status: ('A' for Active; 'I' for Inactive)
ROOT
ATOM      1  N1  IND d   1       0.716  -0.335   0.714  0.00  0.00    -0.196 N 
ATOM      2  C2  IND d   1       0.736   0.828  -0.004  0.00  0.00     0.054 A 
ATOM      3  C3  IND d   1      -0.483   1.074  -0.534  0.00  0.00    -0.031 A 
ATOM      4  C4  IND d   1      -2.680  -0.242  -0.266  0.00  0.00     0.051 A 
ATOM      5  C5  IND d   1      -3.187  -1.393   0.268  0.00  0.00    -0.031 A 
ATOM      6  C6  IND d   1      -2.405  -2.266   0.995  0.00  0.00     0.015 A 
ATOM      7  C7  IND d   1      -1.082  -2.015   1.226  0.00  0.00    -0.016 A 
ATOM      8  C8  IND d   1      -0.561  -0.850   0.679  0.00  0.00    -0.047 A 
ATOM      9  C9  IND d   1      -1.340   0.019  -0.095  0.00  0.00    -0.096 A 
ATOM     10  HN1 IND d   1       1.388  -0.686   1.120  0.00  0.00     0.298 HD
ENDROOT
TORSDOF 0
ENDMDL
