MODEL 1
REMARK minimizedAffinity -2.24104452
REMARK minimizedRMSD -1
REMARK  0 active torsions:
REMARK  status: ('A' for Active; 'I' for Inactive)
ROOT
ATOM      1  N1  IND d   1       3.086   1.518   0.044  0.00  0.00    -0.196 N 
ATOM      2  C2  IND d   1       2.961   2.375   1.103  0.00  0.00     0.054 A 
ATOM      3  C3  IND d   1       1.727   2.275   1.646  0.00  0.00    -0.031 A 
ATOM      4  C4  IND d   1      -0.212   0.700   1.023  0.00  0.00     0.051 A 
ATOM      5  C5  IND d   1      -0.584  -0.237   0.101  0.00  0.00    -0.031 A 
ATOM      6  C6  IND d   1       0.265  -0.647  -0.906  0.00  0.00     0.015 A 
ATOM      7  C7  IND d   1       1.529  -0.142  -1.022  0.00  0.00    -0.016 A 
ATOM      8  C8  IND d   1       1.909   0.816  -0.091  0.00  0.00    -0.047 A 
ATOM      9  C9  IND d   1       1.036   1.267   0.907  0.00  0.00    -0.096 A 
ATOM     10  HN1 IND d   1       3.782   1.433  -0.453  0.00  0.00     0.298 HD
ENDROOT
TORSDOF 0
ENDMDL
