MODEL 1
REMARK minimizedAffinity -3.99056411
REMARK minimizedRMSD -1
REMARK  0 active torsions:
REMARK  status: ('A' for Active; 'I' for Inactive)
ROOT
ATOM      1  N1  IND d   1       1.386   3.224   0.993  0.00  0.00    -0.196 N 
ATOM      2  C2  IND d   1       2.674   3.218   1.450  0.00  0.00     0.054 A 
ATOM      3  C3  IND d   1       3.176   1.963   1.428  0.00  0.00    -0.031 A 
ATOM      4  C4  IND d   1       2.094  -0.216   0.585  0.00  0.00     0.051 A 
ATOM      5  C5  IND d   1       0.917  -0.720   0.109  0.00  0.00    -0.031 A 
ATOM      6  C6  IND d   1      -0.186   0.081  -0.103  0.00  0.00     0.015 A 
ATOM      7  C7  IND d   1      -0.149   1.425   0.142  0.00  0.00    -0.016 A 
ATOM      8  C8  IND d   1       1.043   1.939   0.632  0.00  0.00    -0.047 A 
ATOM      9  C9  IND d   1       2.153   1.123   0.890  0.00  0.00    -0.096 A 
ATOM     10  HN1 IND d   1       0.876   3.914   0.939  0.00  0.00     0.298 HD
ENDROOT
TORSDOF 0
ENDMDL
