MODEL 1
REMARK minimizedAffinity 9.72304726
REMARK minimizedRMSD -1
REMARK  0 active torsions:
REMARK  status: ('A' for Active; 'I' for Inactive)
ROOT
ATOM      1  N1  IND d   1       0.468   1.189   3.835  0.00  0.00    -0.196 N 
ATOM      2  C2  IND d   1      -0.747   1.744   3.541  0.00  0.00     0.054 A 
ATOM      3  C3  IND d   1      -1.412   0.975   2.650  0.00  0.00    -0.031 A 
ATOM      4  C4  IND d   1      -0.740  -1.287   1.619  0.00  0.00     0.051 A 
ATOM      5  C5  IND d   1       0.295  -2.177   1.557  0.00  0.00    -0.031 A 
ATOM      6  C6  IND d   1       1.463  -1.988   2.267  0.00  0.00     0.015 A 
ATOM      7  C7  IND d   1       1.636  -0.903   3.078  0.00  0.00    -0.016 A 
ATOM      8  C8  IND d   1       0.590   0.007   3.139  0.00  0.00    -0.047 A 
ATOM      9  C9  IND d   1      -0.581  -0.158   2.388  0.00  0.00    -0.096 A 
ATOM     10  HN1 IND d   1       1.056   1.523   4.366  0.00  0.00     0.298 HD
ENDROOT
TORSDOF 0
ENDMDL
