MODEL 1
REMARK minimizedAffinity 0.24339585
REMARK minimizedRMSD -1
REMARK  0 active torsions:
REMARK  status: ('A' for Active; 'I' for Inactive)
ROOT
ATOM      1  N1  IND d   1       1.854   2.468   2.443  0.00  0.00    -0.196 N 
ATOM      2  C2  IND d   1       2.910   2.325   1.587  0.00  0.00     0.054 A 
ATOM      3  C3  IND d   1       2.838   1.138   0.946  0.00  0.00    -0.031 A 
ATOM      4  C4  IND d   1       1.020  -0.681   1.071  0.00  0.00     0.051 A 
ATOM      5  C5  IND d   1      -0.123  -1.017   1.741  0.00  0.00    -0.031 A 
ATOM      6  C6  IND d   1      -0.678  -0.191   2.696  0.00  0.00     0.015 A 
ATOM      7  C7  IND d   1      -0.114   1.013   3.011  0.00  0.00    -0.016 A 
ATOM      8  C8  IND d   1       1.050   1.355   2.338  0.00  0.00    -0.047 A 
ATOM      9  C9  IND d   1       1.642   0.501   1.398  0.00  0.00    -0.096 A 
ATOM     10  HN1 IND d   1       1.715   3.141   2.961  0.00  0.00     0.298 HD
ENDROOT
TORSDOF 0
ENDMDL
