MODEL 1
REMARK minimizedAffinity -1.94125915
REMARK minimizedRMSD -1
REMARK  0 active torsions:
REMARK  status: ('A' for Active; 'I' for Inactive)
ROOT
ATOM      1  N1  IND d   1      -0.101   0.335  -1.883  0.00  0.00    -0.196 N 
ATOM      2  C2  IND d   1       0.715   0.838  -0.908  0.00  0.00     0.054 A 
ATOM      3  C3  IND d   1       0.274   0.462   0.314  0.00  0.00    -0.031 A 
ATOM      4  C4  IND d   1      -1.706  -1.059   0.942  0.00  0.00     0.051 A 
ATOM      5  C5  IND d   1      -2.765  -1.728   0.396  0.00  0.00    -0.031 A 
ATOM      6  C6  IND d   1      -2.994  -1.746  -0.964  0.00  0.00     0.015 A 
ATOM      7  C7  IND d   1      -2.162  -1.103  -1.835  0.00  0.00    -0.016 A 
ATOM      8  C8  IND d   1      -1.088  -0.416  -1.285  0.00  0.00    -0.047 A 
ATOM      9  C9  IND d   1      -0.875  -0.359   0.099  0.00  0.00    -0.096 A 
ATOM     10  HN1 IND d   1      -0.012   0.466  -2.728  0.00  0.00     0.298 HD
ENDROOT
TORSDOF 0
ENDMDL
