MODEL 1
REMARK minimizedAffinity -1.35296285
REMARK minimizedRMSD -1
REMARK  0 active torsions:
REMARK  status: ('A' for Active; 'I' for Inactive)
ROOT
ATOM      1  N1  IND d   1       1.491   3.394   1.199  0.00  0.00    -0.196 N 
ATOM      2  C2  IND d   1       2.706   3.029   1.708  0.00  0.00     0.054 A 
ATOM      3  C3  IND d   1       2.914   1.705   1.526  0.00  0.00    -0.031 A 
ATOM      4  C4  IND d   1       1.441  -0.031   0.325  0.00  0.00     0.051 A 
ATOM      5  C5  IND d   1       0.220  -0.180  -0.272  0.00  0.00    -0.031 A 
ATOM      6  C6  IND d   1      -0.656   0.877  -0.414  0.00  0.00     0.015 A 
ATOM      7  C7  IND d   1      -0.337   2.130   0.027  0.00  0.00    -0.016 A 
ATOM      8  C8  IND d   1       0.898   2.283   0.640  0.00  0.00    -0.047 A 
ATOM      9  C9  IND d   1       1.773   1.205   0.825  0.00  0.00    -0.096 A 
ATOM     10  HN1 IND d   1       1.153   4.184   1.224  0.00  0.00     0.298 HD
ENDROOT
TORSDOF 0
ENDMDL
