MODEL 1
REMARK minimizedAffinity -1.79297173
REMARK minimizedRMSD -1
REMARK  0 active torsions:
REMARK  status: ('A' for Active; 'I' for Inactive)
ROOT
ATOM      1  N1  IND d   1       4.372   4.774  -1.439  0.00  0.00    -0.196 N 
ATOM      2  C2  IND d   1       4.833   4.008  -2.473  0.00  0.00     0.054 A 
ATOM      3  C3  IND d   1       4.514   2.709  -2.276  0.00  0.00    -0.031 A 
ATOM      4  C4  IND d   1       3.151   1.630  -0.376  0.00  0.00     0.051 A 
ATOM      5  C5  IND d   1       2.550   1.919   0.817  0.00  0.00    -0.031 A 
ATOM      6  C6  IND d   1       2.523   3.201   1.328  0.00  0.00     0.015 A 
ATOM      7  C7  IND d   1       3.088   4.248   0.656  0.00  0.00    -0.016 A 
ATOM      8  C8  IND d   1       3.706   3.957  -0.552  0.00  0.00    -0.047 A 
ATOM      9  C9  IND d   1       3.774   2.651  -1.055  0.00  0.00    -0.096 A 
ATOM     10  HN1 IND d   1       4.480   5.623  -1.356  0.00  0.00     0.298 HD
ENDROOT
TORSDOF 0
ENDMDL
