MODEL 1
REMARK minimizedAffinity -4.60906267
REMARK minimizedRMSD -1
REMARK  0 active torsions:
REMARK  status: ('A' for Active; 'I' for Inactive)
ROOT
ATOM      1  N1  IND d   1       0.472  -0.634   1.075  0.00  0.00    -0.196 N 
ATOM      2  C2  IND d   1       1.602   0.100   0.842  0.00  0.00     0.054 A 
ATOM      3  C3  IND d   1       1.482   0.797  -0.310  0.00  0.00    -0.031 A 
ATOM      4  C4  IND d   1      -0.520   0.962  -1.920  0.00  0.00     0.051 A 
ATOM      5  C5  IND d   1      -1.764   0.445  -2.149  0.00  0.00    -0.031 A 
ATOM      6  C6  IND d   1      -2.339  -0.475  -1.296  0.00  0.00     0.015 A 
ATOM      7  C7  IND d   1      -1.693  -0.905  -0.171  0.00  0.00    -0.016 A 
ATOM      8  C8  IND d   1      -0.427  -0.387   0.060  0.00  0.00    -0.047 A 
ATOM      9  C9  IND d   1       0.179   0.515  -0.824  0.00  0.00    -0.096 A 
ATOM     10  HN1 IND d   1       0.344  -1.160   1.742  0.00  0.00     0.298 HD
ENDROOT
TORSDOF 0
ENDMDL
