MODEL 1
REMARK minimizedAffinity 0.620025456
REMARK minimizedRMSD -1
REMARK  0 active torsions:
REMARK  status: ('A' for Active; 'I' for Inactive)
ROOT
ATOM      1  C1  BNZ d   1      -5.056  -3.232  -5.999  0.00  0.00     0.000 A 
ATOM      2  C2  BNZ d   1      -3.693  -3.359  -5.997  0.00  0.00     0.000 A 
ATOM      3  C3  BNZ d   1      -2.887  -2.255  -5.971  0.00  0.00     0.000 A 
ATOM      4  C4  BNZ d   1      -3.444  -1.027  -5.988  0.00  0.00     0.000 A 
ATOM      5  C5  BNZ d   1      -4.817  -0.883  -5.999  0.00  0.00     0.000 A 
ATOM      6  C6  BNZ d   1      -5.625  -1.996  -5.986  0.00  0.00     0.000 A 
ENDROOT
TORSDOF 0
ENDMDL
