MODEL 1
REMARK minimizedAffinity -1.32107198
REMARK minimizedRMSD -1
REMARK  0 active torsions:
REMARK  status: ('A' for Active; 'I' for Inactive)
ROOT
ATOM      1  C1  BNZ d   1       0.080   5.274   4.883  0.00  0.00     0.000 A 
ATOM      2  C2  BNZ d   1       0.701   5.791   3.777  0.00  0.00     0.000 A 
ATOM      3  C3  BNZ d   1       2.052   6.000   3.767  0.00  0.00     0.000 A 
ATOM      4  C4  BNZ d   1       2.773   5.729   4.874  0.00  0.00     0.000 A 
ATOM      5  C5  BNZ d   1       2.160   5.216   6.000  0.00  0.00     0.000 A 
ATOM      6  C6  BNZ d   1       0.806   4.971   5.993  0.00  0.00     0.000 A 
ENDROOT
TORSDOF 0
ENDMDL
