MODEL 1
REMARK minimizedAffinity 0.805432916
REMARK minimizedRMSD -1
REMARK  0 active torsions:
REMARK  status: ('A' for Active; 'I' for Inactive)
ROOT
ATOM      1  C1  BNZ d   1      -0.122  -3.102   3.021  0.00  0.00     0.000 A 
ATOM      2  C2  BNZ d   1       0.832  -3.893   2.439  0.00  0.00     0.000 A 
ATOM      3  C3  BNZ d   1       1.577  -3.434   1.388  0.00  0.00     0.000 A 
ATOM      4  C4  BNZ d   1       1.338  -2.201   0.896  0.00  0.00     0.000 A 
ATOM      5  C5  BNZ d   1       0.373  -1.395   1.465  0.00  0.00     0.000 A 
ATOM      6  C6  BNZ d   1      -0.348  -1.846   2.548  0.00  0.00     0.000 A 
ENDROOT
TORSDOF 0
ENDMDL
