MODEL 1
REMARK minimizedAffinity 4.00451088
REMARK minimizedRMSD -1
REMARK  0 active torsions:
REMARK  status: ('A' for Active; 'I' for Inactive)
ROOT
ATOM      1  C1  BNZ d   1       3.375   5.878   4.831  0.00  0.00     0.000 A 
ATOM      2  C2  BNZ d   1       2.681   5.707   6.000  0.00  0.00     0.000 A 
ATOM      3  C3  BNZ d   1       1.315   5.647   6.000  0.00  0.00     0.000 A 
ATOM      4  C4  BNZ d   1       0.645   5.796   4.839  0.00  0.00     0.000 A 
ATOM      5  C5  BNZ d   1       1.330   5.978   3.655  0.00  0.00     0.000 A 
ATOM      6  C6  BNZ d   1       2.706   6.000   3.653  0.00  0.00     0.000 A 
ENDROOT
TORSDOF 0
ENDMDL
