MODEL 1
REMARK minimizedAffinity -3.16331434
REMARK minimizedRMSD -1
REMARK  0 active torsions:
REMARK  status: ('A' for Active; 'I' for Inactive)
ROOT
ATOM      1  C1  BNZ d   1       3.341  -3.335   2.827  0.00  0.00     0.000 A 
ATOM      2  C2  BNZ d   1       2.714  -2.970   1.666  0.00  0.00     0.000 A 
ATOM      3  C3  BNZ d   1       3.315  -3.166   0.454  0.00  0.00     0.000 A 
ATOM      4  C4  BNZ d   1       4.557  -3.689   0.408  0.00  0.00     0.000 A 
ATOM      5  C5  BNZ d   1       5.206  -4.054   1.571  0.00  0.00     0.000 A 
ATOM      6  C6  BNZ d   1       4.582  -3.891   2.786  0.00  0.00     0.000 A 
ENDROOT
TORSDOF 0
ENDMDL
