MODEL 1
REMARK minimizedAffinity -0.283853561
REMARK minimizedRMSD -1
REMARK  0 active torsions:
REMARK  status: ('A' for Active; 'I' for Inactive)
ROOT
ATOM      1  C1  BNZ d   1       3.620  -4.997   1.320  0.00  0.00     0.000 A 
ATOM      2  C2  BNZ d   1       2.824  -4.992   2.435  0.00  0.00     0.000 A 
ATOM      3  C3  BNZ d   1       1.749  -4.153   2.522  0.00  0.00     0.000 A 
ATOM      4  C4  BNZ d   1       1.494  -3.294   1.514  0.00  0.00     0.000 A 
ATOM      5  C5  BNZ d   1       2.293  -3.281   0.388  0.00  0.00     0.000 A 
ATOM      6  C6  BNZ d   1       3.352  -4.154   0.287  0.00  0.00     0.000 A 
ENDROOT
TORSDOF 0
ENDMDL
