MODEL 1
REMARK minimizedAffinity -0.908520639
REMARK minimizedRMSD -1
REMARK  0 active torsions:
REMARK  status: ('A' for Active; 'I' for Inactive)
ROOT
ATOM      1  C1  BNZ d   1       2.466   6.000   2.669  0.00  0.00     0.000 A 
ATOM      2  C2  BNZ d   1       1.792   5.994   3.861  0.00  0.00     0.000 A 
ATOM      3  C3  BNZ d   1       2.471   5.999   5.048  0.00  0.00     0.000 A 
ATOM      4  C4  BNZ d   1       3.819   5.969   5.041  0.00  0.00     0.000 A 
ATOM      5  C5  BNZ d   1       4.512   5.965   3.847  0.00  0.00     0.000 A 
ATOM      6  C6  BNZ d   1       3.826   5.999   2.654  0.00  0.00     0.000 A 
ENDROOT
TORSDOF 0
ENDMDL
