MODEL 1
REMARK minimizedAffinity 0.313644201
REMARK minimizedRMSD -1
REMARK  0 active torsions:
REMARK  status: ('A' for Active; 'I' for Inactive)
ROOT
ATOM      1  C1  BNZ d   1       2.428   5.990   5.065  0.00  0.00     0.000 A 
ATOM      2  C2  BNZ d   1       3.738   5.987   4.666  0.00  0.00     0.000 A 
ATOM      3  C3  BNZ d   1       4.066   6.000   3.339  0.00  0.00     0.000 A 
ATOM      4  C4  BNZ d   1       3.085   5.974   2.414  0.00  0.00     0.000 A 
ATOM      5  C5  BNZ d   1       1.760   5.967   2.801  0.00  0.00     0.000 A 
ATOM      6  C6  BNZ d   1       1.433   5.994   4.137  0.00  0.00     0.000 A 
ENDROOT
TORSDOF 0
ENDMDL
