MODEL 1
REMARK minimizedAffinity 10.8191557
REMARK minimizedRMSD -1
REMARK  2 active torsions:
REMARK  status: ('A' for Active; 'I' for Inactive)
REMARK    1  A    between atoms: C1_2  and  C2_3 
REMARK    2  A    between atoms: C2_3  and  C3_4 
ROOT
ATOM      1  C3  UNL d   1      -4.846   4.513   3.631  0.00  0.00    -0.075 A 
ATOM      2  C4  UNL d   1      -3.584   4.913   4.093  0.00  0.00     0.002 A 
ATOM      3  C5  UNL d   1      -3.462   5.647   5.274  0.00  0.00     0.002 A 
ATOM      4  C6  UNL d   1      -4.598   5.998   6.000  0.00  0.00    -0.004 A 
ATOM      5  C7  UNL d   1      -5.858   5.620   5.542  0.00  0.00     0.002 A 
ATOM      6  C8  UNL d   1      -5.983   4.882   4.363  0.00  0.00     0.002 A 
ENDROOT
BRANCH   1   7
ATOM      7  C2  UNL d   1      -4.983   3.693   2.370  0.00  0.00     0.056 C 
BRANCH   7   8
ATOM      8  C1  UNL d   1      -3.678   3.033   1.911  0.00  0.00     0.007 C 
ATOM      9  C   UNL d   1      -3.725   1.512   1.960  0.00  0.00     0.009 C 
ENDBRANCH   7   8
ENDBRANCH   1   7
TORSDOF 2
ENDMDL
