MODEL 1
REMARK minimizedAffinity 16.4192734
REMARK minimizedRMSD -1
REMARK  2 active torsions:
REMARK  status: ('A' for Active; 'I' for Inactive)
REMARK    1  A    between atoms: C1_2  and  C2_3 
REMARK    2  A    between atoms: C2_3  and  C3_4 
ROOT
ATOM      1  C3  UNL d   1      -2.473   0.733   0.870  0.00  0.00    -0.075 A 
ATOM      2  C4  UNL d   1      -1.445   1.288   1.646  0.00  0.00     0.002 A 
ATOM      3  C5  UNL d   1      -1.562   2.581   2.157  0.00  0.00     0.002 A 
ATOM      4  C6  UNL d   1      -2.701   3.338   1.890  0.00  0.00    -0.004 A 
ATOM      5  C7  UNL d   1      -3.721   2.803   1.107  0.00  0.00     0.002 A 
ATOM      6  C8  UNL d   1      -3.608   1.508   0.598  0.00  0.00     0.002 A 
ENDROOT
BRANCH   1   7
ATOM      7  C2  UNL d   1      -2.365  -0.676   0.340  0.00  0.00     0.056 C 
BRANCH   7   8
ATOM      8  C1  UNL d   1      -2.372  -1.755   1.428  0.00  0.00     0.007 C 
ATOM      9  C   UNL d   1      -1.961  -3.128   0.915  0.00  0.00     0.009 C 
ENDBRANCH   7   8
ENDBRANCH   1   7
TORSDOF 2
ENDMDL
