MODEL 1
REMARK minimizedAffinity 5.06112528
REMARK minimizedRMSD -1
REMARK  2 active torsions:
REMARK  status: ('A' for Active; 'I' for Inactive)
REMARK    1  A    between atoms: C1_2  and  C2_3 
REMARK    2  A    between atoms: C2_3  and  C3_4 
ROOT
ATOM      1  C3  UNL d   1      -0.761  -2.035  -5.185  0.00  0.00    -0.075 A 
ATOM      2  C4  UNL d   1      -1.150  -0.689  -5.127  0.00  0.00     0.002 A 
ATOM      3  C5  UNL d   1      -0.394   0.236  -4.408  0.00  0.00     0.002 A 
ATOM      4  C6  UNL d   1       0.752  -0.173  -3.730  0.00  0.00    -0.004 A 
ATOM      5  C7  UNL d   1       1.139  -1.510  -3.767  0.00  0.00     0.002 A 
ATOM      6  C8  UNL d   1       0.387  -2.438  -4.490  0.00  0.00     0.002 A 
ENDROOT
BRANCH   1   7
ATOM      7  C2  UNL d   1      -1.559  -3.036  -5.987  0.00  0.00     0.056 C 
BRANCH   7   8
ATOM      8  C1  UNL d   1      -3.074  -2.814  -5.932  0.00  0.00     0.007 C 
ATOM      9  C   UNL d   1      -3.873  -4.108  -5.998  0.00  0.00     0.009 C 
ENDBRANCH   7   8
ENDBRANCH   1   7
TORSDOF 2
ENDMDL
