MODEL 1
REMARK minimizedAffinity 8.86258984
REMARK minimizedRMSD -1
REMARK  2 active torsions:
REMARK  status: ('A' for Active; 'I' for Inactive)
REMARK    1  A    between atoms: C1_2  and  C2_3 
REMARK    2  A    between atoms: C2_3  and  C3_4 
ROOT
ATOM      1  C3  UNL d   1      -0.337  -0.214  -5.138  0.00  0.00    -0.075 A 
ATOM      2  C4  UNL d   1      -0.637  -1.581  -5.228  0.00  0.00     0.002 A 
ATOM      3  C5  UNL d   1      -1.894  -2.004  -5.661  0.00  0.00     0.002 A 
ATOM      4  C6  UNL d   1      -2.869  -1.069  -5.999  0.00  0.00    -0.004 A 
ATOM      5  C7  UNL d   1      -2.588   0.292  -5.898  0.00  0.00     0.002 A 
ATOM      6  C8  UNL d   1      -1.329   0.718  -5.469  0.00  0.00     0.002 A 
ENDROOT
BRANCH   1   7
ATOM      7  C2  UNL d   1       1.031   0.250  -4.698  0.00  0.00     0.056 C 
BRANCH   7   8
ATOM      8  C1  UNL d   1       1.488  -0.338  -3.360  0.00  0.00     0.007 C 
ATOM      9  C   UNL d   1       1.929   0.721  -2.358  0.00  0.00     0.009 C 
ENDBRANCH   7   8
ENDBRANCH   1   7
TORSDOF 2
ENDMDL
