MODEL 1
REMARK minimizedAffinity 14.7730656
REMARK minimizedRMSD -1
REMARK  2 active torsions:
REMARK  status: ('A' for Active; 'I' for Inactive)
REMARK    1  A    between atoms: C1_2  and  C2_3 
REMARK    2  A    between atoms: C2_3  and  C3_4 
ROOT
ATOM      1  C3  UNL d   1       3.601   2.167  -5.324  0.00  0.00    -0.075 A 
ATOM      2  C4  UNL d   1       4.596   3.025  -4.833  0.00  0.00     0.002 A 
ATOM      3  C5  UNL d   1       4.441   4.409  -4.912  0.00  0.00     0.002 A 
ATOM      4  C6  UNL d   1       3.297   4.953  -5.491  0.00  0.00    -0.004 A 
ATOM      5  C7  UNL d   1       2.309   4.111  -5.998  0.00  0.00     0.002 A 
ATOM      6  C8  UNL d   1       2.460   2.725  -5.916  0.00  0.00     0.002 A 
ENDROOT
BRANCH   1   7
ATOM      7  C2  UNL d   1       3.749   0.669  -5.215  0.00  0.00     0.056 C 
BRANCH   7   8
ATOM      8  C1  UNL d   1       3.202   0.081  -3.910  0.00  0.00     0.007 C 
ATOM      9  C   UNL d   1       1.748  -0.359  -4.013  0.00  0.00     0.009 C 
ENDBRANCH   7   8
ENDBRANCH   1   7
TORSDOF 2
ENDMDL
