MODEL 1
REMARK minimizedAffinity 11.0398531
REMARK minimizedRMSD -1
REMARK  2 active torsions:
REMARK  status: ('A' for Active; 'I' for Inactive)
REMARK    1  A    between atoms: C1_2  and  C2_3 
REMARK    2  A    between atoms: C2_3  and  C3_4 
ROOT
ATOM      1  C3  UNL d   1      -1.029   0.235   2.512  0.00  0.00    -0.075 A 
ATOM      2  C4  UNL d   1      -0.527  -0.974   3.018  0.00  0.00     0.002 A 
ATOM      3  C5  UNL d   1       0.829  -1.108   3.315  0.00  0.00     0.002 A 
ATOM      4  C6  UNL d   1       1.701  -0.043   3.101  0.00  0.00    -0.004 A 
ATOM      5  C7  UNL d   1       1.217   1.156   2.584  0.00  0.00     0.002 A 
ATOM      6  C8  UNL d   1      -0.141   1.295   2.290  0.00  0.00     0.002 A 
ENDROOT
BRANCH   1   7
ATOM      7  C2  UNL d   1      -2.501   0.396   2.216  0.00  0.00     0.056 C 
BRANCH   7   8
ATOM      8  C1  UNL d   1      -2.826   1.581   1.301  0.00  0.00     0.007 C 
ATOM      9  C   UNL d   1      -3.643   2.666   1.991  0.00  0.00     0.009 C 
ENDBRANCH   7   8
ENDBRANCH   1   7
TORSDOF 2
ENDMDL
