MODEL 1
REMARK minimizedAffinity 4.17908716
REMARK minimizedRMSD -1
REMARK  2 active torsions:
REMARK  status: ('A' for Active; 'I' for Inactive)
REMARK    1  A    between atoms: C1_2  and  C2_3 
REMARK    2  A    between atoms: C2_3  and  C3_4 
ROOT
ATOM      1  C3  UNL d   1       0.665   0.389   2.898  0.00  0.00    -0.075 A 
ATOM      2  C4  UNL d   1      -0.331  -0.521   3.282  0.00  0.00     0.002 A 
ATOM      3  C5  UNL d   1      -1.680  -0.209   3.110  0.00  0.00     0.002 A 
ATOM      4  C6  UNL d   1      -2.050   1.018   2.563  0.00  0.00    -0.004 A 
ATOM      5  C7  UNL d   1      -1.070   1.936   2.193  0.00  0.00     0.002 A 
ATOM      6  C8  UNL d   1       0.281   1.625   2.360  0.00  0.00     0.002 A 
ENDROOT
BRANCH   1   7
ATOM      7  C2  UNL d   1       2.127   0.045   3.053  0.00  0.00     0.056 C 
BRANCH   7   8
ATOM      8  C1  UNL d   1       3.020   0.598   1.938  0.00  0.00     0.007 C 
ATOM      9  C   UNL d   1       4.380  -0.083   1.864  0.00  0.00     0.009 C 
ENDBRANCH   7   8
ENDBRANCH   1   7
TORSDOF 2
ENDMDL
