MODEL 1
REMARK minimizedAffinity 12.8234158
REMARK minimizedRMSD -1
REMARK  2 active torsions:
REMARK  status: ('A' for Active; 'I' for Inactive)
REMARK    1  A    between atoms: C1_2  and  C2_3 
REMARK    2  A    between atoms: C2_3  and  C3_4 
ROOT
ATOM      1  C3  UNL d   1      -3.346   1.011   2.077  0.00  0.00    -0.075 A 
ATOM      2  C4  UNL d   1      -2.940   0.519   3.326  0.00  0.00     0.002 A 
ATOM      3  C5  UNL d   1      -1.767  -0.227   3.446  0.00  0.00     0.002 A 
ATOM      4  C6  UNL d   1      -0.993  -0.500   2.321  0.00  0.00    -0.004 A 
ATOM      5  C7  UNL d   1      -1.395  -0.030   1.072  0.00  0.00     0.002 A 
ATOM      6  C8  UNL d   1      -2.566   0.721   0.950  0.00  0.00     0.002 A 
ENDROOT
BRANCH   1   7
ATOM      7  C2  UNL d   1      -4.598   1.845   1.945  0.00  0.00     0.056 C 
BRANCH   7   8
ATOM      8  C1  UNL d   1      -4.626   3.077   2.855  0.00  0.00     0.007 C 
ATOM      9  C   UNL d   1      -5.991   3.751   2.912  0.00  0.00     0.009 C 
ENDBRANCH   7   8
ENDBRANCH   1   7
TORSDOF 2
ENDMDL
