MODEL 1
REMARK minimizedAffinity 14.6852589
REMARK minimizedRMSD -1
REMARK  2 active torsions:
REMARK  status: ('A' for Active; 'I' for Inactive)
REMARK    1  A    between atoms: C1_2  and  C2_3 
REMARK    2  A    between atoms: C2_3  and  C3_4 
ROOT
ATOM      1  C3  UNL d   1      -5.010  -1.903   3.724  0.00  0.00    -0.075 A 
ATOM      2  C4  UNL d   1      -4.444  -0.620   3.705  0.00  0.00     0.002 A 
ATOM      3  C5  UNL d   1      -3.746  -0.138   4.813  0.00  0.00     0.002 A 
ATOM      4  C6  UNL d   1      -3.613  -0.926   5.954  0.00  0.00    -0.004 A 
ATOM      5  C7  UNL d   1      -4.185  -2.196   5.989  0.00  0.00     0.002 A 
ATOM      6  C8  UNL d   1      -4.881  -2.682   4.881  0.00  0.00     0.002 A 
ENDROOT
BRANCH   1   7
ATOM      7  C2  UNL d   1      -5.742  -2.442   2.518  0.00  0.00     0.056 C 
BRANCH   7   8
ATOM      8  C1  UNL d   1      -5.999  -3.951   2.568  0.00  0.00     0.007 C 
ATOM      9  C   UNL d   1      -4.983  -4.760   1.772  0.00  0.00     0.009 C 
ENDBRANCH   7   8
ENDBRANCH   1   7
TORSDOF 2
ENDMDL
