MODEL 1
REMARK minimizedAffinity 12.7172699
REMARK minimizedRMSD -1
REMARK  2 active torsions:
REMARK  status: ('A' for Active; 'I' for Inactive)
REMARK    1  A    between atoms: C1_2  and  C2_3 
REMARK    2  A    between atoms: C2_3  and  C3_4 
ROOT
ATOM      1  C3  UNL d   1      -3.449  -1.925   0.717  0.00  0.00    -0.075 A 
ATOM      2  C4  UNL d   1      -4.151  -1.203   1.693  0.00  0.00     0.002 A 
ATOM      3  C5  UNL d   1      -3.474  -0.355   2.570  0.00  0.00     0.002 A 
ATOM      4  C6  UNL d   1      -2.089  -0.225   2.489  0.00  0.00    -0.004 A 
ATOM      5  C7  UNL d   1      -1.380  -0.950   1.535  0.00  0.00     0.002 A 
ATOM      6  C8  UNL d   1      -2.055  -1.796   0.653  0.00  0.00     0.002 A 
ENDROOT
BRANCH   1   7
ATOM      7  C2  UNL d   1      -4.178  -2.822  -0.255  0.00  0.00     0.056 C 
BRANCH   7   8
ATOM      8  C1  UNL d   1      -5.357  -2.146  -0.963  0.00  0.00     0.007 C 
ATOM      9  C   UNL d   1      -5.335  -2.330  -2.474  0.00  0.00     0.009 C 
ENDBRANCH   7   8
ENDBRANCH   1   7
TORSDOF 2
ENDMDL
