MODEL 1
REMARK minimizedAffinity 15.8932457
REMARK minimizedRMSD -1
REMARK  2 active torsions:
REMARK  status: ('A' for Active; 'I' for Inactive)
REMARK    1  A    between atoms: C1_2  and  C2_3 
REMARK    2  A    between atoms: C2_3  and  C3_4 
ROOT
ATOM      1  C3  UNL d   1      -3.121   0.015   3.642  0.00  0.00    -0.075 A 
ATOM      2  C4  UNL d   1      -3.627   0.775   2.578  0.00  0.00     0.002 A 
ATOM      3  C5  UNL d   1      -2.815   1.105   1.493  0.00  0.00     0.002 A 
ATOM      4  C6  UNL d   1      -1.486   0.689   1.462  0.00  0.00    -0.004 A 
ATOM      5  C7  UNL d   1      -0.967  -0.053   2.521  0.00  0.00     0.002 A 
ATOM      6  C8  UNL d   1      -1.779  -0.388   3.606  0.00  0.00     0.002 A 
ENDROOT
BRANCH   1   7
ATOM      7  C2  UNL d   1      -4.003  -0.371   4.805  0.00  0.00     0.056 C 
BRANCH   7   8
ATOM      8  C1  UNL d   1      -3.428  -1.490   5.680  0.00  0.00     0.007 C 
ATOM      9  C   UNL d   1      -4.439  -2.584   5.996  0.00  0.00     0.009 C 
ENDBRANCH   7   8
ENDBRANCH   1   7
TORSDOF 2
ENDMDL
