MODEL 1
REMARK minimizedAffinity 5.95142794
REMARK minimizedRMSD -1
REMARK  2 active torsions:
REMARK  status: ('A' for Active; 'I' for Inactive)
REMARK    1  A    between atoms: C1_2  and  C2_3 
REMARK    2  A    between atoms: C2_3  and  C3_4 
ROOT
ATOM      1  C3  UNL d   1      -2.006   0.682   1.921  0.00  0.00    -0.075 A 
ATOM      2  C4  UNL d   1      -2.451   1.985   1.659  0.00  0.00     0.002 A 
ATOM      3  C5  UNL d   1      -3.810   2.247   1.477  0.00  0.00     0.002 A 
ATOM      4  C6  UNL d   1      -4.737   1.210   1.545  0.00  0.00    -0.004 A 
ATOM      5  C7  UNL d   1      -4.304  -0.092   1.788  0.00  0.00     0.002 A 
ATOM      6  C8  UNL d   1      -2.946  -0.356   1.974  0.00  0.00     0.002 A 
ENDROOT
BRANCH   1   7
ATOM      7  C2  UNL d   1      -0.540   0.396   2.147  0.00  0.00     0.056 C 
BRANCH   7   8
ATOM      8  C1  UNL d   1       0.377   1.594   1.878  0.00  0.00     0.007 C 
ATOM      9  C   UNL d   1       1.192   2.011   3.095  0.00  0.00     0.009 C 
ENDBRANCH   7   8
ENDBRANCH   1   7
TORSDOF 2
ENDMDL
