MODEL 1
REMARK minimizedAffinity 1.88364184
REMARK minimizedRMSD -1
REMARK  2 active torsions:
REMARK  status: ('A' for Active; 'I' for Inactive)
REMARK    1  A    between atoms: C1_2  and  C2_3 
REMARK    2  A    between atoms: C2_3  and  C3_4 
ROOT
ATOM      1  C3  UNL d   1       5.541  -3.613   3.121  0.00  0.00    -0.075 A 
ATOM      2  C4  UNL d   1       5.766  -4.835   2.470  0.00  0.00     0.002 A 
ATOM      3  C5  UNL d   1       5.988  -5.999   3.205  0.00  0.00     0.002 A 
ATOM      4  C6  UNL d   1       5.998  -5.956   4.598  0.00  0.00    -0.004 A 
ATOM      5  C7  UNL d   1       5.793  -4.745   5.255  0.00  0.00     0.002 A 
ATOM      6  C8  UNL d   1       5.566  -3.579   4.521  0.00  0.00     0.002 A 
ENDROOT
BRANCH   1   7
ATOM      7  C2  UNL d   1       5.271  -2.355   2.330  0.00  0.00     0.056 C 
BRANCH   7   8
ATOM      8  C1  UNL d   1       4.245  -1.420   2.978  0.00  0.00     0.007 C 
ATOM      9  C   UNL d   1       2.826  -1.973   2.948  0.00  0.00     0.009 C 
ENDBRANCH   7   8
ENDBRANCH   1   7
TORSDOF 2
ENDMDL
