MODEL 1
REMARK minimizedAffinity 12.5563622
REMARK minimizedRMSD -1
REMARK  2 active torsions:
REMARK  status: ('A' for Active; 'I' for Inactive)
REMARK    1  A    between atoms: C1_2  and  C2_3 
REMARK    2  A    between atoms: C2_3  and  C3_4 
ROOT
ATOM      1  C3  UNL d   1      -3.993  -1.055   1.166  0.00  0.00    -0.075 A 
ATOM      2  C4  UNL d   1      -4.826  -0.261   1.967  0.00  0.00     0.002 A 
ATOM      3  C5  UNL d   1      -4.415   1.008   2.377  0.00  0.00     0.002 A 
ATOM      4  C6  UNL d   1      -3.165   1.494   2.000  0.00  0.00    -0.004 A 
ATOM      5  C7  UNL d   1      -2.323   0.707   1.218  0.00  0.00     0.002 A 
ATOM      6  C8  UNL d   1      -2.733  -0.561   0.803  0.00  0.00     0.002 A 
ENDROOT
BRANCH   1   7
ATOM      7  C2  UNL d   1      -4.444  -2.417   0.695  0.00  0.00     0.056 C 
BRANCH   7   8
ATOM      8  C1  UNL d   1      -3.423  -3.140  -0.191  0.00  0.00     0.007 C 
ATOM      9  C   UNL d   1      -2.468  -4.027   0.596  0.00  0.00     0.009 C 
ENDBRANCH   7   8
ENDBRANCH   1   7
TORSDOF 2
ENDMDL
