MODEL 1
REMARK minimizedAffinity 16.7806931
REMARK minimizedRMSD -1
REMARK  2 active torsions:
REMARK  status: ('A' for Active; 'I' for Inactive)
REMARK    1  A    between atoms: C1_2  and  C2_3 
REMARK    2  A    between atoms: C2_3  and  C3_4 
ROOT
ATOM      1  C3  UNL d   1      -1.896  -1.307   0.651  0.00  0.00    -0.075 A 
ATOM      2  C4  UNL d   1      -0.930  -2.322   0.588  0.00  0.00     0.002 A 
ATOM      3  C5  UNL d   1      -1.289  -3.619   0.219  0.00  0.00     0.002 A 
ATOM      4  C6  UNL d   1      -2.616  -3.919  -0.082  0.00  0.00    -0.004 A 
ATOM      5  C7  UNL d   1      -3.586  -2.922  -0.007  0.00  0.00     0.002 A 
ATOM      6  C8  UNL d   1      -3.229  -1.622   0.358  0.00  0.00     0.002 A 
ENDROOT
BRANCH   1   7
ATOM      7  C2  UNL d   1      -1.509   0.105   1.021  0.00  0.00     0.056 C 
BRANCH   7   8
ATOM      8  C1  UNL d   1      -1.787   0.464   2.485  0.00  0.00     0.007 C 
ATOM      9  C   UNL d   1      -2.624   1.727   2.644  0.00  0.00     0.009 C 
ENDBRANCH   7   8
ENDBRANCH   1   7
TORSDOF 2
ENDMDL
