MODEL 1
REMARK minimizedAffinity -2.12565517
REMARK minimizedRMSD -1
REMARK  1 active torsions:
REMARK  status: ('A' for Active; 'I' for Inactive)
REMARK    1  A    between atoms: C1_2  and  C2_3 
ROOT
ATOM      1  C2  UNL d   1       0.455   0.765  -0.161  0.00  0.00    -0.081 A 
ATOM      2  C3  UNL d   1       0.677   2.121  -0.428  0.00  0.00     0.006 A 
ATOM      3  C4  UNL d   1       1.741   2.797   0.173  0.00  0.00     0.002 A 
ATOM      4  C5  UNL d   1       2.606   2.127   1.044  0.00  0.00    -0.080 A 
ATOM      5  C6  UNL d   1       3.771   2.833   1.672  0.00  0.00     0.076 C 
ATOM      6  C7  UNL d   1       2.375   0.776   1.325  0.00  0.00     0.002 A 
ATOM      7  C8  UNL d   1       1.310   0.100   0.725  0.00  0.00     0.006 A 
ENDROOT
BRANCH   1   8
ATOM      8  C1  UNL d   1      -0.653   0.017  -0.858  0.00  0.00     0.054 C 
ATOM      9  C   UNL d   1      -1.519   0.956  -1.684  0.00  0.00     0.018 C 
ENDBRANCH   1   8
TORSDOF 1
ENDMDL
