MODEL 1
REMARK minimizedAffinity -0.152854219
REMARK minimizedRMSD -1
REMARK  1 active torsions:
REMARK  status: ('A' for Active; 'I' for Inactive)
REMARK    1  A    between atoms: C1_2  and  C2_3 
ROOT
ATOM      1  C2  UNL d   1       0.631  -0.305  -0.194  0.00  0.00    -0.081 A 
ATOM      2  C3  UNL d   1       0.173  -1.385   0.571  0.00  0.00     0.006 A 
ATOM      3  C4  UNL d   1      -1.086  -1.940   0.329  0.00  0.00     0.002 A 
ATOM      4  C5  UNL d   1      -1.904  -1.431  -0.684  0.00  0.00    -0.080 A 
ATOM      5  C6  UNL d   1      -3.245  -2.037  -0.974  0.00  0.00     0.076 C 
ATOM      6  C7  UNL d   1      -1.454  -0.340  -1.437  0.00  0.00     0.002 A 
ATOM      7  C8  UNL d   1      -0.195   0.215  -1.196  0.00  0.00     0.006 A 
ENDROOT
BRANCH   1   8
ATOM      8  C1  UNL d   1       2.014   0.254   0.021  0.00  0.00     0.054 C 
ATOM      9  C   UNL d   1       1.967   1.566   0.789  0.00  0.00     0.018 C 
ENDBRANCH   1   8
TORSDOF 1
ENDMDL
