MODEL 1
REMARK minimizedAffinity -4.13811207
REMARK minimizedRMSD -1
REMARK  1 active torsions:
REMARK  status: ('A' for Active; 'I' for Inactive)
REMARK    1  A    between atoms: C1_2  and  C2_3 
ROOT
ATOM      1  C2  UNL d   1      -0.914  -1.497   0.529  0.00  0.00    -0.081 A 
ATOM      2  C3  UNL d   1       0.167  -0.611   0.432  0.00  0.00     0.006 A 
ATOM      3  C4  UNL d   1       0.130   0.455  -0.469  0.00  0.00     0.002 A 
ATOM      4  C5  UNL d   1      -0.990   0.659  -1.282  0.00  0.00    -0.080 A 
ATOM      5  C6  UNL d   1      -1.055   1.818  -2.232  0.00  0.00     0.076 C 
ATOM      6  C7  UNL d   1      -2.063  -0.236  -1.198  0.00  0.00     0.002 A 
ATOM      7  C8  UNL d   1      -2.026  -1.303  -0.297  0.00  0.00     0.006 A 
ENDROOT
BRANCH   1   8
ATOM      8  C1  UNL d   1      -0.904  -2.610   1.546  0.00  0.00     0.054 C 
ATOM      9  C   UNL d   1      -1.907  -3.696   1.187  0.00  0.00     0.018 C 
ENDBRANCH   1   8
TORSDOF 1
ENDMDL
