MODEL 1
REMARK minimizedAffinity -3.60930014
REMARK minimizedRMSD -1
REMARK  1 active torsions:
REMARK  status: ('A' for Active; 'I' for Inactive)
REMARK    1  A    between atoms: C1_2  and  C2_3 
ROOT
ATOM      1  C2  UNL d   1      -0.760  -1.555   0.532  0.00  0.00    -0.081 A 
ATOM      2  C3  UNL d   1      -1.841  -1.669  -0.351  0.00  0.00     0.006 A 
ATOM      3  C4  UNL d   1      -1.937  -0.831  -1.464  0.00  0.00     0.002 A 
ATOM      4  C5  UNL d   1      -0.952   0.130  -1.716  0.00  0.00    -0.080 A 
ATOM      5  C6  UNL d   1      -1.029   1.017  -2.924  0.00  0.00     0.076 C 
ATOM      6  C7  UNL d   1       0.118   0.256  -0.824  0.00  0.00     0.002 A 
ATOM      7  C8  UNL d   1       0.215  -0.581   0.289  0.00  0.00     0.006 A 
ENDROOT
BRANCH   1   8
ATOM      8  C1  UNL d   1      -0.620  -2.501   1.697  0.00  0.00     0.054 C 
ATOM      9  C   UNL d   1      -1.331  -3.819   1.429  0.00  0.00     0.018 C 
ENDBRANCH   1   8
TORSDOF 1
ENDMDL
