MODEL 1
REMARK minimizedAffinity -0.0522668958
REMARK minimizedRMSD -1
REMARK  1 active torsions:
REMARK  status: ('A' for Active; 'I' for Inactive)
REMARK    1  A    between atoms: C1_2  and  C2_3 
ROOT
ATOM      1  C2  UNL d   1      -1.428  -1.433  -0.144  0.00  0.00    -0.081 A 
ATOM      2  C3  UNL d   1      -0.502  -1.450   0.906  0.00  0.00     0.006 A 
ATOM      3  C4  UNL d   1       0.620  -0.619   0.874  0.00  0.00     0.002 A 
ATOM      4  C5  UNL d   1       0.831   0.247  -0.204  0.00  0.00    -0.080 A 
ATOM      5  C6  UNL d   1       2.016   1.166  -0.237  0.00  0.00     0.076 C 
ATOM      6  C7  UNL d   1      -0.084   0.251  -1.262  0.00  0.00     0.002 A 
ATOM      7  C8  UNL d   1      -1.207  -0.580  -1.230  0.00  0.00     0.006 A 
ENDROOT
BRANCH   1   8
ATOM      8  C1  UNL d   1      -2.673  -2.281  -0.082  0.00  0.00     0.054 C 
ATOM      9  C   UNL d   1      -2.430  -3.564   0.699  0.00  0.00     0.018 C 
ENDBRANCH   1   8
TORSDOF 1
ENDMDL
