MODEL 1
REMARK minimizedAffinity -0.402457327
REMARK minimizedRMSD -1
REMARK  1 active torsions:
REMARK  status: ('A' for Active; 'I' for Inactive)
REMARK    1  A    between atoms: C1_2  and  C2_3 
ROOT
ATOM      1  C2  UNL d   1       1.118   1.480   0.564  0.00  0.00    -0.081 A 
ATOM      2  C3  UNL d   1       0.019   2.101  -0.042  0.00  0.00     0.006 A 
ATOM      3  C4  UNL d   1      -0.949   1.340  -0.701  0.00  0.00     0.002 A 
ATOM      4  C5  UNL d   1      -0.839  -0.054  -0.759  0.00  0.00    -0.080 A 
ATOM      5  C6  UNL d   1      -1.887  -0.885  -1.438  0.00  0.00     0.076 C 
ATOM      6  C7  UNL d   1       0.268  -0.673  -0.169  0.00  0.00     0.002 A 
ATOM      7  C8  UNL d   1       1.237   0.088   0.490  0.00  0.00     0.006 A 
ENDROOT
BRANCH   1   8
ATOM      8  C1  UNL d   1       2.130   2.292   1.331  0.00  0.00     0.054 C 
ATOM      9  C   UNL d   1       2.060   3.764   0.953  0.00  0.00     0.018 C 
ENDBRANCH   1   8
TORSDOF 1
ENDMDL
