MODEL 1
REMARK minimizedAffinity -2.54128098
REMARK minimizedRMSD -1
REMARK  1 active torsions:
REMARK  status: ('A' for Active; 'I' for Inactive)
REMARK    1  A    between atoms: C1_2  and  C2_3 
ROOT
ATOM      1  C2  UNL d   1       1.354   0.929  -0.027  0.00  0.00    -0.081 A 
ATOM      2  C3  UNL d   1       0.416   0.321   0.815  0.00  0.00     0.006 A 
ATOM      3  C4  UNL d   1      -0.742  -0.255   0.287  0.00  0.00     0.002 A 
ATOM      4  C5  UNL d   1      -0.977  -0.240  -1.092  0.00  0.00    -0.080 A 
ATOM      5  C6  UNL d   1      -2.201  -0.881  -1.675  0.00  0.00     0.076 C 
ATOM      6  C7  UNL d   1      -0.048   0.384  -1.932  0.00  0.00     0.002 A 
ATOM      7  C8  UNL d   1       1.109   0.961  -1.404  0.00  0.00     0.006 A 
ENDROOT
BRANCH   1   8
ATOM      8  C1  UNL d   1       2.634   1.494   0.533  0.00  0.00     0.054 C 
ATOM      9  C   UNL d   1       2.356   2.585   1.558  0.00  0.00     0.018 C 
ENDBRANCH   1   8
TORSDOF 1
ENDMDL
