MODEL 1
REMARK minimizedAffinity -5.11508465
REMARK minimizedRMSD -1
REMARK  1 active torsions:
REMARK  status: ('A' for Active; 'I' for Inactive)
REMARK    1  A    between atoms: C1_2  and  C2_3 
ROOT
ATOM      1  C2  UNL d   1       0.347  -0.837   0.156  0.00  0.00    -0.081 A 
ATOM      2  C3  UNL d   1      -0.269  -0.049  -0.824  0.00  0.00     0.006 A 
ATOM      3  C4  UNL d   1      -1.652  -0.108  -1.014  0.00  0.00     0.002 A 
ATOM      4  C5  UNL d   1      -2.442  -0.949  -0.222  0.00  0.00    -0.080 A 
ATOM      5  C6  UNL d   1      -3.931  -0.999  -0.395  0.00  0.00     0.076 C 
ATOM      6  C7  UNL d   1      -1.824  -1.749   0.745  0.00  0.00     0.002 A 
ATOM      7  C8  UNL d   1      -0.442  -1.691   0.935  0.00  0.00     0.006 A 
ENDROOT
BRANCH   1   8
ATOM      8  C1  UNL d   1       1.829  -0.728   0.407  0.00  0.00     0.054 C 
ATOM      9  C   UNL d   1       2.240   0.712   0.678  0.00  0.00     0.018 C 
ENDBRANCH   1   8
TORSDOF 1
ENDMDL
