MODEL 1
REMARK minimizedAffinity -2.28137612
REMARK minimizedRMSD -1
REMARK  1 active torsions:
REMARK  status: ('A' for Active; 'I' for Inactive)
REMARK    1  A    between atoms: C1_2  and  C2_3 
ROOT
ATOM      1  C2  UNL d   1       0.464   0.082   0.171  0.00  0.00    -0.081 A 
ATOM      2  C3  UNL d   1      -0.521   0.181  -0.818  0.00  0.00     0.006 A 
ATOM      3  C4  UNL d   1      -1.518  -0.791  -0.925  0.00  0.00     0.002 A 
ATOM      4  C5  UNL d   1      -1.551  -1.874  -0.040  0.00  0.00    -0.080 A 
ATOM      5  C6  UNL d   1      -2.633  -2.909  -0.124  0.00  0.00     0.076 C 
ATOM      6  C7  UNL d   1      -0.556  -1.982   0.938  0.00  0.00     0.002 A 
ATOM      7  C8  UNL d   1       0.441  -1.011   1.044  0.00  0.00     0.006 A 
ENDROOT
BRANCH   1   8
ATOM      8  C1  UNL d   1       1.503   1.163   0.329  0.00  0.00     0.054 C 
ATOM      9  C   UNL d   1       1.372   1.863   1.674  0.00  0.00     0.018 C 
ENDBRANCH   1   8
TORSDOF 1
ENDMDL
