MODEL 1
REMARK minimizedAffinity -1.91056299
REMARK minimizedRMSD -1
REMARK  1 active torsions:
REMARK  status: ('A' for Active; 'I' for Inactive)
REMARK    1  A    between atoms: C1_2  and  C2_3 
ROOT
ATOM      1  C2  UNL d   1      -0.337  -1.510   1.172  0.00  0.00    -0.081 A 
ATOM      2  C3  UNL d   1      -0.720  -0.484   0.298  0.00  0.00     0.006 A 
ATOM      3  C4  UNL d   1       0.179   0.530  -0.040  0.00  0.00     0.002 A 
ATOM      4  C5  UNL d   1       1.477   0.532   0.483  0.00  0.00    -0.080 A 
ATOM      5  C6  UNL d   1       2.462   1.598   0.104  0.00  0.00     0.076 C 
ATOM      6  C7  UNL d   1       1.854  -0.483   1.369  0.00  0.00     0.002 A 
ATOM      7  C8  UNL d   1       0.955  -1.497   1.708  0.00  0.00     0.006 A 
ENDROOT
BRANCH   1   8
ATOM      8  C1  UNL d   1      -1.283  -2.640   1.487  0.00  0.00     0.054 C 
ATOM      9  C   UNL d   1      -2.256  -2.883   0.342  0.00  0.00     0.018 C 
ENDBRANCH   1   8
TORSDOF 1
ENDMDL
