MODEL 1
REMARK minimizedAffinity -3.23284054
REMARK minimizedRMSD -1
REMARK  1 active torsions:
REMARK  status: ('A' for Active; 'I' for Inactive)
REMARK    1  A    between atoms: C1_2  and  C2_3 
ROOT
ATOM      1  C2  UNL d   1       0.425   0.177   0.099  0.00  0.00    -0.081 A 
ATOM      2  C3  UNL d   1      -0.573   0.419  -0.853  0.00  0.00     0.006 A 
ATOM      3  C4  UNL d   1      -1.702  -0.401  -0.918  0.00  0.00     0.002 A 
ATOM      4  C5  UNL d   1      -1.857  -1.469  -0.029  0.00  0.00    -0.080 A 
ATOM      5  C6  UNL d   1      -3.079  -2.338  -0.068  0.00  0.00     0.076 C 
ATOM      6  C7  UNL d   1      -0.851  -1.722   0.911  0.00  0.00     0.002 A 
ATOM      7  C8  UNL d   1       0.279  -0.903   0.976  0.00  0.00     0.006 A 
ENDROOT
BRANCH   1   8
ATOM      8  C1  UNL d   1       1.614   1.097   0.214  0.00  0.00     0.054 C 
ATOM      9  C   UNL d   1       1.782   1.608   1.638  0.00  0.00     0.018 C 
ENDBRANCH   1   8
TORSDOF 1
ENDMDL
