MODEL 1
REMARK minimizedAffinity 6.16186666
REMARK minimizedRMSD -1
REMARK  1 active torsions:
REMARK  status: ('A' for Active; 'I' for Inactive)
REMARK    1  A    between atoms: C1_2  and  C2_3 
ROOT
ATOM      1  C2  UNL d   1       0.720  -2.530   2.179  0.00  0.00    -0.077 A 
ATOM      2  C3  UNL d   1       1.393  -1.551   1.434  0.00  0.00     0.002 A 
ATOM      3  C4  UNL d   1       2.292  -1.920   0.432  0.00  0.00     0.002 A 
ATOM      4  C5  UNL d   1       2.523  -3.268   0.163  0.00  0.00    -0.004 A 
ATOM      5  C6  UNL d   1       1.861  -4.249   0.900  0.00  0.00     0.002 A 
ATOM      6  C7  UNL d   1       0.962  -3.881   1.903  0.00  0.00     0.002 A 
ENDROOT
BRANCH   1   7
ATOM      7  C1  UNL d   1      -0.287  -2.133   3.227  0.00  0.00     0.055 C 
ATOM      8  C   UNL d   1      -1.483  -3.074   3.230  0.00  0.00     0.019 C 
ENDBRANCH   1   7
TORSDOF 1
ENDMDL
