MODEL 1
REMARK minimizedAffinity 5.28579283
REMARK minimizedRMSD -1
REMARK  1 active torsions:
REMARK  status: ('A' for Active; 'I' for Inactive)
REMARK    1  A    between atoms: C1_2  and  C2_3 
ROOT
ATOM      1  C2  UNL d   1      -0.149  -1.623   2.499  0.00  0.00    -0.077 A 
ATOM      2  C3  UNL d   1      -0.127  -1.211   1.159  0.00  0.00     0.002 A 
ATOM      3  C4  UNL d   1       0.805  -1.749   0.270  0.00  0.00     0.002 A 
ATOM      4  C5  UNL d   1       1.719  -2.705   0.710  0.00  0.00    -0.004 A 
ATOM      5  C6  UNL d   1       1.706  -3.119   2.041  0.00  0.00     0.002 A 
ATOM      6  C7  UNL d   1       0.776  -2.582   2.931  0.00  0.00     0.002 A 
ENDROOT
BRANCH   1   7
ATOM      7  C1  UNL d   1      -1.186  -1.080   3.448  0.00  0.00     0.055 C 
ATOM      8  C   UNL d   1      -1.876   0.147   2.870  0.00  0.00     0.019 C 
ENDBRANCH   1   7
TORSDOF 1
ENDMDL
