MODEL 1
REMARK minimizedAffinity 0.0631185696
REMARK minimizedRMSD -1
REMARK  1 active torsions:
REMARK  status: ('A' for Active; 'I' for Inactive)
REMARK    1  A    between atoms: C1_2  and  C2_3 
ROOT
ATOM      1  C2  UNL d   1      -0.484   2.144  -3.305  0.00  0.00    -0.077 A 
ATOM      2  C3  UNL d   1       0.329   3.264  -3.085  0.00  0.00     0.002 A 
ATOM      3  C4  UNL d   1       1.324   3.606  -4.004  0.00  0.00     0.002 A 
ATOM      4  C5  UNL d   1       1.511   2.836  -5.150  0.00  0.00    -0.004 A 
ATOM      5  C6  UNL d   1       0.708   1.718  -5.376  0.00  0.00     0.002 A 
ATOM      6  C7  UNL d   1      -0.285   1.374  -4.459  0.00  0.00     0.002 A 
ENDROOT
BRANCH   1   7
ATOM      7  C1  UNL d   1      -1.590   1.802  -2.341  0.00  0.00     0.055 C 
ATOM      8  C   UNL d   1      -2.794   2.712  -2.534  0.00  0.00     0.019 C 
ENDBRANCH   1   7
TORSDOF 1
ENDMDL
