MODEL 1
REMARK minimizedAffinity -1.44267011
REMARK minimizedRMSD -1
REMARK  1 active torsions:
REMARK  status: ('A' for Active; 'I' for Inactive)
REMARK    1  A    between atoms: C1_2  and  C2_3 
ROOT
ATOM      1  C2  UNL d   1       5.999  -0.210  -1.788  0.00  0.00    -0.077 A 
ATOM      2  C3  UNL d   1       6.000   1.094  -2.302  0.00  0.00     0.002 A 
ATOM      3  C4  UNL d   1       5.997   1.310  -3.681  0.00  0.00     0.002 A 
ATOM      4  C5  UNL d   1       5.989   0.227  -4.558  0.00  0.00    -0.004 A 
ATOM      5  C6  UNL d   1       5.990  -1.074  -4.057  0.00  0.00     0.002 A 
ATOM      6  C7  UNL d   1       5.995  -1.292  -2.678  0.00  0.00     0.002 A 
ENDROOT
BRANCH   1   7
ATOM      7  C1  UNL d   1       5.953  -0.445  -0.301  0.00  0.00     0.055 C 
ATOM      8  C   UNL d   1       5.345  -1.801   0.026  0.00  0.00     0.019 C 
ENDBRANCH   1   7
TORSDOF 1
ENDMDL
