MODEL 1
REMARK minimizedAffinity 1.53458154
REMARK minimizedRMSD -1
REMARK  1 active torsions:
REMARK  status: ('A' for Active; 'I' for Inactive)
REMARK    1  A    between atoms: C1_2  and  C2_3 
ROOT
ATOM      1  C2  UNL d   1       5.960   0.540   1.684  0.00  0.00    -0.077 A 
ATOM      2  C3  UNL d   1       5.959  -0.855   1.550  0.00  0.00     0.002 A 
ATOM      3  C4  UNL d   1       5.976  -1.443   0.284  0.00  0.00     0.002 A 
ATOM      4  C5  UNL d   1       5.998  -0.644  -0.857  0.00  0.00    -0.004 A 
ATOM      5  C6  UNL d   1       5.997   0.745  -0.735  0.00  0.00     0.002 A 
ATOM      6  C7  UNL d   1       5.978   1.335   0.530  0.00  0.00     0.002 A 
ENDROOT
BRANCH   1   7
ATOM      7  C1  UNL d   1       5.991   1.176   3.049  0.00  0.00     0.055 C 
ATOM      8  C   UNL d   1       6.000   2.695   2.952  0.00  0.00     0.019 C 
ENDBRANCH   1   7
TORSDOF 1
ENDMDL
