MODEL 1
REMARK minimizedAffinity 4.66422844
REMARK minimizedRMSD -1
REMARK  0 active torsions:
REMARK  status: ('A' for Active; 'I' for Inactive)
ROOT
ATOM      1  C1  BNZ d   1      -5.663  -3.804   0.828  0.00  0.00     0.000 A 
ATOM      2  C2  BNZ d   1      -5.999  -4.900   1.577  0.00  0.00     0.000 A 
ATOM      3  C3  BNZ d   1      -5.176  -5.990   1.631  0.00  0.00     0.000 A 
ATOM      4  C4  BNZ d   1      -4.039  -5.999   0.905  0.00  0.00     0.000 A 
ATOM      5  C5  BNZ d   1      -3.692  -4.905   0.137  0.00  0.00     0.000 A 
ATOM      6  C6  BNZ d   1      -4.503  -3.794   0.116  0.00  0.00     0.000 A 
ENDROOT
TORSDOF 0
ENDMDL
