MODEL 1
REMARK minimizedAffinity -0.693168521
REMARK minimizedRMSD -1
REMARK  0 active torsions:
REMARK  status: ('A' for Active; 'I' for Inactive)
ROOT
ATOM      1  C1  BNZ d   1      -3.334   2.270   2.055  0.00  0.00     0.000 A 
ATOM      2  C2  BNZ d   1      -2.192   1.829   1.441  0.00  0.00     0.000 A 
ATOM      3  C3  BNZ d   1      -1.607   0.651   1.814  0.00  0.00     0.000 A 
ATOM      4  C4  BNZ d   1      -2.142  -0.064   2.825  0.00  0.00     0.000 A 
ATOM      5  C5  BNZ d   1      -3.287   0.372   3.460  0.00  0.00     0.000 A 
ATOM      6  C6  BNZ d   1      -3.895   1.539   3.056  0.00  0.00     0.000 A 
ENDROOT
TORSDOF 0
ENDMDL
