MODEL 1
REMARK minimizedAffinity 3.83011508
REMARK minimizedRMSD -1
REMARK  0 active torsions:
REMARK  status: ('A' for Active; 'I' for Inactive)
ROOT
ATOM      1  C1  BNZ d   1      -4.880  -5.997   1.106  0.00  0.00     0.000 A 
ATOM      2  C2  BNZ d   1      -6.000  -5.243   0.876  0.00  0.00     0.000 A 
ATOM      3  C3  BNZ d   1      -5.896  -3.929   0.514  0.00  0.00     0.000 A 
ATOM      4  C4  BNZ d   1      -4.677  -3.360   0.423  0.00  0.00     0.000 A 
ATOM      5  C5  BNZ d   1      -3.539  -4.105   0.660  0.00  0.00     0.000 A 
ATOM      6  C6  BNZ d   1      -3.645  -5.438   0.986  0.00  0.00     0.000 A 
ENDROOT
TORSDOF 0
ENDMDL
