MODEL 1
REMARK minimizedAffinity -0.0573696047
REMARK minimizedRMSD -1
REMARK  0 active torsions:
REMARK  status: ('A' for Active; 'I' for Inactive)
ROOT
ATOM      1  C1  BNZ d   1      -4.831  -3.591  -0.063  0.00  0.00     0.000 A 
ATOM      2  C2  BNZ d   1      -3.684  -4.330   0.049  0.00  0.00     0.000 A 
ATOM      3  C3  BNZ d   1      -3.691  -5.542   0.680  0.00  0.00     0.000 A 
ATOM      4  C4  BNZ d   1      -4.835  -5.995   1.233  0.00  0.00     0.000 A 
ATOM      5  C5  BNZ d   1      -5.998  -5.257   1.137  0.00  0.00     0.000 A 
ATOM      6  C6  BNZ d   1      -5.995  -4.055   0.467  0.00  0.00     0.000 A 
ENDROOT
TORSDOF 0
ENDMDL
