MODEL 1
REMARK minimizedAffinity 3.687325
REMARK minimizedRMSD -1
REMARK  0 active torsions:
REMARK  status: ('A' for Active; 'I' for Inactive)
ROOT
ATOM      1  C1  BNZ d   1      -3.624  -5.345  -0.023  0.00  0.00     0.000 A 
ATOM      2  C2  BNZ d   1      -3.688  -4.027  -0.388  0.00  0.00     0.000 A 
ATOM      3  C3  BNZ d   1      -4.874  -3.348  -0.356  0.00  0.00     0.000 A 
ATOM      4  C4  BNZ d   1      -6.000  -3.998   0.002  0.00  0.00     0.000 A 
ATOM      5  C5  BNZ d   1      -5.954  -5.330   0.364  0.00  0.00     0.000 A 
ATOM      6  C6  BNZ d   1      -4.752  -5.999   0.367  0.00  0.00     0.000 A 
ENDROOT
TORSDOF 0
ENDMDL
