MODEL 1
REMARK minimizedAffinity 2.24698043
REMARK minimizedRMSD -1
REMARK  0 active torsions:
REMARK  status: ('A' for Active; 'I' for Inactive)
ROOT
ATOM      1  C1  BNZ d   1      -1.222   1.705   2.740  0.00  0.00     0.000 A 
ATOM      2  C2  BNZ d   1      -1.055   0.421   2.293  0.00  0.00     0.000 A 
ATOM      3  C3  BNZ d   1      -1.918  -0.120   1.382  0.00  0.00     0.000 A 
ATOM      4  C4  BNZ d   1      -2.969   0.607   0.950  0.00  0.00     0.000 A 
ATOM      5  C5  BNZ d   1      -3.156   1.899   1.399  0.00  0.00     0.000 A 
ATOM      6  C6  BNZ d   1      -2.263   2.455   2.286  0.00  0.00     0.000 A 
ENDROOT
TORSDOF 0
ENDMDL
