MODEL 1
REMARK minimizedAffinity 3.81672049
REMARK minimizedRMSD -1
REMARK  0 active torsions:
REMARK  status: ('A' for Active; 'I' for Inactive)
ROOT
ATOM      1  C1  BNZ d   1      -1.561  -3.122  -5.991  0.00  0.00     0.000 A 
ATOM      2  C2  BNZ d   1      -2.683  -2.336  -5.984  0.00  0.00     0.000 A 
ATOM      3  C3  BNZ d   1      -3.930  -2.897  -5.960  0.00  0.00     0.000 A 
ATOM      4  C4  BNZ d   1      -4.053  -4.239  -5.983  0.00  0.00     0.000 A 
ATOM      5  C5  BNZ d   1      -2.932  -5.045  -5.999  0.00  0.00     0.000 A 
ATOM      6  C6  BNZ d   1      -1.679  -4.478  -5.984  0.00  0.00     0.000 A 
ENDROOT
TORSDOF 0
ENDMDL
