MODEL 1
REMARK minimizedAffinity 7.22911024
REMARK minimizedRMSD -1
REMARK  0 active torsions:
REMARK  status: ('A' for Active; 'I' for Inactive)
ROOT
ATOM      1  C1  BNZ d   1       0.693   0.722  -5.676  0.00  0.00     0.000 A 
ATOM      2  C2  BNZ d   1       0.714  -0.260  -4.722  0.00  0.00     0.000 A 
ATOM      3  C3  BNZ d   1       1.828  -0.470  -3.958  0.00  0.00     0.000 A 
ATOM      4  C4  BNZ d   1       2.932   0.274  -4.177  0.00  0.00     0.000 A 
ATOM      5  C5  BNZ d   1       2.929   1.261  -5.142  0.00  0.00     0.000 A 
ATOM      6  C6  BNZ d   1       1.793   1.496  -5.882  0.00  0.00     0.000 A 
ENDROOT
TORSDOF 0
ENDMDL
