MODEL 1
REMARK minimizedAffinity 5.50428391
REMARK minimizedRMSD -1
REMARK  0 active torsions:
REMARK  status: ('A' for Active; 'I' for Inactive)
ROOT
ATOM      1  C1  BNZ d   1      -0.245  -1.891  -5.088  0.00  0.00     0.000 A 
ATOM      2  C2  BNZ d   1       0.896  -2.084  -4.357  0.00  0.00     0.000 A 
ATOM      3  C3  BNZ d   1       1.683  -1.027  -3.995  0.00  0.00     0.000 A 
ATOM      4  C4  BNZ d   1       1.349   0.216  -4.397  0.00  0.00     0.000 A 
ATOM      5  C5  BNZ d   1       0.207   0.427  -5.143  0.00  0.00     0.000 A 
ATOM      6  C6  BNZ d   1      -0.604  -0.635  -5.473  0.00  0.00     0.000 A 
ENDROOT
TORSDOF 0
ENDMDL
