MODEL 1
REMARK minimizedAffinity 6.49131632
REMARK minimizedRMSD -1
REMARK  0 active torsions:
REMARK  status: ('A' for Active; 'I' for Inactive)
ROOT
ATOM      1  C1  BNZ d   1      -3.005  -1.927  -5.965  0.00  0.00     0.000 A 
ATOM      2  C2  BNZ d   1      -3.703  -3.104  -6.000  0.00  0.00     0.000 A 
ATOM      3  C3  BNZ d   1      -3.050  -4.305  -5.997  0.00  0.00     0.000 A 
ATOM      4  C4  BNZ d   1      -1.702  -4.327  -6.000  0.00  0.00     0.000 A 
ATOM      5  C5  BNZ d   1      -0.984  -3.148  -5.975  0.00  0.00     0.000 A 
ATOM      6  C6  BNZ d   1      -1.645  -1.941  -5.938  0.00  0.00     0.000 A 
ENDROOT
TORSDOF 0
ENDMDL
