MODEL 1
REMARK minimizedAffinity 3.2673552
REMARK minimizedRMSD -1
REMARK  0 active torsions:
REMARK  status: ('A' for Active; 'I' for Inactive)
ROOT
ATOM      1  C1  BNZ d   1       5.952  -4.950   3.537  0.00  0.00     0.000 A 
ATOM      2  C2  BNZ d   1       5.959  -5.644   4.718  0.00  0.00     0.000 A 
ATOM      3  C3  BNZ d   1       5.961  -4.987   5.916  0.00  0.00     0.000 A 
ATOM      4  C4  BNZ d   1       5.996  -3.639   5.933  0.00  0.00     0.000 A 
ATOM      5  C5  BNZ d   1       5.999  -2.925   4.751  0.00  0.00     0.000 A 
ATOM      6  C6  BNZ d   1       5.957  -3.589   3.547  0.00  0.00     0.000 A 
ENDROOT
TORSDOF 0
ENDMDL
