MODEL 1
REMARK minimizedAffinity 2.83589244
REMARK minimizedRMSD -1
REMARK  0 active torsions:
REMARK  status: ('A' for Active; 'I' for Inactive)
ROOT
ATOM      1  C1  BNZ d   1       2.416   4.803  -3.253  0.00  0.00     0.000 A 
ATOM      2  C2  BNZ d   1       1.806   4.973  -4.467  0.00  0.00     0.000 A 
ATOM      3  C3  BNZ d   1       2.512   4.842  -5.630  0.00  0.00     0.000 A 
ATOM      4  C4  BNZ d   1       3.834   4.581  -5.577  0.00  0.00     0.000 A 
ATOM      5  C5  BNZ d   1       4.466   4.417  -4.360  0.00  0.00     0.000 A 
ATOM      6  C6  BNZ d   1       3.744   4.511  -3.193  0.00  0.00     0.000 A 
ENDROOT
TORSDOF 0
ENDMDL
