MODEL 1
REMARK minimizedAffinity 6.43036366
REMARK minimizedRMSD -1
REMARK  0 active torsions:
REMARK  status: ('A' for Active; 'I' for Inactive)
ROOT
ATOM      1  C1  BNZ d   1      -3.256  -3.570  -5.975  0.00  0.00     0.000 A 
ATOM      2  C2  BNZ d   1      -4.617  -3.422  -5.957  0.00  0.00     0.000 A 
ATOM      3  C3  BNZ d   1      -5.439  -4.514  -5.935  0.00  0.00     0.000 A 
ATOM      4  C4  BNZ d   1      -4.901  -5.750  -5.970  0.00  0.00     0.000 A 
ATOM      5  C5  BNZ d   1      -3.530  -5.915  -5.997  0.00  0.00     0.000 A 
ATOM      6  C6  BNZ d   1      -2.705  -4.814  -5.981  0.00  0.00     0.000 A 
ENDROOT
TORSDOF 0
ENDMDL
