MODEL 1
REMARK minimizedAffinity -0.563893616
REMARK minimizedRMSD -1
REMARK  0 active torsions:
REMARK  status: ('A' for Active; 'I' for Inactive)
ROOT
ATOM      1  C1  BNZ d   1      -3.631  -2.104  -5.647  0.00  0.00     0.000 A 
ATOM      2  C2  BNZ d   1      -4.793  -1.486  -5.272  0.00  0.00     0.000 A 
ATOM      3  C3  BNZ d   1      -5.973  -2.176  -5.234  0.00  0.00     0.000 A 
ATOM      4  C4  BNZ d   1      -5.995  -3.471  -5.610  0.00  0.00     0.000 A 
ATOM      5  C5  BNZ d   1      -4.833  -4.106  -6.000  0.00  0.00     0.000 A 
ATOM      6  C6  BNZ d   1      -3.641  -3.419  -5.999  0.00  0.00     0.000 A 
ENDROOT
TORSDOF 0
ENDMDL
