MODEL 1
REMARK minimizedAffinity 6.00218534
REMARK minimizedRMSD -1
REMARK  0 active torsions:
REMARK  status: ('A' for Active; 'I' for Inactive)
ROOT
ATOM      1  C1  BNZ d   1       0.022  -0.160   3.241  0.00  0.00     0.000 A 
ATOM      2  C2  BNZ d   1       1.231   0.460   3.408  0.00  0.00     0.000 A 
ATOM      3  C3  BNZ d   1       1.445   1.719   2.919  0.00  0.00     0.000 A 
ATOM      4  C4  BNZ d   1       0.465   2.338   2.230  0.00  0.00     0.000 A 
ATOM      5  C5  BNZ d   1      -0.757   1.722   2.046  0.00  0.00     0.000 A 
ATOM      6  C6  BNZ d   1      -0.982   0.471   2.573  0.00  0.00     0.000 A 
ENDROOT
TORSDOF 0
ENDMDL
