MODEL 1
REMARK minimizedAffinity 3.75833631
REMARK minimizedRMSD -1
REMARK  0 active torsions:
REMARK  status: ('A' for Active; 'I' for Inactive)
ROOT
ATOM      1  C1  BNZ d   1      -3.307  -2.653  -5.998  0.00  0.00     0.000 A 
ATOM      2  C2  BNZ d   1      -4.350  -3.541  -6.000  0.00  0.00     0.000 A 
ATOM      3  C3  BNZ d   1      -5.481  -3.294  -5.273  0.00  0.00     0.000 A 
ATOM      4  C4  BNZ d   1      -5.551  -2.181  -4.514  0.00  0.00     0.000 A 
ATOM      5  C5  BNZ d   1      -4.505  -1.281  -4.494  0.00  0.00     0.000 A 
ATOM      6  C6  BNZ d   1      -3.384  -1.514  -5.258  0.00  0.00     0.000 A 
ENDROOT
TORSDOF 0
ENDMDL
