MODEL 1
REMARK minimizedAffinity -1.71524084
REMARK minimizedRMSD -1
REMARK  0 active torsions:
REMARK  status: ('A' for Active; 'I' for Inactive)
ROOT
ATOM      1  C1  BNZ d   1      -2.822   1.393   4.090  0.00  0.00     0.000 A 
ATOM      2  C2  BNZ d   1      -2.219   2.368   4.839  0.00  0.00     0.000 A 
ATOM      3  C3  BNZ d   1      -1.036   2.926   4.439  0.00  0.00     0.000 A 
ATOM      4  C4  BNZ d   1      -0.439   2.480   3.315  0.00  0.00     0.000 A 
ATOM      5  C5  BNZ d   1      -1.030   1.490   2.555  0.00  0.00     0.000 A 
ATOM      6  C6  BNZ d   1      -2.240   0.959   2.939  0.00  0.00     0.000 A 
ENDROOT
TORSDOF 0
ENDMDL
