MODEL 1
REMARK minimizedAffinity -4.33280134
REMARK minimizedRMSD -1
REMARK  2 active torsions:
REMARK  status: ('A' for Active; 'I' for Inactive)
REMARK    1  A    between atoms: C1_2  and  C2_3 
REMARK    2  A    between atoms: C2_3  and  C3_4 
ROOT
ATOM      1  C3  UNL d   1       0.284   0.261  -0.277  0.00  0.00    -0.075 A 
ATOM      2  C4  UNL d   1       1.237  -0.393   0.517  0.00  0.00     0.002 A 
ATOM      3  C5  UNL d   1       1.427  -0.020   1.847  0.00  0.00     0.002 A 
ATOM      4  C6  UNL d   1       0.677   1.017   2.397  0.00  0.00    -0.004 A 
ATOM      5  C7  UNL d   1      -0.261   1.685   1.613  0.00  0.00     0.002 A 
ATOM      6  C8  UNL d   1      -0.457   1.310   0.282  0.00  0.00     0.002 A 
ENDROOT
BRANCH   1   7
ATOM      7  C2  UNL d   1       0.052  -0.158  -1.709  0.00  0.00     0.056 C 
BRANCH   7   8
ATOM      8  C1  UNL d   1       0.728   0.750  -2.742  0.00  0.00     0.007 C 
ATOM      9  C   UNL d   1       0.145   0.605  -4.142  0.00  0.00     0.009 C 
ENDBRANCH   7   8
ENDBRANCH   1   7
TORSDOF 2
ENDMDL
