MODEL 1
REMARK minimizedAffinity -4.37105751
REMARK minimizedRMSD -1
REMARK  2 active torsions:
REMARK  status: ('A' for Active; 'I' for Inactive)
REMARK    1  A    between atoms: C1_2  and  C2_3 
REMARK    2  A    between atoms: C2_3  and  C3_4 
ROOT
ATOM      1  C3  UNL d   1       0.094  -0.271   0.133  0.00  0.00    -0.075 A 
ATOM      2  C4  UNL d   1       1.062   0.034   1.101  0.00  0.00     0.002 A 
ATOM      3  C5  UNL d   1       0.687   0.572   2.333  0.00  0.00     0.002 A 
ATOM      4  C6  UNL d   1      -0.656   0.821   2.608  0.00  0.00    -0.004 A 
ATOM      5  C7  UNL d   1      -1.624   0.538   1.647  0.00  0.00     0.002 A 
ATOM      6  C8  UNL d   1      -1.252  -0.005   0.416  0.00  0.00     0.002 A 
ENDROOT
BRANCH   1   7
ATOM      7  C2  UNL d   1       0.491  -0.880  -1.190  0.00  0.00     0.056 C 
BRANCH   7   8
ATOM      8  C1  UNL d   1       1.504  -0.047  -1.982  0.00  0.00     0.007 C 
ATOM      9  C   UNL d   1       1.305  -0.133  -3.489  0.00  0.00     0.009 C 
ENDBRANCH   7   8
ENDBRANCH   1   7
TORSDOF 2
ENDMDL
