MODEL 1
REMARK minimizedAffinity -4.71464252
REMARK minimizedRMSD -1
REMARK  2 active torsions:
REMARK  status: ('A' for Active; 'I' for Inactive)
REMARK    1  A    between atoms: C1_2  and  C2_3 
REMARK    2  A    between atoms: C2_3  and  C3_4 
ROOT
ATOM      1  C3  UNL d   1       0.006  -0.002   0.230  0.00  0.00    -0.075 A 
ATOM      2  C4  UNL d   1      -1.313   0.295   0.602  0.00  0.00     0.002 A 
ATOM      3  C5  UNL d   1      -1.582   0.932   1.814  0.00  0.00     0.002 A 
ATOM      4  C6  UNL d   1      -0.538   1.271   2.672  0.00  0.00    -0.004 A 
ATOM      5  C7  UNL d   1       0.775   0.966   2.321  0.00  0.00     0.002 A 
ATOM      6  C8  UNL d   1       1.047   0.333   1.107  0.00  0.00     0.002 A 
ENDROOT
BRANCH   1   7
ATOM      7  C2  UNL d   1       0.306  -0.664  -1.093  0.00  0.00     0.056 C 
BRANCH   7   8
ATOM      8  C1  UNL d   1       1.043   0.237  -2.089  0.00  0.00     0.007 C 
ATOM      9  C   UNL d   1       0.460   0.180  -3.495  0.00  0.00     0.009 C 
ENDBRANCH   7   8
ENDBRANCH   1   7
TORSDOF 2
ENDMDL
