MODEL 1
REMARK minimizedAffinity -3.140486
REMARK minimizedRMSD -1
REMARK  2 active torsions:
REMARK  status: ('A' for Active; 'I' for Inactive)
REMARK    1  A    between atoms: C1_2  and  C2_3 
REMARK    2  A    between atoms: C2_3  and  C3_4 
ROOT
ATOM      1  C3  UNL d   1       0.299  -0.247  -1.548  0.00  0.00    -0.075 A 
ATOM      2  C4  UNL d   1       1.531   0.268  -1.975  0.00  0.00     0.002 A 
ATOM      3  C5  UNL d   1       1.786   0.462  -3.333  0.00  0.00     0.002 A 
ATOM      4  C6  UNL d   1       0.818   0.134  -4.280  0.00  0.00    -0.004 A 
ATOM      5  C7  UNL d   1      -0.403  -0.394  -3.868  0.00  0.00     0.002 A 
ATOM      6  C8  UNL d   1      -0.662  -0.585  -2.509  0.00  0.00     0.002 A 
ENDROOT
BRANCH   1   7
ATOM      7  C2  UNL d   1       0.007  -0.432  -0.078  0.00  0.00     0.056 C 
BRANCH   7   8
ATOM      8  C1  UNL d   1      -1.455  -0.176   0.304  0.00  0.00     0.007 C 
ATOM      9  C   UNL d   1      -1.640   0.170   1.775  0.00  0.00     0.009 C 
ENDBRANCH   7   8
ENDBRANCH   1   7
TORSDOF 2
ENDMDL
