MODEL 1
REMARK minimizedAffinity 1.05808508
REMARK minimizedRMSD -1
REMARK  1 active torsions:
REMARK  status: ('A' for Active; 'I' for Inactive)
REMARK    1  A    between atoms: C3_4  and  O_7 
ROOT
ATOM      1  C   UNL d   1      -5.725  -3.831  -6.000  0.00  0.00    -0.033 A 
ATOM      2  C1  UNL d   1      -5.007  -3.167  -5.003  0.00  0.00     0.039 A 
ATOM      3  C2  UNL d   1      -4.479  -3.883  -3.926  0.00  0.00    -0.080 A 
ATOM      4  C3  UNL d   1      -4.675  -5.260  -3.859  0.00  0.00     0.150 A 
ATOM      5  C4  UNL d   1      -5.386  -5.927  -4.851  0.00  0.00    -0.007 A 
ATOM      6  C5  UNL d   1      -5.913  -5.211  -5.925  0.00  0.00     0.039 A 
ENDROOT
BRANCH   4   7
ATOM      7  O   UNL d   1      -4.183  -6.000  -2.826  0.00  0.00    -0.526 OA
ATOM      8  H5  UNL d   1      -3.740  -5.401  -2.202  0.00  0.00     0.418 HD
ENDBRANCH   4   7
TORSDOF 1
ENDMDL
