MODEL 1
REMARK minimizedAffinity 3.12998652
REMARK minimizedRMSD -1
REMARK  1 active torsions:
REMARK  status: ('A' for Active; 'I' for Inactive)
REMARK    1  A    between atoms: C3_4  and  O_7 
ROOT
ATOM      1  C   UNL d   1       4.960   5.235  -6.000  0.00  0.00    -0.033 A 
ATOM      2  C1  UNL d   1       3.985   4.568  -5.255  0.00  0.00     0.039 A 
ATOM      3  C2  UNL d   1       4.018   4.613  -3.860  0.00  0.00    -0.080 A 
ATOM      4  C3  UNL d   1       5.028   5.329  -3.223  0.00  0.00     0.150 A 
ATOM      5  C4  UNL d   1       6.000   5.999  -3.959  0.00  0.00    -0.007 A 
ATOM      6  C5  UNL d   1       5.966   5.952  -5.352  0.00  0.00     0.039 A 
ENDROOT
BRANCH   4   7
ATOM      7  O   UNL d   1       5.104   5.398  -1.864  0.00  0.00    -0.526 OA
ATOM      8  H5  UNL d   1       4.385   4.864  -1.487  0.00  0.00     0.418 HD
ENDBRANCH   4   7
TORSDOF 1
ENDMDL
