MODEL 1
REMARK minimizedAffinity 4.81728745
REMARK minimizedRMSD -1
REMARK  1 active torsions:
REMARK  status: ('A' for Active; 'I' for Inactive)
REMARK    1  A    between atoms: C3_4  and  O_7 
ROOT
ATOM      1  C   UNL d   1       1.081  -0.475   2.566  0.00  0.00    -0.033 A 
ATOM      2  C1  UNL d   1       0.485  -1.317   3.506  0.00  0.00     0.039 A 
ATOM      3  C2  UNL d   1       0.795  -2.678   3.523  0.00  0.00    -0.080 A 
ATOM      4  C3  UNL d   1       1.702  -3.184   2.596  0.00  0.00     0.150 A 
ATOM      5  C4  UNL d   1       2.303  -2.350   1.659  0.00  0.00    -0.007 A 
ATOM      6  C5  UNL d   1       1.992  -0.991   1.644  0.00  0.00     0.039 A 
ENDROOT
BRANCH   4   7
ATOM      7  O   UNL d   1       2.032  -4.506   2.571  0.00  0.00    -0.526 OA
ATOM      8  H5  UNL d   1       1.518  -4.965   3.256  0.00  0.00     0.418 HD
ENDBRANCH   4   7
TORSDOF 1
ENDMDL
