MODEL 1
REMARK minimizedAffinity 5.41019869
REMARK minimizedRMSD -1
REMARK  1 active torsions:
REMARK  status: ('A' for Active; 'I' for Inactive)
REMARK    1  A    between atoms: C3_4  and  O_7 
ROOT
ATOM      1  C   UNL d   1       2.634  -5.798  -3.447  0.00  0.00    -0.033 A 
ATOM      2  C1  UNL d   1       3.902  -5.611  -2.893  0.00  0.00     0.039 A 
ATOM      3  C2  UNL d   1       5.032  -5.620  -3.713  0.00  0.00    -0.080 A 
ATOM      4  C3  UNL d   1       4.881  -5.814  -5.083  0.00  0.00     0.150 A 
ATOM      5  C4  UNL d   1       3.620  -5.997  -5.642  0.00  0.00    -0.007 A 
ATOM      6  C5  UNL d   1       2.493  -5.989  -4.821  0.00  0.00     0.039 A 
ENDROOT
BRANCH   4   7
ATOM      7  O   UNL d   1       5.955  -5.835  -5.922  0.00  0.00    -0.526 OA
ATOM      8  H5  UNL d   1       6.762  -5.725  -5.393  0.00  0.00     0.418 HD
ENDBRANCH   4   7
TORSDOF 1
ENDMDL
