MODEL 1
REMARK minimizedAffinity 3.20887423
REMARK minimizedRMSD -1
REMARK  1 active torsions:
REMARK  status: ('A' for Active; 'I' for Inactive)
REMARK    1  A    between atoms: C3_4  and  O_7 
ROOT
ATOM      1  C   UNL d   1      -5.471  -5.999  -4.101  0.00  0.00    -0.033 A 
ATOM      2  C1  UNL d   1      -4.917  -4.905  -3.435  0.00  0.00     0.039 A 
ATOM      3  C2  UNL d   1      -4.885  -3.653  -4.051  0.00  0.00    -0.080 A 
ATOM      4  C3  UNL d   1      -5.412  -3.508  -5.331  0.00  0.00     0.150 A 
ATOM      5  C4  UNL d   1      -5.970  -4.593  -6.000  0.00  0.00    -0.007 A 
ATOM      6  C5  UNL d   1      -5.999  -5.843  -5.383  0.00  0.00     0.039 A 
ENDROOT
BRANCH   4   7
ATOM      7  O   UNL d   1      -5.400  -2.306  -5.975  0.00  0.00    -0.526 OA
ATOM      8  H5  UNL d   1      -4.958  -1.656  -5.404  0.00  0.00     0.418 HD
ENDBRANCH   4   7
TORSDOF 1
ENDMDL
