MODEL 1
REMARK minimizedAffinity 8.96100235
REMARK minimizedRMSD -1
REMARK  0 active torsions:
REMARK  status: ('A' for Active; 'I' for Inactive)
ROOT
ATOM      1  C2' OXE d   1      -2.286  -0.114   5.751  0.00  0.00     0.078 C 
ATOM      2  C1' OXE d   1      -4.928  -1.062   5.781  0.00  0.00     0.078 C 
ATOM      3  C1  OXE d   1      -4.715   0.430   5.838  0.00  0.00    -0.078 A 
ATOM      4  C2  OXE d   1      -3.418   0.883   5.870  0.00  0.00    -0.078 A 
ATOM      5  C3  OXE d   1      -3.166   2.252   5.866  0.00  0.00     0.003 A 
ATOM      6  C4  OXE d   1      -4.219   3.167   5.986  0.00  0.00    -0.002 A 
ATOM      7  C5  OXE d   1      -5.546   2.725   5.995  0.00  0.00    -0.002 A 
ATOM      8  C6  OXE d   1      -5.812   1.366   5.879  0.00  0.00     0.003 A 
ENDROOT
TORSDOF 0
ENDMDL
