MODEL 1
REMARK minimizedAffinity 13.914628
REMARK minimizedRMSD -1
REMARK  0 active torsions:
REMARK  status: ('A' for Active; 'I' for Inactive)
ROOT
ATOM      1  C2' OXE d   1       0.879   2.896  -3.527  0.00  0.00     0.078 C 
ATOM      2  C1' OXE d   1       0.450   4.154  -6.000  0.00  0.00     0.078 C 
ATOM      3  C1  OXE d   1      -0.705   3.409  -5.380  0.00  0.00    -0.078 A 
ATOM      4  C2  OXE d   1      -0.473   2.757  -4.193  0.00  0.00    -0.078 A 
ATOM      5  C3  OXE d   1      -1.520   2.100  -3.552  0.00  0.00     0.003 A 
ATOM      6  C4  OXE d   1      -2.764   1.967  -4.179  0.00  0.00    -0.002 A 
ATOM      7  C5  OXE d   1      -3.010   2.590  -5.407  0.00  0.00    -0.002 A 
ATOM      8  C6  OXE d   1      -2.006   3.349  -6.000  0.00  0.00     0.003 A 
ENDROOT
TORSDOF 0
ENDMDL
