MODEL 1
REMARK minimizedAffinity 14.8570786
REMARK minimizedRMSD -1
REMARK  0 active torsions:
REMARK  status: ('A' for Active; 'I' for Inactive)
ROOT
ATOM      1  C2' OXE d   1      -0.236  -4.983   1.799  0.00  0.00     0.078 C 
ATOM      2  C1' OXE d   1      -1.976  -3.264   3.177  0.00  0.00     0.078 C 
ATOM      3  C1  OXE d   1      -1.630  -2.919   1.750  0.00  0.00    -0.078 A 
ATOM      4  C2  OXE d   1      -0.741  -3.739   1.099  0.00  0.00    -0.078 A 
ATOM      5  C3  OXE d   1      -0.429  -3.497  -0.236  0.00  0.00     0.003 A 
ATOM      6  C4  OXE d   1      -0.893  -2.339  -0.873  0.00  0.00    -0.002 A 
ATOM      7  C5  OXE d   1      -1.768  -1.468  -0.214  0.00  0.00    -0.002 A 
ATOM      8  C6  OXE d   1      -2.179  -1.766   1.080  0.00  0.00     0.003 A 
ENDROOT
TORSDOF 0
ENDMDL
