MODEL 1
REMARK minimizedAffinity 13.2240868
REMARK minimizedRMSD -1
REMARK  0 active torsions:
REMARK  status: ('A' for Active; 'I' for Inactive)
ROOT
ATOM      1  C2' OXE d   1       3.618   1.248  -1.663  0.00  0.00     0.078 C 
ATOM      2  C1' OXE d   1       5.963   2.256  -2.831  0.00  0.00     0.078 C 
ATOM      3  C1  OXE d   1       5.381   3.007  -1.660  0.00  0.00    -0.078 A 
ATOM      4  C2  OXE d   1       4.208   2.533  -1.124  0.00  0.00    -0.078 A 
ATOM      5  C3  OXE d   1       3.658   3.158  -0.008  0.00  0.00     0.003 A 
ATOM      6  C4  OXE d   1       4.204   4.352   0.477  0.00  0.00    -0.002 A 
ATOM      7  C5  OXE d   1       5.377   4.874  -0.080  0.00  0.00    -0.002 A 
ATOM      8  C6  OXE d   1       6.000   4.192  -1.119  0.00  0.00     0.003 A 
ENDROOT
TORSDOF 0
ENDMDL
