MODEL 1
REMARK minimizedAffinity 5.74211502
REMARK minimizedRMSD -1
REMARK  0 active torsions:
REMARK  status: ('A' for Active; 'I' for Inactive)
ROOT
ATOM      1  C2' OXE d   1      -2.178  -1.643   0.469  0.00  0.00     0.078 C 
ATOM      2  C1' OXE d   1      -2.494  -2.823   2.997  0.00  0.00     0.078 C 
ATOM      3  C1  OXE d   1      -1.688  -3.573   1.966  0.00  0.00    -0.078 A 
ATOM      4  C2  OXE d   1      -1.578  -3.010   0.717  0.00  0.00    -0.078 A 
ATOM      5  C3  OXE d   1      -0.800  -3.634  -0.254  0.00  0.00     0.003 A 
ATOM      6  C4  OXE d   1      -0.257  -4.903  -0.020  0.00  0.00    -0.002 A 
ATOM      7  C5  OXE d   1      -0.390  -5.512   1.232  0.00  0.00    -0.002 A 
ATOM      8  C6  OXE d   1      -1.065  -4.843   2.247  0.00  0.00     0.003 A 
ENDROOT
TORSDOF 0
ENDMDL
