MODEL 1
REMARK minimizedAffinity 19.8807983
REMARK minimizedRMSD -1
REMARK  0 active torsions:
REMARK  status: ('A' for Active; 'I' for Inactive)
ROOT
ATOM      1  C2' OXE d   1       0.471   3.016  -5.472  0.00  0.00     0.078 C 
ATOM      2  C1' OXE d   1       0.285   0.648  -3.976  0.00  0.00     0.078 C 
ATOM      3  C1  OXE d   1      -0.933   1.535  -4.043  0.00  0.00    -0.078 A 
ATOM      4  C2  OXE d   1      -0.818   2.714  -4.738  0.00  0.00    -0.078 A 
ATOM      5  C3  OXE d   1      -1.928   3.543  -4.877  0.00  0.00     0.003 A 
ATOM      6  C4  OXE d   1      -3.114   3.262  -4.187  0.00  0.00    -0.002 A 
ATOM      7  C5  OXE d   1      -3.239   2.085  -3.441  0.00  0.00    -0.002 A 
ATOM      8  C6  OXE d   1      -2.174   1.192  -3.393  0.00  0.00     0.003 A 
ENDROOT
TORSDOF 0
ENDMDL
