MODEL 1
REMARK minimizedAffinity 15.8199759
REMARK minimizedRMSD -1
REMARK  0 active torsions:
REMARK  status: ('A' for Active; 'I' for Inactive)
ROOT
ATOM      1  C2' OXE d   1       1.645   3.408  -5.998  0.00  0.00     0.078 C 
ATOM      2  C1' OXE d   1       0.386   0.899  -5.999  0.00  0.00     0.078 C 
ATOM      3  C1  OXE d   1      -0.344   2.052  -5.358  0.00  0.00    -0.078 A 
ATOM      4  C2  OXE d   1       0.300   3.266  -5.320  0.00  0.00    -0.078 A 
ATOM      5  C3  OXE d   1      -0.351   4.376  -4.789  0.00  0.00     0.003 A 
ATOM      6  C4  OXE d   1      -1.591   4.233  -4.154  0.00  0.00    -0.002 A 
ATOM      7  C5  OXE d   1      -2.247   2.997  -4.146  0.00  0.00    -0.002 A 
ATOM      8  C6  OXE d   1      -1.657   1.909  -4.779  0.00  0.00     0.003 A 
ENDROOT
TORSDOF 0
ENDMDL
