MODEL 1
REMARK minimizedAffinity 13.8875456
REMARK minimizedRMSD -1
REMARK  0 active torsions:
REMARK  status: ('A' for Active; 'I' for Inactive)
ROOT
ATOM      1  C2' OXE d   1      -2.955   0.185  -3.049  0.00  0.00     0.078 C 
ATOM      2  C1' OXE d   1      -0.206  -0.037  -3.575  0.00  0.00     0.078 C 
ATOM      3  C1  OXE d   1      -0.861   1.302  -3.807  0.00  0.00    -0.078 A 
ATOM      4  C2  OXE d   1      -2.216   1.389  -3.592  0.00  0.00    -0.078 A 
ATOM      5  C3  OXE d   1      -2.860   2.614  -3.739  0.00  0.00     0.003 A 
ATOM      6  C4  OXE d   1      -2.171   3.720  -4.251  0.00  0.00    -0.002 A 
ATOM      7  C5  OXE d   1      -0.799   3.642  -4.515  0.00  0.00    -0.002 A 
ATOM      8  C6  OXE d   1      -0.122   2.455  -4.258  0.00  0.00     0.003 A 
ENDROOT
TORSDOF 0
ENDMDL
