MODEL 1
REMARK minimizedAffinity 23.1085873
REMARK minimizedRMSD -1
REMARK  0 active torsions:
REMARK  status: ('A' for Active; 'I' for Inactive)
ROOT
ATOM      1  C2' OXE d   1       5.995   4.504  -1.563  0.00  0.00     0.078 C 
ATOM      2  C1' OXE d   1       4.979   5.566   0.828  0.00  0.00     0.078 C 
ATOM      3  C1  OXE d   1       4.490   4.205   0.399  0.00  0.00    -0.078 A 
ATOM      4  C2  OXE d   1       4.957   3.714  -0.796  0.00  0.00    -0.078 A 
ATOM      5  C3  OXE d   1       4.580   2.440  -1.212  0.00  0.00     0.003 A 
ATOM      6  C4  OXE d   1       3.612   1.719  -0.501  0.00  0.00    -0.002 A 
ATOM      7  C5  OXE d   1       3.094   2.219   0.698  0.00  0.00    -0.002 A 
ATOM      8  C6  OXE d   1       3.553   3.439   1.183  0.00  0.00     0.003 A 
ENDROOT
TORSDOF 0
ENDMDL
