MODEL 1
REMARK minimizedAffinity 8.65826416
REMARK minimizedRMSD -1
REMARK  0 active torsions:
REMARK  status: ('A' for Active; 'I' for Inactive)
ROOT
ATOM      1  C2' OXE d   1      -0.037  -1.022  -3.471  0.00  0.00     0.078 C 
ATOM      2  C1' OXE d   1       2.540   0.089  -3.388  0.00  0.00     0.078 C 
ATOM      3  C1  OXE d   1       1.389   1.006  -3.719  0.00  0.00    -0.078 A 
ATOM      4  C2  OXE d   1       0.138   0.445  -3.803  0.00  0.00    -0.078 A 
ATOM      5  C3  OXE d   1      -0.966   1.255  -4.052  0.00  0.00     0.003 A 
ATOM      6  C4  OXE d   1      -0.795   2.609  -4.368  0.00  0.00    -0.002 A 
ATOM      7  C5  OXE d   1       0.476   3.192  -4.326  0.00  0.00    -0.002 A 
ATOM      8  C6  OXE d   1       1.570   2.416  -3.963  0.00  0.00     0.003 A 
ENDROOT
TORSDOF 0
ENDMDL
