MODEL 1
REMARK minimizedAffinity 19.6082039
REMARK minimizedRMSD -1
REMARK  0 active torsions:
REMARK  status: ('A' for Active; 'I' for Inactive)
ROOT
ATOM      1  C2' OXE d   1      -3.215  -1.979   3.659  0.00  0.00     0.078 C 
ATOM      2  C1' OXE d   1      -3.040   0.325   5.254  0.00  0.00     0.078 C 
ATOM      3  C1  OXE d   1      -1.861  -0.616   5.246  0.00  0.00    -0.078 A 
ATOM      4  C2  OXE d   1      -1.974  -1.764   4.499  0.00  0.00    -0.078 A 
ATOM      5  C3  OXE d   1      -0.895  -2.639   4.413  0.00  0.00     0.003 A 
ATOM      6  C4  OXE d   1       0.245  -2.439   5.200  0.00  0.00    -0.002 A 
ATOM      7  C5  OXE d   1       0.365  -1.296   5.999  0.00  0.00    -0.002 A 
ATOM      8  C6  OXE d   1      -0.660  -0.356   6.000  0.00  0.00     0.003 A 
ENDROOT
TORSDOF 0
ENDMDL
