MODEL 1
REMARK minimizedAffinity 16.2035675
REMARK minimizedRMSD -1
REMARK  0 active torsions:
REMARK  status: ('A' for Active; 'I' for Inactive)
ROOT
ATOM      1  C2' OXE d   1       5.999   4.893  -1.493  0.00  0.00     0.078 C 
ATOM      2  C1' OXE d   1       4.954   6.000   0.866  0.00  0.00     0.078 C 
ATOM      3  C1  OXE d   1       4.511   4.609   0.485  0.00  0.00    -0.078 A 
ATOM      4  C2  OXE d   1       4.992   4.094  -0.695  0.00  0.00    -0.078 A 
ATOM      5  C3  OXE d   1       4.658   2.795  -1.067  0.00  0.00     0.003 A 
ATOM      6  C4  OXE d   1       3.718   2.066  -0.329  0.00  0.00    -0.002 A 
ATOM      7  C5  OXE d   1       3.186   2.588   0.855  0.00  0.00    -0.002 A 
ATOM      8  C6  OXE d   1       3.604   3.838   1.297  0.00  0.00     0.003 A 
ENDROOT
TORSDOF 0
ENDMDL
