MODEL 1
REMARK minimizedAffinity 19.681612
REMARK minimizedRMSD -1
REMARK  0 active torsions:
REMARK  status: ('A' for Active; 'I' for Inactive)
ROOT
ATOM      1  C2' OXE d   1      -1.877  -2.033   0.370  0.00  0.00     0.078 C 
ATOM      2  C1' OXE d   1      -1.694  -2.753   3.078  0.00  0.00     0.078 C 
ATOM      3  C1  OXE d   1      -1.223  -3.752   2.051  0.00  0.00    -0.078 A 
ATOM      4  C2  OXE d   1      -1.360  -3.410   0.727  0.00  0.00    -0.078 A 
ATOM      5  C3  OXE d   1      -0.891  -4.273  -0.260  0.00  0.00     0.003 A 
ATOM      6  C4  OXE d   1      -0.423  -5.549   0.077  0.00  0.00    -0.002 A 
ATOM      7  C5  OXE d   1      -0.313  -5.933   1.418  0.00  0.00    -0.002 A 
ATOM      8  C6  OXE d   1      -0.668  -5.032   2.416  0.00  0.00     0.003 A 
ENDROOT
TORSDOF 0
ENDMDL
