MODEL 1
REMARK minimizedAffinity 15.9887094
REMARK minimizedRMSD -1
REMARK  0 active torsions:
REMARK  status: ('A' for Active; 'I' for Inactive)
ROOT
ATOM      1  C2' OXE d   1      -3.074  -0.112   4.611  0.00  0.00     0.078 C 
ATOM      2  C1' OXE d   1      -5.743  -0.523   5.377  0.00  0.00     0.078 C 
ATOM      3  C1  OXE d   1      -5.196   0.880   5.458  0.00  0.00    -0.078 A 
ATOM      4  C2  OXE d   1      -3.875   1.064   5.126  0.00  0.00    -0.078 A 
ATOM      5  C3  OXE d   1      -3.335   2.347   5.131  0.00  0.00     0.003 A 
ATOM      6  C4  OXE d   1      -4.081   3.428   5.617  0.00  0.00    -0.002 A 
ATOM      7  C5  OXE d   1      -5.416   3.256   5.998  0.00  0.00    -0.002 A 
ATOM      8  C6  OXE d   1      -6.000   1.999   5.885  0.00  0.00     0.003 A 
ENDROOT
TORSDOF 0
ENDMDL
