MODEL 1
REMARK minimizedAffinity 11.3289623
REMARK minimizedRMSD -1
REMARK  0 active torsions:
REMARK  status: ('A' for Active; 'I' for Inactive)
ROOT
ATOM      1  C2' OXE d   1      -2.233  -1.854   0.718  0.00  0.00     0.078 C 
ATOM      2  C1' OXE d   1      -2.196  -2.682   3.400  0.00  0.00     0.078 C 
ATOM      3  C1  OXE d   1      -1.528  -3.570   2.380  0.00  0.00    -0.078 A 
ATOM      4  C2  OXE d   1      -1.592  -3.180   1.064  0.00  0.00    -0.078 A 
ATOM      5  C3  OXE d   1      -0.945  -3.935   0.090  0.00  0.00     0.003 A 
ATOM      6  C4  OXE d   1      -0.364  -5.166   0.417  0.00  0.00    -0.002 A 
ATOM      7  C5  OXE d   1      -0.323  -5.601   1.746  0.00  0.00    -0.002 A 
ATOM      8  C6  OXE d   1      -0.862  -4.797   2.743  0.00  0.00     0.003 A 
ENDROOT
TORSDOF 0
ENDMDL
