MODEL 1
REMARK minimizedAffinity 13.5998011
REMARK minimizedRMSD -1
REMARK  0 active torsions:
REMARK  status: ('A' for Active; 'I' for Inactive)
ROOT
ATOM      1  C2' OXE d   1      -5.963   1.141   5.995  0.00  0.00     0.078 C 
ATOM      2  C1' OXE d   1      -3.674   2.766   5.998  0.00  0.00     0.078 C 
ATOM      3  C1  OXE d   1      -3.481   1.278   5.841  0.00  0.00    -0.078 A 
ATOM      4  C2  OXE d   1      -4.603   0.487   5.888  0.00  0.00    -0.078 A 
ATOM      5  C3  OXE d   1      -4.486  -0.887   5.693  0.00  0.00     0.003 A 
ATOM      6  C4  OXE d   1      -3.223  -1.485   5.605  0.00  0.00    -0.002 A 
ATOM      7  C5  OXE d   1      -2.065  -0.701   5.596  0.00  0.00    -0.002 A 
ATOM      8  C6  OXE d   1      -2.178   0.683   5.670  0.00  0.00     0.003 A 
ENDROOT
TORSDOF 0
ENDMDL
