MODEL 1
REMARK minimizedAffinity 21.5552177
REMARK minimizedRMSD -1
REMARK  0 active torsions:
REMARK  status: ('A' for Active; 'I' for Inactive)
ROOT
ATOM      1  C2' OXE d   1      -0.449  -4.389   1.489  0.00  0.00     0.078 C 
ATOM      2  C1' OXE d   1      -2.567  -3.101   2.805  0.00  0.00     0.078 C 
ATOM      3  C1  OXE d   1      -2.170  -2.589   1.443  0.00  0.00    -0.078 A 
ATOM      4  C2  OXE d   1      -1.102  -3.195   0.826  0.00  0.00    -0.078 A 
ATOM      5  C3  OXE d   1      -0.729  -2.798  -0.455  0.00  0.00     0.003 A 
ATOM      6  C4  OXE d   1      -1.332  -1.687  -1.056  0.00  0.00    -0.002 A 
ATOM      7  C5  OXE d   1      -2.396  -1.030  -0.428  0.00  0.00    -0.002 A 
ATOM      8  C6  OXE d   1      -2.854  -1.494   0.800  0.00  0.00     0.003 A 
ENDROOT
TORSDOF 0
ENDMDL
