MODEL 1
REMARK minimizedAffinity 5.08140421
REMARK minimizedRMSD -1
REMARK  0 active torsions:
REMARK  status: ('A' for Active; 'I' for Inactive)
ROOT
ATOM      1  C2' OXE d   1      -2.409  -1.453   0.628  0.00  0.00     0.078 C 
ATOM      2  C1' OXE d   1      -2.477  -2.535   3.217  0.00  0.00     0.078 C 
ATOM      3  C1  OXE d   1      -1.804  -3.342   2.135  0.00  0.00    -0.078 A 
ATOM      4  C2  OXE d   1      -1.817  -2.826   0.861  0.00  0.00    -0.078 A 
ATOM      5  C3  OXE d   1      -1.163  -3.503  -0.164  0.00  0.00     0.003 A 
ATOM      6  C4  OXE d   1      -0.626  -4.777   0.058  0.00  0.00    -0.002 A 
ATOM      7  C5  OXE d   1      -0.638  -5.339   1.339  0.00  0.00    -0.002 A 
ATOM      8  C6  OXE d   1      -1.184  -4.618   2.395  0.00  0.00     0.003 A 
ENDROOT
TORSDOF 0
ENDMDL
