MODEL 1
REMARK minimizedAffinity 19.22332
REMARK minimizedRMSD -1
REMARK  0 active torsions:
REMARK  status: ('A' for Active; 'I' for Inactive)
ROOT
ATOM      1  C2' OXE d   1       4.124   1.884   0.569  0.00  0.00     0.078 C 
ATOM      2  C1' OXE d   1       5.999   2.254  -1.487  0.00  0.00     0.078 C 
ATOM      3  C1  OXE d   1       5.515   3.477  -0.748  0.00  0.00    -0.078 A 
ATOM      4  C2  OXE d   1       4.563   3.291   0.225  0.00  0.00    -0.078 A 
ATOM      5  C3  OXE d   1       4.122   4.378   0.974  0.00  0.00     0.003 A 
ATOM      6  C4  OXE d   1       4.524   5.678   0.643  0.00  0.00    -0.002 A 
ATOM      7  C5  OXE d   1       5.464   5.893  -0.371  0.00  0.00    -0.002 A 
ATOM      8  C6  OXE d   1       6.000   4.802  -1.046  0.00  0.00     0.003 A 
ENDROOT
TORSDOF 0
ENDMDL
