MODEL 1
REMARK minimizedAffinity -4.16625214
REMARK minimizedRMSD -1
REMARK  0 active torsions:
REMARK  status: ('A' for Active; 'I' for Inactive)
ROOT
ATOM      1  C   UNL d   1      -0.495  -4.095   0.037  0.00  0.00     0.078 C 
ATOM      2  C1  UNL d   1      -0.072  -2.886  -0.743  0.00  0.00    -0.077 A 
ATOM      3  C2  UNL d   1       0.001  -1.626  -0.137  0.00  0.00    -0.001 A 
ATOM      4  C3  UNL d   1       0.387  -0.507  -0.877  0.00  0.00     0.003 A 
ATOM      5  C4  UNL d   1       0.701  -0.637  -2.229  0.00  0.00    -0.005 A 
ATOM      6  C5  UNL d   1       0.629  -1.887  -2.841  0.00  0.00     0.003 A 
ATOM      7  C6  UNL d   1       0.243  -3.006  -2.102  0.00  0.00    -0.001 A 
ENDROOT
TORSDOF 0
ENDMDL
