MODEL 1
REMARK minimizedAffinity -5.21571398
REMARK minimizedRMSD -1
REMARK  0 active torsions:
REMARK  status: ('A' for Active; 'I' for Inactive)
ROOT
ATOM      1  C   UNL d   1       1.595  -2.462  -2.512  0.00  0.00     0.078 C 
ATOM      2  C1  UNL d   1       0.773  -1.719  -1.502  0.00  0.00    -0.077 A 
ATOM      3  C2  UNL d   1       0.643  -0.326  -1.561  0.00  0.00    -0.001 A 
ATOM      4  C3  UNL d   1      -0.117   0.354  -0.608  0.00  0.00     0.003 A 
ATOM      5  C4  UNL d   1      -0.752  -0.351   0.413  0.00  0.00    -0.005 A 
ATOM      6  C5  UNL d   1      -0.627  -1.737   0.481  0.00  0.00     0.003 A 
ATOM      7  C6  UNL d   1       0.133  -2.418  -0.471  0.00  0.00    -0.001 A 
ENDROOT
TORSDOF 0
ENDMDL
