MODEL 1
REMARK minimizedAffinity -5.94593477
REMARK minimizedRMSD -1
REMARK  0 active torsions:
REMARK  status: ('A' for Active; 'I' for Inactive)
ROOT
ATOM      1  C   UNL d   1       0.670   0.640  -0.021  0.00  0.00     0.078 C 
ATOM      2  C1  UNL d   1       0.286  -0.796  -0.222  0.00  0.00    -0.077 A 
ATOM      3  C2  UNL d   1       0.453  -1.421  -1.463  0.00  0.00    -0.001 A 
ATOM      4  C3  UNL d   1       0.082  -2.755  -1.638  0.00  0.00     0.003 A 
ATOM      5  C4  UNL d   1      -0.460  -3.475  -0.576  0.00  0.00    -0.005 A 
ATOM      6  C5  UNL d   1      -0.633  -2.861   0.663  0.00  0.00     0.003 A 
ATOM      7  C6  UNL d   1      -0.262  -1.527   0.840  0.00  0.00    -0.001 A 
ENDROOT
TORSDOF 0
ENDMDL
