MODEL 1
REMARK minimizedAffinity -5.48674297
REMARK minimizedRMSD -1
REMARK  0 active torsions:
REMARK  status: ('A' for Active; 'I' for Inactive)
ROOT
ATOM      1  C   UNL d   1       0.249   0.132   0.270  0.00  0.00     0.078 C 
ATOM      2  C1  UNL d   1       0.115  -1.321  -0.076  0.00  0.00    -0.077 A 
ATOM      3  C2  UNL d   1       0.058  -1.743  -1.410  0.00  0.00    -0.001 A 
ATOM      4  C3  UNL d   1      -0.077  -3.098  -1.717  0.00  0.00     0.003 A 
ATOM      5  C4  UNL d   1      -0.157  -4.042  -0.695  0.00  0.00    -0.005 A 
ATOM      6  C5  UNL d   1      -0.104  -3.632   0.635  0.00  0.00     0.003 A 
ATOM      7  C6  UNL d   1       0.031  -2.277   0.944  0.00  0.00    -0.001 A 
ENDROOT
TORSDOF 0
ENDMDL
