MODEL 1
REMARK minimizedAffinity -3.50425816
REMARK minimizedRMSD -1
REMARK  0 active torsions:
REMARK  status: ('A' for Active; 'I' for Inactive)
ROOT
ATOM      1  C   UNL d   1      -1.118  -3.240   0.404  0.00  0.00     0.078 C 
ATOM      2  C1  UNL d   1      -0.669  -1.896  -0.085  0.00  0.00    -0.077 A 
ATOM      3  C2  UNL d   1      -0.728  -0.769   0.745  0.00  0.00    -0.001 A 
ATOM      4  C3  UNL d   1      -0.315   0.478   0.273  0.00  0.00     0.003 A 
ATOM      5  C4  UNL d   1       0.158   0.611  -1.031  0.00  0.00    -0.005 A 
ATOM      6  C5  UNL d   1       0.219  -0.504  -1.864  0.00  0.00     0.003 A 
ATOM      7  C6  UNL d   1      -0.193  -1.752  -1.394  0.00  0.00    -0.001 A 
ENDROOT
TORSDOF 0
ENDMDL
