MODEL 1
REMARK minimizedAffinity -5.98733807
REMARK minimizedRMSD -1
REMARK  0 active torsions:
REMARK  status: ('A' for Active; 'I' for Inactive)
ROOT
ATOM      1  C   UNL d   1       0.105   0.720  -0.407  0.00  0.00     0.078 C 
ATOM      2  C1  UNL d   1       0.093  -0.777  -0.489  0.00  0.00    -0.077 A 
ATOM      3  C2  UNL d   1       0.156  -1.432  -1.725  0.00  0.00    -0.001 A 
ATOM      4  C3  UNL d   1       0.135  -2.826  -1.787  0.00  0.00     0.003 A 
ATOM      5  C4  UNL d   1       0.049  -3.577  -0.617  0.00  0.00    -0.005 A 
ATOM      6  C5  UNL d   1      -0.016  -2.935   0.618  0.00  0.00     0.003 A 
ATOM      7  C6  UNL d   1       0.006  -1.540   0.682  0.00  0.00    -0.001 A 
ENDROOT
TORSDOF 0
ENDMDL
