MODEL 1
REMARK minimizedAffinity -5.18388653
REMARK minimizedRMSD -1
REMARK  0 active torsions:
REMARK  status: ('A' for Active; 'I' for Inactive)
ROOT
ATOM      1  C   UNL d   1       0.056   1.159  -0.301  0.00  0.00     0.078 C 
ATOM      2  C1  UNL d   1      -0.013  -0.337  -0.223  0.00  0.00    -0.077 A 
ATOM      3  C2  UNL d   1      -0.469  -0.979   0.935  0.00  0.00    -0.001 A 
ATOM      4  C3  UNL d   1      -0.519  -2.372   0.997  0.00  0.00     0.003 A 
ATOM      5  C4  UNL d   1      -0.112  -3.136  -0.095  0.00  0.00    -0.005 A 
ATOM      6  C5  UNL d   1       0.346  -2.507  -1.251  0.00  0.00     0.003 A 
ATOM      7  C6  UNL d   1       0.397  -1.113  -1.315  0.00  0.00    -0.001 A 
ENDROOT
TORSDOF 0
ENDMDL
