MODEL 1
REMARK minimizedAffinity -5.65989971
REMARK minimizedRMSD -1
REMARK  0 active torsions:
REMARK  status: ('A' for Active; 'I' for Inactive)
ROOT
ATOM      1  C   UNL d   1       0.507  -2.242  -1.444  0.00  0.00     0.078 C 
ATOM      2  C1  UNL d   1      -0.040  -1.612  -0.198  0.00  0.00    -0.077 A 
ATOM      3  C2  UNL d   1      -0.232  -2.366   0.967  0.00  0.00    -0.001 A 
ATOM      4  C3  UNL d   1      -0.750  -1.769   2.117  0.00  0.00     0.003 A 
ATOM      5  C4  UNL d   1      -1.083  -0.415   2.113  0.00  0.00    -0.005 A 
ATOM      6  C5  UNL d   1      -0.897   0.342   0.959  0.00  0.00     0.003 A 
ATOM      7  C6  UNL d   1      -0.379  -0.253  -0.192  0.00  0.00    -0.001 A 
ENDROOT
TORSDOF 0
ENDMDL
