MODEL 1
REMARK minimizedAffinity -5.78683329
REMARK minimizedRMSD -1
REMARK  0 active torsions:
REMARK  status: ('A' for Active; 'I' for Inactive)
ROOT
ATOM      1  C   UNL d   1       0.323  -2.244  -2.838  0.00  0.00     0.078 C 
ATOM      2  C1  UNL d   1      -0.018  -1.933  -1.411  0.00  0.00    -0.077 A 
ATOM      3  C2  UNL d   1      -0.090  -2.947  -0.449  0.00  0.00    -0.001 A 
ATOM      4  C3  UNL d   1      -0.418  -2.644   0.873  0.00  0.00     0.003 A 
ATOM      5  C4  UNL d   1      -0.679  -1.327   1.245  0.00  0.00    -0.005 A 
ATOM      6  C5  UNL d   1      -0.612  -0.311   0.294  0.00  0.00     0.003 A 
ATOM      7  C6  UNL d   1      -0.284  -0.612  -1.029  0.00  0.00    -0.001 A 
ENDROOT
TORSDOF 0
ENDMDL
