MODEL 1
REMARK minimizedAffinity -3.99090123
REMARK minimizedRMSD -1
REMARK  0 active torsions:
REMARK  status: ('A' for Active; 'I' for Inactive)
ROOT
ATOM      1  C   UNL d   1       0.024  -3.025  -1.953  0.00  0.00     0.078 C 
ATOM      2  C1  UNL d   1      -0.226  -2.182  -0.738  0.00  0.00    -0.077 A 
ATOM      3  C2  UNL d   1      -0.887  -2.707   0.380  0.00  0.00    -0.001 A 
ATOM      4  C3  UNL d   1      -1.121  -1.908   1.500  0.00  0.00     0.003 A 
ATOM      5  C4  UNL d   1      -0.700  -0.579   1.512  0.00  0.00    -0.005 A 
ATOM      6  C5  UNL d   1      -0.045  -0.048   0.404  0.00  0.00     0.003 A 
ATOM      7  C6  UNL d   1       0.191  -0.846  -0.717  0.00  0.00    -0.001 A 
ENDROOT
TORSDOF 0
ENDMDL
