MODEL 1
REMARK minimizedAffinity -2.31583571
REMARK minimizedRMSD -1
REMARK  0 active torsions:
REMARK  status: ('A' for Active; 'I' for Inactive)
ROOT
ATOM      1  C   UNL d   1      -0.037   1.515  -0.408  0.00  0.00     0.078 C 
ATOM      2  C1  UNL d   1      -0.052   0.065  -0.026  0.00  0.00    -0.077 A 
ATOM      3  C2  UNL d   1       0.331  -0.925  -0.940  0.00  0.00    -0.001 A 
ATOM      4  C3  UNL d   1       0.303  -2.272  -0.574  0.00  0.00     0.003 A 
ATOM      5  C4  UNL d   1      -0.108  -2.641   0.706  0.00  0.00    -0.005 A 
ATOM      6  C5  UNL d   1      -0.492  -1.663   1.621  0.00  0.00     0.003 A 
ATOM      7  C6  UNL d   1      -0.465  -0.316   1.257  0.00  0.00    -0.001 A 
ENDROOT
TORSDOF 0
ENDMDL
