MODEL 1
REMARK minimizedAffinity 7.6541338
REMARK minimizedRMSD -1
REMARK  0 active torsions:
REMARK  status: ('A' for Active; 'I' for Inactive)
ROOT
ATOM      1  C   UNL d   1       3.825  -0.537  -5.999  0.00  0.00     0.023 A 
ATOM      2  C1  UNL d   1       5.217  -0.622  -6.000  0.00  0.00     0.003 A 
ATOM      3  C2  UNL d   1       5.842  -1.871  -5.997  0.00  0.00     0.048 A 
ATOM      4  C3  UNL d   1       5.068  -3.031  -5.993  0.00  0.00     0.023 A 
ATOM      5  C4  UNL d   1       3.674  -2.951  -5.993  0.00  0.00     0.048 A 
ATOM      6  C5  UNL d   1       3.054  -1.700  -5.996  0.00  0.00     0.003 A 
ATOM      7  I   UNL d   1       5.995  -4.891  -5.989  0.00  0.00    -0.146 I 
ENDROOT
TORSDOF 0
ENDMDL
