MODEL 1
REMARK minimizedAffinity 12.1346788
REMARK minimizedRMSD -1
REMARK  0 active torsions:
REMARK  status: ('A' for Active; 'I' for Inactive)
ROOT
ATOM      1  C   UNL d   1      -0.554  -5.048  -3.463  0.00  0.00     0.023 A 
ATOM      2  C1  UNL d   1      -1.298  -4.127  -2.725  0.00  0.00     0.003 A 
ATOM      3  C2  UNL d   1      -0.653  -3.089  -2.049  0.00  0.00     0.048 A 
ATOM      4  C3  UNL d   1       0.735  -2.978  -2.116  0.00  0.00     0.023 A 
ATOM      5  C4  UNL d   1       1.483  -3.896  -2.854  0.00  0.00     0.048 A 
ATOM      6  C5  UNL d   1       0.835  -4.933  -3.527  0.00  0.00     0.003 A 
ATOM      7  I   UNL d   1       1.697  -1.433  -1.110  0.00  0.00    -0.146 I 
ENDROOT
TORSDOF 0
ENDMDL
