MODEL 1
REMARK minimizedAffinity 20.2528019
REMARK minimizedRMSD -1
REMARK  0 active torsions:
REMARK  status: ('A' for Active; 'I' for Inactive)
ROOT
ATOM      1  C   UNL d   1       2.630  -0.806  -1.102  0.00  0.00     0.023 A 
ATOM      2  C1  UNL d   1       2.732  -2.194  -1.195  0.00  0.00     0.003 A 
ATOM      3  C2  UNL d   1       1.604  -2.959  -1.494  0.00  0.00     0.048 A 
ATOM      4  C3  UNL d   1       0.376  -2.330  -1.701  0.00  0.00     0.023 A 
ATOM      5  C4  UNL d   1       0.270  -0.942  -1.611  0.00  0.00     0.048 A 
ATOM      6  C5  UNL d   1       1.401  -0.180  -1.310  0.00  0.00     0.003 A 
ATOM      7  I   UNL d   1      -1.305  -3.468  -2.148  0.00  0.00    -0.146 I 
ENDROOT
TORSDOF 0
ENDMDL
