MODEL 1
REMARK minimizedAffinity 10.3697376
REMARK minimizedRMSD -1
REMARK  0 active torsions:
REMARK  status: ('A' for Active; 'I' for Inactive)
ROOT
ATOM      1  C   UNL d   1      -1.478   4.236  -3.676  0.00  0.00     0.023 A 
ATOM      2  C1  UNL d   1      -2.088   3.487  -4.682  0.00  0.00     0.003 A 
ATOM      3  C2  UNL d   1      -3.206   3.991  -5.349  0.00  0.00     0.048 A 
ATOM      4  C3  UNL d   1      -3.709   5.246  -5.005  0.00  0.00     0.023 A 
ATOM      5  C4  UNL d   1      -3.101   5.999  -3.999  0.00  0.00     0.048 A 
ATOM      6  C5  UNL d   1      -1.984   5.490  -3.335  0.00  0.00     0.003 A 
ATOM      7  I   UNL d   1      -5.373   5.999  -5.996  0.00  0.00    -0.146 I 
ENDROOT
TORSDOF 0
ENDMDL
