MODEL 1
REMARK minimizedAffinity 5.0927825
REMARK minimizedRMSD -1
REMARK  0 active torsions:
REMARK  status: ('A' for Active; 'I' for Inactive)
ROOT
ATOM      1  C   UNL d   1      -4.159  -3.855  -5.981  0.00  0.00     0.023 A 
ATOM      2  C1  UNL d   1      -3.730  -2.918  -5.042  0.00  0.00     0.003 A 
ATOM      3  C2  UNL d   1      -2.740  -3.257  -4.116  0.00  0.00     0.048 A 
ATOM      4  C3  UNL d   1      -2.183  -4.535  -4.137  0.00  0.00     0.023 A 
ATOM      5  C4  UNL d   1      -2.609  -5.476  -5.077  0.00  0.00     0.048 A 
ATOM      6  C5  UNL d   1      -3.599  -5.133  -5.999  0.00  0.00     0.003 A 
ATOM      7  I   UNL d   1      -0.710  -5.043  -2.762  0.00  0.00    -0.146 I 
ENDROOT
TORSDOF 0
ENDMDL
