MODEL 1
REMARK minimizedAffinity -3.08718705
REMARK minimizedRMSD -1
REMARK  0 active torsions:
REMARK  status: ('A' for Active; 'I' for Inactive)
ROOT
ATOM      1  C   UNL d   1      -0.734  -4.699  -3.811  0.00  0.00     0.023 A 
ATOM      2  C1  UNL d   1      -1.194  -3.387  -3.699  0.00  0.00     0.003 A 
ATOM      3  C2  UNL d   1      -2.382  -3.006  -4.326  0.00  0.00     0.048 A 
ATOM      4  C3  UNL d   1      -3.105  -3.942  -5.064  0.00  0.00     0.023 A 
ATOM      5  C4  UNL d   1      -2.649  -5.256  -5.179  0.00  0.00     0.048 A 
ATOM      6  C5  UNL d   1      -1.460  -5.632  -4.551  0.00  0.00     0.003 A 
ATOM      7  I   UNL d   1      -4.873  -3.378  -5.999  0.00  0.00    -0.146 I 
ENDROOT
TORSDOF 0
ENDMDL
