MODEL 1
REMARK minimizedAffinity 6.93606424
REMARK minimizedRMSD -1
REMARK  0 active torsions:
REMARK  status: ('A' for Active; 'I' for Inactive)
ROOT
ATOM      1  C   UNL d   1      -0.841   1.258  -4.079  0.00  0.00     0.023 A 
ATOM      2  C1  UNL d   1      -1.785   1.895  -3.273  0.00  0.00     0.003 A 
ATOM      3  C2  UNL d   1      -2.646   2.847  -3.822  0.00  0.00     0.048 A 
ATOM      4  C3  UNL d   1      -2.559   3.157  -5.179  0.00  0.00     0.023 A 
ATOM      5  C4  UNL d   1      -1.616   2.521  -5.990  0.00  0.00     0.048 A 
ATOM      6  C5  UNL d   1      -0.757   1.571  -5.435  0.00  0.00     0.003 A 
ATOM      7  I   UNL d   1      -3.839   4.573  -6.000  0.00  0.00    -0.146 I 
ENDROOT
TORSDOF 0
ENDMDL
