MODEL 1
REMARK minimizedAffinity 12.6387205
REMARK minimizedRMSD -1
REMARK  0 active torsions:
REMARK  status: ('A' for Active; 'I' for Inactive)
ROOT
ATOM      1  C   UNL d   1       5.010   1.436  -0.718  0.00  0.00     0.023 A 
ATOM      2  C1  UNL d   1       3.856   1.790  -1.419  0.00  0.00     0.003 A 
ATOM      3  C2  UNL d   1       2.779   0.903  -1.486  0.00  0.00     0.048 A 
ATOM      4  C3  UNL d   1       2.862  -0.334  -0.849  0.00  0.00     0.023 A 
ATOM      5  C4  UNL d   1       4.014  -0.692  -0.146  0.00  0.00     0.048 A 
ATOM      6  C5  UNL d   1       5.089   0.197  -0.083  0.00  0.00     0.003 A 
ATOM      7  I   UNL d   1       1.260  -1.655  -0.947  0.00  0.00    -0.146 I 
ENDROOT
TORSDOF 0
ENDMDL
