MODEL 1
REMARK minimizedAffinity 3.89072371
REMARK minimizedRMSD -1
REMARK  0 active torsions:
REMARK  status: ('A' for Active; 'I' for Inactive)
ROOT
ATOM      1  C   UNL d   1      -4.856  -3.893  -5.999  0.00  0.00     0.023 A 
ATOM      2  C1  UNL d   1      -4.443  -5.226  -6.000  0.00  0.00     0.003 A 
ATOM      3  C2  UNL d   1      -3.343  -5.617  -5.235  0.00  0.00     0.048 A 
ATOM      4  C3  UNL d   1      -2.660  -4.671  -4.471  0.00  0.00     0.023 A 
ATOM      5  C4  UNL d   1      -3.070  -3.337  -4.466  0.00  0.00     0.048 A 
ATOM      6  C5  UNL d   1      -4.171  -2.950  -5.234  0.00  0.00     0.003 A 
ATOM      7  I   UNL d   1      -1.022  -5.251  -3.331  0.00  0.00    -0.146 I 
ENDROOT
TORSDOF 0
ENDMDL
