MODEL 1
REMARK minimizedAffinity 1.68208957
REMARK minimizedRMSD -1
REMARK  0 active torsions:
REMARK  status: ('A' for Active; 'I' for Inactive)
ROOT
ATOM      1  C   UNL d   1      -0.914  -4.194  -3.935  0.00  0.00     0.023 A 
ATOM      2  C1  UNL d   1      -1.095  -4.092  -5.314  0.00  0.00     0.003 A 
ATOM      3  C2  UNL d   1      -2.248  -4.610  -5.909  0.00  0.00     0.048 A 
ATOM      4  C3  UNL d   1      -3.217  -5.227  -5.117  0.00  0.00     0.023 A 
ATOM      5  C4  UNL d   1      -3.040  -5.330  -3.737  0.00  0.00     0.048 A 
ATOM      6  C5  UNL d   1      -1.886  -4.812  -3.147  0.00  0.00     0.003 A 
ATOM      7  I   UNL d   1      -4.933  -5.997  -6.000  0.00  0.00    -0.146 I 
ENDROOT
TORSDOF 0
ENDMDL
