MODEL 1
REMARK minimizedAffinity 4.07000637
REMARK minimizedRMSD -1
REMARK  0 active torsions:
REMARK  status: ('A' for Active; 'I' for Inactive)
ROOT
ATOM      1  C   UNL d   1      -3.895  -3.495  -5.878  0.00  0.00     0.023 A 
ATOM      2  C1  UNL d   1      -3.429  -2.690  -4.839  0.00  0.00     0.003 A 
ATOM      3  C2  UNL d   1      -2.512  -3.198  -3.917  0.00  0.00     0.048 A 
ATOM      4  C3  UNL d   1      -2.064  -4.513  -4.041  0.00  0.00     0.023 A 
ATOM      5  C4  UNL d   1      -2.526  -5.322  -5.080  0.00  0.00     0.048 A 
ATOM      6  C5  UNL d   1      -3.444  -4.809  -5.999  0.00  0.00     0.003 A 
ATOM      7  I   UNL d   1      -0.698  -5.272  -2.670  0.00  0.00    -0.146 I 
ENDROOT
TORSDOF 0
ENDMDL
