MODEL 1
REMARK minimizedAffinity 5.22273874
REMARK minimizedRMSD -1
REMARK  0 active torsions:
REMARK  status: ('A' for Active; 'I' for Inactive)
ROOT
ATOM      1  C   UNL d   1      -1.324  -5.773  -4.209  0.00  0.00     0.023 A 
ATOM      2  C1  UNL d   1      -1.858  -5.961  -5.484  0.00  0.00     0.003 A 
ATOM      3  C2  UNL d   1      -2.776  -5.044  -5.999  0.00  0.00     0.048 A 
ATOM      4  C3  UNL d   1      -3.156  -3.942  -5.235  0.00  0.00     0.023 A 
ATOM      5  C4  UNL d   1      -2.625  -3.750  -3.958  0.00  0.00     0.048 A 
ATOM      6  C5  UNL d   1      -1.707  -4.669  -3.447  0.00  0.00     0.003 A 
ATOM      7  I   UNL d   1      -4.524  -2.576  -6.000  0.00  0.00    -0.146 I 
ENDROOT
TORSDOF 0
ENDMDL
