MODEL 1
REMARK minimizedAffinity 1.84855723
REMARK minimizedRMSD -1
REMARK  0 active torsions:
REMARK  status: ('A' for Active; 'I' for Inactive)
ROOT
ATOM      1  C   UNL d   1      -1.615  -5.253  -4.132  0.00  0.00     0.023 A 
ATOM      2  C1  UNL d   1      -2.275  -5.621  -5.305  0.00  0.00     0.003 A 
ATOM      3  C2  UNL d   1      -3.262  -4.792  -5.842  0.00  0.00     0.048 A 
ATOM      4  C3  UNL d   1      -3.583  -3.596  -5.202  0.00  0.00     0.023 A 
ATOM      5  C4  UNL d   1      -2.925  -3.223  -4.029  0.00  0.00     0.048 A 
ATOM      6  C5  UNL d   1      -1.940  -4.055  -3.495  0.00  0.00     0.003 A 
ATOM      7  I   UNL d   1      -5.052  -2.360  -6.000  0.00  0.00    -0.146 I 
ENDROOT
TORSDOF 0
ENDMDL
