MODEL 1
REMARK minimizedAffinity -0.0859164521
REMARK minimizedRMSD -1
REMARK  0 active torsions:
REMARK  status: ('A' for Active; 'I' for Inactive)
ROOT
ATOM      1  C   UNL d   1      -3.985  -3.936  -5.963  0.00  0.00     0.023 A 
ATOM      2  C1  UNL d   1      -3.246  -5.119  -5.998  0.00  0.00     0.003 A 
ATOM      3  C2  UNL d   1      -2.058  -5.222  -5.272  0.00  0.00     0.048 A 
ATOM      4  C3  UNL d   1      -1.615  -4.139  -4.513  0.00  0.00     0.023 A 
ATOM      5  C4  UNL d   1      -2.352  -2.954  -4.475  0.00  0.00     0.048 A 
ATOM      6  C5  UNL d   1      -3.539  -2.856  -5.203  0.00  0.00     0.003 A 
ATOM      7  I   UNL d   1       0.153  -4.291  -3.431  0.00  0.00    -0.146 I 
ENDROOT
TORSDOF 0
ENDMDL
