MODEL 1
REMARK minimizedAffinity 3.01166487
REMARK minimizedRMSD -1
REMARK  0 active torsions:
REMARK  status: ('A' for Active; 'I' for Inactive)
ROOT
ATOM      1  C   UNL d   1      -1.455  -5.090  -4.184  0.00  0.00     0.023 A 
ATOM      2  C1  UNL d   1      -2.217  -4.201  -3.427  0.00  0.00     0.003 A 
ATOM      3  C2  UNL d   1      -3.405  -3.680  -3.945  0.00  0.00     0.048 A 
ATOM      4  C3  UNL d   1      -3.826  -4.054  -5.220  0.00  0.00     0.023 A 
ATOM      5  C4  UNL d   1      -3.067  -4.945  -5.982  0.00  0.00     0.048 A 
ATOM      6  C5  UNL d   1      -1.879  -5.462  -5.460  0.00  0.00     0.003 A 
ATOM      7  I   UNL d   1      -5.593  -3.281  -5.993  0.00  0.00    -0.146 I 
ENDROOT
TORSDOF 0
ENDMDL
