MODEL 1
REMARK minimizedAffinity -2.5368855
REMARK minimizedRMSD -1
REMARK  0 active torsions:
REMARK  status: ('A' for Active; 'I' for Inactive)
ROOT
ATOM      1  C   UNL d   1      -1.812   1.627   2.066  0.00  0.00     0.124 A 
ATOM      2  C1  UNL d   1      -0.883   2.490   1.503  0.00  0.00     0.062 A 
ATOM      3  C2  UNL d   1       0.289   1.989   0.944  0.00  0.00     0.162 A 
ATOM      4  C3  UNL d   1       0.538   0.617   0.943  0.00  0.00    -0.034 A 
ATOM      5  C4  UNL d   1      -0.401  -0.245   1.511  0.00  0.00     0.162 A 
ATOM      6  C5  UNL d   1      -1.571   0.260   2.069  0.00  0.00     0.062 A 
ATOM      7  F   UNL d   1      -2.468  -0.576   2.612  0.00  0.00    -0.097 F 
ATOM      8  F1  UNL d   1      -0.194  -1.570   1.527  0.00  0.00    -0.096 F 
ATOM      9  I   UNL d   1       2.289  -0.136   0.107  0.00  0.00    -0.060 I 
ATOM     10  F2  UNL d   1       1.170   2.847   0.407  0.00  0.00    -0.096 F 
ATOM     11  F3  UNL d   1      -1.113   3.811   1.500  0.00  0.00    -0.097 F 
ATOM     12  F4  UNL d   1      -2.939   2.111   2.604  0.00  0.00    -0.092 F 
ENDROOT
TORSDOF 0
ENDMDL
