MODEL 1
REMARK minimizedAffinity 1.30742431
REMARK minimizedRMSD -1
REMARK  0 active torsions:
REMARK  status: ('A' for Active; 'I' for Inactive)
ROOT
ATOM      1  C   UNL d   1      -0.170   0.100   1.445  0.00  0.00     0.124 A 
ATOM      2  C1  UNL d   1      -1.208  -0.690   1.917  0.00  0.00     0.062 A 
ATOM      3  C2  UNL d   1      -2.297  -0.106   2.558  0.00  0.00     0.162 A 
ATOM      4  C3  UNL d   1      -2.354   1.277   2.729  0.00  0.00    -0.034 A 
ATOM      5  C4  UNL d   1      -1.306   2.066   2.252  0.00  0.00     0.162 A 
ATOM      6  C5  UNL d   1      -0.220   1.477   1.612  0.00  0.00     0.062 A 
ATOM      7  F   UNL d   1       0.783   2.242   1.156  0.00  0.00    -0.097 F 
ATOM      8  F1  UNL d   1      -1.328   3.399   2.399  0.00  0.00    -0.096 F 
ATOM      9  I   UNL d   1      -3.981   2.154   3.686  0.00  0.00    -0.060 I 
ATOM     10  F2  UNL d   1      -3.286  -0.894   3.005  0.00  0.00    -0.096 F 
ATOM     11  F3  UNL d   1      -1.162  -2.021   1.758  0.00  0.00    -0.097 F 
ATOM     12  F4  UNL d   1       0.877  -0.464   0.830  0.00  0.00    -0.092 F 
ENDROOT
TORSDOF 0
ENDMDL
