MODEL 1
REMARK minimizedAffinity 4.10277271
REMARK minimizedRMSD -1
REMARK  0 active torsions:
REMARK  status: ('A' for Active; 'I' for Inactive)
ROOT
ATOM      1  C   UNL d   1       0.247   0.048   0.929  0.00  0.00     0.124 A 
ATOM      2  C1  UNL d   1      -0.637  -0.784   1.601  0.00  0.00     0.062 A 
ATOM      3  C2  UNL d   1      -1.756  -0.251   2.235  0.00  0.00     0.162 A 
ATOM      4  C3  UNL d   1      -1.997   1.122   2.198  0.00  0.00    -0.034 A 
ATOM      5  C4  UNL d   1      -1.103   1.953   1.521  0.00  0.00     0.162 A 
ATOM      6  C5  UNL d   1       0.014   1.415   0.889  0.00  0.00     0.062 A 
ATOM      7  F   UNL d   1       0.867   2.220   0.240  0.00  0.00    -0.097 F 
ATOM      8  F1  UNL d   1      -1.305   3.278   1.466  0.00  0.00    -0.096 F 
ATOM      9  I   UNL d   1      -3.669   1.924   3.145  0.00  0.00    -0.060 I 
ATOM     10  F2  UNL d   1      -2.593  -1.079   2.877  0.00  0.00    -0.096 F 
ATOM     11  F3  UNL d   1      -0.413  -2.106   1.641  0.00  0.00    -0.097 F 
ATOM     12  F4  UNL d   1       1.323  -0.468   0.321  0.00  0.00    -0.092 F 
ENDROOT
TORSDOF 0
ENDMDL
