MODEL 1
REMARK minimizedAffinity 4.50272131
REMARK minimizedRMSD -1
REMARK  0 active torsions:
REMARK  status: ('A' for Active; 'I' for Inactive)
ROOT
ATOM      1  C   UNL d   1       0.051   0.120   1.022  0.00  0.00     0.124 A 
ATOM      2  C1  UNL d   1       0.061   1.499   1.175  0.00  0.00     0.062 A 
ATOM      3  C2  UNL d   1      -0.899   2.123   1.967  0.00  0.00     0.162 A 
ATOM      4  C3  UNL d   1      -1.877   1.368   2.614  0.00  0.00    -0.034 A 
ATOM      5  C4  UNL d   1      -1.881  -0.019   2.455  0.00  0.00     0.162 A 
ATOM      6  C5  UNL d   1      -0.920  -0.638   1.662  0.00  0.00     0.062 A 
ATOM      7  F   UNL d   1      -0.932  -1.971   1.516  0.00  0.00    -0.097 F 
ATOM      8  F1  UNL d   1      -2.807  -0.775   3.062  0.00  0.00    -0.096 F 
ATOM      9  I   UNL d   1      -3.313   2.297   3.799  0.00  0.00    -0.060 I 
ATOM     10  F2  UNL d   1      -0.864   3.458   2.096  0.00  0.00    -0.096 F 
ATOM     11  F3  UNL d   1       0.997   2.234   0.557  0.00  0.00    -0.097 F 
ATOM     12  F4  UNL d   1       0.974  -0.478   0.259  0.00  0.00    -0.092 F 
ENDROOT
TORSDOF 0
ENDMDL
