MODEL 1
REMARK minimizedAffinity 4.00279236
REMARK minimizedRMSD -1
REMARK  0 active torsions:
REMARK  status: ('A' for Active; 'I' for Inactive)
ROOT
ATOM      1  C   UNL d   1      -0.044   1.718   1.479  0.00  0.00     0.124 A 
ATOM      2  C1  UNL d   1       0.277   0.375   1.621  0.00  0.00     0.062 A 
ATOM      3  C2  UNL d   1      -0.659  -0.518   2.134  0.00  0.00     0.162 A 
ATOM      4  C3  UNL d   1      -1.926  -0.072   2.510  0.00  0.00    -0.034 A 
ATOM      5  C4  UNL d   1      -2.242   1.281   2.365  0.00  0.00     0.162 A 
ATOM      6  C5  UNL d   1      -1.303   2.169   1.851  0.00  0.00     0.062 A 
ATOM      7  F   UNL d   1      -1.615   3.466   1.715  0.00  0.00    -0.097 F 
ATOM      8  F1  UNL d   1      -3.450   1.744   2.716  0.00  0.00    -0.096 F 
ATOM      9  I   UNL d   1      -3.328  -1.404   3.278  0.00  0.00    -0.060 I 
ATOM     10  F2  UNL d   1      -0.322  -1.810   2.260  0.00  0.00    -0.096 F 
ATOM     11  F3  UNL d   1       1.492  -0.064   1.263  0.00  0.00    -0.097 F 
ATOM     12  F4  UNL d   1       0.858   2.575   0.985  0.00  0.00    -0.092 F 
ENDROOT
TORSDOF 0
ENDMDL
