MODEL 1
REMARK minimizedAffinity 5.64186049
REMARK minimizedRMSD -1
REMARK  0 active torsions:
REMARK  status: ('A' for Active; 'I' for Inactive)
ROOT
ATOM      1  C   UNL d   1      -0.041   0.126   1.492  0.00  0.00     0.124 A 
ATOM      2  C1  UNL d   1      -0.183   1.499   1.638  0.00  0.00     0.062 A 
ATOM      3  C2  UNL d   1      -1.264   2.020   2.344  0.00  0.00     0.162 A 
ATOM      4  C3  UNL d   1      -2.212   1.168   2.910  0.00  0.00    -0.034 A 
ATOM      5  C4  UNL d   1      -2.063  -0.212   2.758  0.00  0.00     0.162 A 
ATOM      6  C5  UNL d   1      -0.981  -0.728   2.052  0.00  0.00     0.062 A 
ATOM      7  F   UNL d   1      -0.846  -2.055   1.912  0.00  0.00    -0.097 F 
ATOM      8  F1  UNL d   1      -2.956  -1.060   3.289  0.00  0.00    -0.096 F 
ATOM      9  I   UNL d   1      -3.829   1.943   3.965  0.00  0.00    -0.060 I 
ATOM     10  F2  UNL d   1      -1.375   3.351   2.469  0.00  0.00    -0.096 F 
ATOM     11  F3  UNL d   1       0.723   2.326   1.098  0.00  0.00    -0.097 F 
ATOM     12  F4  UNL d   1       0.999  -0.373   0.812  0.00  0.00    -0.092 F 
ENDROOT
TORSDOF 0
ENDMDL
