MODEL 1
REMARK minimizedAffinity 8.22635651
REMARK minimizedRMSD -1
REMARK  0 active torsions:
REMARK  status: ('A' for Active; 'I' for Inactive)
ROOT
ATOM      1  C   UNL d   1       1.100  -0.239   1.077  0.00  0.00     0.124 A 
ATOM      2  C1  UNL d   1       0.649  -0.840   2.244  0.00  0.00     0.062 A 
ATOM      3  C2  UNL d   1      -0.569  -0.460   2.801  0.00  0.00     0.162 A 
ATOM      4  C3  UNL d   1      -1.345   0.525   2.191  0.00  0.00    -0.034 A 
ATOM      5  C4  UNL d   1      -0.884   1.126   1.018  0.00  0.00     0.162 A 
ATOM      6  C5  UNL d   1       0.334   0.743   0.465  0.00  0.00     0.062 A 
ATOM      7  F   UNL d   1       0.769   1.324  -0.662  0.00  0.00    -0.097 F 
ATOM      8  F1  UNL d   1      -1.604   2.077   0.405  0.00  0.00    -0.096 F 
ATOM      9  I   UNL d   1      -3.166   1.096   3.020  0.00  0.00    -0.060 I 
ATOM     10  F2  UNL d   1      -0.981  -1.058   3.929  0.00  0.00    -0.096 F 
ATOM     11  F3  UNL d   1       1.388  -1.789   2.837  0.00  0.00    -0.097 F 
ATOM     12  F4  UNL d   1       2.273  -0.606   0.543  0.00  0.00    -0.092 F 
ENDROOT
TORSDOF 0
ENDMDL
