MODEL 1
REMARK minimizedAffinity 9.02850246
REMARK minimizedRMSD -1
REMARK  0 active torsions:
REMARK  status: ('A' for Active; 'I' for Inactive)
ROOT
ATOM      1  C   UNL d   1      -2.580   1.212   3.000  0.00  0.00     0.124 A 
ATOM      2  C1  UNL d   1      -2.247  -0.088   2.646  0.00  0.00     0.062 A 
ATOM      3  C2  UNL d   1      -1.036  -0.353   2.013  0.00  0.00     0.162 A 
ATOM      4  C3  UNL d   1      -0.148   0.684   1.729  0.00  0.00    -0.034 A 
ATOM      5  C4  UNL d   1      -0.490   1.990   2.086  0.00  0.00     0.162 A 
ATOM      6  C5  UNL d   1      -1.701   2.250   2.719  0.00  0.00     0.062 A 
ATOM      7  F   UNL d   1      -2.021   3.507   3.060  0.00  0.00    -0.097 F 
ATOM      8  F1  UNL d   1       0.340   3.011   1.828  0.00  0.00    -0.096 F 
ATOM      9  I   UNL d   1       1.663   0.292   0.781  0.00  0.00    -0.060 I 
ATOM     10  F2  UNL d   1      -0.741  -1.619   1.682  0.00  0.00    -0.096 F 
ATOM     11  F3  UNL d   1      -3.094  -1.092   2.915  0.00  0.00    -0.097 F 
ATOM     12  F4  UNL d   1      -3.745   1.465   3.608  0.00  0.00    -0.092 F 
ENDROOT
TORSDOF 0
ENDMDL
