MODEL 1
REMARK minimizedAffinity 7.43833971
REMARK minimizedRMSD -1
REMARK  0 active torsions:
REMARK  status: ('A' for Active; 'I' for Inactive)
ROOT
ATOM      1  C   UNL d   1      -0.045  -0.161   2.239  0.00  0.00     0.124 A 
ATOM      2  C1  UNL d   1      -0.507   1.121   1.973  0.00  0.00     0.062 A 
ATOM      3  C2  UNL d   1      -1.782   1.504   2.378  0.00  0.00     0.162 A 
ATOM      4  C3  UNL d   1      -2.606   0.604   3.055  0.00  0.00    -0.034 A 
ATOM      5  C4  UNL d   1      -2.135  -0.684   3.318  0.00  0.00     0.162 A 
ATOM      6  C5  UNL d   1      -0.860  -1.062   2.911  0.00  0.00     0.062 A 
ATOM      7  F   UNL d   1      -0.416  -2.301   3.169  0.00  0.00    -0.097 F 
ATOM      8  F1  UNL d   1      -2.901  -1.574   3.966  0.00  0.00    -0.096 F 
ATOM      9  I   UNL d   1      -4.513   1.173   3.661  0.00  0.00    -0.060 I 
ATOM     10  F2  UNL d   1      -2.202   2.749   2.107  0.00  0.00    -0.096 F 
ATOM     11  F3  UNL d   1       0.278   1.993   1.323  0.00  0.00    -0.097 F 
ATOM     12  F4  UNL d   1       1.182  -0.527   1.848  0.00  0.00    -0.092 F 
ENDROOT
TORSDOF 0
ENDMDL
