MODEL 1
REMARK minimizedAffinity 1.56959808
REMARK minimizedRMSD -1
REMARK  0 active torsions:
REMARK  status: ('A' for Active; 'I' for Inactive)
ROOT
ATOM      1  C   UNL d   1       0.497   0.193   1.316  0.00  0.00     0.124 A 
ATOM      2  C1  UNL d   1       0.335   1.564   1.458  0.00  0.00     0.062 A 
ATOM      3  C2  UNL d   1      -0.778   2.072   2.121  0.00  0.00     0.162 A 
ATOM      4  C3  UNL d   1      -1.738   1.208   2.648  0.00  0.00    -0.034 A 
ATOM      5  C4  UNL d   1      -1.569  -0.169   2.501  0.00  0.00     0.162 A 
ATOM      6  C5  UNL d   1      -0.455  -0.672   1.837  0.00  0.00     0.062 A 
ATOM      7  F   UNL d   1      -0.300  -1.997   1.701  0.00  0.00    -0.097 F 
ATOM      8  F1  UNL d   1      -2.473  -1.028   2.996  0.00  0.00    -0.096 F 
ATOM      9  I   UNL d   1      -3.404   1.964   3.641  0.00  0.00    -0.060 I 
ATOM     10  F2  UNL d   1      -0.909   3.401   2.244  0.00  0.00    -0.096 F 
ATOM     11  F3  UNL d   1       1.252   2.402   0.954  0.00  0.00    -0.097 F 
ATOM     12  F4  UNL d   1       1.569  -0.293   0.676  0.00  0.00    -0.092 F 
ENDROOT
TORSDOF 0
ENDMDL
