MODEL 1
REMARK minimizedAffinity -4.53705359
REMARK minimizedRMSD -1
REMARK  0 active torsions:
REMARK  status: ('A' for Active; 'I' for Inactive)
ROOT
ATOM      1  C   UNL d   1       0.506   1.894   0.951  0.00  0.00     0.124 A 
ATOM      2  C1  UNL d   1      -0.257   2.531   1.920  0.00  0.00     0.062 A 
ATOM      3  C2  UNL d   1      -1.321   1.867   2.522  0.00  0.00     0.162 A 
ATOM      4  C3  UNL d   1      -1.629   0.556   2.158  0.00  0.00    -0.034 A 
ATOM      5  C4  UNL d   1      -0.858  -0.078   1.182  0.00  0.00     0.162 A 
ATOM      6  C5  UNL d   1       0.205   0.590   0.584  0.00  0.00     0.062 A 
ATOM      7  F   UNL d   1       0.941  -0.028  -0.352  0.00  0.00    -0.097 F 
ATOM      8  F1  UNL d   1      -1.127  -1.338   0.808  0.00  0.00    -0.096 F 
ATOM      9  I   UNL d   1      -3.221  -0.440   3.055  0.00  0.00    -0.060 I 
ATOM     10  F2  UNL d   1      -2.041   2.508   3.454  0.00  0.00    -0.096 F 
ATOM     11  F3  UNL d   1       0.032   3.791   2.276  0.00  0.00    -0.097 F 
ATOM     12  F4  UNL d   1       1.530   2.535   0.373  0.00  0.00    -0.092 F 
ENDROOT
TORSDOF 0
ENDMDL
