MODEL 1
REMARK minimizedAffinity 0.148077145
REMARK minimizedRMSD -1
REMARK  0 active torsions:
REMARK  status: ('A' for Active; 'I' for Inactive)
ROOT
ATOM      1  C   UNL d   1       0.146   0.475   1.105  0.00  0.00     0.124 A 
ATOM      2  C1  UNL d   1      -0.789  -0.423   1.601  0.00  0.00     0.062 A 
ATOM      3  C2  UNL d   1      -1.888   0.038   2.320  0.00  0.00     0.162 A 
ATOM      4  C3  UNL d   1      -2.058   1.403   2.548  0.00  0.00    -0.034 A 
ATOM      5  C4  UNL d   1      -1.113   2.300   2.047  0.00  0.00     0.162 A 
ATOM      6  C5  UNL d   1      -0.016   1.835   1.328  0.00  0.00     0.062 A 
ATOM      7  F   UNL d   1       0.886   2.704   0.850  0.00  0.00    -0.097 F 
ATOM      8  F1  UNL d   1      -1.246   3.619   2.247  0.00  0.00    -0.096 F 
ATOM      9  I   UNL d   1      -3.700   2.096   3.623  0.00  0.00    -0.060 I 
ATOM     10  F2  UNL d   1      -2.776  -0.852   2.788  0.00  0.00    -0.096 F 
ATOM     11  F3  UNL d   1      -0.634  -1.737   1.387  0.00  0.00    -0.097 F 
ATOM     12  F4  UNL d   1       1.203   0.029   0.413  0.00  0.00    -0.092 F 
ENDROOT
TORSDOF 0
ENDMDL
