MODEL 1
REMARK minimizedAffinity 6.64318323
REMARK minimizedRMSD -1
REMARK  0 active torsions:
REMARK  status: ('A' for Active; 'I' for Inactive)
ROOT
ATOM      1  C   UNL d   1      -0.911   2.571   1.670  0.00  0.00     0.124 A 
ATOM      2  C1  UNL d   1       0.271   1.865   1.495  0.00  0.00     0.062 A 
ATOM      3  C2  UNL d   1       0.386   0.562   1.972  0.00  0.00     0.162 A 
ATOM      4  C3  UNL d   1      -0.685  -0.043   2.628  0.00  0.00    -0.034 A 
ATOM      5  C4  UNL d   1      -1.871   0.673   2.802  0.00  0.00     0.162 A 
ATOM      6  C5  UNL d   1      -1.980   1.975   2.323  0.00  0.00     0.062 A 
ATOM      7  F   UNL d   1      -3.123   2.655   2.493  0.00  0.00    -0.097 F 
ATOM      8  F1  UNL d   1      -2.920   0.121   3.428  0.00  0.00    -0.096 F 
ATOM      9  I   UNL d   1      -0.518  -1.991   3.343  0.00  0.00    -0.060 I 
ATOM     10  F2  UNL d   1       1.540  -0.096   1.789  0.00  0.00    -0.096 F 
ATOM     11  F3  UNL d   1       1.307   2.439   0.865  0.00  0.00    -0.097 F 
ATOM     12  F4  UNL d   1      -1.018   3.824   1.211  0.00  0.00    -0.092 F 
ENDROOT
TORSDOF 0
ENDMDL
