MODEL 1
REMARK minimizedAffinity -2.17788506
REMARK minimizedRMSD -1
REMARK  0 active torsions:
REMARK  status: ('A' for Active; 'I' for Inactive)
ROOT
ATOM      1  C   UNL d   1       0.216   0.225   0.775  0.00  0.00     0.124 A 
ATOM      2  C1  UNL d   1      -0.759  -0.605   1.311  0.00  0.00     0.062 A 
ATOM      3  C2  UNL d   1      -1.795  -0.069   2.070  0.00  0.00     0.162 A 
ATOM      4  C3  UNL d   1      -1.863   1.306   2.297  0.00  0.00    -0.034 A 
ATOM      5  C4  UNL d   1      -0.879   2.134   1.755  0.00  0.00     0.162 A 
ATOM      6  C5  UNL d   1       0.155   1.593   0.998  0.00  0.00     0.062 A 
ATOM      7  F   UNL d   1       1.096   2.397   0.481  0.00  0.00    -0.097 F 
ATOM      8  F1  UNL d   1      -0.914   3.460   1.953  0.00  0.00    -0.096 F 
ATOM      9  I   UNL d   1      -3.412   2.111   3.430  0.00  0.00    -0.060 I 
ATOM     10  F2  UNL d   1      -2.723  -0.895   2.575  0.00  0.00    -0.096 F 
ATOM     11  F3  UNL d   1      -0.702  -1.928   1.099  0.00  0.00    -0.097 F 
ATOM     12  F4  UNL d   1       1.212  -0.294   0.047  0.00  0.00    -0.092 F 
ENDROOT
TORSDOF 0
ENDMDL
