MODEL 1
REMARK minimizedAffinity 4.09776783
REMARK minimizedRMSD -1
REMARK  0 active torsions:
REMARK  status: ('A' for Active; 'I' for Inactive)
ROOT
ATOM      1  C   UNL d   1       0.185   0.190   0.905  0.00  0.00     0.124 A 
ATOM      2  C1  UNL d   1      -0.899  -0.575   1.313  0.00  0.00     0.062 A 
ATOM      3  C2  UNL d   1      -1.949   0.014   2.011  0.00  0.00     0.162 A 
ATOM      4  C3  UNL d   1      -1.921   1.377   2.306  0.00  0.00    -0.034 A 
ATOM      5  C4  UNL d   1      -0.827   2.140   1.893  0.00  0.00     0.162 A 
ATOM      6  C5  UNL d   1       0.220   1.547   1.195  0.00  0.00     0.062 A 
ATOM      7  F   UNL d   1       1.266   2.287   0.802  0.00  0.00    -0.097 F 
ATOM      8  F1  UNL d   1      -0.767   3.454   2.160  0.00  0.00    -0.096 F 
ATOM      9  I   UNL d   1      -3.488   2.263   3.350  0.00  0.00    -0.060 I 
ATOM     10  F2  UNL d   1      -2.983  -0.749   2.393  0.00  0.00    -0.096 F 
ATOM     11  F3  UNL d   1      -0.935  -1.886   1.034  0.00  0.00    -0.097 F 
ATOM     12  F4  UNL d   1       1.194  -0.380   0.234  0.00  0.00    -0.092 F 
ENDROOT
TORSDOF 0
ENDMDL
