MODEL 1
REMARK minimizedAffinity 9.52056789
REMARK minimizedRMSD -1
REMARK  0 active torsions:
REMARK  status: ('A' for Active; 'I' for Inactive)
ROOT
ATOM      1  C   UNL d   1      -1.525   0.895   1.652  0.00  0.00     0.124 A 
ATOM      2  C1  UNL d   1      -2.757   0.257   1.710  0.00  0.00     0.062 A 
ATOM      3  C2  UNL d   1      -3.608   0.475   2.789  0.00  0.00     0.162 A 
ATOM      4  C3  UNL d   1      -3.232   1.336   3.820  0.00  0.00    -0.034 A 
ATOM      5  C4  UNL d   1      -1.991   1.973   3.755  0.00  0.00     0.162 A 
ATOM      6  C5  UNL d   1      -1.144   1.752   2.675  0.00  0.00     0.062 A 
ATOM      7  F   UNL d   1       0.046   2.369   2.621  0.00  0.00    -0.097 F 
ATOM      8  F1  UNL d   1      -1.598   2.808   4.729  0.00  0.00    -0.096 F 
ATOM      9  I   UNL d   1      -4.502   1.665   5.435  0.00  0.00    -0.060 I 
ATOM     10  F2  UNL d   1      -4.792  -0.155   2.819  0.00  0.00    -0.096 F 
ATOM     11  F3  UNL d   1      -3.127  -0.573   0.724  0.00  0.00    -0.097 F 
ATOM     12  F4  UNL d   1      -0.708   0.682   0.613  0.00  0.00    -0.092 F 
ENDROOT
TORSDOF 0
ENDMDL
