MODEL 1
REMARK minimizedAffinity -2.00309801
REMARK minimizedRMSD -1
REMARK  1 active torsions:
REMARK  status: ('A' for Active; 'I' for Inactive)
REMARK    1  A    between atoms: C1_2  and  C2_3 
ROOT
ATOM      1  C2  UNL d   1       2.210  -1.039  -0.292  0.00  0.00    -0.073 A 
ATOM      2  C3  UNL d   1       2.361   0.302   0.079  0.00  0.00    -0.002 A 
ATOM      3  C4  UNL d   1       1.287   1.008   0.622  0.00  0.00     0.004 A 
ATOM      4  C5  UNL d   1       0.055   0.380   0.807  0.00  0.00    -0.004 A 
ATOM      5  C6  UNL d   1      -0.111  -0.963   0.454  0.00  0.00    -0.075 A 
ATOM      6  C7  UNL d   1      -1.430  -1.653   0.644  0.00  0.00     0.076 C 
ATOM      7  C8  UNL d   1       0.971  -1.665  -0.093  0.00  0.00     0.001 A 
ENDROOT
BRANCH   1   8
ATOM      8  C1  UNL d   1       3.369  -1.808  -0.872  0.00  0.00     0.053 C 
ATOM      9  C   UNL d   1       4.532  -0.898  -1.235  0.00  0.00     0.018 C 
ENDBRANCH   1   8
TORSDOF 1
ENDMDL
