MODEL 1
REMARK minimizedAffinity -5.92764425
REMARK minimizedRMSD -1
REMARK  1 active torsions:
REMARK  status: ('A' for Active; 'I' for Inactive)
REMARK    1  A    between atoms: C1_2  and  C2_3 
ROOT
ATOM      1  C2  UNL d   1       2.949  -0.441  -1.283  0.00  0.00    -0.073 A 
ATOM      2  C3  UNL d   1       2.335  -1.457  -0.541  0.00  0.00    -0.002 A 
ATOM      3  C4  UNL d   1       1.332  -1.150   0.379  0.00  0.00     0.004 A 
ATOM      4  C5  UNL d   1       0.927   0.172   0.562  0.00  0.00    -0.004 A 
ATOM      5  C6  UNL d   1       1.520   1.200  -0.179  0.00  0.00    -0.075 A 
ATOM      6  C7  UNL d   1       1.098   2.627   0.008  0.00  0.00     0.076 C 
ATOM      7  C8  UNL d   1       2.529   0.884  -1.099  0.00  0.00     0.001 A 
ENDROOT
BRANCH   1   8
ATOM      8  C1  UNL d   1       4.028  -0.769  -2.282  0.00  0.00     0.053 C 
ATOM      9  C   UNL d   1       4.835   0.460  -2.673  0.00  0.00     0.018 C 
ENDBRANCH   1   8
TORSDOF 1
ENDMDL
