MODEL 1
REMARK minimizedAffinity -3.44381022
REMARK minimizedRMSD -1
REMARK  1 active torsions:
REMARK  status: ('A' for Active; 'I' for Inactive)
REMARK    1  A    between atoms: C1_2  and  C2_3 
ROOT
ATOM      1  C2  UNL d   1       3.274  -0.611  -0.639  0.00  0.00    -0.073 A 
ATOM      2  C3  UNL d   1       2.997   0.751  -0.476  0.00  0.00    -0.002 A 
ATOM      3  C4  UNL d   1       1.797   1.162   0.105  0.00  0.00     0.004 A 
ATOM      4  C5  UNL d   1       0.866   0.217   0.535  0.00  0.00    -0.004 A 
ATOM      5  C6  UNL d   1       1.129  -1.149   0.391  0.00  0.00    -0.075 A 
ATOM      6  C7  UNL d   1       0.137  -2.179   0.846  0.00  0.00     0.076 C 
ATOM      7  C8  UNL d   1       2.336  -1.554  -0.196  0.00  0.00     0.001 A 
ENDROOT
BRANCH   1   8
ATOM      8  C1  UNL d   1       4.572  -1.059  -1.260  0.00  0.00     0.053 C 
ATOM      9  C   UNL d   1       4.915  -0.256  -2.505  0.00  0.00     0.018 C 
ENDBRANCH   1   8
TORSDOF 1
ENDMDL
