MODEL 1
REMARK minimizedAffinity -2.98869824
REMARK minimizedRMSD -1
REMARK  1 active torsions:
REMARK  status: ('A' for Active; 'I' for Inactive)
REMARK    1  A    between atoms: C1_2  and  C2_3 
ROOT
ATOM      1  C2  UNL d   1       1.927  -0.628   0.137  0.00  0.00    -0.073 A 
ATOM      2  C3  UNL d   1       1.448   0.686   0.080  0.00  0.00    -0.002 A 
ATOM      3  C4  UNL d   1       2.099   1.640  -0.703  0.00  0.00     0.004 A 
ATOM      4  C5  UNL d   1       3.230   1.290  -1.441  0.00  0.00    -0.004 A 
ATOM      5  C6  UNL d   1       3.716  -0.021  -1.407  0.00  0.00    -0.075 A 
ATOM      6  C7  UNL d   1       4.932  -0.414  -2.193  0.00  0.00     0.076 C 
ATOM      7  C8  UNL d   1       3.058  -0.973  -0.616  0.00  0.00     0.001 A 
ENDROOT
BRANCH   1   8
ATOM      8  C1  UNL d   1       1.223  -1.663   0.976  0.00  0.00     0.053 C 
ATOM      9  C   UNL d   1       0.194  -1.040   1.906  0.00  0.00     0.018 C 
ENDBRANCH   1   8
TORSDOF 1
ENDMDL
