MODEL 1
REMARK minimizedAffinity -0.79542613
REMARK minimizedRMSD -1
REMARK  1 active torsions:
REMARK  status: ('A' for Active; 'I' for Inactive)
REMARK    1  A    between atoms: C1_2  and  C2_3 
ROOT
ATOM      1  C2  UNL d   1       2.246   0.151  -0.524  0.00  0.00    -0.073 A 
ATOM      2  C3  UNL d   1       3.055  -0.902  -0.084  0.00  0.00    -0.002 A 
ATOM      3  C4  UNL d   1       2.612  -1.758   0.926  0.00  0.00     0.004 A 
ATOM      4  C5  UNL d   1       1.355  -1.573   1.501  0.00  0.00    -0.004 A 
ATOM      5  C6  UNL d   1       0.527  -0.533   1.066  0.00  0.00    -0.075 A 
ATOM      6  C7  UNL d   1      -0.828  -0.319   1.676  0.00  0.00     0.076 C 
ATOM      7  C8  UNL d   1       0.980   0.324   0.054  0.00  0.00     0.001 A 
ENDROOT
BRANCH   1   8
ATOM      8  C1  UNL d   1       2.718   1.073  -1.618  0.00  0.00     0.053 C 
ATOM      9  C   UNL d   1       4.087   0.677  -2.147  0.00  0.00     0.018 C 
ENDBRANCH   1   8
TORSDOF 1
ENDMDL
