MODEL 1
REMARK minimizedAffinity -2.51383281
REMARK minimizedRMSD -1
REMARK  1 active torsions:
REMARK  status: ('A' for Active; 'I' for Inactive)
REMARK    1  A    between atoms: C1_2  and  C2_3 
ROOT
ATOM      1  C2  UNL d   1       2.723  -0.733  -0.907  0.00  0.00    -0.073 A 
ATOM      2  C3  UNL d   1       2.783   0.642  -0.650  0.00  0.00    -0.002 A 
ATOM      3  C4  UNL d   1       1.837   1.246   0.179  0.00  0.00     0.004 A 
ATOM      4  C5  UNL d   1       0.828   0.482   0.765  0.00  0.00    -0.004 A 
ATOM      5  C6  UNL d   1       0.758  -0.895   0.530  0.00  0.00    -0.075 A 
ATOM      6  C7  UNL d   1      -0.323  -1.730   1.152  0.00  0.00     0.076 C 
ATOM      7  C8  UNL d   1       1.710  -1.494  -0.306  0.00  0.00     0.001 A 
ENDROOT
BRANCH   1   8
ATOM      8  C1  UNL d   1       3.746  -1.390  -1.797  0.00  0.00     0.053 C 
ATOM      9  C   UNL d   1       4.899  -0.456  -2.128  0.00  0.00     0.018 C 
ENDBRANCH   1   8
TORSDOF 1
ENDMDL
