MODEL 1
REMARK minimizedAffinity -1.45915496
REMARK minimizedRMSD -1
REMARK  1 active torsions:
REMARK  status: ('A' for Active; 'I' for Inactive)
REMARK    1  A    between atoms: C1_2  and  C2_3 
ROOT
ATOM      1  C2  UNL d   1       2.978  -0.733  -0.775  0.00  0.00    -0.073 A 
ATOM      2  C3  UNL d   1       2.572   0.509  -1.278  0.00  0.00    -0.002 A 
ATOM      3  C4  UNL d   1       1.445   1.146  -0.755  0.00  0.00     0.004 A 
ATOM      4  C5  UNL d   1       0.719   0.553   0.278  0.00  0.00    -0.004 A 
ATOM      5  C6  UNL d   1       1.117  -0.682   0.801  0.00  0.00    -0.075 A 
ATOM      6  C7  UNL d   1       0.345  -1.334   1.911  0.00  0.00     0.076 C 
ATOM      7  C8  UNL d   1       2.247  -1.317   0.269  0.00  0.00     0.001 A 
ENDROOT
BRANCH   1   8
ATOM      8  C1  UNL d   1       4.198  -1.421  -1.332  0.00  0.00     0.053 C 
ATOM      9  C   UNL d   1       4.970  -0.527  -2.289  0.00  0.00     0.018 C 
ENDBRANCH   1   8
TORSDOF 1
ENDMDL
