MODEL 1
REMARK minimizedAffinity -3.30556893
REMARK minimizedRMSD -1
REMARK  1 active torsions:
REMARK  status: ('A' for Active; 'I' for Inactive)
REMARK    1  A    between atoms: C1_2  and  C2_3 
ROOT
ATOM      1  C2  UNL d   1       2.706  -0.814  -1.138  0.00  0.00    -0.073 A 
ATOM      2  C3  UNL d   1       2.313   0.513  -0.927  0.00  0.00    -0.002 A 
ATOM      3  C4  UNL d   1       1.445   0.833   0.117  0.00  0.00     0.004 A 
ATOM      4  C5  UNL d   1       0.966  -0.166   0.964  0.00  0.00    -0.004 A 
ATOM      5  C6  UNL d   1       1.355  -1.496   0.776  0.00  0.00    -0.075 A 
ATOM      6  C7  UNL d   1       0.847  -2.583   1.677  0.00  0.00     0.076 C 
ATOM      7  C8  UNL d   1       2.226  -1.811  -0.276  0.00  0.00     0.001 A 
ENDROOT
BRANCH   1   8
ATOM      8  C1  UNL d   1       3.649  -1.164  -2.260  0.00  0.00     0.053 C 
ATOM      9  C   UNL d   1       4.498   0.024  -2.683  0.00  0.00     0.018 C 
ENDBRANCH   1   8
TORSDOF 1
ENDMDL
