MODEL 1
REMARK minimizedAffinity -2.17617631
REMARK minimizedRMSD -1
REMARK  1 active torsions:
REMARK  status: ('A' for Active; 'I' for Inactive)
REMARK    1  A    between atoms: C1_2  and  C2_3 
ROOT
ATOM      1  C2  UNL d   1       3.568  -0.444  -1.215  0.00  0.00    -0.073 A 
ATOM      2  C3  UNL d   1       3.297   0.929  -1.206  0.00  0.00    -0.002 A 
ATOM      3  C4  UNL d   1       2.127   1.413  -0.620  0.00  0.00     0.004 A 
ATOM      4  C5  UNL d   1       1.221   0.532  -0.030  0.00  0.00    -0.004 A 
ATOM      5  C6  UNL d   1       1.479  -0.843  -0.018  0.00  0.00    -0.075 A 
ATOM      6  C7  UNL d   1       0.513  -1.804   0.610  0.00  0.00     0.076 C 
ATOM      7  C8  UNL d   1       2.655  -1.321  -0.612  0.00  0.00     0.001 A 
ENDROOT
BRANCH   1   8
ATOM      8  C1  UNL d   1       4.833  -0.971  -1.841  0.00  0.00     0.053 C 
ATOM      9  C   UNL d   1       5.410  -0.003  -2.862  0.00  0.00     0.018 C 
ENDBRANCH   1   8
TORSDOF 1
ENDMDL
