MODEL 1
REMARK minimizedAffinity -4.17301464
REMARK minimizedRMSD -1
REMARK  1 active torsions:
REMARK  status: ('A' for Active; 'I' for Inactive)
REMARK    1  A    between atoms: C1_2  and  C2_3 
ROOT
ATOM      1  C2  UNL d   1       3.203  -0.711  -1.301  0.00  0.00    -0.073 A 
ATOM      2  C3  UNL d   1       2.659   0.567  -1.126  0.00  0.00    -0.002 A 
ATOM      3  C4  UNL d   1       1.610   0.770  -0.228  0.00  0.00     0.004 A 
ATOM      4  C5  UNL d   1       1.099  -0.299   0.507  0.00  0.00    -0.004 A 
ATOM      5  C6  UNL d   1       1.636  -1.581   0.355  0.00  0.00    -0.075 A 
ATOM      6  C7  UNL d   1       1.096  -2.743   1.137  0.00  0.00     0.076 C 
ATOM      7  C8  UNL d   1       2.688  -1.778  -0.550  0.00  0.00     0.001 A 
ENDROOT
BRANCH   1   8
ATOM      8  C1  UNL d   1       4.340  -0.933  -2.264  0.00  0.00     0.053 C 
ATOM      9  C   UNL d   1       5.246   0.283  -2.367  0.00  0.00     0.018 C 
ENDBRANCH   1   8
TORSDOF 1
ENDMDL
