MODEL 1
REMARK minimizedAffinity -3.74169254
REMARK minimizedRMSD -1
REMARK  2 active torsions:
REMARK  status: ('A' for Active; 'I' for Inactive)
REMARK    1  A    between atoms: C2'_3  and  C1'_4 
REMARK    2  A    between atoms: C1'_4  and  C1_5 
ROOT
ATOM      1  C1  I4B d   1      -0.045   0.702  -0.452  0.00  0.00    -0.075 A 
ATOM      2  C2  I4B d   1       0.452  -0.316  -1.228  0.00  0.00     0.003 A 
ATOM      3  C3  I4B d   1       0.245  -1.665  -0.851  0.00  0.00     0.002 A 
ATOM      4  C4  I4B d   1      -0.414  -1.949   0.328  0.00  0.00    -0.004 A 
ATOM      5  C5  I4B d   1      -0.936  -0.916   1.101  0.00  0.00     0.002 A 
ATOM      6  C6  I4B d   1      -0.762   0.417   0.703  0.00  0.00     0.003 A 
ENDROOT
BRANCH   1   7
ATOM      7  C1' I4B d   1       0.220   2.115  -0.862  0.00  0.00     0.060 C 
BRANCH   7   8
ATOM      8  C2' I4B d   1       1.264   2.686   0.075  0.00  0.00    -0.013 C 
ATOM      9  C4' I4B d   1       2.585   2.869  -0.625  0.00  0.00     0.013 C 
ATOM     10  C3' I4B d   1       0.747   3.990   0.605  0.00  0.00     0.013 C 
ENDBRANCH   7   8
ENDBRANCH   1   7
TORSDOF 2
ENDMDL
