MODEL 1
REMARK minimizedAffinity -2.09218049
REMARK minimizedRMSD -1
REMARK  2 active torsions:
REMARK  status: ('A' for Active; 'I' for Inactive)
REMARK    1  A    between atoms: C2'_3  and  C1'_4 
REMARK    2  A    between atoms: C1'_4  and  C1_5 
ROOT
ATOM      1  C1  I4B d   1      -0.145   0.963  -0.012  0.00  0.00    -0.075 A 
ATOM      2  C2  I4B d   1       0.370   0.058  -0.907  0.00  0.00     0.003 A 
ATOM      3  C3  I4B d   1       0.153  -1.329  -0.724  0.00  0.00     0.002 A 
ATOM      4  C4  I4B d   1      -0.537  -1.768   0.388  0.00  0.00    -0.004 A 
ATOM      5  C5  I4B d   1      -1.077  -0.848   1.283  0.00  0.00     0.002 A 
ATOM      6  C6  I4B d   1      -0.891   0.526   1.075  0.00  0.00     0.003 A 
ENDROOT
BRANCH   1   7
ATOM      7  C1' I4B d   1       0.131   2.418  -0.218  0.00  0.00     0.060 C 
BRANCH   7   8
ATOM      8  C2' I4B d   1       1.485   2.727   0.389  0.00  0.00    -0.013 C 
ATOM      9  C4' I4B d   1       2.550   2.821  -0.673  0.00  0.00     0.013 C 
ATOM     10  C3' I4B d   1       1.368   4.012   1.153  0.00  0.00     0.013 C 
ENDBRANCH   7   8
ENDBRANCH   1   7
TORSDOF 2
ENDMDL
