MODEL 1
REMARK minimizedAffinity -5.1917448
REMARK minimizedRMSD -1
REMARK  2 active torsions:
REMARK  status: ('A' for Active; 'I' for Inactive)
REMARK    1  A    between atoms: C2'_3  and  C1'_4 
REMARK    2  A    between atoms: C1'_4  and  C1_5 
ROOT
ATOM      1  C1  I4B d   1       0.069   0.221  -0.178  0.00  0.00    -0.075 A 
ATOM      2  C2  I4B d   1      -0.790  -0.026   0.864  0.00  0.00     0.003 A 
ATOM      3  C3  I4B d   1      -1.047  -1.356   1.276  0.00  0.00     0.002 A 
ATOM      4  C4  I4B d   1      -0.467  -2.404   0.590  0.00  0.00    -0.004 A 
ATOM      5  C5  I4B d   1       0.421  -2.150  -0.452  0.00  0.00     0.002 A 
ATOM      6  C6  I4B d   1       0.701  -0.829  -0.831  0.00  0.00     0.003 A 
ENDROOT
BRANCH   1   7
ATOM      7  C1' I4B d   1       0.292   1.637  -0.608  0.00  0.00     0.060 C 
BRANCH   7   8
ATOM      8  C2' I4B d   1       0.990   2.364   0.523  0.00  0.00    -0.013 C 
ATOM      9  C4' I4B d   1       2.446   2.590   0.210  0.00  0.00     0.013 C 
ATOM     10  C3' I4B d   1       0.277   3.663   0.749  0.00  0.00     0.013 C 
ENDBRANCH   7   8
ENDBRANCH   1   7
TORSDOF 2
ENDMDL
