MODEL 1
REMARK minimizedAffinity -3.59323668
REMARK minimizedRMSD -1
REMARK  2 active torsions:
REMARK  status: ('A' for Active; 'I' for Inactive)
REMARK    1  A    between atoms: C2'_3  and  C1'_4 
REMARK    2  A    between atoms: C1'_4  and  C1_5 
ROOT
ATOM      1  C1  I4B d   1      -0.252  -0.734   0.576  0.00  0.00    -0.075 A 
ATOM      2  C2  I4B d   1      -1.521  -0.372   0.953  0.00  0.00     0.003 A 
ATOM      3  C3  I4B d   1      -2.529  -1.355   1.101  0.00  0.00     0.002 A 
ATOM      4  C4  I4B d   1      -2.238  -2.674   0.815  0.00  0.00    -0.004 A 
ATOM      5  C5  I4B d   1      -0.945  -3.042   0.455  0.00  0.00     0.002 A 
ATOM      6  C6  I4B d   1       0.058  -2.068   0.347  0.00  0.00     0.003 A 
ENDROOT
BRANCH   1   7
ATOM      7  C1' I4B d   1       0.779   0.335   0.396  0.00  0.00     0.060 C 
BRANCH   7   8
ATOM      8  C2' I4B d   1       0.131   1.491  -0.339  0.00  0.00    -0.013 C 
ATOM      9  C4' I4B d   1       0.918   2.762  -0.159  0.00  0.00     0.013 C 
ATOM     10  C3' I4B d   1       0.028   1.118  -1.788  0.00  0.00     0.013 C 
ENDBRANCH   7   8
ENDBRANCH   1   7
TORSDOF 2
ENDMDL
