MODEL 1
REMARK minimizedAffinity -3.80291104
REMARK minimizedRMSD -1
REMARK  2 active torsions:
REMARK  status: ('A' for Active; 'I' for Inactive)
REMARK    1  A    between atoms: C2'_3  and  C1'_4 
REMARK    2  A    between atoms: C1'_4  and  C1_5 
ROOT
ATOM      1  C1  I4B d   1       0.142  -0.462   0.422  0.00  0.00    -0.075 A 
ATOM      2  C2  I4B d   1       0.739  -1.443  -0.329  0.00  0.00     0.003 A 
ATOM      3  C3  I4B d   1       0.136  -2.718  -0.446  0.00  0.00     0.002 A 
ATOM      4  C4  I4B d   1      -1.031  -2.983   0.242  0.00  0.00    -0.004 A 
ATOM      5  C5  I4B d   1      -1.647  -1.980   0.985  0.00  0.00     0.002 A 
ATOM      6  C6  I4B d   1      -1.063  -0.707   1.066  0.00  0.00     0.003 A 
ENDROOT
BRANCH   1   7
ATOM      7  C1' I4B d   1       0.824   0.864   0.550  0.00  0.00     0.060 C 
BRANCH   7   8
ATOM      8  C2' I4B d   1      -0.108   1.924   0.001  0.00  0.00    -0.013 C 
ATOM      9  C4' I4B d   1       0.411   3.308   0.288  0.00  0.00     0.013 C 
ATOM     10  C3' I4B d   1      -0.253   1.694  -1.474  0.00  0.00     0.013 C 
ENDBRANCH   7   8
ENDBRANCH   1   7
TORSDOF 2
ENDMDL
