MODEL 1
REMARK minimizedAffinity -2.79886794
REMARK minimizedRMSD -1
REMARK  2 active torsions:
REMARK  status: ('A' for Active; 'I' for Inactive)
REMARK    1  A    between atoms: C2'_3  and  C1'_4 
REMARK    2  A    between atoms: C1'_4  and  C1_5 
ROOT
ATOM      1  C1  I4B d   1       0.438   0.253  -0.185  0.00  0.00    -0.075 A 
ATOM      2  C2  I4B d   1       1.097  -0.706  -0.914  0.00  0.00     0.003 A 
ATOM      3  C3  I4B d   1       0.882  -2.079  -0.644  0.00  0.00     0.002 A 
ATOM      4  C4  I4B d   1       0.045  -2.446   0.390  0.00  0.00    -0.004 A 
ATOM      5  C5  I4B d   1      -0.639  -1.473   1.113  0.00  0.00     0.002 A 
ATOM      6  C6  I4B d   1      -0.451  -0.116   0.816  0.00  0.00     0.003 A 
ENDROOT
BRANCH   1   7
ATOM      7  C1' I4B d   1       0.713   1.694  -0.475  0.00  0.00     0.060 C 
BRANCH   7   8
ATOM      8  C2' I4B d   1       1.587   2.235   0.638  0.00  0.00    -0.013 C 
ATOM      9  C4' I4B d   1       3.014   2.396   0.183  0.00  0.00     0.013 C 
ATOM     10  C3' I4B d   1       1.011   3.546   1.084  0.00  0.00     0.013 C 
ENDBRANCH   7   8
ENDBRANCH   1   7
TORSDOF 2
ENDMDL
