MODEL 1
REMARK minimizedAffinity -5.04550123
REMARK minimizedRMSD -1
REMARK  2 active torsions:
REMARK  status: ('A' for Active; 'I' for Inactive)
REMARK    1  A    between atoms: C2'_3  and  C1'_4 
REMARK    2  A    between atoms: C1'_4  and  C1_5 
ROOT
ATOM      1  C1  I4B d   1       0.044   0.060  -0.316  0.00  0.00    -0.075 A 
ATOM      2  C2  I4B d   1       0.286  -0.896  -1.270  0.00  0.00     0.003 A 
ATOM      3  C3  I4B d   1       0.156  -2.270  -0.951  0.00  0.00     0.002 A 
ATOM      4  C4  I4B d   1      -0.168  -2.641   0.338  0.00  0.00    -0.004 A 
ATOM      5  C5  I4B d   1      -0.435  -1.669   1.298  0.00  0.00     0.002 A 
ATOM      6  C6  I4B d   1      -0.341  -0.309   0.966  0.00  0.00     0.003 A 
ENDROOT
BRANCH   1   7
ATOM      7  C1' I4B d   1       0.224   1.501  -0.678  0.00  0.00     0.060 C 
BRANCH   7   8
ATOM      8  C2' I4B d   1       0.593   2.256   0.582  0.00  0.00    -0.013 C 
ATOM      9  C4' I4B d   1       2.020   2.734   0.533  0.00  0.00     0.013 C 
ATOM     10  C3' I4B d   1      -0.358   3.407   0.727  0.00  0.00     0.013 C 
ENDBRANCH   7   8
ENDBRANCH   1   7
TORSDOF 2
ENDMDL
