MODEL 1
REMARK minimizedAffinity -5.62216139
REMARK minimizedRMSD -1
REMARK  2 active torsions:
REMARK  status: ('A' for Active; 'I' for Inactive)
REMARK    1  A    between atoms: C2'_3  and  C1'_4 
REMARK    2  A    between atoms: C1'_4  and  C1_5 
ROOT
ATOM      1  C1  I4B d   1       0.389   0.382  -0.054  0.00  0.00    -0.075 A 
ATOM      2  C2  I4B d   1      -0.401   0.153   1.045  0.00  0.00     0.003 A 
ATOM      3  C3  I4B d   1      -0.743  -1.171   1.413  0.00  0.00     0.002 A 
ATOM      4  C4  I4B d   1      -0.318  -2.225   0.631  0.00  0.00    -0.004 A 
ATOM      5  C5  I4B d   1       0.502  -1.993  -0.469  0.00  0.00     0.002 A 
ATOM      6  C6  I4B d   1       0.869  -0.682  -0.807  0.00  0.00     0.003 A 
ENDROOT
BRANCH   1   7
ATOM      7  C1' I4B d   1       0.703   1.794  -0.433  0.00  0.00     0.060 C 
BRANCH   7   8
ATOM      8  C2' I4B d   1       1.533   2.403   0.679  0.00  0.00    -0.013 C 
ATOM      9  C4' I4B d   1       2.946   2.660   0.228  0.00  0.00     0.013 C 
ATOM     10  C3' I4B d   1       0.864   3.673   1.114  0.00  0.00     0.013 C 
ENDBRANCH   7   8
ENDBRANCH   1   7
TORSDOF 2
ENDMDL
