MODEL 1
REMARK minimizedAffinity -4.93069887
REMARK minimizedRMSD -1
REMARK  2 active torsions:
REMARK  status: ('A' for Active; 'I' for Inactive)
REMARK    1  A    between atoms: C2'_3  and  C1'_4 
REMARK    2  A    between atoms: C1'_4  and  C1_5 
ROOT
ATOM      1  C1  I4B d   1       0.081   0.197  -0.090  0.00  0.00    -0.075 A 
ATOM      2  C2  I4B d   1       0.788  -0.888  -0.544  0.00  0.00     0.003 A 
ATOM      3  C3  I4B d   1       0.515  -2.181  -0.034  0.00  0.00     0.002 A 
ATOM      4  C4  I4B d   1      -0.432  -2.334   0.959  0.00  0.00    -0.004 A 
ATOM      5  C5  I4B d   1      -1.163  -1.235   1.402  0.00  0.00     0.002 A 
ATOM      6  C6  I4B d   1      -0.914   0.037   0.865  0.00  0.00     0.003 A 
ENDROOT
BRANCH   1   7
ATOM      7  C1' I4B d   1       0.418   1.552  -0.627  0.00  0.00     0.060 C 
BRANCH   7   8
ATOM      8  C2' I4B d   1       1.368   2.217   0.348  0.00  0.00    -0.013 C 
ATOM      9  C4' I4B d   1       2.772   2.250  -0.196  0.00  0.00     0.013 C 
ATOM     10  C3' I4B d   1       0.859   3.602   0.619  0.00  0.00     0.013 C 
ENDBRANCH   7   8
ENDBRANCH   1   7
TORSDOF 2
ENDMDL
