MODEL 1
REMARK minimizedAffinity -5.46301603
REMARK minimizedRMSD -1
REMARK  2 active torsions:
REMARK  status: ('A' for Active; 'I' for Inactive)
REMARK    1  A    between atoms: C2'_3  and  C1'_4 
REMARK    2  A    between atoms: C1'_4  and  C1_5 
ROOT
ATOM      1  C1  I4B d   1       0.025  -0.008   0.061  0.00  0.00    -0.075 A 
ATOM      2  C2  I4B d   1       0.691  -1.053  -0.531  0.00  0.00     0.003 A 
ATOM      3  C3  I4B d   1       0.569  -2.363  -0.009  0.00  0.00     0.002 A 
ATOM      4  C4  I4B d   1      -0.182  -2.574   1.129  0.00  0.00    -0.004 A 
ATOM      5  C5  I4B d   1      -0.875  -1.518   1.715  0.00  0.00     0.002 A 
ATOM      6  C6  I4B d   1      -0.780  -0.229   1.171  0.00  0.00     0.003 A 
ENDROOT
BRANCH   1   7
ATOM      7  C1' I4B d   1       0.203   1.368  -0.497  0.00  0.00     0.060 C 
BRANCH   7   8
ATOM      8  C2' I4B d   1       0.905   2.209   0.550  0.00  0.00    -0.013 C 
ATOM      9  C4' I4B d   1       2.368   2.369   0.229  0.00  0.00     0.013 C 
ATOM     10  C3' I4B d   1       0.216   3.540   0.614  0.00  0.00     0.013 C 
ENDBRANCH   7   8
ENDBRANCH   1   7
TORSDOF 2
ENDMDL
