MODEL 1
REMARK minimizedAffinity -2.57305622
REMARK minimizedRMSD -1
REMARK  2 active torsions:
REMARK  status: ('A' for Active; 'I' for Inactive)
REMARK    1  A    between atoms: C2'_3  and  C1'_4 
REMARK    2  A    between atoms: C1'_4  and  C1_5 
ROOT
ATOM      1  C1  I4B d   1       0.568  -1.543  -0.021  0.00  0.00    -0.075 A 
ATOM      2  C2  I4B d   1       0.917  -2.395  -1.040  0.00  0.00     0.003 A 
ATOM      3  C3  I4B d   1       1.053  -1.907  -2.362  0.00  0.00     0.002 A 
ATOM      4  C4  I4B d   1       0.783  -0.580  -2.628  0.00  0.00    -0.004 A 
ATOM      5  C5  I4B d   1       0.452   0.287  -1.590  0.00  0.00     0.002 A 
ATOM      6  C6  I4B d   1       0.355  -0.195  -0.277  0.00  0.00     0.003 A 
ENDROOT
BRANCH   1   7
ATOM      7  C1' I4B d   1       0.401  -2.099   1.357  0.00  0.00     0.060 C 
BRANCH   7   8
ATOM      8  C2' I4B d   1      -1.070  -2.026   1.715  0.00  0.00    -0.013 C 
ATOM      9  C4' I4B d   1      -1.450  -0.645   2.179  0.00  0.00     0.013 C 
ATOM     10  C3' I4B d   1      -1.861  -2.429   0.506  0.00  0.00     0.013 C 
ENDBRANCH   7   8
ENDBRANCH   1   7
TORSDOF 2
ENDMDL
