MODEL 1
REMARK minimizedAffinity -0.375177771
REMARK minimizedRMSD -1
REMARK  2 active torsions:
REMARK  status: ('A' for Active; 'I' for Inactive)
REMARK    1  A    between atoms: C2'_3  and  C1'_4 
REMARK    2  A    between atoms: C1'_4  and  C1_5 
ROOT
ATOM      1  C1  I4B d   1       0.351   0.479  -0.047  0.00  0.00    -0.075 A 
ATOM      2  C2  I4B d   1       1.158  -0.479  -0.609  0.00  0.00     0.003 A 
ATOM      3  C3  I4B d   1       0.916  -1.851  -0.358  0.00  0.00     0.002 A 
ATOM      4  C4  I4B d   1      -0.106  -2.217   0.494  0.00  0.00    -0.004 A 
ATOM      5  C5  I4B d   1      -0.937  -1.245   1.045  0.00  0.00     0.002 A 
ATOM      6  C6  I4B d   1      -0.715   0.110   0.763  0.00  0.00     0.003 A 
ENDROOT
BRANCH   1   7
ATOM      7  C1' I4B d   1       0.656   1.920  -0.307  0.00  0.00     0.060 C 
BRANCH   7   8
ATOM      8  C2' I4B d   1       1.901   2.282   0.477  0.00  0.00    -0.013 C 
ATOM      9  C4' I4B d   1       2.947   2.897  -0.416  0.00  0.00     0.013 C 
ATOM     10  C3' I4B d   1       1.502   3.225   1.572  0.00  0.00     0.013 C 
ENDBRANCH   7   8
ENDBRANCH   1   7
TORSDOF 2
ENDMDL
