MODEL 1
REMARK minimizedAffinity -2.42775106
REMARK minimizedRMSD -1
REMARK  2 active torsions:
REMARK  status: ('A' for Active; 'I' for Inactive)
REMARK    1  A    between atoms: C2'_3  and  C1'_4 
REMARK    2  A    between atoms: C1'_4  and  C1_5 
ROOT
ATOM      1  C1  I4B d   1       0.301   1.162  -0.217  0.00  0.00    -0.075 A 
ATOM      2  C2  I4B d   1      -0.102   0.440   0.878  0.00  0.00     0.003 A 
ATOM      3  C3  I4B d   1      -0.465  -0.921   0.740  0.00  0.00     0.002 A 
ATOM      4  C4  I4B d   1      -0.459  -1.503  -0.511  0.00  0.00    -0.004 A 
ATOM      5  C5  I4B d   1      -0.028  -0.776  -1.617  0.00  0.00     0.002 A 
ATOM      6  C6  I4B d   1       0.366   0.562  -1.468  0.00  0.00     0.003 A 
ENDROOT
BRANCH   1   7
ATOM      7  C1' I4B d   1       0.646   2.607  -0.041  0.00  0.00     0.060 C 
BRANCH   7   8
ATOM      8  C2' I4B d   1       1.923   2.687   0.770  0.00  0.00    -0.013 C 
ATOM      9  C4' I4B d   1       3.093   3.083  -0.092  0.00  0.00     0.013 C 
ATOM     10  C3' I4B d   1       1.708   3.675   1.878  0.00  0.00     0.013 C 
ENDBRANCH   7   8
ENDBRANCH   1   7
TORSDOF 2
ENDMDL
