MODEL 1
REMARK minimizedAffinity -3.83736634
REMARK minimizedRMSD -1
REMARK  2 active torsions:
REMARK  status: ('A' for Active; 'I' for Inactive)
REMARK    1  A    between atoms: C2'_3  and  C1'_4 
REMARK    2  A    between atoms: C1'_4  and  C1_5 
ROOT
ATOM      1  C1  I4B d   1      -0.216   0.201  -0.088  0.00  0.00    -0.075 A 
ATOM      2  C2  I4B d   1      -1.050  -0.052   0.972  0.00  0.00     0.003 A 
ATOM      3  C3  I4B d   1      -1.257  -1.380   1.415  0.00  0.00     0.002 A 
ATOM      4  C4  I4B d   1      -0.654  -2.423   0.742  0.00  0.00    -0.004 A 
ATOM      5  C5  I4B d   1       0.209  -2.164  -0.318  0.00  0.00     0.002 A 
ATOM      6  C6  I4B d   1       0.440  -0.842  -0.729  0.00  0.00     0.003 A 
ENDROOT
BRANCH   1   7
ATOM      7  C1' I4B d   1      -0.046   1.613  -0.551  0.00  0.00     0.060 C 
BRANCH   7   8
ATOM      8  C2' I4B d   1       0.620   2.393   0.564  0.00  0.00    -0.013 C 
ATOM      9  C4' I4B d   1       2.109   2.479   0.355  0.00  0.00     0.013 C 
ATOM     10  C3' I4B d   1       0.000   3.758   0.609  0.00  0.00     0.013 C 
ENDBRANCH   7   8
ENDBRANCH   1   7
TORSDOF 2
ENDMDL
