MODEL 1
REMARK minimizedAffinity 8.11562443
REMARK minimizedRMSD -1
REMARK  0 active torsions:
REMARK  status: ('A' for Active; 'I' for Inactive)
ROOT
ATOM      1  C   UNL d   1       3.311  -0.424  -1.875  0.00  0.00     0.023 A 
ATOM      2  C1  UNL d   1       2.934  -0.925  -0.629  0.00  0.00     0.003 A 
ATOM      3  C2  UNL d   1       3.208  -0.195   0.530  0.00  0.00     0.048 A 
ATOM      4  C3  UNL d   1       3.857   1.035   0.435  0.00  0.00     0.023 A 
ATOM      5  C4  UNL d   1       4.236   1.540  -0.810  0.00  0.00     0.048 A 
ATOM      6  C5  UNL d   1       3.961   0.807  -1.965  0.00  0.00     0.003 A 
ATOM      7  I   UNL d   1       4.265   2.123   2.159  0.00  0.00    -0.146 I 
ENDROOT
TORSDOF 0
ENDMDL
