MODEL 1
REMARK minimizedAffinity 5.18984032
REMARK minimizedRMSD -1
REMARK  0 active torsions:
REMARK  status: ('A' for Active; 'I' for Inactive)
ROOT
ATOM      1  C   UNL d   1       5.060   1.248   0.356  0.00  0.00     0.023 A 
ATOM      2  C1  UNL d   1       4.566   1.870  -0.791  0.00  0.00     0.003 A 
ATOM      3  C2  UNL d   1       4.786   3.233  -0.997  0.00  0.00     0.048 A 
ATOM      4  C3  UNL d   1       5.502   3.968  -0.053  0.00  0.00     0.023 A 
ATOM      5  C4  UNL d   1       5.999   3.350   1.095  0.00  0.00     0.048 A 
ATOM      6  C5  UNL d   1       5.776   1.987   1.298  0.00  0.00     0.003 A 
ATOM      7  I   UNL d   1       5.831   5.998  -0.358  0.00  0.00    -0.146 I 
ENDROOT
TORSDOF 0
ENDMDL
