MODEL 1
REMARK minimizedAffinity 11.088666
REMARK minimizedRMSD -1
REMARK  0 active torsions:
REMARK  status: ('A' for Active; 'I' for Inactive)
ROOT
ATOM      1  C   UNL d   1      -2.050  -0.784  -4.708  0.00  0.00     0.023 A 
ATOM      2  C1  UNL d   1      -2.924  -0.232  -5.644  0.00  0.00     0.003 A 
ATOM      3  C2  UNL d   1      -4.059   0.462  -5.218  0.00  0.00     0.048 A 
ATOM      4  C3  UNL d   1      -4.312   0.602  -3.854  0.00  0.00     0.023 A 
ATOM      5  C4  UNL d   1      -3.439   0.052  -2.913  0.00  0.00     0.048 A 
ATOM      6  C5  UNL d   1      -2.307  -0.642  -3.344  0.00  0.00     0.003 A 
ATOM      7  I   UNL d   1      -5.999   1.634  -3.217  0.00  0.00    -0.146 I 
ENDROOT
TORSDOF 0
ENDMDL
