MODEL 1
REMARK minimizedAffinity 9.53324223
REMARK minimizedRMSD -1
REMARK  0 active torsions:
REMARK  status: ('A' for Active; 'I' for Inactive)
ROOT
ATOM      1  C   UNL d   1      -1.116   1.180   0.603  0.00  0.00     0.023 A 
ATOM      2  C1  UNL d   1      -0.800   1.049  -0.750  0.00  0.00     0.003 A 
ATOM      3  C2  UNL d   1       0.474   0.623  -1.132  0.00  0.00     0.048 A 
ATOM      4  C3  UNL d   1       1.427   0.330  -0.158  0.00  0.00     0.023 A 
ATOM      5  C4  UNL d   1       1.115   0.459   1.197  0.00  0.00     0.048 A 
ATOM      6  C5  UNL d   1      -0.160   0.886   1.575  0.00  0.00     0.003 A 
ATOM      7  I   UNL d   1       3.323  -0.304  -0.725  0.00  0.00    -0.146 I 
ENDROOT
TORSDOF 0
ENDMDL
