MODEL 1
REMARK minimizedAffinity 7.19954395
REMARK minimizedRMSD -1
REMARK  0 active torsions:
REMARK  status: ('A' for Active; 'I' for Inactive)
ROOT
ATOM      1  C   UNL d   1       4.136  -1.557  -0.141  0.00  0.00     0.023 A 
ATOM      2  C1  UNL d   1       3.344  -0.535  -0.664  0.00  0.00     0.003 A 
ATOM      3  C2  UNL d   1       3.877   0.744  -0.836  0.00  0.00     0.048 A 
ATOM      4  C3  UNL d   1       5.204   0.993  -0.485  0.00  0.00     0.023 A 
ATOM      5  C4  UNL d   1       6.000  -0.027   0.038  0.00  0.00     0.048 A 
ATOM      6  C5  UNL d   1       5.462  -1.304   0.210  0.00  0.00     0.003 A 
ATOM      7  I   UNL d   1       6.000   2.896  -0.741  0.00  0.00    -0.146 I 
ENDROOT
TORSDOF 0
ENDMDL
