MODEL 1
REMARK minimizedAffinity -1.28144383
REMARK minimizedRMSD -1
REMARK  1 active torsions:
REMARK  status: ('A' for Active; 'I' for Inactive)
REMARK    1  A    between atoms: N_2  and  C1_3 
ROOT
ATOM      1  C1  UNL d   1       0.332  -0.095  -2.545  0.00  0.00     0.143 A 
ATOM      2  C2  UNL d   1      -0.414  -0.729  -3.544  0.00  0.00    -0.057 A 
ATOM      3  C3  UNL d   1      -0.488  -0.203  -4.839  0.00  0.00     0.033 A 
ATOM      4  C4  UNL d   1       0.160   0.987  -5.151  0.00  0.00    -0.042 A 
ATOM      5  C5  UNL d   1       0.887   1.648  -4.167  0.00  0.00     0.033 A 
ATOM      6  C6  UNL d   1       0.963   1.114  -2.877  0.00  0.00    -0.057 A 
ENDROOT
BRANCH   1   7
ATOM      7  N   UNL d   1       0.365  -0.515  -1.213  0.00  0.00    -0.732 N 
ATOM      8  C   UNL d   1      -0.131   0.341  -0.157  0.00  0.00     0.284 C 
ATOM      9  H3  UNL d   1       0.109  -1.495  -1.108  0.00  0.00     0.395 HD
ENDBRANCH   1   7
TORSDOF 1
ENDMDL
