MODEL 1
REMARK minimizedAffinity -2.85107422
REMARK minimizedRMSD -1
REMARK  1 active torsions:
REMARK  status: ('A' for Active; 'I' for Inactive)
REMARK    1  A    between atoms: N_2  and  C1_3 
ROOT
ATOM      1  C1  UNL d   1       0.394   0.246  -1.405  0.00  0.00     0.143 A 
ATOM      2  C2  UNL d   1      -0.359  -0.929  -1.498  0.00  0.00    -0.057 A 
ATOM      3  C3  UNL d   1      -1.141  -1.377  -0.426  0.00  0.00     0.033 A 
ATOM      4  C4  UNL d   1      -1.160  -0.670   0.772  0.00  0.00    -0.042 A 
ATOM      5  C5  UNL d   1      -0.399   0.488   0.895  0.00  0.00     0.033 A 
ATOM      6  C6  UNL d   1       0.374   0.933  -0.181  0.00  0.00    -0.057 A 
ENDROOT
BRANCH   1   7
ATOM      7  N   UNL d   1       1.268   0.691  -2.401  0.00  0.00    -0.732 N 
ATOM      8  C   UNL d   1       0.936   0.527  -3.800  0.00  0.00     0.284 C 
ATOM      9  H3  UNL d   1       1.688   1.589  -2.176  0.00  0.00     0.395 HD
ENDBRANCH   1   7
TORSDOF 1
ENDMDL
