MODEL 1
REMARK minimizedAffinity -2.56358504
REMARK minimizedRMSD -1
REMARK  1 active torsions:
REMARK  status: ('A' for Active; 'I' for Inactive)
REMARK    1  A    between atoms: N_2  and  C1_3 
ROOT
ATOM      1  C1  UNL d   1       0.370  -0.210  -0.033  0.00  0.00     0.143 A 
ATOM      2  C2  UNL d   1      -0.926   0.259   0.208  0.00  0.00    -0.057 A 
ATOM      3  C3  UNL d   1      -1.320   0.679   1.484  0.00  0.00     0.033 A 
ATOM      4  C4  UNL d   1      -0.431   0.610   2.551  0.00  0.00    -0.042 A 
ATOM      5  C5  UNL d   1       0.855   0.124   2.340  0.00  0.00     0.033 A 
ATOM      6  C6  UNL d   1       1.245  -0.287   1.062  0.00  0.00    -0.057 A 
ENDROOT
BRANCH   1   7
ATOM      7  N   UNL d   1       0.793  -0.734  -1.257  0.00  0.00    -0.732 N 
ATOM      8  C   UNL d   1       0.774   0.081  -2.454  0.00  0.00     0.284 C 
ATOM      9  H3  UNL d   1       1.621  -1.318  -1.165  0.00  0.00     0.395 HD
ENDBRANCH   1   7
TORSDOF 1
ENDMDL
