MODEL 1
REMARK minimizedAffinity -2.55067444
REMARK minimizedRMSD -1
REMARK  1 active torsions:
REMARK  status: ('A' for Active; 'I' for Inactive)
REMARK    1  A    between atoms: N_2  and  C1_3 
ROOT
ATOM      1  C1  UNL d   1       0.112  -0.185   0.481  0.00  0.00     0.143 A 
ATOM      2  C2  UNL d   1      -1.226   0.224   0.486  0.00  0.00    -0.057 A 
ATOM      3  C3  UNL d   1      -1.863   0.611   1.671  0.00  0.00     0.033 A 
ATOM      4  C4  UNL d   1      -1.180   0.567   2.882  0.00  0.00    -0.042 A 
ATOM      5  C5  UNL d   1       0.143   0.139   2.905  0.00  0.00     0.033 A 
ATOM      6  C6  UNL d   1       0.776  -0.239   1.717  0.00  0.00    -0.057 A 
ENDROOT
BRANCH   1   7
ATOM      7  N   UNL d   1       0.772  -0.675  -0.648  0.00  0.00    -0.732 N 
ATOM      8  C   UNL d   1       0.293  -0.359  -1.977  0.00  0.00     0.284 C 
ATOM      9  H3  UNL d   1       1.784  -0.641  -0.552  0.00  0.00     0.395 HD
ENDBRANCH   1   7
TORSDOF 1
ENDMDL
