MODEL 1
REMARK minimizedAffinity -5.04595852
REMARK minimizedRMSD -1
REMARK  1 active torsions:
REMARK  status: ('A' for Active; 'I' for Inactive)
REMARK    1  A    between atoms: N_2  and  C1_3 
ROOT
ATOM      1  C1  UNL d   1       0.363   0.072   0.238  0.00  0.00     0.143 A 
ATOM      2  C2  UNL d   1      -1.034   0.102   0.163  0.00  0.00    -0.057 A 
ATOM      3  C3  UNL d   1      -1.819   0.280   1.309  0.00  0.00     0.033 A 
ATOM      4  C4  UNL d   1      -1.219   0.403   2.558  0.00  0.00    -0.042 A 
ATOM      5  C5  UNL d   1       0.167   0.351   2.659  0.00  0.00     0.033 A 
ATOM      6  C6  UNL d   1       0.945   0.180   1.511  0.00  0.00    -0.057 A 
ENDROOT
BRANCH   1   7
ATOM      7  N   UNL d   1       1.195  -0.200  -0.851  0.00  0.00    -0.732 N 
ATOM      8  C   UNL d   1       0.663  -0.226  -2.196  0.00  0.00     0.284 C 
ATOM      9  H3  UNL d   1       2.101   0.255  -0.771  0.00  0.00     0.395 HD
ENDBRANCH   1   7
TORSDOF 1
ENDMDL
