MODEL 1
REMARK minimizedAffinity -1.22921419
REMARK minimizedRMSD -1
REMARK  1 active torsions:
REMARK  status: ('A' for Active; 'I' for Inactive)
REMARK    1  A    between atoms: N_2  and  C1_3 
ROOT
ATOM      1  C1  UNL d   1       0.676   0.063   1.245  0.00  0.00     0.143 A 
ATOM      2  C2  UNL d   1      -0.596   0.488   1.642  0.00  0.00    -0.057 A 
ATOM      3  C3  UNL d   1      -0.997   0.426   2.982  0.00  0.00     0.033 A 
ATOM      4  C4  UNL d   1      -0.140  -0.091   3.948  0.00  0.00    -0.042 A 
ATOM      5  C5  UNL d   1       1.120  -0.544   3.572  0.00  0.00     0.033 A 
ATOM      6  C6  UNL d   1       1.517  -0.473   2.233  0.00  0.00    -0.057 A 
ENDROOT
BRANCH   1   7
ATOM      7  N   UNL d   1       1.097   0.007  -0.086  0.00  0.00    -0.732 N 
ATOM      8  C   UNL d   1       0.312  -0.694  -1.079  0.00  0.00     0.284 C 
ATOM      9  H3  UNL d   1       1.482   0.892  -0.409  0.00  0.00     0.395 HD
ENDBRANCH   1   7
TORSDOF 1
ENDMDL
