MODEL 1
REMARK minimizedAffinity -2.95339394
REMARK minimizedRMSD -1
REMARK  1 active torsions:
REMARK  status: ('A' for Active; 'I' for Inactive)
REMARK    1  A    between atoms: N_2  and  C1_3 
ROOT
ATOM      1  C1  UNL d   1       0.283  -0.232  -1.667  0.00  0.00     0.143 A 
ATOM      2  C2  UNL d   1       0.238   1.037  -2.255  0.00  0.00    -0.057 A 
ATOM      3  C3  UNL d   1       0.864   1.292  -3.481  0.00  0.00     0.033 A 
ATOM      4  C4  UNL d   1       1.572   0.285  -4.129  0.00  0.00    -0.042 A 
ATOM      5  C5  UNL d   1       1.651  -0.977  -3.551  0.00  0.00     0.033 A 
ATOM      6  C6  UNL d   1       1.019  -1.226  -2.330  0.00  0.00    -0.057 A 
ENDROOT
BRANCH   1   7
ATOM      7  N   UNL d   1      -0.235  -0.522  -0.402  0.00  0.00    -0.732 N 
ATOM      8  C   UNL d   1      -1.442   0.124   0.066  0.00  0.00     0.284 C 
ATOM      9  H3  UNL d   1      -0.180  -1.512  -0.178  0.00  0.00     0.395 HD
ENDBRANCH   1   7
TORSDOF 1
ENDMDL
