MODEL 1
REMARK minimizedAffinity -1.65372372
REMARK minimizedRMSD -1
REMARK  1 active torsions:
REMARK  status: ('A' for Active; 'I' for Inactive)
REMARK    1  A    between atoms: N_2  and  C1_3 
ROOT
ATOM      1  C1  UNL d   1       0.419  -0.186  -1.546  0.00  0.00     0.143 A 
ATOM      2  C2  UNL d   1       1.716   0.305  -1.726  0.00  0.00    -0.057 A 
ATOM      3  C3  UNL d   1       2.236   0.530  -3.006  0.00  0.00     0.033 A 
ATOM      4  C4  UNL d   1       1.474   0.239  -4.134  0.00  0.00    -0.042 A 
ATOM      5  C5  UNL d   1       0.191  -0.274  -3.979  0.00  0.00     0.033 A 
ATOM      6  C6  UNL d   1      -0.324  -0.490  -2.697  0.00  0.00    -0.057 A 
ENDROOT
BRANCH   1   7
ATOM      7  N   UNL d   1      -0.119  -0.524  -0.301  0.00  0.00    -0.732 N 
ATOM      8  C   UNL d   1       0.441   0.021   0.916  0.00  0.00     0.284 C 
ATOM      9  H3  UNL d   1      -1.136  -0.555  -0.313  0.00  0.00     0.395 HD
ENDBRANCH   1   7
TORSDOF 1
ENDMDL
