MODEL 1
REMARK minimizedAffinity -1.80567539
REMARK minimizedRMSD -1
REMARK  1 active torsions:
REMARK  status: ('A' for Active; 'I' for Inactive)
REMARK    1  A    between atoms: N_2  and  C1_3 
ROOT
ATOM      1  C1  UNL d   1       0.403   0.077  -1.898  0.00  0.00     0.143 A 
ATOM      2  C2  UNL d   1       0.301   1.178  -1.040  0.00  0.00    -0.057 A 
ATOM      3  C3  UNL d   1      -0.437   1.107   0.148  0.00  0.00     0.033 A 
ATOM      4  C4  UNL d   1      -1.112  -0.061   0.486  0.00  0.00    -0.042 A 
ATOM      5  C5  UNL d   1      -1.045  -1.160  -0.364  0.00  0.00     0.033 A 
ATOM      6  C6  UNL d   1      -0.301  -1.085  -1.546  0.00  0.00    -0.057 A 
ENDROOT
BRANCH   1   7
ATOM      7  N   UNL d   1       1.040   0.116  -3.141  0.00  0.00    -0.732 N 
ATOM      8  C   UNL d   1       0.459   0.850  -4.244  0.00  0.00     0.284 C 
ATOM      9  H3  UNL d   1       2.048   0.220  -3.057  0.00  0.00     0.395 HD
ENDBRANCH   1   7
TORSDOF 1
ENDMDL
