MODEL 1
REMARK minimizedAffinity -2.43697071
REMARK minimizedRMSD -1
REMARK  1 active torsions:
REMARK  status: ('A' for Active; 'I' for Inactive)
REMARK    1  A    between atoms: N_2  and  C1_3 
ROOT
ATOM      1  C1  UNL d   1       0.565  -0.007  -1.625  0.00  0.00     0.143 A 
ATOM      2  C2  UNL d   1       1.509   0.977  -1.940  0.00  0.00    -0.057 A 
ATOM      3  C3  UNL d   1       1.923   1.189  -3.261  0.00  0.00     0.033 A 
ATOM      4  C4  UNL d   1       1.420   0.398  -4.289  0.00  0.00    -0.042 A 
ATOM      5  C5  UNL d   1       0.500  -0.602  -3.995  0.00  0.00     0.033 A 
ATOM      6  C6  UNL d   1       0.086  -0.804  -2.676  0.00  0.00    -0.057 A 
ENDROOT
BRANCH   1   7
ATOM      7  N   UNL d   1       0.187  -0.332  -0.320  0.00  0.00    -0.732 N 
ATOM      8  C   UNL d   1      -1.210  -0.463   0.032  0.00  0.00     0.284 C 
ATOM      9  H3  UNL d   1       0.788  -1.042   0.093  0.00  0.00     0.395 HD
ENDBRANCH   1   7
TORSDOF 1
ENDMDL
