MODEL 1
REMARK minimizedAffinity 2.76239419
REMARK minimizedRMSD -1
REMARK  1 active torsions:
REMARK  status: ('A' for Active; 'I' for Inactive)
REMARK    1  A    between atoms: N_2  and  C1_3 
ROOT
ATOM      1  C1  UNL d   1       5.131   0.861   3.712  0.00  0.00     0.143 A 
ATOM      2  C2  UNL d   1       4.874   2.228   3.560  0.00  0.00    -0.057 A 
ATOM      3  C3  UNL d   1       5.142   3.136   4.590  0.00  0.00     0.033 A 
ATOM      4  C4  UNL d   1       5.648   2.688   5.806  0.00  0.00    -0.042 A 
ATOM      5  C5  UNL d   1       5.888   1.331   5.989  0.00  0.00     0.033 A 
ATOM      6  C6  UNL d   1       5.624   0.429   4.953  0.00  0.00    -0.057 A 
ENDROOT
BRANCH   1   7
ATOM      7  N   UNL d   1       4.793  -0.105   2.760  0.00  0.00    -0.732 N 
ATOM      8  C   UNL d   1       3.464  -0.677   2.730  0.00  0.00     0.284 C 
ATOM      9  H3  UNL d   1       5.176   0.105   1.841  0.00  0.00     0.395 HD
ENDBRANCH   1   7
TORSDOF 1
ENDMDL
