MODEL 1
REMARK minimizedAffinity 9.49157047
REMARK minimizedRMSD -1
REMARK  0 active torsions:
REMARK  status: ('A' for Active; 'I' for Inactive)
ROOT
ATOM      1  C   UNL d   1       2.757   0.117  -4.200  0.00  0.00     0.078 C 
ATOM      2  C1  UNL d   1       1.344  -0.382  -4.237  0.00  0.00    -0.077 A 
ATOM      3  C2  UNL d   1       0.576  -0.465  -3.069  0.00  0.00    -0.001 A 
ATOM      4  C3  UNL d   1      -0.735  -0.940  -3.117  0.00  0.00     0.003 A 
ATOM      5  C4  UNL d   1      -1.290  -1.339  -4.332  0.00  0.00    -0.005 A 
ATOM      6  C5  UNL d   1      -0.534  -1.262  -5.499  0.00  0.00     0.003 A 
ATOM      7  C6  UNL d   1       0.778  -0.787  -5.453  0.00  0.00    -0.001 A 
ENDROOT
TORSDOF 0
ENDMDL
