MODEL 1
REMARK minimizedAffinity 7.66126156
REMARK minimizedRMSD -1
REMARK  0 active torsions:
REMARK  status: ('A' for Active; 'I' for Inactive)
ROOT
ATOM      1  C   UNL d   1       1.504  -3.225   4.153  0.00  0.00     0.078 C 
ATOM      2  C1  UNL d   1       1.127  -2.001   3.372  0.00  0.00    -0.077 A 
ATOM      3  C2  UNL d   1       2.076  -1.015   3.073  0.00  0.00    -0.001 A 
ATOM      4  C3  UNL d   1       1.709   0.123   2.354  0.00  0.00     0.003 A 
ATOM      5  C4  UNL d   1       0.392   0.288   1.930  0.00  0.00    -0.005 A 
ATOM      6  C5  UNL d   1      -0.560  -0.686   2.225  0.00  0.00     0.003 A 
ATOM      7  C6  UNL d   1      -0.194  -1.825   2.943  0.00  0.00    -0.001 A 
ENDROOT
TORSDOF 0
ENDMDL
