MODEL 1
REMARK minimizedAffinity 3.44042325
REMARK minimizedRMSD -1
REMARK  0 active torsions:
REMARK  status: ('A' for Active; 'I' for Inactive)
ROOT
ATOM      1  C   UNL d   1       1.208  -3.069   4.167  0.00  0.00     0.078 C 
ATOM      2  C1  UNL d   1       0.804  -1.791   3.493  0.00  0.00    -0.077 A 
ATOM      3  C2  UNL d   1       0.980  -0.555   4.127  0.00  0.00    -0.001 A 
ATOM      4  C3  UNL d   1       0.591   0.625   3.492  0.00  0.00     0.003 A 
ATOM      5  C4  UNL d   1       0.023   0.581   2.220  0.00  0.00    -0.005 A 
ATOM      6  C5  UNL d   1      -0.158  -0.644   1.583  0.00  0.00     0.003 A 
ATOM      7  C6  UNL d   1       0.230  -1.826   2.216  0.00  0.00    -0.001 A 
ENDROOT
TORSDOF 0
ENDMDL
