MODEL 1
REMARK minimizedAffinity 10.4043312
REMARK minimizedRMSD -1
REMARK  0 active torsions:
REMARK  status: ('A' for Active; 'I' for Inactive)
ROOT
ATOM      1  C   UNL d   1       1.885  -3.497   5.063  0.00  0.00     0.078 C 
ATOM      2  C1  UNL d   1       1.519  -2.361   4.155  0.00  0.00    -0.077 A 
ATOM      3  C2  UNL d   1       1.939  -1.054   4.430  0.00  0.00    -0.001 A 
ATOM      4  C3  UNL d   1       1.583  -0.005   3.582  0.00  0.00     0.003 A 
ATOM      5  C4  UNL d   1       0.805  -0.251   2.453  0.00  0.00    -0.005 A 
ATOM      6  C5  UNL d   1       0.381  -1.548   2.172  0.00  0.00     0.003 A 
ATOM      7  C6  UNL d   1       0.735  -2.599   3.019  0.00  0.00    -0.001 A 
ENDROOT
TORSDOF 0
ENDMDL
