MODEL 1
REMARK minimizedAffinity 9.57151985
REMARK minimizedRMSD -1
REMARK  0 active torsions:
REMARK  status: ('A' for Active; 'I' for Inactive)
ROOT
ATOM      1  C   UNL d   1      -2.048  -1.686   0.506  0.00  0.00     0.078 C 
ATOM      2  C1  UNL d   1      -1.099  -0.901   1.362  0.00  0.00    -0.077 A 
ATOM      3  C2  UNL d   1      -1.452   0.359   1.860  0.00  0.00    -0.001 A 
ATOM      4  C3  UNL d   1      -0.555   1.083   2.647  0.00  0.00     0.003 A 
ATOM      5  C4  UNL d   1       0.700   0.556   2.943  0.00  0.00    -0.005 A 
ATOM      6  C5  UNL d   1       1.061  -0.696   2.450  0.00  0.00     0.003 A 
ATOM      7  C6  UNL d   1       0.166  -1.422   1.662  0.00  0.00    -0.001 A 
ENDROOT
TORSDOF 0
ENDMDL
