MODEL 1
REMARK minimizedAffinity 4.79352856
REMARK minimizedRMSD -1
REMARK  0 active torsions:
REMARK  status: ('A' for Active; 'I' for Inactive)
ROOT
ATOM      1  C   UNL d   1       1.638  -3.135   4.883  0.00  0.00     0.078 C 
ATOM      2  C1  UNL d   1       1.362  -1.888   4.098  0.00  0.00    -0.077 A 
ATOM      3  C2  UNL d   1       2.007  -0.684   4.408  0.00  0.00    -0.001 A 
ATOM      4  C3  UNL d   1       1.734   0.472   3.675  0.00  0.00     0.003 A 
ATOM      5  C4  UNL d   1       0.814   0.436   2.628  0.00  0.00    -0.005 A 
ATOM      6  C5  UNL d   1       0.166  -0.757   2.314  0.00  0.00     0.003 A 
ATOM      7  C6  UNL d   1       0.438  -1.914   3.046  0.00  0.00    -0.001 A 
ENDROOT
TORSDOF 0
ENDMDL
