MODEL 1
REMARK minimizedAffinity 7.85316133
REMARK minimizedRMSD -1
REMARK  0 active torsions:
REMARK  status: ('A' for Active; 'I' for Inactive)
ROOT
ATOM      1  C   UNL d   1       3.691   0.138  -5.884  0.00  0.00     0.078 C 
ATOM      2  C1  UNL d   1       2.421  -0.467  -5.363  0.00  0.00    -0.077 A 
ATOM      3  C2  UNL d   1       1.268   0.310  -5.197  0.00  0.00    -0.001 A 
ATOM      4  C3  UNL d   1       0.096  -0.264  -4.702  0.00  0.00     0.003 A 
ATOM      5  C4  UNL d   1       0.066  -1.616  -4.368  0.00  0.00    -0.005 A 
ATOM      6  C5  UNL d   1       1.209  -2.397  -4.528  0.00  0.00     0.003 A 
ATOM      7  C6  UNL d   1       2.382  -1.825  -5.023  0.00  0.00    -0.001 A 
ENDROOT
TORSDOF 0
ENDMDL
