MODEL 1
REMARK minimizedAffinity 4.70926476
REMARK minimizedRMSD -1
REMARK  0 active torsions:
REMARK  status: ('A' for Active; 'I' for Inactive)
ROOT
ATOM      1  C   UNL d   1       1.397   0.203  -4.102  0.00  0.00     0.078 C 
ATOM      2  C1  UNL d   1       0.380  -0.764  -3.574  0.00  0.00    -0.077 A 
ATOM      3  C2  UNL d   1      -0.291  -1.645  -4.432  0.00  0.00    -0.001 A 
ATOM      4  C3  UNL d   1      -1.243  -2.533  -3.928  0.00  0.00     0.003 A 
ATOM      5  C4  UNL d   1      -1.534  -2.548  -2.565  0.00  0.00    -0.005 A 
ATOM      6  C5  UNL d   1      -0.873  -1.674  -1.705  0.00  0.00     0.003 A 
ATOM      7  C6  UNL d   1       0.079  -0.785  -2.206  0.00  0.00    -0.001 A 
ENDROOT
TORSDOF 0
ENDMDL
