MODEL 1
REMARK minimizedAffinity 11.562356
REMARK minimizedRMSD -1
REMARK  0 active torsions:
REMARK  status: ('A' for Active; 'I' for Inactive)
ROOT
ATOM      1  C   UNL d   1       1.437  -3.298   4.627  0.00  0.00     0.078 C 
ATOM      2  C1  UNL d   1       1.118  -2.118   3.760  0.00  0.00    -0.077 A 
ATOM      3  C2  UNL d   1       2.009  -1.043   3.648  0.00  0.00    -0.001 A 
ATOM      4  C3  UNL d   1       1.695   0.054   2.844  0.00  0.00     0.003 A 
ATOM      5  C4  UNL d   1       0.489   0.088   2.147  0.00  0.00    -0.005 A 
ATOM      6  C5  UNL d   1      -0.405  -0.976   2.253  0.00  0.00     0.003 A 
ATOM      7  C6  UNL d   1      -0.092  -2.074   3.057  0.00  0.00    -0.001 A 
ENDROOT
TORSDOF 0
ENDMDL
