MODEL 1
REMARK minimizedAffinity 12.5550308
REMARK minimizedRMSD -1
REMARK  0 active torsions:
REMARK  status: ('A' for Active; 'I' for Inactive)
ROOT
ATOM      1  C   UNL d   1       1.083   0.024  -4.986  0.00  0.00     0.078 C 
ATOM      2  C1  UNL d   1       0.173  -0.781  -4.107  0.00  0.00    -0.077 A 
ATOM      3  C2  UNL d   1      -1.057  -1.251  -4.582  0.00  0.00    -0.001 A 
ATOM      4  C3  UNL d   1      -1.899  -1.990  -3.750  0.00  0.00     0.003 A 
ATOM      5  C4  UNL d   1      -1.520  -2.266  -2.438  0.00  0.00    -0.005 A 
ATOM      6  C5  UNL d   1      -0.298  -1.801  -1.956  0.00  0.00     0.003 A 
ATOM      7  C6  UNL d   1       0.545  -1.061  -2.786  0.00  0.00    -0.001 A 
ENDROOT
TORSDOF 0
ENDMDL
