MODEL 1
REMARK minimizedAffinity 23.8014088
REMARK minimizedRMSD -1
REMARK  0 active torsions:
REMARK  status: ('A' for Active; 'I' for Inactive)
ROOT
ATOM      1  C   UNL d   1       5.999  -0.659  -5.384  0.00  0.00    -0.002 A 
ATOM      2  C1  UNL d   1       5.008   0.092  -6.000  0.00  0.00     0.010 A 
ATOM      3  C2  UNL d   1       3.682   0.006  -5.572  0.00  0.00     0.041 A 
ATOM      4  C3  UNL d   1       3.366  -0.855  -4.503  0.00  0.00    -0.075 A 
ATOM      5  S   UNL d   1       1.810  -1.123  -3.809  0.00  0.00     0.015 SA
ATOM      6  C4  UNL d   1       2.425  -2.239  -2.677  0.00  0.00     0.022 A 
ATOM      7  C5  UNL d   1       3.782  -2.416  -2.812  0.00  0.00     0.026 A 
ATOM      8  C6  UNL d   1       4.346  -1.621  -3.866  0.00  0.00    -0.082 A 
ATOM      9  C7  UNL d   1       5.682  -1.512  -4.324  0.00  0.00     0.045 A 
ENDROOT
TORSDOF 0
ENDMDL
