MODEL 1
REMARK minimizedAffinity 13.9038429
REMARK minimizedRMSD -1
REMARK  0 active torsions:
REMARK  status: ('A' for Active; 'I' for Inactive)
ROOT
ATOM      1  C   UNL d   1       0.279  -5.969  -0.942  0.00  0.00    -0.002 A 
ATOM      2  C1  UNL d   1       1.387  -5.974  -0.106  0.00  0.00     0.010 A 
ATOM      3  C2  UNL d   1       2.678  -5.985  -0.638  0.00  0.00     0.041 A 
ATOM      4  C3  UNL d   1       2.839  -5.987  -2.037  0.00  0.00    -0.075 A 
ATOM      5  S   UNL d   1       4.324  -5.998  -2.913  0.00  0.00     0.015 SA
ATOM      6  C4  UNL d   1       3.523  -5.995  -4.417  0.00  0.00     0.022 A 
ATOM      7  C5  UNL d   1       2.155  -5.986  -4.274  0.00  0.00     0.026 A 
ATOM      8  C6  UNL d   1       1.739  -5.981  -2.899  0.00  0.00    -0.082 A 
ATOM      9  C7  UNL d   1       0.443  -5.972  -2.329  0.00  0.00     0.045 A 
ENDROOT
TORSDOF 0
ENDMDL
