MODEL 1
REMARK minimizedAffinity 11.073308
REMARK minimizedRMSD -1
REMARK  0 active torsions:
REMARK  status: ('A' for Active; 'I' for Inactive)
ROOT
ATOM      1  C   UNL d   1      -4.172   1.941  -4.664  0.00  0.00    -0.002 A 
ATOM      2  C1  UNL d   1      -3.669   0.683  -4.362  0.00  0.00     0.010 A 
ATOM      3  C2  UNL d   1      -3.148   0.412  -3.095  0.00  0.00     0.041 A 
ATOM      4  C3  UNL d   1      -3.142   1.436  -2.127  0.00  0.00    -0.075 A 
ATOM      5  S   UNL d   1      -2.555   1.333  -0.510  0.00  0.00     0.015 SA
ATOM      6  C4  UNL d   1      -2.959   2.956  -0.181  0.00  0.00     0.022 A 
ATOM      7  C5  UNL d   1      -3.528   3.576  -1.268  0.00  0.00     0.026 A 
ATOM      8  C6  UNL d   1      -3.644   2.710  -2.408  0.00  0.00    -0.082 A 
ATOM      9  C7  UNL d   1      -4.165   2.954  -3.701  0.00  0.00     0.045 A 
ENDROOT
TORSDOF 0
ENDMDL
