MODEL 1
REMARK minimizedAffinity 4.81942272
REMARK minimizedRMSD -1
REMARK  0 active torsions:
REMARK  status: ('A' for Active; 'I' for Inactive)
ROOT
ATOM      1  C   UNL d   1       1.844  -2.384  -3.636  0.00  0.00    -0.002 A 
ATOM      2  C1  UNL d   1       2.967  -3.196  -3.551  0.00  0.00     0.010 A 
ATOM      3  C2  UNL d   1       4.178  -2.794  -4.117  0.00  0.00     0.041 A 
ATOM      4  C3  UNL d   1       4.244  -1.549  -4.774  0.00  0.00    -0.075 A 
ATOM      5  S   UNL d   1       5.621  -0.849  -5.540  0.00  0.00     0.015 SA
ATOM      6  C4  UNL d   1       4.752   0.544  -5.996  0.00  0.00     0.022 A 
ATOM      7  C5  UNL d   1       3.442   0.493  -5.582  0.00  0.00     0.026 A 
ATOM      8  C6  UNL d   1       3.127  -0.714  -4.871  0.00  0.00    -0.082 A 
ATOM      9  C7  UNL d   1       1.913  -1.150  -4.288  0.00  0.00     0.045 A 
ENDROOT
TORSDOF 0
ENDMDL
