MODEL 1
REMARK minimizedAffinity 17.6063461
REMARK minimizedRMSD -1
REMARK  0 active torsions:
REMARK  status: ('A' for Active; 'I' for Inactive)
ROOT
ATOM      1  C   UNL d   1       0.505   3.425  -0.836  0.00  0.00    -0.002 A 
ATOM      2  C1  UNL d   1      -0.164   2.743   0.170  0.00  0.00     0.010 A 
ATOM      3  C2  UNL d   1      -1.295   1.978  -0.120  0.00  0.00     0.041 A 
ATOM      4  C3  UNL d   1      -1.746   1.907  -1.453  0.00  0.00    -0.075 A 
ATOM      5  S   UNL d   1      -3.108   1.030  -2.045  0.00  0.00     0.015 SA
ATOM      6  C4  UNL d   1      -2.833   1.540  -3.648  0.00  0.00     0.022 A 
ATOM      7  C5  UNL d   1      -1.734   2.359  -3.748  0.00  0.00     0.026 A 
ATOM      8  C6  UNL d   1      -1.088   2.584  -2.485  0.00  0.00    -0.082 A 
ATOM      9  C7  UNL d   1       0.055   3.352  -2.157  0.00  0.00     0.045 A 
ENDROOT
TORSDOF 0
ENDMDL
