MODEL 1
REMARK minimizedAffinity 19.0930195
REMARK minimizedRMSD -1
REMARK  0 active torsions:
REMARK  status: ('A' for Active; 'I' for Inactive)
ROOT
ATOM      1  C   UNL d   1      -1.180   2.758  -1.615  0.00  0.00    -0.002 A 
ATOM      2  C1  UNL d   1       0.008   2.862  -0.906  0.00  0.00     0.010 A 
ATOM      3  C2  UNL d   1       1.016   3.729  -1.332  0.00  0.00     0.041 A 
ATOM      4  C3  UNL d   1       0.807   4.499  -2.493  0.00  0.00    -0.075 A 
ATOM      5  S   UNL d   1       1.899   5.629  -3.202  0.00  0.00     0.015 SA
ATOM      6  C4  UNL d   1       0.814   6.000  -4.463  0.00  0.00     0.022 A 
ATOM      7  C5  UNL d   1      -0.358   5.289  -4.361  0.00  0.00     0.026 A 
ATOM      8  C6  UNL d   1      -0.382   4.412  -3.224  0.00  0.00    -0.082 A 
ATOM      9  C7  UNL d   1      -1.384   3.523  -2.766  0.00  0.00     0.045 A 
ENDROOT
TORSDOF 0
ENDMDL
