MODEL 1
REMARK minimizedAffinity 23.9368668
REMARK minimizedRMSD -1
REMARK  0 active torsions:
REMARK  status: ('A' for Active; 'I' for Inactive)
ROOT
ATOM      1  C   UNL d   1      -4.886   5.793   1.110  0.00  0.00    -0.002 A 
ATOM      2  C1  UNL d   1      -5.895   6.000   0.180  0.00  0.00     0.010 A 
ATOM      3  C2  UNL d   1      -5.710   5.650  -1.159  0.00  0.00     0.041 A 
ATOM      4  C3  UNL d   1      -4.482   5.081  -1.551  0.00  0.00    -0.075 A 
ATOM      5  S   UNL d   1      -4.030   4.573  -3.135  0.00  0.00     0.015 SA
ATOM      6  C4  UNL d   1      -2.488   4.069  -2.615  0.00  0.00     0.022 A 
ATOM      7  C5  UNL d   1      -2.305   4.275  -1.268  0.00  0.00     0.026 A 
ATOM      8  C6  UNL d   1      -3.451   4.862  -0.633  0.00  0.00    -0.082 A 
ATOM      9  C7  UNL d   1      -3.669   5.228   0.717  0.00  0.00     0.045 A 
ENDROOT
TORSDOF 0
ENDMDL
