MODEL 1
REMARK minimizedAffinity 20.4716663
REMARK minimizedRMSD -1
REMARK  0 active torsions:
REMARK  status: ('A' for Active; 'I' for Inactive)
ROOT
ATOM      1  C   UNL d   1      -5.115   1.121  -4.304  0.00  0.00    -0.002 A 
ATOM      2  C1  UNL d   1      -6.000   2.177  -4.139  0.00  0.00     0.010 A 
ATOM      3  C2  UNL d   1      -5.544   3.424  -3.707  0.00  0.00     0.041 A 
ATOM      4  C3  UNL d   1      -4.171   3.594  -3.443  0.00  0.00    -0.075 A 
ATOM      5  S   UNL d   1      -3.386   5.032  -2.906  0.00  0.00     0.015 SA
ATOM      6  C4  UNL d   1      -1.857   4.279  -2.884  0.00  0.00     0.022 A 
ATOM      7  C5  UNL d   1      -1.926   2.962  -3.274  0.00  0.00     0.026 A 
ATOM      8  C6  UNL d   1      -3.260   2.546  -3.603  0.00  0.00    -0.082 A 
ATOM      9  C7  UNL d   1      -3.753   1.294  -4.042  0.00  0.00     0.045 A 
ENDROOT
TORSDOF 0
ENDMDL
