MODEL 1
REMARK minimizedAffinity 21.7153015
REMARK minimizedRMSD -1
REMARK  0 active torsions:
REMARK  status: ('A' for Active; 'I' for Inactive)
ROOT
ATOM      1  C   UNL d   1       0.445   2.381   0.489  0.00  0.00    -0.002 A 
ATOM      2  C1  UNL d   1      -0.824   1.827   0.572  0.00  0.00     0.010 A 
ATOM      3  C2  UNL d   1      -1.706   1.907  -0.508  0.00  0.00     0.041 A 
ATOM      4  C3  UNL d   1      -1.285   2.557  -1.685  0.00  0.00    -0.075 A 
ATOM      5  S   UNL d   1      -2.193   2.775  -3.134  0.00  0.00     0.015 SA
ATOM      6  C4  UNL d   1      -0.917   3.607  -3.897  0.00  0.00     0.022 A 
ATOM      7  C5  UNL d   1       0.183   3.725  -3.081  0.00  0.00     0.026 A 
ATOM      8  C6  UNL d   1      -0.011   3.122  -1.793  0.00  0.00    -0.082 A 
ATOM      9  C7  UNL d   1       0.859   3.025  -0.680  0.00  0.00     0.045 A 
ENDROOT
TORSDOF 0
ENDMDL
