MODEL 1
REMARK minimizedAffinity 24.1147308
REMARK minimizedRMSD -1
REMARK  0 active torsions:
REMARK  status: ('A' for Active; 'I' for Inactive)
ROOT
ATOM      1  C   UNL d   1      -4.116   5.855   4.274  0.00  0.00    -0.002 A 
ATOM      2  C1  UNL d   1      -5.476   5.990   4.035  0.00  0.00     0.010 A 
ATOM      3  C2  UNL d   1      -5.972   5.973   2.730  0.00  0.00     0.041 A 
ATOM      4  C3  UNL d   1      -5.070   5.814   1.659  0.00  0.00    -0.075 A 
ATOM      5  S   UNL d   1      -5.450   5.762  -0.022  0.00  0.00     0.015 SA
ATOM      6  C4  UNL d   1      -3.815   5.559  -0.461  0.00  0.00     0.022 A 
ATOM      7  C5  UNL d   1      -2.987   5.530   0.636  0.00  0.00     0.026 A 
ATOM      8  C6  UNL d   1      -3.696   5.676   1.876  0.00  0.00    -0.082 A 
ATOM      9  C7  UNL d   1      -3.224   5.698   3.210  0.00  0.00     0.045 A 
ENDROOT
TORSDOF 0
ENDMDL
