MODEL 1
REMARK minimizedAffinity -3.23372388
REMARK minimizedRMSD -1
REMARK  0 active torsions:
REMARK  status: ('A' for Active; 'I' for Inactive)
ROOT
ATOM      1  C2' OXE d   1       0.058   0.040  -1.066  0.00  0.00     0.078 C 
ATOM      2  C1' OXE d   1       1.757   1.219   0.832  0.00  0.00     0.078 C 
ATOM      3  C1  OXE d   1       0.518   0.522   1.334  0.00  0.00    -0.078 A 
ATOM      4  C2  OXE d   1      -0.332  -0.012   0.395  0.00  0.00    -0.078 A 
ATOM      5  C3  OXE d   1      -1.461  -0.714   0.807  0.00  0.00     0.003 A 
ATOM      6  C4  OXE d   1      -1.820  -0.749   2.160  0.00  0.00    -0.002 A 
ATOM      7  C5  OXE d   1      -0.989  -0.177   3.130  0.00  0.00    -0.002 A 
ATOM      8  C6  OXE d   1       0.202   0.423   2.738  0.00  0.00     0.003 A 
ENDROOT
TORSDOF 0
ENDMDL
