MODEL 1
REMARK minimizedAffinity -4.25134277
REMARK minimizedRMSD -1
REMARK  0 active torsions:
REMARK  status: ('A' for Active; 'I' for Inactive)
ROOT
ATOM      1  C2' OXE d   1       1.742   0.743   1.332  0.00  0.00     0.078 C 
ATOM      2  C1' OXE d   1      -0.386   0.006   3.009  0.00  0.00     0.078 C 
ATOM      3  C1  OXE d   1      -0.694   0.272   1.557  0.00  0.00    -0.078 A 
ATOM      4  C2  OXE d   1       0.345   0.678   0.754  0.00  0.00    -0.078 A 
ATOM      5  C3  OXE d   1       0.126   0.884  -0.605  0.00  0.00     0.003 A 
ATOM      6  C4  OXE d   1      -1.171   0.831  -1.130  0.00  0.00    -0.002 A 
ATOM      7  C5  OXE d   1      -2.250   0.459  -0.321  0.00  0.00    -0.002 A 
ATOM      8  C6  OXE d   1      -2.022   0.135   1.012  0.00  0.00     0.003 A 
ENDROOT
TORSDOF 0
ENDMDL
