MODEL 1
REMARK minimizedAffinity -3.91646314
REMARK minimizedRMSD -1
REMARK  0 active torsions:
REMARK  status: ('A' for Active; 'I' for Inactive)
ROOT
ATOM      1  C2' OXE d   1      -2.633  -0.012   0.785  0.00  0.00     0.078 C 
ATOM      2  C1' OXE d   1      -1.463  -0.469   3.296  0.00  0.00     0.078 C 
ATOM      3  C1  OXE d   1      -0.551  -0.108   2.150  0.00  0.00    -0.078 A 
ATOM      4  C2  OXE d   1      -1.127   0.068   0.915  0.00  0.00    -0.078 A 
ATOM      5  C3  OXE d   1      -0.339   0.455  -0.165  0.00  0.00     0.003 A 
ATOM      6  C4  OXE d   1       1.054   0.517  -0.039  0.00  0.00    -0.002 A 
ATOM      7  C5  OXE d   1       1.665   0.302   1.201  0.00  0.00    -0.002 A 
ATOM      8  C6  OXE d   1       0.875   0.031   2.313  0.00  0.00     0.003 A 
ENDROOT
TORSDOF 0
ENDMDL
