MODEL 1
REMARK minimizedAffinity -4.03866386
REMARK minimizedRMSD -1
REMARK  0 active torsions:
REMARK  status: ('A' for Active; 'I' for Inactive)
ROOT
ATOM      1  C2' OXE d   1      -0.290   0.556  -1.318  0.00  0.00     0.078 C 
ATOM      2  C1' OXE d   1      -2.418   0.085   0.451  0.00  0.00     0.078 C 
ATOM      3  C1  OXE d   1      -1.021   0.109   1.020  0.00  0.00    -0.078 A 
ATOM      4  C2  OXE d   1       0.017   0.294   0.140  0.00  0.00    -0.078 A 
ATOM      5  C3  OXE d   1       1.321   0.378   0.620  0.00  0.00     0.003 A 
ATOM      6  C4  OXE d   1       1.598   0.124   1.969  0.00  0.00    -0.002 A 
ATOM      7  C5  OXE d   1       0.558  -0.105   2.876  0.00  0.00    -0.002 A 
ATOM      8  C6  OXE d   1      -0.758  -0.074   2.426  0.00  0.00     0.003 A 
ENDROOT
TORSDOF 0
ENDMDL
