MODEL 1
REMARK minimizedAffinity -2.93655705
REMARK minimizedRMSD -1
REMARK  0 active torsions:
REMARK  status: ('A' for Active; 'I' for Inactive)
ROOT
ATOM      1  C2' OXE d   1       1.191   0.671  -2.241  0.00  0.00     0.078 C 
ATOM      2  C1' OXE d   1      -1.614   0.558  -2.178  0.00  0.00     0.078 C 
ATOM      3  C1  OXE d   1      -0.869   0.275  -0.897  0.00  0.00    -0.078 A 
ATOM      4  C2  OXE d   1       0.504   0.286  -0.948  0.00  0.00    -0.078 A 
ATOM      5  C3  OXE d   1       1.239   0.085   0.217  0.00  0.00     0.003 A 
ATOM      6  C4  OXE d   1       0.597  -0.280   1.406  0.00  0.00    -0.002 A 
ATOM      7  C5  OXE d   1      -0.800  -0.337   1.470  0.00  0.00    -0.002 A 
ATOM      8  C6  OXE d   1      -1.547  -0.021   0.341  0.00  0.00     0.003 A 
ENDROOT
TORSDOF 0
ENDMDL
