MODEL 1
REMARK minimizedAffinity -5.48588419
REMARK minimizedRMSD -1
REMARK  0 active torsions:
REMARK  status: ('A' for Active; 'I' for Inactive)
ROOT
ATOM      1  C2' OXE d   1       1.639   0.644   0.497  0.00  0.00     0.078 C 
ATOM      2  C1' OXE d   1      -0.503   0.461  -1.309  0.00  0.00     0.078 C 
ATOM      3  C1  OXE d   1      -0.784   0.184   0.146  0.00  0.00    -0.078 A 
ATOM      4  C2  OXE d   1       0.279   0.229   1.016  0.00  0.00    -0.078 A 
ATOM      5  C3  OXE d   1       0.064   0.035   2.377  0.00  0.00     0.003 A 
ATOM      6  C4  OXE d   1      -1.194  -0.358   2.848  0.00  0.00    -0.002 A 
ATOM      7  C5  OXE d   1      -2.282  -0.449   1.973  0.00  0.00    -0.002 A 
ATOM      8  C6  OXE d   1      -2.104  -0.141   0.629  0.00  0.00     0.003 A 
ENDROOT
TORSDOF 0
ENDMDL
