MODEL 1
REMARK minimizedAffinity -3.96797514
REMARK minimizedRMSD -1
REMARK  0 active torsions:
REMARK  status: ('A' for Active; 'I' for Inactive)
ROOT
ATOM      1  C2' OXE d   1       2.261   0.737   0.465  0.00  0.00     0.078 C 
ATOM      2  C1' OXE d   1       0.027   0.595  -1.228  0.00  0.00     0.078 C 
ATOM      3  C1  OXE d   1      -0.146   0.152   0.203  0.00  0.00    -0.078 A 
ATOM      4  C2  OXE d   1       0.964   0.180   1.012  0.00  0.00    -0.078 A 
ATOM      5  C3  OXE d   1       0.848  -0.166   2.355  0.00  0.00     0.003 A 
ATOM      6  C4  OXE d   1      -0.353  -0.689   2.850  0.00  0.00    -0.002 A 
ATOM      7  C5  OXE d   1      -1.486  -0.764   2.033  0.00  0.00    -0.002 A 
ATOM      8  C6  OXE d   1      -1.411  -0.309   0.721  0.00  0.00     0.003 A 
ENDROOT
TORSDOF 0
ENDMDL
