MODEL 1
REMARK minimizedAffinity -4.2574563
REMARK minimizedRMSD -1
REMARK  0 active torsions:
REMARK  status: ('A' for Active; 'I' for Inactive)
ROOT
ATOM      1  C2' OXE d   1      -0.495  -0.779   2.832  0.00  0.00     0.078 C 
ATOM      2  C1' OXE d   1       2.006  -0.549   1.578  0.00  0.00     0.078 C 
ATOM      3  C1  OXE d   1       0.779  -0.202   0.771  0.00  0.00    -0.078 A 
ATOM      4  C2  OXE d   1      -0.443  -0.362   1.378  0.00  0.00    -0.078 A 
ATOM      5  C3  OXE d   1      -1.603  -0.004   0.698  0.00  0.00     0.003 A 
ATOM      6  C4  OXE d   1      -1.547   0.371  -0.650  0.00  0.00    -0.002 A 
ATOM      7  C5  OXE d   1      -0.315   0.502  -1.300  0.00  0.00    -0.002 A 
ATOM      8  C6  OXE d   1       0.858   0.261  -0.592  0.00  0.00     0.003 A 
ENDROOT
TORSDOF 0
ENDMDL
