MODEL 1
REMARK minimizedAffinity -2.14022446
REMARK minimizedRMSD -1
REMARK  0 active torsions:
REMARK  status: ('A' for Active; 'I' for Inactive)
ROOT
ATOM      1  C2' OXE d   1       1.986   0.759   1.044  0.00  0.00     0.078 C 
ATOM      2  C1' OXE d   1      -0.200   0.451   2.777  0.00  0.00     0.078 C 
ATOM      3  C1  OXE d   1      -0.476   0.476   1.295  0.00  0.00    -0.078 A 
ATOM      4  C2  OXE d   1       0.595   0.675   0.456  0.00  0.00    -0.078 A 
ATOM      5  C3  OXE d   1       0.404   0.652  -0.923  0.00  0.00     0.003 A 
ATOM      6  C4  OXE d   1      -0.888   0.583  -1.458  0.00  0.00    -0.002 A 
ATOM      7  C5  OXE d   1      -1.996   0.421  -0.620  0.00  0.00    -0.002 A 
ATOM      8  C6  OXE d   1      -1.804   0.323   0.753  0.00  0.00     0.003 A 
ENDROOT
TORSDOF 0
ENDMDL
