MODEL 1
REMARK minimizedAffinity -0.70371145
REMARK minimizedRMSD -1
REMARK  0 active torsions:
REMARK  status: ('A' for Active; 'I' for Inactive)
ROOT
ATOM      1  C2' OXE d   1       0.330   0.404  -1.130  0.00  0.00     0.078 C 
ATOM      2  C1' OXE d   1       2.047   1.743   0.642  0.00  0.00     0.078 C 
ATOM      3  C1  OXE d   1       1.098   0.722   1.218  0.00  0.00    -0.078 A 
ATOM      4  C2  OXE d   1       0.229   0.106   0.350  0.00  0.00    -0.078 A 
ATOM      5  C3  OXE d   1      -0.630  -0.884   0.821  0.00  0.00     0.003 A 
ATOM      6  C4  OXE d   1      -0.724  -1.147   2.193  0.00  0.00    -0.002 A 
ATOM      7  C5  OXE d   1       0.124  -0.501   3.099  0.00  0.00    -0.002 A 
ATOM      8  C6  OXE d   1       1.067   0.403   2.624  0.00  0.00     0.003 A 
ENDROOT
TORSDOF 0
ENDMDL
