MODEL 1
REMARK minimizedAffinity -3.9375422
REMARK minimizedRMSD -1
REMARK  0 active torsions:
REMARK  status: ('A' for Active; 'I' for Inactive)
ROOT
ATOM      1  C2' OXE d   1      -1.296  -0.668   3.330  0.00  0.00     0.078 C 
ATOM      2  C1' OXE d   1      -2.630  -0.275   0.891  0.00  0.00     0.078 C 
ATOM      3  C1  OXE d   1      -1.138  -0.052   0.921  0.00  0.00    -0.078 A 
ATOM      4  C2  OXE d   1      -0.501  -0.201   2.130  0.00  0.00    -0.078 A 
ATOM      5  C3  OXE d   1       0.882  -0.061   2.202  0.00  0.00     0.003 A 
ATOM      6  C4  OXE d   1       1.608   0.381   1.089  0.00  0.00    -0.002 A 
ATOM      7  C5  OXE d   1       0.973   0.577  -0.141  0.00  0.00    -0.002 A 
ATOM      8  C6  OXE d   1      -0.390   0.324  -0.253  0.00  0.00     0.003 A 
ENDROOT
TORSDOF 0
ENDMDL
