MODEL 1
REMARK minimizedAffinity -2.79281831
REMARK minimizedRMSD -1
REMARK  0 active torsions:
REMARK  status: ('A' for Active; 'I' for Inactive)
ROOT
ATOM      1  C2' OXE d   1      -2.424  -1.047   1.147  0.00  0.00     0.078 C 
ATOM      2  C1' OXE d   1      -1.250  -0.988   3.697  0.00  0.00     0.078 C 
ATOM      3  C1  OXE d   1      -0.422  -0.512   2.529  0.00  0.00    -0.078 A 
ATOM      4  C2  OXE d   1      -0.988  -0.588   1.280  0.00  0.00    -0.078 A 
ATOM      5  C3  OXE d   1      -0.288  -0.110   0.176  0.00  0.00     0.003 A 
ATOM      6  C4  OXE d   1       1.043   0.304   0.305  0.00  0.00    -0.002 A 
ATOM      7  C5  OXE d   1       1.653   0.352   1.563  0.00  0.00    -0.002 A 
ATOM      8  C6  OXE d   1       0.921  -0.012   2.689  0.00  0.00     0.003 A 
ENDROOT
TORSDOF 0
ENDMDL
