MODEL 1
REMARK minimizedAffinity -4.38388443
REMARK minimizedRMSD -1
REMARK  0 active torsions:
REMARK  status: ('A' for Active; 'I' for Inactive)
ROOT
ATOM      1  C2' OXE d   1       2.037   1.205   0.957  0.00  0.00     0.078 C 
ATOM      2  C1' OXE d   1       0.208   0.337  -0.987  0.00  0.00     0.078 C 
ATOM      3  C1  OXE d   1      -0.086   0.003   0.454  0.00  0.00    -0.078 A 
ATOM      4  C2  OXE d   1       0.837   0.392   1.394  0.00  0.00    -0.078 A 
ATOM      5  C3  OXE d   1       0.588   0.157   2.743  0.00  0.00     0.003 A 
ATOM      6  C4  OXE d   1      -0.518  -0.605   3.138  0.00  0.00    -0.002 A 
ATOM      7  C5  OXE d   1      -1.451  -1.044   2.192  0.00  0.00    -0.002 A 
ATOM      8  C6  OXE d   1      -1.272  -0.713   0.854  0.00  0.00     0.003 A 
ENDROOT
TORSDOF 0
ENDMDL
