MODEL 1
REMARK minimizedAffinity -3.38231945
REMARK minimizedRMSD -1
REMARK  0 active torsions:
REMARK  status: ('A' for Active; 'I' for Inactive)
ROOT
ATOM      1  C2' OXE d   1      -0.626   0.536  -1.073  0.00  0.00     0.078 C 
ATOM      2  C1' OXE d   1      -3.033   0.418   0.368  0.00  0.00     0.078 C 
ATOM      3  C1  OXE d   1      -1.759   0.064   1.095  0.00  0.00    -0.078 A 
ATOM      4  C2  OXE d   1      -0.592   0.079   0.369  0.00  0.00    -0.078 A 
ATOM      5  C3  OXE d   1       0.618  -0.186   1.004  0.00  0.00     0.003 A 
ATOM      6  C4  OXE d   1       0.639  -0.618   2.336  0.00  0.00    -0.002 A 
ATOM      7  C5  OXE d   1      -0.543  -0.678   3.082  0.00  0.00    -0.002 A 
ATOM      8  C6  OXE d   1      -1.743  -0.301   2.490  0.00  0.00     0.003 A 
ENDROOT
TORSDOF 0
ENDMDL
