MODEL 1
REMARK minimizedAffinity -1.30206931
REMARK minimizedRMSD -1
REMARK  0 active torsions:
REMARK  status: ('A' for Active; 'I' for Inactive)
ROOT
ATOM      1  C2' OXE d   1       1.480   0.407   0.251  0.00  0.00     0.078 C 
ATOM      2  C1' OXE d   1      -0.929   0.692  -1.161  0.00  0.00     0.078 C 
ATOM      3  C1  OXE d   1      -0.873  -0.345  -0.067  0.00  0.00    -0.078 A 
ATOM      4  C2  OXE d   1       0.324  -0.510   0.587  0.00  0.00    -0.078 A 
ATOM      5  C3  OXE d   1       0.414  -1.414   1.641  0.00  0.00     0.003 A 
ATOM      6  C4  OXE d   1      -0.657  -2.265   1.939  0.00  0.00    -0.002 A 
ATOM      7  C5  OXE d   1      -1.873  -2.141   1.258  0.00  0.00    -0.002 A 
ATOM      8  C6  OXE d   1      -2.011  -1.159   0.283  0.00  0.00     0.003 A 
ENDROOT
TORSDOF 0
ENDMDL
