MODEL 1
REMARK minimizedAffinity -6.10650921
REMARK minimizedRMSD -1
REMARK  1 active torsions:
REMARK  status: ('A' for Active; 'I' for Inactive)
REMARK    1  A    between atoms: C1_2  and  C2_3 
ROOT
ATOM      1  C2  UNL d   1       0.085  -1.028  -0.410  0.00  0.00    -0.073 A 
ATOM      2  C3  UNL d   1       1.355  -1.451  -0.818  0.00  0.00    -0.002 A 
ATOM      3  C4  UNL d   1       2.457  -0.607  -0.681  0.00  0.00     0.004 A 
ATOM      4  C5  UNL d   1       2.302   0.665  -0.128  0.00  0.00    -0.004 A 
ATOM      5  C6  UNL d   1       1.043   1.101   0.296  0.00  0.00    -0.075 A 
ATOM      6  C7  UNL d   1       0.860   2.467   0.890  0.00  0.00     0.076 C 
ATOM      7  C8  UNL d   1      -0.059   0.248   0.152  0.00  0.00     0.001 A 
ENDROOT
BRANCH   1   8
ATOM      8  C1  UNL d   1      -1.107  -1.940  -0.551  0.00  0.00     0.053 C 
ATOM      9  C   UNL d   1      -1.869  -1.687  -1.842  0.00  0.00     0.018 C 
ENDBRANCH   1   8
TORSDOF 1
ENDMDL
