MODEL 1
REMARK minimizedAffinity -5.71666431
REMARK minimizedRMSD -1
REMARK  1 active torsions:
REMARK  status: ('A' for Active; 'I' for Inactive)
REMARK    1  A    between atoms: C1_2  and  C2_3 
ROOT
ATOM      1  C2  UNL d   1      -0.002  -0.462  -0.463  0.00  0.00    -0.073 A 
ATOM      2  C3  UNL d   1       1.146  -0.917  -1.122  0.00  0.00    -0.002 A 
ATOM      3  C4  UNL d   1       2.275  -0.103  -1.214  0.00  0.00     0.004 A 
ATOM      4  C5  UNL d   1       2.272   1.170  -0.645  0.00  0.00    -0.004 A 
ATOM      5  C6  UNL d   1       1.138   1.639   0.028  0.00  0.00    -0.075 A 
ATOM      6  C7  UNL d   1       1.118   3.007   0.644  0.00  0.00     0.076 C 
ATOM      7  C8  UNL d   1       0.007   0.816   0.114  0.00  0.00     0.001 A 
ENDROOT
BRANCH   1   8
ATOM      8  C1  UNL d   1      -1.222  -1.340  -0.354  0.00  0.00     0.053 C 
ATOM      9  C   UNL d   1      -1.495  -2.098  -1.644  0.00  0.00     0.018 C 
ENDBRANCH   1   8
TORSDOF 1
ENDMDL
