MODEL 1
REMARK minimizedAffinity -3.4427352
REMARK minimizedRMSD -1
REMARK  1 active torsions:
REMARK  status: ('A' for Active; 'I' for Inactive)
REMARK    1  A    between atoms: C1_2  and  C2_3 
ROOT
ATOM      1  C2  UNL d   1      -0.648  -0.877  -0.692  0.00  0.00    -0.073 A 
ATOM      2  C3  UNL d   1       0.624  -1.387  -0.977  0.00  0.00    -0.002 A 
ATOM      3  C4  UNL d   1       1.767  -0.721  -0.534  0.00  0.00     0.004 A 
ATOM      4  C5  UNL d   1       1.651   0.458   0.203  0.00  0.00    -0.004 A 
ATOM      5  C6  UNL d   1       0.389   0.977   0.508  0.00  0.00    -0.075 A 
ATOM      6  C7  UNL d   1       0.246   2.245   1.298  0.00  0.00     0.076 C 
ATOM      7  C8  UNL d   1      -0.754   0.303   0.057  0.00  0.00     0.001 A 
ENDROOT
BRANCH   1   8
ATOM      8  C1  UNL d   1      -1.885  -1.597  -1.163  0.00  0.00     0.053 C 
ATOM      9  C   UNL d   1      -2.327  -1.129  -2.540  0.00  0.00     0.018 C 
ENDBRANCH   1   8
TORSDOF 1
ENDMDL
