MODEL 1
REMARK minimizedAffinity -4.35612345
REMARK minimizedRMSD -1
REMARK  1 active torsions:
REMARK  status: ('A' for Active; 'I' for Inactive)
REMARK    1  A    between atoms: C1_2  and  C2_3 
ROOT
ATOM      1  C2  UNL d   1      -0.110  -0.531  -0.434  0.00  0.00    -0.073 A 
ATOM      2  C3  UNL d   1       1.136  -1.028  -0.832  0.00  0.00    -0.002 A 
ATOM      3  C4  UNL d   1       2.280  -0.238  -0.715  0.00  0.00     0.004 A 
ATOM      4  C5  UNL d   1       2.192   1.052  -0.191  0.00  0.00    -0.004 A 
ATOM      5  C6  UNL d   1       0.958   1.562   0.224  0.00  0.00    -0.075 A 
ATOM      6  C7  UNL d   1       0.846   2.948   0.787  0.00  0.00     0.076 C 
ATOM      7  C8  UNL d   1      -0.187   0.763   0.100  0.00  0.00     0.001 A 
ENDROOT
BRANCH   1   8
ATOM      8  C1  UNL d   1      -1.348  -1.383  -0.553  0.00  0.00     0.053 C 
ATOM      9  C   UNL d   1      -2.081  -1.142  -1.863  0.00  0.00     0.018 C 
ENDBRANCH   1   8
TORSDOF 1
ENDMDL
