MODEL 1
REMARK minimizedAffinity -3.91367269
REMARK minimizedRMSD -1
REMARK  1 active torsions:
REMARK  status: ('A' for Active; 'I' for Inactive)
REMARK    1  A    between atoms: C1_2  and  C2_3 
ROOT
ATOM      1  C2  UNL d   1      -0.053  -0.738  -0.633  0.00  0.00    -0.073 A 
ATOM      2  C3  UNL d   1       1.215  -1.185  -1.021  0.00  0.00    -0.002 A 
ATOM      3  C4  UNL d   1       2.336  -0.376  -0.829  0.00  0.00     0.004 A 
ATOM      4  C5  UNL d   1       2.202   0.881  -0.241  0.00  0.00    -0.004 A 
ATOM      5  C6  UNL d   1       0.945   1.340   0.165  0.00  0.00    -0.075 A 
ATOM      6  C7  UNL d   1       0.784   2.691   0.798  0.00  0.00     0.076 C 
ATOM      7  C8  UNL d   1      -0.176   0.524  -0.034  0.00  0.00     0.001 A 
ENDROOT
BRANCH   1   8
ATOM      8  C1  UNL d   1      -1.266  -1.610  -0.832  0.00  0.00     0.053 C 
ATOM      9  C   UNL d   1      -1.797  -1.531  -2.255  0.00  0.00     0.018 C 
ENDBRANCH   1   8
TORSDOF 1
ENDMDL
