MODEL 1
REMARK minimizedAffinity -5.63516855
REMARK minimizedRMSD -1
REMARK  1 active torsions:
REMARK  status: ('A' for Active; 'I' for Inactive)
REMARK    1  A    between atoms: C1_2  and  C2_3 
ROOT
ATOM      1  C2  UNL d   1       0.080  -0.173  -0.487  0.00  0.00    -0.073 A 
ATOM      2  C3  UNL d   1      -0.928  -0.523   0.420  0.00  0.00    -0.002 A 
ATOM      3  C4  UNL d   1      -1.141   0.243   1.566  0.00  0.00     0.004 A 
ATOM      4  C5  UNL d   1      -0.356   1.369   1.815  0.00  0.00    -0.004 A 
ATOM      5  C6  UNL d   1       0.648   1.741   0.915  0.00  0.00    -0.075 A 
ATOM      6  C7  UNL d   1       1.503   2.948   1.169  0.00  0.00     0.076 C 
ATOM      7  C8  UNL d   1       0.858   0.965  -0.233  0.00  0.00     0.001 A 
ENDROOT
BRANCH   1   8
ATOM      8  C1  UNL d   1       0.310  -0.994  -1.729  0.00  0.00     0.053 C 
ATOM      9  C   UNL d   1      -0.886  -0.955  -2.667  0.00  0.00     0.018 C 
ENDBRANCH   1   8
TORSDOF 1
ENDMDL
