MODEL 1
REMARK minimizedAffinity -3.1707263
REMARK minimizedRMSD -1
REMARK  1 active torsions:
REMARK  status: ('A' for Active; 'I' for Inactive)
REMARK    1  A    between atoms: C1_2  and  C2_3 
ROOT
ATOM      1  C2  UNL d   1       0.197  -0.071   0.212  0.00  0.00    -0.073 A 
ATOM      2  C3  UNL d   1      -1.043   0.292   0.749  0.00  0.00    -0.002 A 
ATOM      3  C4  UNL d   1      -1.142   1.368   1.632  0.00  0.00     0.004 A 
ATOM      4  C5  UNL d   1      -0.005   2.096   1.981  0.00  0.00    -0.004 A 
ATOM      5  C6  UNL d   1       1.242   1.757   1.446  0.00  0.00    -0.075 A 
ATOM      6  C7  UNL d   1       2.475   2.528   1.813  0.00  0.00     0.076 C 
ATOM      7  C8  UNL d   1       1.334   0.673   0.562  0.00  0.00     0.001 A 
ENDROOT
BRANCH   1   8
ATOM      8  C1  UNL d   1       0.308  -1.228  -0.747  0.00  0.00     0.053 C 
ATOM      9  C   UNL d   1      -1.028  -1.566  -1.389  0.00  0.00     0.018 C 
ENDBRANCH   1   8
TORSDOF 1
ENDMDL
