MODEL 1
REMARK minimizedAffinity 0.138767466
REMARK minimizedRMSD -1
REMARK  1 active torsions:
REMARK  status: ('A' for Active; 'I' for Inactive)
REMARK    1  A    between atoms: C1_2  and  C2_3 
ROOT
ATOM      1  C2  UNL d   1      -0.740  -0.867  -0.452  0.00  0.00    -0.073 A 
ATOM      2  C3  UNL d   1       0.563  -0.870  -0.964  0.00  0.00    -0.002 A 
ATOM      3  C4  UNL d   1       1.527  -0.008  -0.440  0.00  0.00     0.004 A 
ATOM      4  C5  UNL d   1       1.202   0.859   0.603  0.00  0.00    -0.004 A 
ATOM      5  C6  UNL d   1      -0.091   0.868   1.136  0.00  0.00    -0.075 A 
ATOM      6  C7  UNL d   1      -0.457   1.796   2.257  0.00  0.00     0.076 C 
ATOM      7  C8  UNL d   1      -1.055   0.001   0.603  0.00  0.00     0.001 A 
ENDROOT
BRANCH   1   8
ATOM      8  C1  UNL d   1      -1.783  -1.801  -1.010  0.00  0.00     0.053 C 
ATOM      9  C   UNL d   1      -2.472  -1.220  -2.235  0.00  0.00     0.018 C 
ENDBRANCH   1   8
TORSDOF 1
ENDMDL
