MODEL 1
REMARK minimizedAffinity 7.96720648
REMARK minimizedRMSD -1
REMARK  0 active torsions:
REMARK  status: ('A' for Active; 'I' for Inactive)
ROOT
ATOM      1  N1  IND d   1       0.245  -0.891  -0.775  0.00  0.00    -0.196 N 
ATOM      2  C2  IND d   1       1.559  -0.941  -1.147  0.00  0.00     0.054 A 
ATOM      3  C3  IND d   1       2.355  -1.011  -0.056  0.00  0.00    -0.031 A 
ATOM      4  C4  IND d   1       1.710  -1.158   2.432  0.00  0.00     0.051 A 
ATOM      5  C5  IND d   1       0.632  -1.111   3.269  0.00  0.00    -0.031 A 
ATOM      6  C6  IND d   1      -0.657  -0.988   2.792  0.00  0.00     0.015 A 
ATOM      7  C7  IND d   1      -0.918  -0.920   1.453  0.00  0.00    -0.016 A 
ATOM      8  C8  IND d   1       0.176  -0.960   0.600  0.00  0.00    -0.047 A 
ATOM      9  C9  IND d   1       1.489  -1.041   1.080  0.00  0.00    -0.096 A 
ATOM     10  HN1 IND d   1      -0.426  -0.828  -1.309  0.00  0.00     0.298 HD
ENDROOT
TORSDOF 0
ENDMDL
