MODEL 1
REMARK minimizedAffinity 7.6100688
REMARK minimizedRMSD -1
REMARK  0 active torsions:
REMARK  status: ('A' for Active; 'I' for Inactive)
ROOT
ATOM      1  N1  IND d   1      -3.785  -1.247  -5.015  0.00  0.00    -0.196 N 
ATOM      2  C2  IND d   1      -4.812  -1.520  -4.154  0.00  0.00     0.054 A 
ATOM      3  C3  IND d   1      -5.429  -0.377  -3.781  0.00  0.00    -0.031 A 
ATOM      4  C4  IND d   1      -4.986   2.044  -4.538  0.00  0.00     0.051 A 
ATOM      5  C5  IND d   1      -4.127   2.798  -5.287  0.00  0.00    -0.031 A 
ATOM      6  C6  IND d   1      -3.090   2.230  -6.000  0.00  0.00     0.015 A 
ATOM      7  C7  IND d   1      -2.881   0.880  -5.999  0.00  0.00    -0.016 A 
ATOM      8  C8  IND d   1      -3.747   0.112  -5.234  0.00  0.00    -0.047 A 
ATOM      9  C9  IND d   1      -4.774   0.687  -4.475  0.00  0.00    -0.096 A 
ATOM     10  HN1 IND d   1      -3.253  -1.827  -5.360  0.00  0.00     0.298 HD
ENDROOT
TORSDOF 0
ENDMDL
