MODEL 1
REMARK minimizedAffinity 6.8421607
REMARK minimizedRMSD -1
REMARK  0 active torsions:
REMARK  status: ('A' for Active; 'I' for Inactive)
ROOT
ATOM      1  N1  IND d   1      -1.568   1.200   3.851  0.00  0.00    -0.196 N 
ATOM      2  C2  IND d   1      -2.838   1.192   3.345  0.00  0.00     0.054 A 
ATOM      3  C3  IND d   1      -2.937   0.292   2.341  0.00  0.00    -0.031 A 
ATOM      4  C4  IND d   1      -1.172  -1.345   1.430  0.00  0.00     0.051 A 
ATOM      5  C5  IND d   1       0.147  -1.683   1.550  0.00  0.00    -0.031 A 
ATOM      6  C6  IND d   1       0.978  -1.067   2.464  0.00  0.00     0.015 A 
ATOM      7  C7  IND d   1       0.515  -0.093   3.303  0.00  0.00    -0.016 A 
ATOM      8  C8  IND d   1      -0.821   0.258   3.179  0.00  0.00    -0.047 A 
ATOM      9  C9  IND d   1      -1.659  -0.334   2.225  0.00  0.00    -0.096 A 
ATOM     10  HN1 IND d   1      -1.284   1.709   4.483  0.00  0.00     0.298 HD
ENDROOT
TORSDOF 0
ENDMDL
