MODEL 1
REMARK minimizedAffinity 7.44188023
REMARK minimizedRMSD -1
REMARK  0 active torsions:
REMARK  status: ('A' for Active; 'I' for Inactive)
ROOT
ATOM      1  N1  IND d   1      -1.762   0.173   2.249  0.00  0.00    -0.196 N 
ATOM      2  C2  IND d   1      -1.961   1.024   3.300  0.00  0.00     0.054 A 
ATOM      3  C3  IND d   1      -0.950   0.915   4.192  0.00  0.00    -0.031 A 
ATOM      4  C4  IND d   1       1.182  -0.523   4.079  0.00  0.00     0.051 A 
ATOM      5  C5  IND d   1       1.791  -1.490   3.329  0.00  0.00    -0.031 A 
ATOM      6  C6  IND d   1       1.237  -1.960   2.156  0.00  0.00     0.015 A 
ATOM      7  C7  IND d   1       0.053  -1.469   1.680  0.00  0.00    -0.016 A 
ATOM      8  C8  IND d   1      -0.571  -0.492   2.443  0.00  0.00    -0.047 A 
ATOM      9  C9  IND d   1      -0.035  -0.042   3.656  0.00  0.00    -0.096 A 
ATOM     10  HN1 IND d   1      -2.291   0.071   1.579  0.00  0.00     0.298 HD
ENDROOT
TORSDOF 0
ENDMDL
