MODEL 1
REMARK minimizedAffinity 13.136488
REMARK minimizedRMSD -1
REMARK  0 active torsions:
REMARK  status: ('A' for Active; 'I' for Inactive)
ROOT
ATOM      1  N1  IND d   1       2.085  -2.056  -0.352  0.00  0.00    -0.196 N 
ATOM      2  C2  IND d   1       1.567  -1.259  -1.335  0.00  0.00     0.054 A 
ATOM      3  C3  IND d   1       0.486  -0.589  -0.878  0.00  0.00    -0.031 A 
ATOM      4  C4  IND d   1      -0.549  -0.569   1.479  0.00  0.00     0.051 A 
ATOM      5  C5  IND d   1      -0.447  -1.163   2.706  0.00  0.00    -0.031 A 
ATOM      6  C6  IND d   1       0.526  -2.103   2.982  0.00  0.00     0.015 A 
ATOM      7  C7  IND d   1       1.443  -2.476   2.041  0.00  0.00    -0.016 A 
ATOM      8  C8  IND d   1       1.338  -1.879   0.793  0.00  0.00    -0.047 A 
ATOM      9  C9  IND d   1       0.328  -0.957   0.494  0.00  0.00    -0.096 A 
ATOM     10  HN1 IND d   1       2.762  -2.579  -0.434  0.00  0.00     0.298 HD
ENDROOT
TORSDOF 0
ENDMDL
