MODEL 1
REMARK minimizedAffinity 3.5222578
REMARK minimizedRMSD -1
REMARK  0 active torsions:
REMARK  status: ('A' for Active; 'I' for Inactive)
ROOT
ATOM      1  N1  IND d   1       2.836  -2.132  -0.197  0.00  0.00    -0.196 N 
ATOM      2  C2  IND d   1       3.687  -2.953   0.489  0.00  0.00     0.054 A 
ATOM      3  C3  IND d   1       3.381  -2.954   1.806  0.00  0.00    -0.031 A 
ATOM      4  C4  IND d   1       1.459  -1.764   3.039  0.00  0.00     0.051 A 
ATOM      5  C5  IND d   1       0.442  -0.873   2.842  0.00  0.00    -0.031 A 
ATOM      6  C6  IND d   1       0.162  -0.348   1.597  0.00  0.00     0.015 A 
ATOM      7  C7  IND d   1       0.887  -0.705   0.495  0.00  0.00    -0.016 A 
ATOM      8  C8  IND d   1       1.926  -1.603   0.692  0.00  0.00    -0.047 A 
ATOM      9  C9  IND d   1       2.241  -2.107   1.961  0.00  0.00    -0.096 A 
ATOM     10  HN1 IND d   1       2.864  -1.973  -1.041  0.00  0.00     0.298 HD
ENDROOT
TORSDOF 0
ENDMDL
