MODEL 1
REMARK minimizedAffinity 18.4853363
REMARK minimizedRMSD -1
REMARK  0 active torsions:
REMARK  status: ('A' for Active; 'I' for Inactive)
ROOT
ATOM      1  C   UNL d   1       2.098  -0.793   0.322  0.00  0.00     0.020 A 
ATOM      2  C1  UNL d   1       2.627  -0.582   1.594  0.00  0.00     0.020 A 
ATOM      3  C2  UNL d   1       3.715   0.277   1.764  0.00  0.00     0.034 A 
ATOM      4  C3  UNL d   1       4.276   0.929   0.661  0.00  0.00     0.017 A 
ATOM      5  C4  UNL d   1       3.744   0.717  -0.616  0.00  0.00     0.017 A 
ATOM      6  C5  UNL d   1       2.655  -0.144  -0.781  0.00  0.00     0.034 A 
ATOM      7 Cl   UNL d   1       4.383   1.487  -2.026  0.00  0.00    -0.070 Cl
ATOM      8 Cl1  UNL d   1       5.620   1.978   0.945  0.00  0.00    -0.070 Cl
ENDROOT
TORSDOF 0
ENDMDL
