MODEL 1
REMARK minimizedAffinity 7.72873449
REMARK minimizedRMSD -1
REMARK  0 active torsions:
REMARK  status: ('A' for Active; 'I' for Inactive)
ROOT
ATOM      1  C   UNL d   1       5.783   2.155  -0.756  0.00  0.00     0.020 A 
ATOM      2  C1  UNL d   1       5.253   1.901  -2.020  0.00  0.00     0.020 A 
ATOM      3  C2  UNL d   1       4.153   1.052  -2.158  0.00  0.00     0.034 A 
ATOM      4  C3  UNL d   1       3.579   0.455  -1.030  0.00  0.00     0.017 A 
ATOM      5  C4  UNL d   1       4.111   0.711   0.238  0.00  0.00     0.017 A 
ATOM      6  C5  UNL d   1       5.213   1.561   0.371  0.00  0.00     0.034 A 
ATOM      7 Cl   UNL d   1       3.457   0.010   1.677  0.00  0.00    -0.070 Cl
ATOM      8 Cl1  UNL d   1       2.220  -0.583  -1.275  0.00  0.00    -0.070 Cl
ENDROOT
TORSDOF 0
ENDMDL
