MODEL 1
REMARK minimizedAffinity 11.7001896
REMARK minimizedRMSD -1
REMARK  0 active torsions:
REMARK  status: ('A' for Active; 'I' for Inactive)
ROOT
ATOM      1  C   UNL d   1      -0.821  -2.686  -2.414  0.00  0.00     0.020 A 
ATOM      2  C1  UNL d   1      -1.207  -4.011  -2.610  0.00  0.00     0.020 A 
ATOM      3  C2  UNL d   1      -2.297  -4.306  -3.431  0.00  0.00     0.034 A 
ATOM      4  C3  UNL d   1      -3.005  -3.275  -4.059  0.00  0.00     0.017 A 
ATOM      5  C4  UNL d   1      -2.617  -1.945  -3.862  0.00  0.00     0.017 A 
ATOM      6  C5  UNL d   1      -1.524  -1.655  -3.039  0.00  0.00     0.034 A 
ATOM      7 Cl   UNL d   1      -3.441  -0.619  -4.603  0.00  0.00    -0.070 Cl
ATOM      8 Cl1  UNL d   1      -4.343  -3.713  -5.061  0.00  0.00    -0.070 Cl
ENDROOT
TORSDOF 0
ENDMDL
