MODEL 1
REMARK minimizedAffinity 7.2056613
REMARK minimizedRMSD -1
REMARK  0 active torsions:
REMARK  status: ('A' for Active; 'I' for Inactive)
ROOT
ATOM      1  C   UNL d   1       2.763   0.792   0.593  0.00  0.00     0.020 A 
ATOM      2  C1  UNL d   1       3.648   1.754   1.076  0.00  0.00     0.020 A 
ATOM      3  C2  UNL d   1       4.608   2.309   0.227  0.00  0.00     0.034 A 
ATOM      4  C3  UNL d   1       4.684   1.902  -1.110  0.00  0.00     0.017 A 
ATOM      5  C4  UNL d   1       3.795   0.935  -1.594  0.00  0.00     0.017 A 
ATOM      6  C5  UNL d   1       2.836   0.383  -0.739  0.00  0.00     0.034 A 
ATOM      7 Cl   UNL d   1       3.829   0.382  -3.231  0.00  0.00    -0.070 Cl
ATOM      8 Cl1  UNL d   1       5.896   2.631  -2.104  0.00  0.00    -0.070 Cl
ENDROOT
TORSDOF 0
ENDMDL
