MODEL 1
REMARK minimizedAffinity 17.0878544
REMARK minimizedRMSD -1
REMARK  0 active torsions:
REMARK  status: ('A' for Active; 'I' for Inactive)
ROOT
ATOM      1  C   UNL d   1       2.637   0.541   0.004  0.00  0.00     0.020 A 
ATOM      2  C1  UNL d   1       2.945   0.654  -1.351  0.00  0.00     0.020 A 
ATOM      3  C2  UNL d   1       3.988   1.488  -1.762  0.00  0.00     0.034 A 
ATOM      4  C3  UNL d   1       4.725   2.212  -0.818  0.00  0.00     0.017 A 
ATOM      5  C4  UNL d   1       4.414   2.097   0.542  0.00  0.00     0.017 A 
ATOM      6  C5  UNL d   1       3.369   1.261   0.948  0.00  0.00     0.034 A 
ATOM      7 Cl   UNL d   1       5.278   2.958   1.766  0.00  0.00    -0.070 Cl
ATOM      8 Cl1  UNL d   1       6.000   3.223  -1.397  0.00  0.00    -0.070 Cl
ENDROOT
TORSDOF 0
ENDMDL
