MODEL 1
REMARK minimizedAffinity 22.7200623
REMARK minimizedRMSD -1
REMARK  0 active torsions:
REMARK  status: ('A' for Active; 'I' for Inactive)
ROOT
ATOM      1  C   UNL d   1       1.076   2.764   4.637  0.00  0.00     0.020 A 
ATOM      2  C1  UNL d   1       1.991   1.712   4.628  0.00  0.00     0.020 A 
ATOM      3  C2  UNL d   1       2.487   1.228   3.415  0.00  0.00     0.034 A 
ATOM      4  C3  UNL d   1       2.067   1.796   2.207  0.00  0.00     0.017 A 
ATOM      5  C4  UNL d   1       1.149   2.852   2.217  0.00  0.00     0.017 A 
ATOM      6  C5  UNL d   1       0.656   3.333   3.434  0.00  0.00     0.034 A 
ATOM      7 Cl   UNL d   1       0.584   3.604   0.767  0.00  0.00    -0.070 Cl
ATOM      8 Cl1  UNL d   1       2.721   1.148   0.744  0.00  0.00    -0.070 Cl
ENDROOT
TORSDOF 0
ENDMDL
