MODEL 1
REMARK minimizedAffinity 13.9187765
REMARK minimizedRMSD -1
REMARK  0 active torsions:
REMARK  status: ('A' for Active; 'I' for Inactive)
ROOT
ATOM      1  C   UNL d   1       0.670   4.121   1.335  0.00  0.00     0.020 A 
ATOM      2  C1  UNL d   1      -0.045   3.493   0.316  0.00  0.00     0.020 A 
ATOM      3  C2  UNL d   1       0.466   2.345  -0.292  0.00  0.00     0.034 A 
ATOM      4  C3  UNL d   1       1.697   1.820   0.119  0.00  0.00     0.017 A 
ATOM      5  C4  UNL d   1       2.415   2.450   1.142  0.00  0.00     0.017 A 
ATOM      6  C5  UNL d   1       1.898   3.600   1.747  0.00  0.00     0.034 A 
ATOM      7 Cl   UNL d   1       3.940   1.862   1.704  0.00  0.00    -0.070 Cl
ATOM      8 Cl1  UNL d   1       2.269   0.396  -0.676  0.00  0.00    -0.070 Cl
ENDROOT
TORSDOF 0
ENDMDL
