MODEL 1
REMARK minimizedAffinity 15.6568651
REMARK minimizedRMSD -1
REMARK  0 active torsions:
REMARK  status: ('A' for Active; 'I' for Inactive)
ROOT
ATOM      1  C   UNL d   1      -5.094  -0.493   0.124  0.00  0.00     0.020 A 
ATOM      2  C1  UNL d   1      -5.046   0.901   0.124  0.00  0.00     0.020 A 
ATOM      3  C2  UNL d   1      -3.835   1.558  -0.106  0.00  0.00     0.034 A 
ATOM      4  C3  UNL d   1      -2.668   0.821  -0.338  0.00  0.00     0.017 A 
ATOM      5  C4  UNL d   1      -2.717  -0.577  -0.339  0.00  0.00     0.017 A 
ATOM      6  C5  UNL d   1      -3.932  -1.230  -0.108  0.00  0.00     0.034 A 
ATOM      7 Cl   UNL d   1      -1.319  -1.554  -0.618  0.00  0.00    -0.070 Cl
ATOM      8 Cl1  UNL d   1      -1.206   1.700  -0.616  0.00  0.00    -0.070 Cl
ENDROOT
TORSDOF 0
ENDMDL
