MODEL 1
REMARK minimizedAffinity 7.69893789
REMARK minimizedRMSD -1
REMARK  0 active torsions:
REMARK  status: ('A' for Active; 'I' for Inactive)
ROOT
ATOM      1  C   UNL d   1       2.767   0.575   0.432  0.00  0.00     0.020 A 
ATOM      2  C1  UNL d   1       2.771   0.534  -0.962  0.00  0.00     0.020 A 
ATOM      3  C2  UNL d   1       3.778   1.186  -1.677  0.00  0.00     0.034 A 
ATOM      4  C3  UNL d   1       4.786   1.882  -0.998  0.00  0.00     0.017 A 
ATOM      5  C4  UNL d   1       4.781   1.922   0.401  0.00  0.00     0.017 A 
ATOM      6  C5  UNL d   1       3.770   1.268   1.111  0.00  0.00     0.034 A 
ATOM      7 Cl   UNL d   1       5.990   2.760   1.308  0.00  0.00    -0.070 Cl
ATOM      8 Cl1  UNL d   1       6.000   2.665  -1.946  0.00  0.00    -0.070 Cl
ENDROOT
TORSDOF 0
ENDMDL
