MODEL 1
REMARK minimizedAffinity 14.2125244
REMARK minimizedRMSD -1
REMARK  0 active torsions:
REMARK  status: ('A' for Active; 'I' for Inactive)
ROOT
ATOM      1  C1  DEN d   1      -0.441  -2.207  -0.223  0.00  0.00     0.130 A 
ATOM      2  C2  DEN d   1      -0.814  -2.110   1.186  0.00  0.00    -0.031 A 
ATOM      3  C3  DEN d   1       0.120  -2.948   1.964  0.00  0.00     0.027 A 
ATOM      4  C4  DEN d   1       2.101  -4.374   1.130  0.00  0.00     0.027 A 
ATOM      5  C5  DEN d   1       2.801  -4.780   0.016  0.00  0.00    -0.003 A 
ATOM      6  C6  DEN d   1       2.451  -4.388  -1.249  0.00  0.00     0.001 A 
ATOM      7  C7  DEN d   1       1.400  -3.528  -1.427  0.00  0.00     0.017 A 
ATOM      8  C8  DEN d   1       0.685  -3.120  -0.308  0.00  0.00    -0.094 A 
ATOM      9  C9  DEN d   1       1.062  -3.518   0.963  0.00  0.00    -0.072 A 
ENDROOT
TORSDOF 0
ENDMDL
