MODEL 1
REMARK minimizedAffinity 2.56912494
REMARK minimizedRMSD -1
REMARK  0 active torsions:
REMARK  status: ('A' for Active; 'I' for Inactive)
ROOT
ATOM      1  C1  DEN d   1       2.348   3.396  -0.554  0.00  0.00     0.130 A 
ATOM      2  C2  DEN d   1       1.040   3.969  -0.857  0.00  0.00    -0.031 A 
ATOM      3  C3  DEN d   1       0.010   3.109  -0.240  0.00  0.00     0.027 A 
ATOM      4  C4  DEN d   1       0.314   0.960   1.154  0.00  0.00     0.027 A 
ATOM      5  C5  DEN d   1       1.238   0.077   1.669  0.00  0.00    -0.003 A 
ATOM      6  C6  DEN d   1       2.583   0.218   1.451  0.00  0.00     0.001 A 
ATOM      7  C7  DEN d   1       3.046   1.292   0.738  0.00  0.00     0.017 A 
ATOM      8  C8  DEN d   1       2.121   2.183   0.210  0.00  0.00    -0.094 A 
ATOM      9  C9  DEN d   1       0.766   2.030   0.451  0.00  0.00    -0.072 A 
ENDROOT
TORSDOF 0
ENDMDL
