MODEL 1
REMARK minimizedAffinity 11.0486746
REMARK minimizedRMSD -1
REMARK  0 active torsions:
REMARK  status: ('A' for Active; 'I' for Inactive)
ROOT
ATOM      1  C1  DEN d   1      -3.320  -0.198  -3.739  0.00  0.00     0.130 A 
ATOM      2  C2  DEN d   1      -4.733  -0.508  -3.934  0.00  0.00    -0.031 A 
ATOM      3  C3  DEN d   1      -4.977  -1.870  -3.416  0.00  0.00     0.027 A 
ATOM      4  C4  DEN d   1      -3.313  -3.516  -2.333  0.00  0.00     0.027 A 
ATOM      5  C5  DEN d   1      -1.999  -3.703  -1.963  0.00  0.00    -0.003 A 
ATOM      6  C6  DEN d   1      -1.035  -2.757  -2.188  0.00  0.00     0.001 A 
ATOM      7  C7  DEN d   1      -1.379  -1.560  -2.759  0.00  0.00     0.017 A 
ATOM      8  C8  DEN d   1      -2.700  -1.367  -3.142  0.00  0.00    -0.094 A 
ATOM      9  C9  DEN d   1      -3.662  -2.331  -2.894  0.00  0.00    -0.072 A 
ENDROOT
TORSDOF 0
ENDMDL
