MODEL 1
REMARK minimizedAffinity -1.62481141
REMARK minimizedRMSD -1
REMARK  0 active torsions:
REMARK  status: ('A' for Active; 'I' for Inactive)
ROOT
ATOM      1  C1  DEN d   1       1.782  -1.327   4.681  0.00  0.00     0.130 A 
ATOM      2  C2  DEN d   1       1.108  -2.621   4.731  0.00  0.00    -0.031 A 
ATOM      3  C3  DEN d   1       0.463  -2.851   3.423  0.00  0.00     0.027 A 
ATOM      4  C4  DEN d   1       0.445  -1.337   1.335  0.00  0.00     0.027 A 
ATOM      5  C5  DEN d   1       0.870  -0.134   0.817  0.00  0.00    -0.003 A 
ATOM      6  C6  DEN d   1       1.594   0.764   1.556  0.00  0.00     0.001 A 
ATOM      7  C7  DEN d   1       1.954   0.452   2.841  0.00  0.00     0.017 A 
ATOM      8  C8  DEN d   1       1.523  -0.756   3.372  0.00  0.00    -0.094 A 
ATOM      9  C9  DEN d   1       0.802  -1.656   2.605  0.00  0.00    -0.072 A 
ENDROOT
TORSDOF 0
ENDMDL
