MODEL 1
REMARK minimizedAffinity 2.34174991
REMARK minimizedRMSD -1
REMARK  0 active torsions:
REMARK  status: ('A' for Active; 'I' for Inactive)
ROOT
ATOM      1  C1  DEN d   1       2.777  -1.097   1.516  0.00  0.00     0.130 A 
ATOM      2  C2  DEN d   1       1.361  -0.745   1.461  0.00  0.00    -0.031 A 
ATOM      3  C3  DEN d   1       0.689  -1.373   2.617  0.00  0.00     0.027 A 
ATOM      4  C4  DEN d   1       1.700  -2.845   4.478  0.00  0.00     0.027 A 
ATOM      5  C5  DEN d   1       2.857  -3.430   4.942  0.00  0.00    -0.003 A 
ATOM      6  C6  DEN d   1       4.053  -3.307   4.284  0.00  0.00     0.001 A 
ATOM      7  C7  DEN d   1       4.127  -2.545   3.148  0.00  0.00     0.017 A 
ATOM      8  C8  DEN d   1       2.963  -1.959   2.670  0.00  0.00    -0.094 A 
ATOM      9  C9  DEN d   1       1.767  -2.084   3.356  0.00  0.00    -0.072 A 
ENDROOT
TORSDOF 0
ENDMDL
