MODEL 1
REMARK minimizedAffinity 2.69906259
REMARK minimizedRMSD -1
REMARK  0 active torsions:
REMARK  status: ('A' for Active; 'I' for Inactive)
ROOT
ATOM      1  N1  IND d   1       2.047  -4.517  -0.360  0.00  0.00    -0.196 N 
ATOM      2  C2  IND d   1       3.336  -4.254   0.013  0.00  0.00     0.054 A 
ATOM      3  C3  IND d   1       3.462  -2.961   0.387  0.00  0.00    -0.031 A 
ATOM      4  C4  IND d   1       1.666  -1.126   0.562  0.00  0.00     0.051 A 
ATOM      5  C5  IND d   1       0.348  -0.879   0.295  0.00  0.00    -0.031 A 
ATOM      6  C6  IND d   1      -0.488  -1.853  -0.212  0.00  0.00     0.015 A 
ATOM      7  C7  IND d   1      -0.038  -3.119  -0.461  0.00  0.00    -0.016 A 
ATOM      8  C8  IND d   1       1.301  -3.371  -0.197  0.00  0.00    -0.047 A 
ATOM      9  C9  IND d   1       2.164  -2.375   0.277  0.00  0.00    -0.096 A 
ATOM     10  HN1 IND d   1       1.753  -5.272  -0.647  0.00  0.00     0.298 HD
ENDROOT
TORSDOF 0
ENDMDL
