MODEL 1
REMARK minimizedAffinity -2.46191859
REMARK minimizedRMSD -1
REMARK  0 active torsions:
REMARK  status: ('A' for Active; 'I' for Inactive)
ROOT
ATOM      1  N1  IND d   1       1.338  -0.176   1.064  0.00  0.00    -0.196 N 
ATOM      2  C2  IND d   1       0.051  -0.341   1.495  0.00  0.00     0.054 A 
ATOM      3  C3  IND d   1      -0.342  -1.623   1.322  0.00  0.00    -0.031 A 
ATOM      4  C4  IND d   1       0.995  -3.640   0.446  0.00  0.00     0.051 A 
ATOM      5  C5  IND d   1       2.201  -3.977  -0.103  0.00  0.00    -0.031 A 
ATOM      6  C6  IND d   1       3.201  -3.045  -0.293  0.00  0.00     0.015 A 
ATOM      7  C7  IND d   1       3.037  -1.739   0.072  0.00  0.00    -0.016 A 
ATOM      8  C8  IND d   1       1.811  -1.392   0.623  0.00  0.00    -0.047 A 
ATOM      9  C9  IND d   1       0.777  -2.324   0.779  0.00  0.00    -0.096 A 
ATOM     10  HN1 IND d   1       1.777   0.563   1.067  0.00  0.00     0.298 HD
ENDROOT
TORSDOF 0
ENDMDL
