MODEL 1
REMARK minimizedAffinity -4.18789721
REMARK minimizedRMSD -1
REMARK  0 active torsions:
REMARK  status: ('A' for Active; 'I' for Inactive)
ROOT
ATOM      1  N1  IND d   1       2.402  -4.720  -0.227  0.00  0.00    -0.196 N 
ATOM      2  C2  IND d   1       3.709  -4.323  -0.172  0.00  0.00     0.054 A 
ATOM      3  C3  IND d   1       3.786  -2.984  -0.002  0.00  0.00    -0.031 A 
ATOM      4  C4  IND d   1       1.897  -1.263   0.314  0.00  0.00     0.051 A 
ATOM      5  C5  IND d   1       0.536  -1.144   0.303  0.00  0.00    -0.031 A 
ATOM      6  C6  IND d   1      -0.290  -2.234   0.113  0.00  0.00     0.015 A 
ATOM      7  C7  IND d   1       0.217  -3.490  -0.061  0.00  0.00    -0.016 A 
ATOM      8  C8  IND d   1       1.600  -3.614  -0.058  0.00  0.00    -0.047 A 
ATOM      9  C9  IND d   1       2.443  -2.505   0.092  0.00  0.00    -0.096 A 
ATOM     10  HN1 IND d   1       2.128  -5.526  -0.346  0.00  0.00     0.298 HD
ENDROOT
TORSDOF 0
ENDMDL
