MODEL 1
REMARK minimizedAffinity 3.32166839
REMARK minimizedRMSD -1
REMARK  0 active torsions:
REMARK  status: ('A' for Active; 'I' for Inactive)
ROOT
ATOM      1  N1  IND d   1       3.646  -2.221   0.768  0.00  0.00    -0.196 N 
ATOM      2  C2  IND d   1       4.093  -1.090   1.392  0.00  0.00     0.054 A 
ATOM      3  C3  IND d   1       3.049  -0.323   1.781  0.00  0.00    -0.031 A 
ATOM      4  C4  IND d   1       0.523  -0.779   1.585  0.00  0.00     0.051 A 
ATOM      5  C5  IND d   1      -0.374  -1.664   1.057  0.00  0.00    -0.031 A 
ATOM      6  C6  IND d   1       0.031  -2.805   0.395  0.00  0.00     0.015 A 
ATOM      7  C7  IND d   1       1.354  -3.110   0.245  0.00  0.00    -0.016 A 
ATOM      8  C8  IND d   1       2.268  -2.209   0.774  0.00  0.00    -0.047 A 
ATOM      9  C9  IND d   1       1.864  -1.028   1.410  0.00  0.00    -0.096 A 
ATOM     10  HN1 IND d   1       4.142  -2.836   0.429  0.00  0.00     0.298 HD
ENDROOT
TORSDOF 0
ENDMDL
