MODEL 1
REMARK minimizedAffinity -2.77283692
REMARK minimizedRMSD -1
REMARK  0 active torsions:
REMARK  status: ('A' for Active; 'I' for Inactive)
ROOT
ATOM      1  N1  IND d   1       3.060  -5.178   0.050  0.00  0.00    -0.196 N 
ATOM      2  C2  IND d   1       4.401  -4.966  -0.109  0.00  0.00     0.054 A 
ATOM      3  C3  IND d   1       4.662  -3.642  -0.192  0.00  0.00    -0.031 A 
ATOM      4  C4  IND d   1       3.053  -1.642   0.009  0.00  0.00     0.051 A 
ATOM      5  C5  IND d   1       1.726  -1.335   0.123  0.00  0.00    -0.031 A 
ATOM      6  C6  IND d   1       0.757  -2.312   0.222  0.00  0.00     0.015 A 
ATOM      7  C7  IND d   1       1.081  -3.639   0.224  0.00  0.00    -0.016 A 
ATOM      8  C8  IND d   1       2.427  -3.955   0.102  0.00  0.00    -0.047 A 
ATOM      9  C9  IND d   1       3.411  -2.969  -0.043  0.00  0.00    -0.096 A 
ATOM     10  HN1 IND d   1       2.677  -5.945   0.107  0.00  0.00     0.298 HD
ENDROOT
TORSDOF 0
ENDMDL
