MODEL 1
REMARK minimizedAffinity -2.25791168
REMARK minimizedRMSD -1
REMARK  0 active torsions:
REMARK  status: ('A' for Active; 'I' for Inactive)
ROOT
ATOM      1  N1  IND d   1       1.336  -4.071  -0.369  0.00  0.00    -0.196 N 
ATOM      2  C2  IND d   1       2.694  -3.918  -0.426  0.00  0.00     0.054 A 
ATOM      3  C3  IND d   1       3.038  -2.651  -0.103  0.00  0.00    -0.031 A 
ATOM      4  C4  IND d   1       1.547  -0.693   0.651  0.00  0.00     0.051 A 
ATOM      5  C5  IND d   1       0.238  -0.339   0.822  0.00  0.00    -0.031 A 
ATOM      6  C6  IND d   1      -0.793  -1.230   0.602  0.00  0.00     0.015 A 
ATOM      7  C7  IND d   1      -0.551  -2.517   0.213  0.00  0.00    -0.016 A 
ATOM      8  C8  IND d   1       0.777  -2.878   0.033  0.00  0.00    -0.047 A 
ATOM      9  C9  IND d   1       1.825  -1.966   0.213  0.00  0.00    -0.096 A 
ATOM     10  HN1 IND d   1       0.905  -4.792  -0.552  0.00  0.00     0.298 HD
ENDROOT
TORSDOF 0
ENDMDL
