MODEL 1
REMARK minimizedAffinity -5.48068953
REMARK minimizedRMSD -1
REMARK  0 active torsions:
REMARK  status: ('A' for Active; 'I' for Inactive)
ROOT
ATOM      1  N1  IND d   1      -0.877  -2.651   1.169  0.00  0.00    -0.196 N 
ATOM      2  C2  IND d   1      -1.410  -1.451   1.549  0.00  0.00     0.054 A 
ATOM      3  C3  IND d   1      -0.474  -0.478   1.481  0.00  0.00    -0.031 A 
ATOM      4  C4  IND d   1       1.968  -0.611   0.675  0.00  0.00     0.051 A 
ATOM      5  C5  IND d   1       2.919  -1.502   0.263  0.00  0.00    -0.031 A 
ATOM      6  C6  IND d   1       2.647  -2.848   0.126  0.00  0.00     0.015 A 
ATOM      7  C7  IND d   1       1.405  -3.354   0.387  0.00  0.00    -0.016 A 
ATOM      8  C8  IND d   1       0.439  -2.454   0.813  0.00  0.00    -0.047 A 
ATOM      9  C9  IND d   1       0.720  -1.093   0.994  0.00  0.00    -0.096 A 
ATOM     10  HN1 IND d   1      -1.294  -3.403   1.155  0.00  0.00     0.298 HD
ENDROOT
TORSDOF 0
ENDMDL
