MODEL 1
REMARK minimizedAffinity 2.15488362
REMARK minimizedRMSD -1
REMARK  0 active torsions:
REMARK  status: ('A' for Active; 'I' for Inactive)
ROOT
ATOM      1  N1  IND d   1       3.153  -0.242   2.534  0.00  0.00    -0.196 N 
ATOM      2  C2  IND d   1       4.220  -0.702   1.814  0.00  0.00     0.054 A 
ATOM      3  C3  IND d   1       3.798  -1.293   0.673  0.00  0.00    -0.031 A 
ATOM      4  C4  IND d   1       1.411  -1.525  -0.262  0.00  0.00     0.051 A 
ATOM      5  C5  IND d   1       0.102  -1.291   0.055  0.00  0.00    -0.031 A 
ATOM      6  C6  IND d   1      -0.264  -0.681   1.237  0.00  0.00     0.015 A 
ATOM      7  C7  IND d   1       0.671  -0.270   2.145  0.00  0.00    -0.016 A 
ATOM      8  C8  IND d   1       2.000  -0.512   1.830  0.00  0.00    -0.047 A 
ATOM      9  C9  IND d   1       2.375  -1.168   0.651  0.00  0.00    -0.096 A 
ATOM     10  HN1 IND d   1       3.195   0.151   3.298  0.00  0.00     0.298 HD
ENDROOT
TORSDOF 0
ENDMDL
