MODEL 1
REMARK minimizedAffinity 0.530578375
REMARK minimizedRMSD -1
REMARK  0 active torsions:
REMARK  status: ('A' for Active; 'I' for Inactive)
ROOT
ATOM      1  N1  IND d   1       0.990  -0.373   1.282  0.00  0.00    -0.196 N 
ATOM      2  C2  IND d   1      -0.316  -0.514   1.660  0.00  0.00     0.054 A 
ATOM      3  C3  IND d   1      -0.778  -1.735   1.310  0.00  0.00    -0.031 A 
ATOM      4  C4  IND d   1       0.464  -3.697   0.199  0.00  0.00     0.051 A 
ATOM      5  C5  IND d   1       1.663  -4.032  -0.365  0.00  0.00    -0.031 A 
ATOM      6  C6  IND d   1       2.722  -3.147  -0.407  0.00  0.00     0.015 A 
ATOM      7  C7  IND d   1       2.623  -1.893   0.126  0.00  0.00    -0.016 A 
ATOM      8  C8  IND d   1       1.405  -1.547   0.693  0.00  0.00    -0.047 A 
ATOM      9  C9  IND d   1       0.314  -2.426   0.701  0.00  0.00    -0.096 A 
ATOM     10  HN1 IND d   1       1.472   0.330   1.394  0.00  0.00     0.298 HD
ENDROOT
TORSDOF 0
ENDMDL
