MODEL 1
REMARK minimizedAffinity -3.06920052
REMARK minimizedRMSD -1
REMARK  0 active torsions:
REMARK  status: ('A' for Active; 'I' for Inactive)
ROOT
ATOM      1  N1  IND d   1       2.914  -2.934   0.116  0.00  0.00    -0.196 N 
ATOM      2  C2  IND d   1       2.405  -4.175  -0.144  0.00  0.00     0.054 A 
ATOM      3  C3  IND d   1       1.058  -4.165  -0.026  0.00  0.00    -0.031 A 
ATOM      4  C4  IND d   1      -0.524  -2.201   0.485  0.00  0.00     0.051 A 
ATOM      5  C5  IND d   1      -0.523  -0.879   0.832  0.00  0.00    -0.031 A 
ATOM      6  C6  IND d   1       0.647  -0.159   0.958  0.00  0.00     0.015 A 
ATOM      7  C7  IND d   1       1.865  -0.734   0.729  0.00  0.00    -0.016 A 
ATOM      8  C8  IND d   1       1.868  -2.078   0.384  0.00  0.00    -0.047 A 
ATOM      9  C9  IND d   1       0.686  -2.824   0.297  0.00  0.00    -0.096 A 
ATOM     10  HN1 IND d   1       3.748  -2.723   0.114  0.00  0.00     0.298 HD
ENDROOT
TORSDOF 0
ENDMDL
