MODEL 1
REMARK minimizedAffinity -3.71933246
REMARK minimizedRMSD -1
REMARK  0 active torsions:
REMARK  status: ('A' for Active; 'I' for Inactive)
ROOT
ATOM      1  N1  IND d   1       3.305  -2.634   0.221  0.00  0.00    -0.196 N 
ATOM      2  C2  IND d   1       3.341  -3.988   0.036  0.00  0.00     0.054 A 
ATOM      3  C3  IND d   1       2.094  -4.505   0.105  0.00  0.00    -0.031 A 
ATOM      4  C4  IND d   1      -0.162  -3.302   0.411  0.00  0.00     0.051 A 
ATOM      5  C5  IND d   1      -0.701  -2.071   0.658  0.00  0.00    -0.031 A 
ATOM      6  C6  IND d   1       0.083  -0.941   0.771  0.00  0.00     0.015 A 
ATOM      7  C7  IND d   1       1.441  -0.999   0.629  0.00  0.00    -0.016 A 
ATOM      8  C8  IND d   1       1.992  -2.249   0.386  0.00  0.00    -0.047 A 
ATOM      9  C9  IND d   1       1.206  -3.406   0.313  0.00  0.00    -0.096 A 
ATOM     10  HN1 IND d   1       3.987  -2.111   0.232  0.00  0.00     0.298 HD
ENDROOT
TORSDOF 0
ENDMDL
