MODEL 1
REMARK minimizedAffinity 0.35929361
REMARK minimizedRMSD -1
REMARK  0 active torsions:
REMARK  status: ('A' for Active; 'I' for Inactive)
ROOT
ATOM      1  N1  IND d   1       2.790  -4.424   0.214  0.00  0.00    -0.196 N 
ATOM      2  C2  IND d   1       4.045  -3.915   0.022  0.00  0.00     0.054 A 
ATOM      3  C3  IND d   1       4.026  -2.567   0.126  0.00  0.00    -0.031 A 
ATOM      4  C4  IND d   1       2.070  -0.998   0.708  0.00  0.00     0.051 A 
ATOM      5  C5  IND d   1       0.722  -0.995   0.933  0.00  0.00    -0.031 A 
ATOM      6  C6  IND d   1      -0.020  -2.159   0.933  0.00  0.00     0.015 A 
ATOM      7  C7  IND d   1       0.563  -3.375   0.718  0.00  0.00    -0.016 A 
ATOM      8  C8  IND d   1       1.930  -3.381   0.482  0.00  0.00    -0.047 A 
ATOM      9  C9  IND d   1       2.681  -2.200   0.438  0.00  0.00    -0.096 A 
ATOM     10  HN1 IND d   1       2.575  -5.255   0.175  0.00  0.00     0.298 HD
ENDROOT
TORSDOF 0
ENDMDL
