MODEL 1
REMARK minimizedAffinity -0.415955663
REMARK minimizedRMSD -1
REMARK  0 active torsions:
REMARK  status: ('A' for Active; 'I' for Inactive)
ROOT
ATOM      1  N1  IND d   1      -0.164  -1.294   0.933  0.00  0.00    -0.196 N 
ATOM      2  C2  IND d   1      -1.148  -2.210   0.687  0.00  0.00     0.054 A 
ATOM      3  C3  IND d   1      -0.609  -3.383   0.285  0.00  0.00    -0.031 A 
ATOM      4  C4  IND d   1       1.866  -4.053   0.059  0.00  0.00     0.051 A 
ATOM      5  C5  IND d   1       3.132  -3.544   0.139  0.00  0.00    -0.031 A 
ATOM      6  C6  IND d   1       3.368  -2.232   0.497  0.00  0.00     0.015 A 
ATOM      7  C7  IND d   1       2.344  -1.381   0.802  0.00  0.00    -0.016 A 
ATOM      8  C8  IND d   1       1.057  -1.893   0.715  0.00  0.00    -0.047 A 
ATOM      9  C9  IND d   1       0.809  -3.211   0.311  0.00  0.00    -0.096 A 
ATOM     10  HN1 IND d   1      -0.287  -0.480   1.183  0.00  0.00     0.298 HD
ENDROOT
TORSDOF 0
ENDMDL
