MODEL 1
REMARK minimizedAffinity -2.37265229
REMARK minimizedRMSD -1
REMARK  0 active torsions:
REMARK  status: ('A' for Active; 'I' for Inactive)
ROOT
ATOM      1  N1  IND d   1       3.016  -2.975   0.325  0.00  0.00    -0.196 N 
ATOM      2  C2  IND d   1       2.555  -4.226   0.023  0.00  0.00     0.054 A 
ATOM      3  C3  IND d   1       1.203  -4.244   0.030  0.00  0.00    -0.031 A 
ATOM      4  C4  IND d   1      -0.455  -2.312   0.411  0.00  0.00     0.051 A 
ATOM      5  C5  IND d   1      -0.509  -0.991   0.758  0.00  0.00    -0.031 A 
ATOM      6  C6  IND d   1       0.633  -0.249   0.980  0.00  0.00     0.015 A 
ATOM      7  C7  IND d   1       1.877  -0.799   0.852  0.00  0.00    -0.016 A 
ATOM      8  C8  IND d   1       1.935  -2.142   0.507  0.00  0.00    -0.047 A 
ATOM      9  C9  IND d   1       0.779  -2.911   0.322  0.00  0.00    -0.096 A 
ATOM     10  HN1 IND d   1       3.843  -2.748   0.391  0.00  0.00     0.298 HD
ENDROOT
TORSDOF 0
ENDMDL
