MODEL 1
REMARK minimizedAffinity -2.75550699
REMARK minimizedRMSD -1
REMARK  0 active torsions:
REMARK  status: ('A' for Active; 'I' for Inactive)
ROOT
ATOM      1  N1  IND d   1       0.746  -0.125   0.742  0.00  0.00    -0.196 N 
ATOM      2  C2  IND d   1      -0.620  -0.101   0.698  0.00  0.00     0.054 A 
ATOM      3  C3  IND d   1      -1.097  -1.277   0.232  0.00  0.00    -0.031 A 
ATOM      4  C4  IND d   1       0.180  -3.415  -0.422  0.00  0.00     0.051 A 
ATOM      5  C5  IND d   1       1.444  -3.908  -0.584  0.00  0.00    -0.031 A 
ATOM      6  C6  IND d   1       2.563  -3.150  -0.304  0.00  0.00     0.015 A 
ATOM      7  C7  IND d   1       2.459  -1.870   0.161  0.00  0.00    -0.016 A 
ATOM      8  C8  IND d   1       1.176  -1.364   0.320  0.00  0.00    -0.047 A 
ATOM      9  C9  IND d   1       0.038  -2.113  -0.003  0.00  0.00    -0.096 A 
ATOM     10  HN1 IND d   1       1.252   0.524   0.991  0.00  0.00     0.298 HD
ENDROOT
TORSDOF 0
ENDMDL
