MODEL 1
REMARK minimizedAffinity 12.0455647
REMARK minimizedRMSD -1
REMARK  0 active torsions:
REMARK  status: ('A' for Active; 'I' for Inactive)
ROOT
ATOM      1  N1  IND d   1      -2.884   2.065   4.229  0.00  0.00    -0.196 N 
ATOM      2  C2  IND d   1      -2.927   2.642   2.990  0.00  0.00     0.054 A 
ATOM      3  C3  IND d   1      -1.983   2.103   2.187  0.00  0.00    -0.031 A 
ATOM      4  C4  IND d   1      -0.326   0.191   2.665  0.00  0.00     0.051 A 
ATOM      5  C5  IND d   1       0.115  -0.626   3.667  0.00  0.00    -0.031 A 
ATOM      6  C6  IND d   1      -0.434  -0.590   4.933  0.00  0.00     0.015 A 
ATOM      7  C7  IND d   1      -1.457   0.262   5.241  0.00  0.00    -0.016 A 
ATOM      8  C8  IND d   1      -1.903   1.098   4.228  0.00  0.00    -0.047 A 
ATOM      9  C9  IND d   1      -1.321   1.095   2.954  0.00  0.00    -0.096 A 
ATOM     10  HN1 IND d   1      -3.386   2.271   4.896  0.00  0.00     0.298 HD
ENDROOT
TORSDOF 0
ENDMDL
