MODEL 1
REMARK minimizedAffinity 2.75867701
REMARK minimizedRMSD -1
REMARK  0 active torsions:
REMARK  status: ('A' for Active; 'I' for Inactive)
ROOT
ATOM      1  N1  IND d   1       3.262  -5.959   0.042  0.00  0.00    -0.196 N 
ATOM      2  C2  IND d   1       4.617  -5.928  -0.138  0.00  0.00     0.054 A 
ATOM      3  C3  IND d   1       5.048  -4.650  -0.244  0.00  0.00    -0.031 A 
ATOM      4  C4  IND d   1       3.719  -2.454  -0.048  0.00  0.00     0.051 A 
ATOM      5  C5  IND d   1       2.446  -1.973   0.080  0.00  0.00    -0.031 A 
ATOM      6  C6  IND d   1       1.359  -2.813   0.207  0.00  0.00     0.015 A 
ATOM      7  C7  IND d   1       1.506  -4.171   0.223  0.00  0.00    -0.016 A 
ATOM      8  C8  IND d   1       2.796  -4.663   0.086  0.00  0.00    -0.047 A 
ATOM      9  C9  IND d   1       3.899  -3.817  -0.087  0.00  0.00    -0.096 A 
ATOM     10  HN1 IND d   1       2.782  -6.668   0.117  0.00  0.00     0.298 HD
ENDROOT
TORSDOF 0
ENDMDL
