MODEL 1
REMARK minimizedAffinity 7.52230978
REMARK minimizedRMSD -1
REMARK  0 active torsions:
REMARK  status: ('A' for Active; 'I' for Inactive)
ROOT
ATOM      1  C2' OXE d   1       3.017   4.043  -0.588  0.00  0.00     0.078 C 
ATOM      2  C1' OXE d   1       4.900   5.963  -1.391  0.00  0.00     0.078 C 
ATOM      3  C1  OXE d   1       4.982   5.446   0.023  0.00  0.00    -0.078 A 
ATOM      4  C2  OXE d   1       4.028   4.541   0.422  0.00  0.00    -0.078 A 
ATOM      5  C3  OXE d   1       4.090   3.991   1.699  0.00  0.00     0.003 A 
ATOM      6  C4  OXE d   1       5.022   4.465   2.630  0.00  0.00    -0.002 A 
ATOM      7  C5  OXE d   1       5.978   5.415   2.257  0.00  0.00    -0.002 A 
ATOM      8  C6  OXE d   1       5.999   5.884   0.948  0.00  0.00     0.003 A 
ENDROOT
TORSDOF 0
ENDMDL
