MODEL 1
REMARK minimizedAffinity 13.9625378
REMARK minimizedRMSD -1
REMARK  0 active torsions:
REMARK  status: ('A' for Active; 'I' for Inactive)
ROOT
ATOM      1  C2' OXE d   1      -3.523  -1.024   3.789  0.00  0.00     0.078 C 
ATOM      2  C1' OXE d   1      -5.999  -0.120   2.823  0.00  0.00     0.078 C 
ATOM      3  C1  OXE d   1      -4.861   0.868   2.874  0.00  0.00    -0.078 A 
ATOM      4  C2  OXE d   1      -3.666   0.430   3.392  0.00  0.00    -0.078 A 
ATOM      5  C3  OXE d   1      -2.568   1.285   3.411  0.00  0.00     0.003 A 
ATOM      6  C4  OXE d   1      -2.711   2.630   3.051  0.00  0.00    -0.002 A 
ATOM      7  C5  OXE d   1      -3.930   3.108   2.558  0.00  0.00    -0.002 A 
ATOM      8  C6  OXE d   1      -5.000   2.231   2.423  0.00  0.00     0.003 A 
ENDROOT
TORSDOF 0
ENDMDL
