MODEL 1
REMARK minimizedAffinity 13.0453825
REMARK minimizedRMSD -1
REMARK  0 active torsions:
REMARK  status: ('A' for Active; 'I' for Inactive)
ROOT
ATOM      1  C2' OXE d   1       3.972  -1.377  -0.314  0.00  0.00     0.078 C 
ATOM      2  C1' OXE d   1       5.182   0.099  -2.372  0.00  0.00     0.078 C 
ATOM      3  C1  OXE d   1       3.685   0.200  -2.221  0.00  0.00    -0.078 A 
ATOM      4  C2  OXE d   1       3.096  -0.562  -1.241  0.00  0.00    -0.078 A 
ATOM      5  C3  OXE d   1       1.724  -0.465  -1.023  0.00  0.00     0.003 A 
ATOM      6  C4  OXE d   1       0.920   0.283  -1.892  0.00  0.00    -0.002 A 
ATOM      7  C5  OXE d   1       1.495   1.035  -2.921  0.00  0.00    -0.002 A 
ATOM      8  C6  OXE d   1       2.877   1.038  -3.073  0.00  0.00     0.003 A 
ENDROOT
TORSDOF 0
ENDMDL
