MODEL 1
REMARK minimizedAffinity 16.7814426
REMARK minimizedRMSD -1
REMARK  0 active torsions:
REMARK  status: ('A' for Active; 'I' for Inactive)
ROOT
ATOM      1  C2' OXE d   1      -1.746   0.127  -0.360  0.00  0.00     0.078 C 
ATOM      2  C1' OXE d   1      -1.972   2.420  -1.963  0.00  0.00     0.078 C 
ATOM      3  C1  OXE d   1      -0.681   1.644  -2.024  0.00  0.00    -0.078 A 
ATOM      4  C2  OXE d   1      -0.561   0.550  -1.201  0.00  0.00    -0.078 A 
ATOM      5  C3  OXE d   1       0.588  -0.233  -1.258  0.00  0.00     0.003 A 
ATOM      6  C4  OXE d   1       1.684   0.171  -2.030  0.00  0.00    -0.002 A 
ATOM      7  C5  OXE d   1       1.598   1.305  -2.846  0.00  0.00    -0.002 A 
ATOM      8  C6  OXE d   1       0.410   2.027  -2.886  0.00  0.00     0.003 A 
ENDROOT
TORSDOF 0
ENDMDL
