MODEL 1
REMARK minimizedAffinity 2.96271014
REMARK minimizedRMSD -1
REMARK  0 active torsions:
REMARK  status: ('A' for Active; 'I' for Inactive)
ROOT
ATOM      1  C2' OXE d   1       2.264   2.992  -2.549  0.00  0.00     0.078 C 
ATOM      2  C1' OXE d   1      -0.223   1.776  -3.015  0.00  0.00     0.078 C 
ATOM      3  C1  OXE d   1       0.849   0.951  -2.349  0.00  0.00    -0.078 A 
ATOM      4  C2  OXE d   1       2.078   1.539  -2.167  0.00  0.00    -0.078 A 
ATOM      5  C3  OXE d   1       3.086   0.840  -1.508  0.00  0.00     0.003 A 
ATOM      6  C4  OXE d   1       2.909  -0.506  -1.168  0.00  0.00    -0.002 A 
ATOM      7  C5  OXE d   1       1.679  -1.136  -1.380  0.00  0.00    -0.002 A 
ATOM      8  C6  OXE d   1       0.627  -0.411  -1.930  0.00  0.00     0.003 A 
ENDROOT
TORSDOF 0
ENDMDL
