MODEL 1
REMARK minimizedAffinity 5.86132669
REMARK minimizedRMSD -1
REMARK  0 active torsions:
REMARK  status: ('A' for Active; 'I' for Inactive)
ROOT
ATOM      1  C2' OXE d   1       0.468   0.082  -3.655  0.00  0.00     0.078 C 
ATOM      2  C1' OXE d   1       0.386  -2.666  -3.089  0.00  0.00     0.078 C 
ATOM      3  C1  OXE d   1       1.501  -1.854  -2.477  0.00  0.00    -0.078 A 
ATOM      4  C2  OXE d   1       1.561  -0.520  -2.798  0.00  0.00    -0.078 A 
ATOM      5  C3  OXE d   1       2.537   0.286  -2.218  0.00  0.00     0.003 A 
ATOM      6  C4  OXE d   1       3.549  -0.281  -1.433  0.00  0.00    -0.002 A 
ATOM      7  C5  OXE d   1       3.529  -1.646  -1.127  0.00  0.00    -0.002 A 
ATOM      8  C6  OXE d   1       2.491  -2.437  -1.605  0.00  0.00     0.003 A 
ENDROOT
TORSDOF 0
ENDMDL
