MODEL 1
REMARK minimizedAffinity 16.9400101
REMARK minimizedRMSD -1
REMARK  0 active torsions:
REMARK  status: ('A' for Active; 'I' for Inactive)
ROOT
ATOM      1  C2' OXE d   1       1.687   0.892  -2.811  0.00  0.00     0.078 C 
ATOM      2  C1' OXE d   1       0.261  -0.137  -4.999  0.00  0.00     0.078 C 
ATOM      3  C1  OXE d   1       0.692  -1.102  -3.922  0.00  0.00    -0.078 A 
ATOM      4  C2  OXE d   1       1.429  -0.597  -2.879  0.00  0.00    -0.078 A 
ATOM      5  C3  OXE d   1       1.804  -1.434  -1.831  0.00  0.00     0.003 A 
ATOM      6  C4  OXE d   1       1.570  -2.812  -1.907  0.00  0.00    -0.002 A 
ATOM      7  C5  OXE d   1       0.856  -3.354  -2.981  0.00  0.00    -0.002 A 
ATOM      8  C6  OXE d   1       0.373  -2.508  -3.973  0.00  0.00     0.003 A 
ENDROOT
TORSDOF 0
ENDMDL
