MODEL 1
REMARK minimizedAffinity 6.15361214
REMARK minimizedRMSD -1
REMARK  0 active torsions:
REMARK  status: ('A' for Active; 'I' for Inactive)
ROOT
ATOM      1  C2' OXE d   1       0.387   2.436  -5.281  0.00  0.00     0.078 C 
ATOM      2  C1' OXE d   1       2.437   3.744  -3.880  0.00  0.00     0.078 C 
ATOM      3  C1  OXE d   1       2.011   2.381  -3.394  0.00  0.00    -0.078 A 
ATOM      4  C2  OXE d   1       0.975   1.769  -4.057  0.00  0.00    -0.078 A 
ATOM      5  C3  OXE d   1       0.579   0.488  -3.684  0.00  0.00     0.003 A 
ATOM      6  C4  OXE d   1       1.122  -0.118  -2.544  0.00  0.00    -0.002 A 
ATOM      7  C5  OXE d   1       2.151   0.505  -1.830  0.00  0.00    -0.002 A 
ATOM      8  C6  OXE d   1       2.635   1.734  -2.266  0.00  0.00     0.003 A 
ENDROOT
TORSDOF 0
ENDMDL
