MODEL 1
REMARK minimizedAffinity 18.4760151
REMARK minimizedRMSD -1
REMARK  0 active torsions:
REMARK  status: ('A' for Active; 'I' for Inactive)
ROOT
ATOM      1  C2' OXE d   1      -2.319   3.060   3.383  0.00  0.00     0.078 C 
ATOM      2  C1' OXE d   1      -5.101   3.038   3.753  0.00  0.00     0.078 C 
ATOM      3  C1  OXE d   1      -4.304   4.096   4.474  0.00  0.00    -0.078 A 
ATOM      4  C2  OXE d   1      -2.938   4.070   4.325  0.00  0.00    -0.078 A 
ATOM      5  C3  OXE d   1      -2.161   5.057   4.924  0.00  0.00     0.003 A 
ATOM      6  C4  OXE d   1      -2.741   5.981   5.801  0.00  0.00    -0.002 A 
ATOM      7  C5  OXE d   1      -4.125   6.000   5.999  0.00  0.00    -0.002 A 
ATOM      8  C6  OXE d   1      -4.924   5.093   5.312  0.00  0.00     0.003 A 
ENDROOT
TORSDOF 0
ENDMDL
