MODEL 1
REMARK minimizedAffinity 6.5745821
REMARK minimizedRMSD -1
REMARK  0 active torsions:
REMARK  status: ('A' for Active; 'I' for Inactive)
ROOT
ATOM      1  C2' OXE d   1       5.209   5.999  -1.377  0.00  0.00     0.078 C 
ATOM      2  C1' OXE d   1       2.912   4.538  -0.692  0.00  0.00     0.078 C 
ATOM      3  C1  OXE d   1       3.919   4.817   0.396  0.00  0.00    -0.078 A 
ATOM      4  C2  OXE d   1       5.062   5.492   0.041  0.00  0.00    -0.078 A 
ATOM      5  C3  OXE d   1       5.998   5.822   1.017  0.00  0.00     0.003 A 
ATOM      6  C4  OXE d   1       5.860   5.340   2.324  0.00  0.00    -0.002 A 
ATOM      7  C5  OXE d   1       4.722   4.617   2.697  0.00  0.00    -0.002 A 
ATOM      8  C6  OXE d   1       3.724   4.383   1.757  0.00  0.00     0.003 A 
ENDROOT
TORSDOF 0
ENDMDL
