MODEL 1
REMARK minimizedAffinity 7.46863031
REMARK minimizedRMSD -1
REMARK  0 active torsions:
REMARK  status: ('A' for Active; 'I' for Inactive)
ROOT
ATOM      1  C2' OXE d   1      -1.927  -0.757   5.101  0.00  0.00     0.078 C 
ATOM      2  C1' OXE d   1      -3.131   1.776   5.000  0.00  0.00     0.078 C 
ATOM      3  C1  OXE d   1      -3.704   0.690   4.125  0.00  0.00    -0.078 A 
ATOM      4  C2  OXE d   1      -3.079  -0.534   4.146  0.00  0.00    -0.078 A 
ATOM      5  C3  OXE d   1      -3.600  -1.587   3.399  0.00  0.00     0.003 A 
ATOM      6  C4  OXE d   1      -4.661  -1.369   2.511  0.00  0.00    -0.002 A 
ATOM      7  C5  OXE d   1      -5.286  -0.119   2.445  0.00  0.00    -0.002 A 
ATOM      8  C6  OXE d   1      -4.848   0.907   3.275  0.00  0.00     0.003 A 
ENDROOT
TORSDOF 0
ENDMDL
