MODEL 1
REMARK minimizedAffinity 6.32937622
REMARK minimizedRMSD -1
REMARK  0 active torsions:
REMARK  status: ('A' for Active; 'I' for Inactive)
ROOT
ATOM      1  C2' OXE d   1       1.345   1.280  -3.565  0.00  0.00     0.078 C 
ATOM      2  C1' OXE d   1       4.012   1.428  -4.429  0.00  0.00     0.078 C 
ATOM      3  C1  OXE d   1       3.080   2.544  -4.829  0.00  0.00    -0.078 A 
ATOM      4  C2  OXE d   1       1.766   2.439  -4.442  0.00  0.00    -0.078 A 
ATOM      5  C3  OXE d   1       0.876   3.468  -4.738  0.00  0.00     0.003 A 
ATOM      6  C4  OXE d   1       1.270   4.532  -5.558  0.00  0.00    -0.002 A 
ATOM      7  C5  OXE d   1       2.594   4.637  -5.997  0.00  0.00    -0.002 A 
ATOM      8  C6  OXE d   1       3.520   3.675  -5.607  0.00  0.00     0.003 A 
ENDROOT
TORSDOF 0
ENDMDL
