MODEL 1
REMARK minimizedAffinity 1.90197098
REMARK minimizedRMSD -1
REMARK  0 active torsions:
REMARK  status: ('A' for Active; 'I' for Inactive)
ROOT
ATOM      1  C2' OXE d   1       1.946   1.590  -4.784  0.00  0.00     0.078 C 
ATOM      2  C1' OXE d   1       2.724   3.895  -3.383  0.00  0.00     0.078 C 
ATOM      3  C1  OXE d   1       1.833   2.907  -2.673  0.00  0.00    -0.078 A 
ATOM      4  C2  OXE d   1       1.419   1.805  -3.382  0.00  0.00    -0.078 A 
ATOM      5  C3  OXE d   1       0.641   0.835  -2.756  0.00  0.00     0.003 A 
ATOM      6  C4  OXE d   1       0.150   1.047  -1.462  0.00  0.00    -0.002 A 
ATOM      7  C5  OXE d   1       0.527   2.181  -0.736  0.00  0.00    -0.002 A 
ATOM      8  C6  OXE d   1       1.400   3.099  -1.310  0.00  0.00     0.003 A 
ENDROOT
TORSDOF 0
ENDMDL
