MODEL 1
REMARK minimizedAffinity 3.30459547
REMARK minimizedRMSD -1
REMARK  0 active torsions:
REMARK  status: ('A' for Active; 'I' for Inactive)
ROOT
ATOM      1  C2' OXE d   1      -1.440  -0.699   4.440  0.00  0.00     0.078 C 
ATOM      2  C1' OXE d   1      -2.907   1.687   4.254  0.00  0.00     0.078 C 
ATOM      3  C1  OXE d   1      -3.515   0.440   3.663  0.00  0.00    -0.078 A 
ATOM      4  C2  OXE d   1      -2.770  -0.713   3.717  0.00  0.00    -0.078 A 
ATOM      5  C3  OXE d   1      -3.306  -1.904   3.236  0.00  0.00     0.003 A 
ATOM      6  C4  OXE d   1      -4.533  -1.907   2.560  0.00  0.00    -0.002 A 
ATOM      7  C5  OXE d   1      -5.290  -0.735   2.458  0.00  0.00    -0.002 A 
ATOM      8  C6  OXE d   1      -4.816   0.435   3.041  0.00  0.00     0.003 A 
ENDROOT
TORSDOF 0
ENDMDL
