MODEL 1
REMARK minimizedAffinity 7.0092988
REMARK minimizedRMSD -1
REMARK  0 active torsions:
REMARK  status: ('A' for Active; 'I' for Inactive)
ROOT
ATOM      1  C2' OXE d   1       1.742   3.793  -0.357  0.00  0.00     0.078 C 
ATOM      2  C1' OXE d   1       2.773   4.387  -2.900  0.00  0.00     0.078 C 
ATOM      3  C1  OXE d   1       1.935   3.142  -2.754  0.00  0.00    -0.078 A 
ATOM      4  C2  OXE d   1       1.473   2.834  -1.496  0.00  0.00    -0.078 A 
ATOM      5  C3  OXE d   1       0.651   1.726  -1.316  0.00  0.00     0.003 A 
ATOM      6  C4  OXE d   1       0.416   0.838  -2.373  0.00  0.00    -0.002 A 
ATOM      7  C5  OXE d   1       0.909   1.111  -3.653  0.00  0.00    -0.002 A 
ATOM      8  C6  OXE d   1       1.634   2.279  -3.869  0.00  0.00     0.003 A 
ENDROOT
TORSDOF 0
ENDMDL
