MODEL 1
REMARK minimizedAffinity 4.6388855
REMARK minimizedRMSD -1
REMARK  0 active torsions:
REMARK  status: ('A' for Active; 'I' for Inactive)
ROOT
ATOM      1  C2' OXE d   1       0.127   1.092  -1.484  0.00  0.00     0.078 C 
ATOM      2  C1' OXE d   1       2.310  -0.636  -1.133  0.00  0.00     0.078 C 
ATOM      3  C1  OXE d   1       2.367   0.344  -2.277  0.00  0.00    -0.078 A 
ATOM      4  C2  OXE d   1       1.273   1.154  -2.470  0.00  0.00    -0.078 A 
ATOM      5  C3  OXE d   1       1.296   2.115  -3.478  0.00  0.00     0.003 A 
ATOM      6  C4  OXE d   1       2.356   2.159  -4.391  0.00  0.00    -0.002 A 
ATOM      7  C5  OXE d   1       3.462   1.316  -4.237  0.00  0.00    -0.002 A 
ATOM      8  C6  OXE d   1       3.502   0.434  -3.162  0.00  0.00     0.003 A 
ENDROOT
TORSDOF 0
ENDMDL
