MODEL 1
REMARK minimizedAffinity 4.09977484
REMARK minimizedRMSD -1
REMARK  0 active torsions:
REMARK  status: ('A' for Active; 'I' for Inactive)
ROOT
ATOM      1  C2' OXE d   1       1.215   1.094  -2.960  0.00  0.00     0.078 C 
ATOM      2  C1' OXE d   1       3.375   1.237  -4.747  0.00  0.00     0.078 C 
ATOM      3  C1  OXE d   1       3.195   2.371  -3.769  0.00  0.00    -0.078 A 
ATOM      4  C2  OXE d   1       2.108   2.316  -2.930  0.00  0.00    -0.078 A 
ATOM      5  C3  OXE d   1       1.926   3.309  -1.972  0.00  0.00     0.003 A 
ATOM      6  C4  OXE d   1       2.751   4.440  -1.958  0.00  0.00    -0.002 A 
ATOM      7  C5  OXE d   1       3.840   4.536  -2.831  0.00  0.00    -0.002 A 
ATOM      8  C6  OXE d   1       4.100   3.492  -3.712  0.00  0.00     0.003 A 
ENDROOT
TORSDOF 0
ENDMDL
