MODEL 1
REMARK minimizedAffinity 13.119482
REMARK minimizedRMSD -1
REMARK  0 active torsions:
REMARK  status: ('A' for Active; 'I' for Inactive)
ROOT
ATOM      1  C2' OXE d   1      -3.154   1.873   0.140  0.00  0.00     0.078 C 
ATOM      2  C1' OXE d   1      -4.856  -0.323  -0.260  0.00  0.00     0.078 C 
ATOM      3  C1  OXE d   1      -4.202  -0.178   1.091  0.00  0.00    -0.078 A 
ATOM      4  C2  OXE d   1      -3.334   0.874   1.263  0.00  0.00    -0.078 A 
ATOM      5  C3  OXE d   1      -2.746   1.086   2.506  0.00  0.00     0.003 A 
ATOM      6  C4  OXE d   1      -2.909   0.152   3.536  0.00  0.00    -0.002 A 
ATOM      7  C5  OXE d   1      -3.758  -0.948   3.369  0.00  0.00    -0.002 A 
ATOM      8  C6  OXE d   1      -4.443  -1.104   2.170  0.00  0.00     0.003 A 
ENDROOT
TORSDOF 0
ENDMDL
