MODEL 1
REMARK minimizedAffinity 3.56594348
REMARK minimizedRMSD -1
REMARK  2 active torsions:
REMARK  status: ('A' for Active; 'I' for Inactive)
REMARK    1  A    between atoms: C1_2  and  C2_3 
REMARK    2  A    between atoms: C2_3  and  C3_4 
ROOT
ATOM      1  C3  UNL d   1      -1.657   2.475  -0.911  0.00  0.00    -0.075 A 
ATOM      2  C4  UNL d   1      -1.106   3.307   0.075  0.00  0.00     0.002 A 
ATOM      3  C5  UNL d   1      -1.641   4.573   0.313  0.00  0.00     0.002 A 
ATOM      4  C6  UNL d   1      -2.724   5.027  -0.436  0.00  0.00    -0.004 A 
ATOM      5  C7  UNL d   1      -3.269   4.216  -1.429  0.00  0.00     0.002 A 
ATOM      6  C8  UNL d   1      -2.739   2.947  -1.667  0.00  0.00     0.002 A 
ENDROOT
BRANCH   1   7
ATOM      7  C2  UNL d   1      -1.102   1.092  -1.153  0.00  0.00     0.056 C 
BRANCH   7   8
ATOM      8  C1  UNL d   1       0.312   1.082  -1.743  0.00  0.00     0.007 C 
ATOM      9  C   UNL d   1       0.732  -0.283  -2.273  0.00  0.00     0.009 C 
ENDBRANCH   7   8
ENDBRANCH   1   7
TORSDOF 2
ENDMDL
