MODEL 1
REMARK minimizedAffinity 0.371072501
REMARK minimizedRMSD -1
REMARK  2 active torsions:
REMARK  status: ('A' for Active; 'I' for Inactive)
REMARK    1  A    between atoms: C1_2  and  C2_3 
REMARK    2  A    between atoms: C2_3  and  C3_4 
ROOT
ATOM      1  C3  UNL d   1      -0.567  -1.708  -0.295  0.00  0.00    -0.075 A 
ATOM      2  C4  UNL d   1      -1.196  -0.550   0.187  0.00  0.00     0.002 A 
ATOM      3  C5  UNL d   1      -1.565  -0.451   1.529  0.00  0.00     0.002 A 
ATOM      4  C6  UNL d   1      -1.320  -1.509   2.402  0.00  0.00    -0.004 A 
ATOM      5  C7  UNL d   1      -0.711  -2.670   1.930  0.00  0.00     0.002 A 
ATOM      6  C8  UNL d   1      -0.337  -2.770   0.589  0.00  0.00     0.002 A 
ENDROOT
BRANCH   1   7
ATOM      7  C2  UNL d   1      -0.138  -1.809  -1.739  0.00  0.00     0.056 C 
BRANCH   7   8
ATOM      8  C1  UNL d   1      -0.468  -3.155  -2.395  0.00  0.00     0.007 C 
ATOM      9  C   UNL d   1      -0.213  -3.170  -3.896  0.00  0.00     0.009 C 
ENDBRANCH   7   8
ENDBRANCH   1   7
TORSDOF 2
ENDMDL
