MODEL 1
REMARK minimizedAffinity 2.3339653
REMARK minimizedRMSD -1
REMARK  2 active torsions:
REMARK  status: ('A' for Active; 'I' for Inactive)
REMARK    1  A    between atoms: C1_2  and  C2_3 
REMARK    2  A    between atoms: C2_3  and  C3_4 
ROOT
ATOM      1  C3  UNL d   1      -0.178  -2.723   0.334  0.00  0.00    -0.075 A 
ATOM      2  C4  UNL d   1      -0.180  -1.614  -0.525  0.00  0.00     0.002 A 
ATOM      3  C5  UNL d   1       0.168  -1.758  -1.868  0.00  0.00     0.002 A 
ATOM      4  C6  UNL d   1       0.531  -3.007  -2.367  0.00  0.00    -0.004 A 
ATOM      5  C7  UNL d   1       0.552  -4.112  -1.519  0.00  0.00     0.002 A 
ATOM      6  C8  UNL d   1       0.200  -3.972  -0.176  0.00  0.00     0.002 A 
ENDROOT
BRANCH   1   7
ATOM      7  C2  UNL d   1      -0.582  -2.579   1.782  0.00  0.00     0.056 C 
BRANCH   7   8
ATOM      8  C1  UNL d   1      -1.170  -1.208   2.133  0.00  0.00     0.007 C 
ATOM      9  C   UNL d   1      -1.199  -0.933   3.630  0.00  0.00     0.009 C 
ENDBRANCH   7   8
ENDBRANCH   1   7
TORSDOF 2
ENDMDL
