MODEL 1
REMARK minimizedAffinity 2.79939628
REMARK minimizedRMSD -1
REMARK  2 active torsions:
REMARK  status: ('A' for Active; 'I' for Inactive)
REMARK    1  A    between atoms: C1_2  and  C2_3 
REMARK    2  A    between atoms: C2_3  and  C3_4 
ROOT
ATOM      1  C3  UNL d   1       0.512  -0.409  -2.088  0.00  0.00    -0.075 A 
ATOM      2  C4  UNL d   1       0.407  -0.863  -3.411  0.00  0.00     0.002 A 
ATOM      3  C5  UNL d   1       0.014  -2.175  -3.680  0.00  0.00     0.002 A 
ATOM      4  C6  UNL d   1      -0.267  -3.050  -2.633  0.00  0.00    -0.004 A 
ATOM      5  C7  UNL d   1      -0.149  -2.614  -1.315  0.00  0.00     0.002 A 
ATOM      6  C8  UNL d   1       0.238  -1.301  -1.043  0.00  0.00     0.002 A 
ENDROOT
BRANCH   1   7
ATOM      7  C2  UNL d   1       0.907   1.018  -1.791  0.00  0.00     0.056 C 
BRANCH   7   8
ATOM      8  C1  UNL d   1       2.421   1.245  -1.723  0.00  0.00     0.007 C 
ATOM      9  C   UNL d   1       3.061   0.655  -0.473  0.00  0.00     0.009 C 
ENDBRANCH   7   8
ENDBRANCH   1   7
TORSDOF 2
ENDMDL
