MODEL 1
REMARK minimizedAffinity 6.0780139
REMARK minimizedRMSD -1
REMARK  2 active torsions:
REMARK  status: ('A' for Active; 'I' for Inactive)
REMARK    1  A    between atoms: C1_2  and  C2_3 
REMARK    2  A    between atoms: C2_3  and  C3_4 
ROOT
ATOM      1  C3  UNL d   1      -1.021  -0.217  -0.283  0.00  0.00    -0.075 A 
ATOM      2  C4  UNL d   1      -0.136  -0.800  -1.202  0.00  0.00     0.002 A 
ATOM      3  C5  UNL d   1       0.268  -2.127  -1.053  0.00  0.00     0.002 A 
ATOM      4  C6  UNL d   1      -0.199  -2.884   0.019  0.00  0.00    -0.004 A 
ATOM      5  C7  UNL d   1      -1.066  -2.310   0.947  0.00  0.00     0.002 A 
ATOM      6  C8  UNL d   1      -1.474  -0.984   0.798  0.00  0.00     0.002 A 
ENDROOT
BRANCH   1   7
ATOM      7  C2  UNL d   1      -1.484   1.210  -0.456  0.00  0.00     0.056 C 
BRANCH   7   8
ATOM      8  C1  UNL d   1      -2.993   1.352  -0.678  0.00  0.00     0.007 C 
ATOM      9  C   UNL d   1      -3.434   2.793  -0.899  0.00  0.00     0.009 C 
ENDBRANCH   7   8
ENDBRANCH   1   7
TORSDOF 2
ENDMDL
