MODEL 1
REMARK minimizedAffinity 6.34904718
REMARK minimizedRMSD -1
REMARK  2 active torsions:
REMARK  status: ('A' for Active; 'I' for Inactive)
REMARK    1  A    between atoms: C1_2  and  C2_3 
REMARK    2  A    between atoms: C2_3  and  C3_4 
ROOT
ATOM      1  C3  UNL d   1      -2.549   2.953  -0.186  0.00  0.00    -0.075 A 
ATOM      2  C4  UNL d   1      -1.996   3.731   0.842  0.00  0.00     0.002 A 
ATOM      3  C5  UNL d   1      -2.374   5.064   1.004  0.00  0.00     0.002 A 
ATOM      4  C6  UNL d   1      -3.300   5.639   0.136  0.00  0.00    -0.004 A 
ATOM      5  C7  UNL d   1      -3.844   4.880  -0.898  0.00  0.00     0.002 A 
ATOM      6  C8  UNL d   1      -3.471   3.545  -1.060  0.00  0.00     0.002 A 
ENDROOT
BRANCH   1   7
ATOM      7  C2  UNL d   1      -2.166   1.502  -0.348  0.00  0.00     0.056 C 
BRANCH   7   8
ATOM      8  C1  UNL d   1      -3.101   0.526   0.374  0.00  0.00     0.007 C 
ATOM      9  C   UNL d   1      -2.439  -0.805   0.705  0.00  0.00     0.009 C 
ENDBRANCH   7   8
ENDBRANCH   1   7
TORSDOF 2
ENDMDL
