MODEL 1
REMARK minimizedAffinity 7.0682168
REMARK minimizedRMSD -1
REMARK  2 active torsions:
REMARK  status: ('A' for Active; 'I' for Inactive)
REMARK    1  A    between atoms: C1_2  and  C2_3 
REMARK    2  A    between atoms: C2_3  and  C3_4 
ROOT
ATOM      1  C3  UNL d   1       0.872  -0.407  -1.534  0.00  0.00    -0.075 A 
ATOM      2  C4  UNL d   1       1.225  -0.803  -2.832  0.00  0.00     0.002 A 
ATOM      3  C5  UNL d   1       0.837  -2.051  -3.322  0.00  0.00     0.002 A 
ATOM      4  C6  UNL d   1       0.102  -2.920  -2.519  0.00  0.00    -0.004 A 
ATOM      5  C7  UNL d   1      -0.239  -2.543  -1.221  0.00  0.00     0.002 A 
ATOM      6  C8  UNL d   1       0.144  -1.294  -0.730  0.00  0.00     0.002 A 
ENDROOT
BRANCH   1   7
ATOM      7  C2  UNL d   1       1.264   0.954  -1.009  0.00  0.00     0.056 C 
BRANCH   7   8
ATOM      8  C1  UNL d   1       2.777   1.163  -0.887  0.00  0.00     0.007 C 
ATOM      9  C   UNL d   1       3.386   0.457   0.316  0.00  0.00     0.009 C 
ENDBRANCH   7   8
ENDBRANCH   1   7
TORSDOF 2
ENDMDL
