MODEL 1
REMARK minimizedAffinity 5.24493074
REMARK minimizedRMSD -1
REMARK  2 active torsions:
REMARK  status: ('A' for Active; 'I' for Inactive)
REMARK    1  A    between atoms: C1_2  and  C2_3 
REMARK    2  A    between atoms: C2_3  and  C3_4 
ROOT
ATOM      1  C3  UNL d   1       1.058  -0.471  -1.816  0.00  0.00    -0.075 A 
ATOM      2  C4  UNL d   1       1.370  -0.887  -3.118  0.00  0.00     0.002 A 
ATOM      3  C5  UNL d   1       0.797  -2.042  -3.650  0.00  0.00     0.002 A 
ATOM      4  C6  UNL d   1      -0.086  -2.801  -2.885  0.00  0.00    -0.004 A 
ATOM      5  C7  UNL d   1      -0.391  -2.406  -1.584  0.00  0.00     0.002 A 
ATOM      6  C8  UNL d   1       0.178  -1.248  -1.051  0.00  0.00     0.002 A 
ENDROOT
BRANCH   1   7
ATOM      7  C2  UNL d   1       1.652   0.795  -1.245  0.00  0.00     0.056 C 
BRANCH   7   8
ATOM      8  C1  UNL d   1       3.179   0.763  -1.115  0.00  0.00     0.007 C 
ATOM      9  C   UNL d   1       3.677  -0.302  -0.149  0.00  0.00     0.009 C 
ENDBRANCH   7   8
ENDBRANCH   1   7
TORSDOF 2
ENDMDL
