MODEL 1
REMARK minimizedAffinity 5.75748873
REMARK minimizedRMSD -1
REMARK  2 active torsions:
REMARK  status: ('A' for Active; 'I' for Inactive)
REMARK    1  A    between atoms: C1_2  and  C2_3 
REMARK    2  A    between atoms: C2_3  and  C3_4 
ROOT
ATOM      1  C3  UNL d   1       1.452  -0.867  -2.194  0.00  0.00    -0.075 A 
ATOM      2  C4  UNL d   1       0.670  -1.359  -1.139  0.00  0.00     0.002 A 
ATOM      3  C5  UNL d   1       0.011  -2.583  -1.256  0.00  0.00     0.002 A 
ATOM      4  C6  UNL d   1       0.117  -3.325  -2.431  0.00  0.00    -0.004 A 
ATOM      5  C7  UNL d   1       0.878  -2.839  -3.491  0.00  0.00     0.002 A 
ATOM      6  C8  UNL d   1       1.542  -1.616  -3.375  0.00  0.00     0.002 A 
ENDROOT
BRANCH   1   7
ATOM      7  C2  UNL d   1       2.192   0.443  -2.063  0.00  0.00     0.056 C 
BRANCH   7   8
ATOM      8  C1  UNL d   1       2.995   0.578  -0.765  0.00  0.00     0.007 C 
ATOM      9  C   UNL d   1       4.175  -0.381  -0.686  0.00  0.00     0.009 C 
ENDBRANCH   7   8
ENDBRANCH   1   7
TORSDOF 2
ENDMDL
