MODEL 1
REMARK minimizedAffinity 1.94246769
REMARK minimizedRMSD -1
REMARK  2 active torsions:
REMARK  status: ('A' for Active; 'I' for Inactive)
REMARK    1  A    between atoms: C1_2  and  C2_3 
REMARK    2  A    between atoms: C2_3  and  C3_4 
ROOT
ATOM      1  C3  UNL d   1      -1.958  -3.084  -0.195  0.00  0.00    -0.075 A 
ATOM      2  C4  UNL d   1      -1.219  -3.776   0.776  0.00  0.00     0.002 A 
ATOM      3  C5  UNL d   1      -0.582  -3.085   1.807  0.00  0.00     0.002 A 
ATOM      4  C6  UNL d   1      -0.666  -1.696   1.875  0.00  0.00    -0.004 A 
ATOM      5  C7  UNL d   1      -1.382  -0.997   0.906  0.00  0.00     0.002 A 
ATOM      6  C8  UNL d   1      -2.025  -1.686  -0.124  0.00  0.00     0.002 A 
ENDROOT
BRANCH   1   7
ATOM      7  C2  UNL d   1      -2.674  -3.827  -1.297  0.00  0.00     0.056 C 
BRANCH   7   8
ATOM      8  C1  UNL d   1      -1.930  -3.826  -2.637  0.00  0.00     0.007 C 
ATOM      9  C   UNL d   1      -1.151  -5.109  -2.892  0.00  0.00     0.009 C 
ENDBRANCH   7   8
ENDBRANCH   1   7
TORSDOF 2
ENDMDL
