MODEL 1
REMARK minimizedAffinity 7.2296648
REMARK minimizedRMSD -1
REMARK  2 active torsions:
REMARK  status: ('A' for Active; 'I' for Inactive)
REMARK    1  A    between atoms: C1_2  and  C2_3 
REMARK    2  A    between atoms: C2_3  and  C3_4 
ROOT
ATOM      1  C3  UNL d   1       0.802  -0.608  -1.887  0.00  0.00    -0.075 A 
ATOM      2  C4  UNL d   1       1.028  -0.824  -3.254  0.00  0.00     0.002 A 
ATOM      3  C5  UNL d   1       0.528  -1.965  -3.883  0.00  0.00     0.002 A 
ATOM      4  C6  UNL d   1      -0.193  -2.906  -3.153  0.00  0.00    -0.004 A 
ATOM      5  C7  UNL d   1      -0.410  -2.710  -1.791  0.00  0.00     0.002 A 
ATOM      6  C8  UNL d   1       0.085  -1.568  -1.160  0.00  0.00     0.002 A 
ENDROOT
BRANCH   1   7
ATOM      7  C2  UNL d   1       1.315   0.639  -1.206  0.00  0.00     0.056 C 
BRANCH   7   8
ATOM      8  C1  UNL d   1       2.842   0.717  -1.116  0.00  0.00     0.007 C 
ATOM      9  C   UNL d   1       3.415  -0.065   0.058  0.00  0.00     0.009 C 
ENDBRANCH   7   8
ENDBRANCH   1   7
TORSDOF 2
ENDMDL
