MODEL 1
REMARK minimizedAffinity 2.06917191
REMARK minimizedRMSD -1
REMARK  2 active torsions:
REMARK  status: ('A' for Active; 'I' for Inactive)
REMARK    1  A    between atoms: C1_2  and  C2_3 
REMARK    2  A    between atoms: C2_3  and  C3_4 
ROOT
ATOM      1  C3  UNL d   1      -1.644  -1.131   0.155  0.00  0.00    -0.075 A 
ATOM      2  C4  UNL d   1      -0.855  -1.881   1.039  0.00  0.00     0.002 A 
ATOM      3  C5  UNL d   1      -1.329  -3.083   1.565  0.00  0.00     0.002 A 
ATOM      4  C6  UNL d   1      -2.599  -3.544   1.224  0.00  0.00    -0.004 A 
ATOM      5  C7  UNL d   1      -3.398  -2.798   0.360  0.00  0.00     0.002 A 
ATOM      6  C8  UNL d   1      -2.924  -1.597  -0.172  0.00  0.00     0.002 A 
ENDROOT
BRANCH   1   7
ATOM      7  C2  UNL d   1      -1.125   0.156  -0.442  0.00  0.00     0.056 C 
BRANCH   7   8
ATOM      8  C1  UNL d   1       0.246   0.024  -1.113  0.00  0.00     0.007 C 
ATOM      9  C   UNL d   1       0.327  -1.143  -2.089  0.00  0.00     0.009 C 
ENDBRANCH   7   8
ENDBRANCH   1   7
TORSDOF 2
ENDMDL
