MODEL 1
REMARK minimizedAffinity 4.24602842
REMARK minimizedRMSD -1
REMARK  2 active torsions:
REMARK  status: ('A' for Active; 'I' for Inactive)
REMARK    1  A    between atoms: C1_2  and  C2_3 
REMARK    2  A    between atoms: C2_3  and  C3_4 
ROOT
ATOM      1  C3  UNL d   1       1.204  -1.278  -2.107  0.00  0.00    -0.075 A 
ATOM      2  C4  UNL d   1       2.342  -1.444  -1.305  0.00  0.00     0.002 A 
ATOM      3  C5  UNL d   1       2.981  -0.338  -0.743  0.00  0.00     0.002 A 
ATOM      4  C6  UNL d   1       2.498   0.946  -0.985  0.00  0.00    -0.004 A 
ATOM      5  C7  UNL d   1       1.378   1.124  -1.794  0.00  0.00     0.002 A 
ATOM      6  C8  UNL d   1       0.734   0.019  -2.353  0.00  0.00     0.002 A 
ENDROOT
BRANCH   1   7
ATOM      7  C2  UNL d   1       0.490  -2.473  -2.693  0.00  0.00     0.056 C 
BRANCH   7   8
ATOM      8  C1  UNL d   1      -0.651  -3.007  -1.821  0.00  0.00     0.007 C 
ATOM      9  C   UNL d   1      -0.286  -3.102  -0.346  0.00  0.00     0.009 C 
ENDBRANCH   7   8
ENDBRANCH   1   7
TORSDOF 2
ENDMDL
