MODEL 1
REMARK minimizedAffinity 3.67059946
REMARK minimizedRMSD -1
REMARK  0 active torsions:
REMARK  status: ('A' for Active; 'I' for Inactive)
ROOT
ATOM      1  O1  BZF d   1       1.044   2.409   1.580  0.00  0.00    -0.204 OA
ATOM      2  C2  BZF d   1       1.832   1.341   1.962  0.00  0.00     0.174 A 
ATOM      3  C3  BZF d   1       1.605   0.272   1.172  0.00  0.00    -0.012 A 
ATOM      4  C3A BZF d   1       0.681   0.728   0.179  0.00  0.00    -0.107 A 
ATOM      5  C4  BZF d   1       0.087   0.130  -0.896  0.00  0.00     0.055 A 
ATOM      6  C5  BZF d   1      -0.824   0.831  -1.622  0.00  0.00    -0.016 A 
ATOM      7  C6  BZF d   1      -1.168   2.127  -1.298  0.00  0.00     0.022 A 
ATOM      8  C7  BZF d   1      -0.602   2.763  -0.244  0.00  0.00     0.029 A 
ATOM      9  C7A BZF d   1       0.343   2.069   0.472  0.00  0.00     0.058 A 
ENDROOT
TORSDOF 0
ENDMDL
