MODEL 1
REMARK minimizedAffinity 8.94465733
REMARK minimizedRMSD -1
REMARK  0 active torsions:
REMARK  status: ('A' for Active; 'I' for Inactive)
ROOT
ATOM      1  O1  BZF d   1      -0.760   3.097  -0.648  0.00  0.00    -0.204 OA
ATOM      2  C2  BZF d   1      -0.066   3.751   0.351  0.00  0.00     0.174 A 
ATOM      3  C3  BZF d   1       0.913   2.966   0.846  0.00  0.00    -0.012 A 
ATOM      4  C3A BZF d   1       0.884   1.780   0.047  0.00  0.00    -0.107 A 
ATOM      5  C4  BZF d   1       1.626   0.633   0.042  0.00  0.00     0.055 A 
ATOM      6  C5  BZF d   1       1.294  -0.364  -0.820  0.00  0.00    -0.016 A 
ATOM      7  C6  BZF d   1       0.225  -0.251  -1.685  0.00  0.00     0.022 A 
ATOM      8  C7  BZF d   1      -0.537   0.869  -1.720  0.00  0.00     0.029 A 
ATOM      9  C7A BZF d   1      -0.184   1.892  -0.873  0.00  0.00     0.058 A 
ENDROOT
TORSDOF 0
ENDMDL
