MODEL 1
REMARK minimizedAffinity 5.30852795
REMARK minimizedRMSD -1
REMARK  0 active torsions:
REMARK  status: ('A' for Active; 'I' for Inactive)
ROOT
ATOM      1  O1  BZF d   1      -0.112  -0.964   0.473  0.00  0.00    -0.204 OA
ATOM      2  C2  BZF d   1      -0.672  -0.774  -0.776  0.00  0.00     0.174 A 
ATOM      3  C3  BZF d   1       0.162  -0.075  -1.572  0.00  0.00    -0.012 A 
ATOM      4  C3A BZF d   1       1.353   0.110  -0.801  0.00  0.00    -0.107 A 
ATOM      5  C4  BZF d   1       2.550   0.717  -1.053  0.00  0.00     0.055 A 
ATOM      6  C5  BZF d   1       3.477   0.786  -0.062  0.00  0.00    -0.016 A 
ATOM      7  C6  BZF d   1       3.238   0.265   1.193  0.00  0.00     0.022 A 
ATOM      8  C7  BZF d   1       2.068  -0.351   1.489  0.00  0.00     0.029 A 
ATOM      9  C7A BZF d   1       1.142  -0.452   0.479  0.00  0.00     0.058 A 
ENDROOT
TORSDOF 0
ENDMDL
