MODEL 1
REMARK minimizedAffinity 4.72493124
REMARK minimizedRMSD -1
REMARK  0 active torsions:
REMARK  status: ('A' for Active; 'I' for Inactive)
ROOT
ATOM      1  O1  BZF d   1       0.540   0.064  -1.215  0.00  0.00    -0.204 OA
ATOM      2  C2  BZF d   1       1.865  -0.021  -0.832  0.00  0.00     0.174 A 
ATOM      3  C3  BZF d   1       2.201   1.016  -0.039  0.00  0.00    -0.012 A 
ATOM      4  C3A BZF d   1       0.988   1.749   0.156  0.00  0.00    -0.107 A 
ATOM      5  C4  BZF d   1       0.674   2.875   0.864  0.00  0.00     0.055 A 
ATOM      6  C5  BZF d   1      -0.588   3.373   0.788  0.00  0.00    -0.016 A 
ATOM      7  C6  BZF d   1      -1.558   2.775   0.011  0.00  0.00     0.022 A 
ATOM      8  C7  BZF d   1      -1.296   1.654  -0.705  0.00  0.00     0.029 A 
ATOM      9  C7A BZF d   1      -0.031   1.130  -0.604  0.00  0.00     0.058 A 
ENDROOT
TORSDOF 0
ENDMDL
