MODEL 1
REMARK minimizedAffinity 0.718394816
REMARK minimizedRMSD -1
REMARK  0 active torsions:
REMARK  status: ('A' for Active; 'I' for Inactive)
ROOT
ATOM      1  O1  BZF d   1       4.391   1.063  -0.007  0.00  0.00    -0.204 OA
ATOM      2  C2  BZF d   1       4.045   1.581   1.226  0.00  0.00     0.174 A 
ATOM      3  C3  BZF d   1       2.734   1.386   1.476  0.00  0.00    -0.012 A 
ATOM      4  C3A BZF d   1       2.249   0.621   0.369  0.00  0.00    -0.107 A 
ATOM      5  C4  BZF d   1       1.027   0.103   0.049  0.00  0.00     0.055 A 
ATOM      6  C5  BZF d   1       0.870  -0.531  -1.142  0.00  0.00    -0.016 A 
ATOM      7  C6  BZF d   1       1.910  -0.660  -2.039  0.00  0.00     0.022 A 
ATOM      8  C7  BZF d   1       3.142  -0.167  -1.764  0.00  0.00     0.029 A 
ATOM      9  C7A BZF d   1       3.312   0.446  -0.547  0.00  0.00     0.058 A 
ENDROOT
TORSDOF 0
ENDMDL
