MODEL 1
REMARK minimizedAffinity 8.36785412
REMARK minimizedRMSD -1
REMARK  0 active torsions:
REMARK  status: ('A' for Active; 'I' for Inactive)
ROOT
ATOM      1  O1  BZF d   1       1.903   2.438   1.814  0.00  0.00    -0.204 OA
ATOM      2  C2  BZF d   1       2.732   1.363   2.070  0.00  0.00     0.174 A 
ATOM      3  C3  BZF d   1       2.440   0.329   1.256  0.00  0.00    -0.012 A 
ATOM      4  C3A BZF d   1       1.422   0.817   0.377  0.00  0.00    -0.107 A 
ATOM      5  C4  BZF d   1       0.734   0.262  -0.664  0.00  0.00     0.055 A 
ATOM      6  C5  BZF d   1      -0.247   0.983  -1.267  0.00  0.00    -0.016 A 
ATOM      7  C6  BZF d   1      -0.570   2.259  -0.853  0.00  0.00     0.022 A 
ATOM      8  C7  BZF d   1       0.088   2.854   0.172  0.00  0.00     0.029 A 
ATOM      9  C7A BZF d   1       1.102   2.140   0.762  0.00  0.00     0.058 A 
ENDROOT
TORSDOF 0
ENDMDL
