MODEL 1
REMARK minimizedAffinity 2.83598566
REMARK minimizedRMSD -1
REMARK  0 active torsions:
REMARK  status: ('A' for Active; 'I' for Inactive)
ROOT
ATOM      1  O1  BZF d   1       3.374   0.507  -3.358  0.00  0.00    -0.204 OA
ATOM      2  C2  BZF d   1       4.616   1.111  -3.396  0.00  0.00     0.174 A 
ATOM      3  C3  BZF d   1       5.004   1.483  -2.159  0.00  0.00    -0.012 A 
ATOM      4  C3A BZF d   1       3.980   1.004  -1.283  0.00  0.00    -0.107 A 
ATOM      5  C4  BZF d   1       3.804   1.051   0.071  0.00  0.00     0.055 A 
ATOM      6  C5  BZF d   1       2.659   0.554   0.606  0.00  0.00    -0.016 A 
ATOM      7  C6  BZF d   1       1.667   0.008  -0.182  0.00  0.00     0.022 A 
ATOM      8  C7  BZF d   1       1.797  -0.066  -1.529  0.00  0.00     0.029 A 
ATOM      9  C7A BZF d   1       2.968   0.406  -2.070  0.00  0.00     0.058 A 
ENDROOT
TORSDOF 0
ENDMDL
