MODEL 1
REMARK minimizedAffinity 11.1739855
REMARK minimizedRMSD -1
REMARK  0 active torsions:
REMARK  status: ('A' for Active; 'I' for Inactive)
ROOT
ATOM      1  O1  BZF d   1       2.999   0.520  -2.626  0.00  0.00    -0.204 OA
ATOM      2  C2  BZF d   1       2.385   0.000  -1.503  0.00  0.00     0.174 A 
ATOM      3  C3  BZF d   1       3.054   0.352  -0.386  0.00  0.00    -0.012 A 
ATOM      4  C3A BZF d   1       4.103   1.217  -0.832  0.00  0.00    -0.107 A 
ATOM      5  C4  BZF d   1       5.094   1.901  -0.188  0.00  0.00     0.055 A 
ATOM      6  C5  BZF d   1       6.000   2.598  -0.922  0.00  0.00    -0.016 A 
ATOM      7  C6  BZF d   1       5.948   2.629  -2.300  0.00  0.00     0.022 A 
ATOM      8  C7  BZF d   1       4.981   1.971  -2.983  0.00  0.00     0.029 A 
ATOM      9  C7A BZF d   1       4.044   1.292  -2.243  0.00  0.00     0.058 A 
ENDROOT
TORSDOF 0
ENDMDL
