MODEL 1
REMARK minimizedAffinity -4.38540554
REMARK minimizedRMSD -1
REMARK  0 active torsions:
REMARK  status: ('A' for Active; 'I' for Inactive)
ROOT
ATOM      1  C   UNL d   1      -0.806   0.835  -0.314  0.00  0.00     0.077 C 
ATOM      2  C1  UNL d   1      -2.234   0.685   0.120  0.00  0.00    -0.074 A 
ATOM      3  C2  UNL d   1      -2.670   1.200   1.345  0.00  0.00    -0.005 A 
ATOM      4  C3  UNL d   1      -4.004   1.061   1.731  0.00  0.00     0.006 A 
ATOM      5  C4  UNL d   1      -4.912   0.407   0.898  0.00  0.00    -0.005 A 
ATOM      6  C5  UNL d   1      -4.494  -0.114  -0.331  0.00  0.00    -0.074 A 
ATOM      7  C6  UNL d   1      -5.460  -0.811  -1.242  0.00  0.00     0.077 C 
ATOM      8  C7  UNL d   1      -3.154   0.036  -0.715  0.00  0.00    -0.001 A 
ENDROOT
TORSDOF 0
ENDMDL
