MODEL 1
REMARK minimizedAffinity -4.78021908
REMARK minimizedRMSD -1
REMARK  0 active torsions:
REMARK  status: ('A' for Active; 'I' for Inactive)
ROOT
ATOM      1  C   UNL d   1      -1.063   0.603  -0.005  0.00  0.00     0.077 C 
ATOM      2  C1  UNL d   1       0.354   0.199   0.275  0.00  0.00    -0.074 A 
ATOM      3  C2  UNL d   1       0.767  -1.128   0.122  0.00  0.00    -0.005 A 
ATOM      4  C3  UNL d   1       2.090  -1.487   0.377  0.00  0.00     0.006 A 
ATOM      5  C4  UNL d   1       3.013  -0.523   0.787  0.00  0.00    -0.005 A 
ATOM      6  C5  UNL d   1       2.618   0.809   0.945  0.00  0.00    -0.074 A 
ATOM      7  C6  UNL d   1       3.599   1.859   1.375  0.00  0.00     0.077 C 
ATOM      8  C7  UNL d   1       1.288   1.163   0.680  0.00  0.00    -0.001 A 
ENDROOT
TORSDOF 0
ENDMDL
