MODEL 1
REMARK minimizedAffinity -4.52980661
REMARK minimizedRMSD -1
REMARK  0 active torsions:
REMARK  status: ('A' for Active; 'I' for Inactive)
ROOT
ATOM      1  C   UNL d   1      -0.795   0.591  -0.691  0.00  0.00     0.077 C 
ATOM      2  C1  UNL d   1      -2.057   0.606   0.120  0.00  0.00    -0.074 A 
ATOM      3  C2  UNL d   1      -2.213   1.492   1.191  0.00  0.00    -0.005 A 
ATOM      4  C3  UNL d   1      -3.396   1.500   1.931  0.00  0.00     0.006 A 
ATOM      5  C4  UNL d   1      -4.433   0.624   1.607  0.00  0.00    -0.005 A 
ATOM      6  C5  UNL d   1      -4.295  -0.268   0.539  0.00  0.00    -0.074 A 
ATOM      7  C6  UNL d   1      -5.404  -1.210   0.172  0.00  0.00     0.077 C 
ATOM      8  C7  UNL d   1      -3.106  -0.266  -0.203  0.00  0.00    -0.001 A 
ENDROOT
TORSDOF 0
ENDMDL
