MODEL 1
REMARK minimizedAffinity -3.80785537
REMARK minimizedRMSD -1
REMARK  0 active torsions:
REMARK  status: ('A' for Active; 'I' for Inactive)
ROOT
ATOM      1  C   UNL d   1       2.548   2.084   0.407  0.00  0.00     0.077 C 
ATOM      2  C1  UNL d   1       1.729   0.841   0.225  0.00  0.00    -0.074 A 
ATOM      3  C2  UNL d   1       2.341  -0.408   0.076  0.00  0.00    -0.005 A 
ATOM      4  C3  UNL d   1       1.566  -1.557  -0.083  0.00  0.00     0.006 A 
ATOM      5  C4  UNL d   1       0.173  -1.469  -0.094  0.00  0.00    -0.005 A 
ATOM      6  C5  UNL d   1      -0.457  -0.229   0.054  0.00  0.00    -0.074 A 
ATOM      7  C6  UNL d   1      -1.952  -0.118   0.055  0.00  0.00     0.077 C 
ATOM      8  C7  UNL d   1       0.329   0.920   0.220  0.00  0.00    -0.001 A 
ENDROOT
TORSDOF 0
ENDMDL
