MODEL 1
REMARK minimizedAffinity -3.7372818
REMARK minimizedRMSD -1
REMARK  0 active torsions:
REMARK  status: ('A' for Active; 'I' for Inactive)
ROOT
ATOM      1  C   UNL d   1       2.420  -1.271   1.270  0.00  0.00     0.077 C 
ATOM      2  C1  UNL d   1       1.515  -0.210   0.717  0.00  0.00    -0.074 A 
ATOM      3  C2  UNL d   1       2.022   1.029   0.312  0.00  0.00    -0.005 A 
ATOM      4  C3  UNL d   1       1.169   2.002  -0.209  0.00  0.00     0.006 A 
ATOM      5  C4  UNL d   1      -0.197   1.746  -0.330  0.00  0.00    -0.005 A 
ATOM      6  C5  UNL d   1      -0.722   0.513   0.069  0.00  0.00    -0.074 A 
ATOM      7  C6  UNL d   1      -2.187   0.219  -0.064  0.00  0.00     0.077 C 
ATOM      8  C7  UNL d   1       0.142  -0.462   0.585  0.00  0.00    -0.001 A 
ENDROOT
TORSDOF 0
ENDMDL
