MODEL 1
REMARK minimizedAffinity -0.779278696
REMARK minimizedRMSD -1
REMARK  0 active torsions:
REMARK  status: ('A' for Active; 'I' for Inactive)
ROOT
ATOM      1  C   UNL d   1      -1.958   0.518  -0.051  0.00  0.00     0.077 C 
ATOM      2  C1  UNL d   1      -0.473   0.609  -0.240  0.00  0.00    -0.074 A 
ATOM      3  C2  UNL d   1       0.173   1.849  -0.270  0.00  0.00    -0.005 A 
ATOM      4  C3  UNL d   1       1.556   1.918  -0.437  0.00  0.00     0.006 A 
ATOM      5  C4  UNL d   1       2.306   0.749  -0.575  0.00  0.00    -0.005 A 
ATOM      6  C5  UNL d   1       1.678  -0.500  -0.546  0.00  0.00    -0.074 A 
ATOM      7  C6  UNL d   1       2.470  -1.766  -0.683  0.00  0.00     0.077 C 
ATOM      8  C7  UNL d   1       0.289  -0.561  -0.371  0.00  0.00    -0.001 A 
ENDROOT
TORSDOF 0
ENDMDL
