MODEL 1
REMARK minimizedAffinity -3.07639313
REMARK minimizedRMSD -1
REMARK  0 active torsions:
REMARK  status: ('A' for Active; 'I' for Inactive)
ROOT
ATOM      1  C   UNL d   1       3.579   2.023  -0.455  0.00  0.00     0.077 C 
ATOM      2  C1  UNL d   1       2.654   0.845  -0.376  0.00  0.00    -0.074 A 
ATOM      3  C2  UNL d   1       3.155  -0.460  -0.321  0.00  0.00    -0.005 A 
ATOM      4  C3  UNL d   1       2.283  -1.545  -0.238  0.00  0.00     0.006 A 
ATOM      5  C4  UNL d   1       0.903  -1.337  -0.210  0.00  0.00    -0.005 A 
ATOM      6  C5  UNL d   1       0.384  -0.040  -0.263  0.00  0.00    -0.074 A 
ATOM      7  C6  UNL d   1      -1.096   0.202  -0.224  0.00  0.00     0.077 C 
ATOM      8  C7  UNL d   1       1.267   1.046  -0.339  0.00  0.00    -0.001 A 
ENDROOT
TORSDOF 0
ENDMDL
