MODEL 1
REMARK minimizedAffinity -4.48128462
REMARK minimizedRMSD -1
REMARK  0 active torsions:
REMARK  status: ('A' for Active; 'I' for Inactive)
ROOT
ATOM      1  C   UNL d   1       2.997  -1.685   1.046  0.00  0.00     0.077 C 
ATOM      2  C1  UNL d   1       1.880  -1.177   0.185  0.00  0.00    -0.074 A 
ATOM      3  C2  UNL d   1       1.124  -2.051  -0.603  0.00  0.00    -0.005 A 
ATOM      4  C3  UNL d   1       0.082  -1.565  -1.392  0.00  0.00     0.006 A 
ATOM      5  C4  UNL d   1      -0.216  -0.201  -1.400  0.00  0.00    -0.005 A 
ATOM      6  C5  UNL d   1       0.528   0.688  -0.618  0.00  0.00    -0.074 A 
ATOM      7  C6  UNL d   1       0.215   2.155  -0.609  0.00  0.00     0.077 C 
ATOM      8  C7  UNL d   1       1.570   0.191   0.177  0.00  0.00    -0.001 A 
ENDROOT
TORSDOF 0
ENDMDL
