MODEL 1
REMARK minimizedAffinity -2.84826612
REMARK minimizedRMSD -1
REMARK  0 active torsions:
REMARK  status: ('A' for Active; 'I' for Inactive)
ROOT
ATOM      1  C   UNL d   1      -2.080   0.290  -0.062  0.00  0.00     0.077 C 
ATOM      2  C1  UNL d   1      -0.600   0.531  -0.043  0.00  0.00    -0.074 A 
ATOM      3  C2  UNL d   1      -0.084   1.827   0.055  0.00  0.00    -0.005 A 
ATOM      4  C3  UNL d   1       1.295   2.035   0.082  0.00  0.00     0.006 A 
ATOM      5  C4  UNL d   1       2.170   0.951   0.011  0.00  0.00    -0.005 A 
ATOM      6  C5  UNL d   1       1.673  -0.352  -0.087  0.00  0.00    -0.074 A 
ATOM      7  C6  UNL d   1       2.600  -1.529  -0.154  0.00  0.00     0.077 C 
ATOM      8  C7  UNL d   1       0.286  -0.554  -0.106  0.00  0.00    -0.001 A 
ENDROOT
TORSDOF 0
ENDMDL
