MODEL 1
REMARK minimizedAffinity -2.20390654
REMARK minimizedRMSD -1
REMARK  2 active torsions:
REMARK  status: ('A' for Active; 'I' for Inactive)
REMARK    1  A    between atoms: C2'_3  and  C1'_4 
REMARK    2  A    between atoms: C1'_4  and  C1_5 
ROOT
ATOM      1  C1  I4B d   1       0.575   0.628  -0.745  0.00  0.00    -0.075 A 
ATOM      2  C2  I4B d   1       1.012  -0.673  -0.710  0.00  0.00     0.003 A 
ATOM      3  C3  I4B d   1       1.465  -1.240   0.506  0.00  0.00     0.002 A 
ATOM      4  C4  I4B d   1       1.511  -0.460   1.644  0.00  0.00    -0.004 A 
ATOM      5  C5  I4B d   1       1.046   0.851   1.611  0.00  0.00     0.002 A 
ATOM      6  C6  I4B d   1       0.563   1.395   0.412  0.00  0.00     0.003 A 
ENDROOT
BRANCH   1   7
ATOM      7  C1' I4B d   1       0.134   1.205  -2.053  0.00  0.00     0.060 C 
BRANCH   7   8
ATOM      8  C2' I4B d   1       1.163   0.828  -3.100  0.00  0.00    -0.013 C 
ATOM      9  C4' I4B d   1       0.502   0.373  -4.374  0.00  0.00     0.013 C 
ATOM     10  C3' I4B d   1       2.038   2.022  -3.339  0.00  0.00     0.013 C 
ENDBRANCH   7   8
ENDBRANCH   1   7
TORSDOF 2
ENDMDL
