MODEL 1
REMARK minimizedAffinity -2.74598503
REMARK minimizedRMSD -1
REMARK  2 active torsions:
REMARK  status: ('A' for Active; 'I' for Inactive)
REMARK    1  A    between atoms: C2'_3  and  C1'_4 
REMARK    2  A    between atoms: C1'_4  and  C1_5 
ROOT
ATOM      1  C1  I4B d   1      -0.187   0.865  -1.691  0.00  0.00    -0.075 A 
ATOM      2  C2  I4B d   1      -1.112   1.497  -0.898  0.00  0.00     0.003 A 
ATOM      3  C3  I4B d   1      -1.348   1.043   0.423  0.00  0.00     0.002 A 
ATOM      4  C4  I4B d   1      -0.677  -0.069   0.889  0.00  0.00    -0.004 A 
ATOM      5  C5  I4B d   1       0.278  -0.694   0.092  0.00  0.00     0.002 A 
ATOM      6  C6  I4B d   1       0.534  -0.217  -1.202  0.00  0.00     0.003 A 
ENDROOT
BRANCH   1   7
ATOM      7  C1' I4B d   1       0.013   1.350  -3.092  0.00  0.00     0.060 C 
BRANCH   7   8
ATOM      8  C2' I4B d   1       0.863   0.331  -3.822  0.00  0.00    -0.013 C 
ATOM      9  C4' I4B d   1       0.096  -0.314  -4.946  0.00  0.00     0.013 C 
ATOM     10  C3' I4B d   1       2.088   1.030  -4.333  0.00  0.00     0.013 C 
ENDBRANCH   7   8
ENDBRANCH   1   7
TORSDOF 2
ENDMDL
