MODEL 1
REMARK minimizedAffinity -3.83415055
REMARK minimizedRMSD -1
REMARK  2 active torsions:
REMARK  status: ('A' for Active; 'I' for Inactive)
REMARK    1  A    between atoms: C2'_3  and  C1'_4 
REMARK    2  A    between atoms: C1'_4  and  C1_5 
ROOT
ATOM      1  C1  I4B d   1      -0.801  -0.922  -0.076  0.00  0.00    -0.075 A 
ATOM      2  C2  I4B d   1      -1.753  -0.216   0.615  0.00  0.00     0.003 A 
ATOM      3  C3  I4B d   1      -1.392   0.538   1.758  0.00  0.00     0.002 A 
ATOM      4  C4  I4B d   1      -0.086   0.517   2.201  0.00  0.00    -0.004 A 
ATOM      5  C5  I4B d   1       0.883  -0.182   1.486  0.00  0.00     0.002 A 
ATOM      6  C6  I4B d   1       0.526  -0.896   0.333  0.00  0.00     0.003 A 
ENDROOT
BRANCH   1   7
ATOM      7  C1' I4B d   1      -1.223  -1.734  -1.260  0.00  0.00     0.060 C 
BRANCH   7   8
ATOM      8  C2' I4B d   1      -2.110  -2.857  -0.763  0.00  0.00    -0.013 C 
ATOM      9  C4' I4B d   1      -3.518  -2.708  -1.276  0.00  0.00     0.013 C 
ATOM     10  C3' I4B d   1      -1.506  -4.155  -1.208  0.00  0.00     0.013 C 
ENDBRANCH   7   8
ENDBRANCH   1   7
TORSDOF 2
ENDMDL
