MODEL 1
REMARK minimizedAffinity -4.98548746
REMARK minimizedRMSD -1
REMARK  2 active torsions:
REMARK  status: ('A' for Active; 'I' for Inactive)
REMARK    1  A    between atoms: C2'_3  and  C1'_4 
REMARK    2  A    between atoms: C1'_4  and  C1_5 
ROOT
ATOM      1  C1  I4B d   1       0.240   0.379   0.378  0.00  0.00    -0.075 A 
ATOM      2  C2  I4B d   1       1.053   1.069   1.243  0.00  0.00     0.003 A 
ATOM      3  C3  I4B d   1       0.501   1.723   2.371  0.00  0.00     0.002 A 
ATOM      4  C4  I4B d   1      -0.865   1.706   2.566  0.00  0.00    -0.004 A 
ATOM      5  C5  I4B d   1      -1.685   0.987   1.701  0.00  0.00     0.002 A 
ATOM      6  C6  I4B d   1      -1.128   0.309   0.607  0.00  0.00     0.003 A 
ENDROOT
BRANCH   1   7
ATOM      7  C1' I4B d   1       0.852  -0.273  -0.821  0.00  0.00     0.060 C 
BRANCH   7   8
ATOM      8  C2' I4B d   1       0.515   0.571  -2.034  0.00  0.00    -0.013 C 
ATOM      9  C4' I4B d   1       1.634   1.524  -2.362  0.00  0.00     0.013 C 
ATOM     10  C3' I4B d   1       0.239  -0.356  -3.180  0.00  0.00     0.013 C 
ENDBRANCH   7   8
ENDBRANCH   1   7
TORSDOF 2
ENDMDL
