MODEL 1
REMARK minimizedAffinity -0.451275885
REMARK minimizedRMSD -1
REMARK  2 active torsions:
REMARK  status: ('A' for Active; 'I' for Inactive)
REMARK    1  A    between atoms: C2'_3  and  C1'_4 
REMARK    2  A    between atoms: C1'_4  and  C1_5 
ROOT
ATOM      1  C1  I4B d   1      -1.827  -1.045  -0.011  0.00  0.00    -0.075 A 
ATOM      2  C2  I4B d   1      -1.423  -0.134   0.932  0.00  0.00     0.003 A 
ATOM      3  C3  I4B d   1      -0.212   0.580   0.761  0.00  0.00     0.002 A 
ATOM      4  C4  I4B d   1       0.583   0.316  -0.336  0.00  0.00    -0.004 A 
ATOM      5  C5  I4B d   1       0.160  -0.592  -1.303  0.00  0.00     0.002 A 
ATOM      6  C6  I4B d   1      -1.059  -1.268  -1.146  0.00  0.00     0.003 A 
ENDROOT
BRANCH   1   7
ATOM      7  C1' I4B d   1      -3.095  -1.805   0.218  0.00  0.00     0.060 C 
BRANCH   7   8
ATOM      8  C2' I4B d   1      -3.320  -2.710  -0.976  0.00  0.00    -0.013 C 
ATOM      9  C4' I4B d   1      -2.443  -3.932  -0.906  0.00  0.00     0.013 C 
ATOM     10  C3' I4B d   1      -4.771  -3.085  -1.006  0.00  0.00     0.013 C 
ENDBRANCH   7   8
ENDBRANCH   1   7
TORSDOF 2
ENDMDL
