MODEL 1
REMARK minimizedAffinity -3.34124804
REMARK minimizedRMSD -1
REMARK  2 active torsions:
REMARK  status: ('A' for Active; 'I' for Inactive)
REMARK    1  A    between atoms: C2'_3  and  C1'_4 
REMARK    2  A    between atoms: C1'_4  and  C1_5 
ROOT
ATOM      1  C1  I4B d   1       0.862  -0.341  -1.751  0.00  0.00    -0.075 A 
ATOM      2  C2  I4B d   1       1.570  -1.060  -0.820  0.00  0.00     0.003 A 
ATOM      3  C3  I4B d   1       1.336  -0.862   0.562  0.00  0.00     0.002 A 
ATOM      4  C4  I4B d   1       0.429   0.095   0.968  0.00  0.00    -0.004 A 
ATOM      5  C5  I4B d   1      -0.305   0.807   0.023  0.00  0.00     0.002 A 
ATOM      6  C6  I4B d   1      -0.096   0.579  -1.345  0.00  0.00     0.003 A 
ENDROOT
BRANCH   1   7
ATOM      7  C1' I4B d   1       1.157  -0.552  -3.202  0.00  0.00     0.060 C 
BRANCH   7   8
ATOM      8  C2' I4B d   1       0.634   0.648  -3.964  0.00  0.00    -0.013 C 
ATOM      9  C4' I4B d   1       1.748   1.598  -4.317  0.00  0.00     0.013 C 
ATOM     10  C3' I4B d   1      -0.061   0.147  -5.195  0.00  0.00     0.013 C 
ENDBRANCH   7   8
ENDBRANCH   1   7
TORSDOF 2
ENDMDL
