MODEL 1
REMARK minimizedAffinity 3.00647926
REMARK minimizedRMSD -1
REMARK  2 active torsions:
REMARK  status: ('A' for Active; 'I' for Inactive)
REMARK    1  A    between atoms: C2'_3  and  C1'_4 
REMARK    2  A    between atoms: C1'_4  and  C1_5 
ROOT
ATOM      1  C1  I4B d   1      -0.060   0.411   1.952  0.00  0.00    -0.075 A 
ATOM      2  C2  I4B d   1       1.154   0.022   2.462  0.00  0.00     0.003 A 
ATOM      3  C3  I4B d   1       2.155  -0.495   1.604  0.00  0.00     0.002 A 
ATOM      4  C4  I4B d   1       1.883  -0.653   0.260  0.00  0.00    -0.004 A 
ATOM      5  C5  I4B d   1       0.660  -0.237  -0.258  0.00  0.00     0.002 A 
ATOM      6  C6  I4B d   1      -0.313   0.309   0.591  0.00  0.00     0.003 A 
ENDROOT
BRANCH   1   7
ATOM      7  C1' I4B d   1      -1.105   0.922   2.892  0.00  0.00     0.060 C 
BRANCH   7   8
ATOM      8  C2' I4B d   1      -2.335   0.050   2.740  0.00  0.00    -0.013 C 
ATOM      9  C4' I4B d   1      -2.582  -0.298   1.296  0.00  0.00     0.013 C 
ATOM     10  C3' I4B d   1      -2.133  -1.184   3.568  0.00  0.00     0.013 C 
ENDBRANCH   7   8
ENDBRANCH   1   7
TORSDOF 2
ENDMDL
