MODEL 1
REMARK minimizedAffinity -2.70712638
REMARK minimizedRMSD -1
REMARK  2 active torsions:
REMARK  status: ('A' for Active; 'I' for Inactive)
REMARK    1  A    between atoms: C2'_3  and  C1'_4 
REMARK    2  A    between atoms: C1'_4  and  C1_5 
ROOT
ATOM      1  C1  I4B d   1      -1.541  -0.481   0.301  0.00  0.00    -0.075 A 
ATOM      2  C2  I4B d   1      -1.916   0.231   1.412  0.00  0.00     0.003 A 
ATOM      3  C3  I4B d   1      -0.936   0.830   2.239  0.00  0.00     0.002 A 
ATOM      4  C4  I4B d   1       0.401   0.651   1.948  0.00  0.00    -0.004 A 
ATOM      5  C5  I4B d   1       0.779  -0.052   0.808  0.00  0.00     0.002 A 
ATOM      6  C6  I4B d   1      -0.198  -0.611  -0.028  0.00  0.00     0.003 A 
ENDROOT
BRANCH   1   7
ATOM      7  C1' I4B d   1      -2.601  -1.129  -0.533  0.00  0.00     0.060 C 
BRANCH   7   8
ATOM      8  C2' I4B d   1      -2.446  -2.631  -0.400  0.00  0.00    -0.013 C 
ATOM      9  C4' I4B d   1      -3.767  -3.333  -0.578  0.00  0.00     0.013 C 
ATOM     10  C3' I4B d   1      -1.450  -3.085  -1.424  0.00  0.00     0.013 C 
ENDBRANCH   7   8
ENDBRANCH   1   7
TORSDOF 2
ENDMDL
