MODEL 1
REMARK minimizedAffinity 0.0504342206
REMARK minimizedRMSD -1
REMARK  2 active torsions:
REMARK  status: ('A' for Active; 'I' for Inactive)
REMARK    1  A    between atoms: C1_2  and  C2_3 
REMARK    2  A    between atoms: C2_3  and  C3_4 
ROOT
ATOM      1  C3  UNL d   1      -2.223  -1.182   0.590  0.00  0.00    -0.075 A 
ATOM      2  C4  UNL d   1      -1.604  -0.716   1.759  0.00  0.00     0.002 A 
ATOM      3  C5  UNL d   1      -2.192   0.297   2.516  0.00  0.00     0.002 A 
ATOM      4  C6  UNL d   1      -3.399   0.862   2.111  0.00  0.00    -0.004 A 
ATOM      5  C7  UNL d   1      -4.015   0.418   0.942  0.00  0.00     0.002 A 
ATOM      6  C8  UNL d   1      -3.430  -0.598   0.185  0.00  0.00     0.002 A 
ENDROOT
BRANCH   1   7
ATOM      7  C2  UNL d   1      -1.605  -2.298  -0.219  0.00  0.00     0.056 C 
BRANCH   7   8
ATOM      8  C1  UNL d   1      -0.458  -1.848  -1.129  0.00  0.00     0.007 C 
ATOM      9  C   UNL d   1      -0.793  -1.946  -2.611  0.00  0.00     0.009 C 
ENDBRANCH   7   8
ENDBRANCH   1   7
TORSDOF 2
ENDMDL
