MODEL 1
REMARK minimizedAffinity 3.49218988
REMARK minimizedRMSD -1
REMARK  2 active torsions:
REMARK  status: ('A' for Active; 'I' for Inactive)
REMARK    1  A    between atoms: C1_2  and  C2_3 
REMARK    2  A    between atoms: C2_3  and  C3_4 
ROOT
ATOM      1  C3  UNL d   1      -0.345  -1.465  -5.109  0.00  0.00    -0.075 A 
ATOM      2  C4  UNL d   1       0.618  -0.559  -5.576  0.00  0.00     0.002 A 
ATOM      3  C5  UNL d   1       0.244   0.721  -5.987  0.00  0.00     0.002 A 
ATOM      4  C6  UNL d   1      -1.094   1.107  -5.945  0.00  0.00    -0.004 A 
ATOM      5  C7  UNL d   1      -2.060   0.209  -5.499  0.00  0.00     0.002 A 
ATOM      6  C8  UNL d   1      -1.689  -1.071  -5.083  0.00  0.00     0.002 A 
ENDROOT
BRANCH   1   7
ATOM      7  C2  UNL d   1       0.056  -2.842  -4.635  0.00  0.00     0.056 C 
BRANCH   7   8
ATOM      8  C1  UNL d   1       0.514  -2.890  -3.174  0.00  0.00     0.007 C 
ATOM      9  C   UNL d   1       2.027  -2.989  -3.022  0.00  0.00     0.009 C 
ENDBRANCH   7   8
ENDBRANCH   1   7
TORSDOF 2
ENDMDL
