MODEL 1
REMARK minimizedAffinity 1.45564973
REMARK minimizedRMSD -1
REMARK  2 active torsions:
REMARK  status: ('A' for Active; 'I' for Inactive)
REMARK    1  A    between atoms: C1_2  and  C2_3 
REMARK    2  A    between atoms: C2_3  and  C3_4 
ROOT
ATOM      1  C3  UNL d   1      -2.916   0.696   1.940  0.00  0.00    -0.075 A 
ATOM      2  C4  UNL d   1      -1.997   1.086   2.925  0.00  0.00     0.002 A 
ATOM      3  C5  UNL d   1      -0.795   0.397   3.085  0.00  0.00     0.002 A 
ATOM      4  C6  UNL d   1      -0.501  -0.695   2.271  0.00  0.00    -0.004 A 
ATOM      5  C7  UNL d   1      -1.414  -1.102   1.300  0.00  0.00     0.002 A 
ATOM      6  C8  UNL d   1      -2.616  -0.411   1.135  0.00  0.00     0.002 A 
ENDROOT
BRANCH   1   7
ATOM      7  C2  UNL d   1      -4.206   1.455   1.743  0.00  0.00     0.056 C 
BRANCH   7   8
ATOM      8  C1  UNL d   1      -5.147   0.828   0.709  0.00  0.00     0.007 C 
ATOM      9  C   UNL d   1      -5.996   1.854  -0.031  0.00  0.00     0.009 C 
ENDBRANCH   7   8
ENDBRANCH   1   7
TORSDOF 2
ENDMDL
