MODEL 1
REMARK minimizedAffinity 2.16445947
REMARK minimizedRMSD -1
REMARK  2 active torsions:
REMARK  status: ('A' for Active; 'I' for Inactive)
REMARK    1  A    between atoms: C1_2  and  C2_3 
REMARK    2  A    between atoms: C2_3  and  C3_4 
ROOT
ATOM      1  C3  UNL d   1       0.471  -1.425  -4.505  0.00  0.00    -0.075 A 
ATOM      2  C4  UNL d   1       1.820  -1.044  -4.550  0.00  0.00     0.002 A 
ATOM      3  C5  UNL d   1       2.217   0.072  -5.288  0.00  0.00     0.002 A 
ATOM      4  C6  UNL d   1       1.274   0.813  -5.997  0.00  0.00    -0.004 A 
ATOM      5  C7  UNL d   1      -0.066   0.434  -5.973  0.00  0.00     0.002 A 
ATOM      6  C8  UNL d   1      -0.467  -0.679  -5.232  0.00  0.00     0.002 A 
ENDROOT
BRANCH   1   7
ATOM      7  C2  UNL d   1       0.031  -2.613  -3.684  0.00  0.00     0.056 C 
BRANCH   7   8
ATOM      8  C1  UNL d   1       0.588  -2.626  -2.257  0.00  0.00     0.007 C 
ATOM      9  C   UNL d   1      -0.235  -1.793  -1.283  0.00  0.00     0.009 C 
ENDBRANCH   7   8
ENDBRANCH   1   7
TORSDOF 2
ENDMDL
