MODEL 1
REMARK minimizedAffinity 6.63262796
REMARK minimizedRMSD -1
REMARK  2 active torsions:
REMARK  status: ('A' for Active; 'I' for Inactive)
REMARK    1  A    between atoms: C1_2  and  C2_3 
REMARK    2  A    between atoms: C2_3  and  C3_4 
ROOT
ATOM      1  C3  UNL d   1      -0.397  -0.557   2.868  0.00  0.00    -0.075 A 
ATOM      2  C4  UNL d   1       0.278   0.464   3.552  0.00  0.00     0.002 A 
ATOM      3  C5  UNL d   1       1.564   0.251   4.052  0.00  0.00     0.002 A 
ATOM      4  C6  UNL d   1       2.184  -0.984   3.884  0.00  0.00    -0.004 A 
ATOM      5  C7  UNL d   1       1.515  -2.011   3.220  0.00  0.00     0.002 A 
ATOM      6  C8  UNL d   1       0.231  -1.800   2.715  0.00  0.00     0.002 A 
ENDROOT
BRANCH   1   7
ATOM      7  C2  UNL d   1      -1.776  -0.323   2.299  0.00  0.00     0.056 C 
BRANCH   7   8
ATOM      8  C1  UNL d   1      -2.352   1.063   2.607  0.00  0.00     0.007 C 
ATOM      9  C   UNL d   1      -3.802   1.222   2.169  0.00  0.00     0.009 C 
ENDBRANCH   7   8
ENDBRANCH   1   7
TORSDOF 2
ENDMDL
