MODEL 1
REMARK minimizedAffinity -1.33787429
REMARK minimizedRMSD -1
REMARK  2 active torsions:
REMARK  status: ('A' for Active; 'I' for Inactive)
REMARK    1  A    between atoms: C1_2  and  C2_3 
REMARK    2  A    between atoms: C2_3  and  C3_4 
ROOT
ATOM      1  C3  UNL d   1      -0.634   0.026  -4.677  0.00  0.00    -0.075 A 
ATOM      2  C4  UNL d   1       0.170   1.112  -4.302  0.00  0.00     0.002 A 
ATOM      3  C5  UNL d   1       1.475   1.227  -4.781  0.00  0.00     0.002 A 
ATOM      4  C6  UNL d   1       1.996   0.254  -5.632  0.00  0.00    -0.004 A 
ATOM      5  C7  UNL d   1       1.212  -0.838  -5.998  0.00  0.00     0.002 A 
ATOM      6  C8  UNL d   1      -0.096  -0.953  -5.524  0.00  0.00     0.002 A 
ENDROOT
BRANCH   1   7
ATOM      7  C2  UNL d   1      -2.057  -0.089  -4.186  0.00  0.00     0.056 C 
BRANCH   7   8
ATOM      8  C1  UNL d   1      -3.105  -0.094  -5.304  0.00  0.00     0.007 C 
ATOM      9  C   UNL d   1      -4.333  -0.931  -4.972  0.00  0.00     0.009 C 
ENDBRANCH   7   8
ENDBRANCH   1   7
TORSDOF 2
ENDMDL
