MODEL 1
REMARK minimizedAffinity -4.95716715
REMARK minimizedRMSD -1
REMARK  2 active torsions:
REMARK  status: ('A' for Active; 'I' for Inactive)
REMARK    1  A    between atoms: C1_2  and  C2_3 
REMARK    2  A    between atoms: C2_3  and  C3_4 
ROOT
ATOM      1  C3  UNL d   1      -1.361  -0.683   0.050  0.00  0.00    -0.075 A 
ATOM      2  C4  UNL d   1      -1.095   0.694   0.093  0.00  0.00     0.002 A 
ATOM      3  C5  UNL d   1      -2.141   1.617   0.103  0.00  0.00     0.002 A 
ATOM      4  C6  UNL d   1      -3.463   1.178   0.061  0.00  0.00    -0.004 A 
ATOM      5  C7  UNL d   1      -3.738  -0.186   0.002  0.00  0.00     0.002 A 
ATOM      6  C8  UNL d   1      -2.694  -1.113  -0.004  0.00  0.00     0.002 A 
ENDROOT
BRANCH   1   7
ATOM      7  C2  UNL d   1      -0.234  -1.688   0.068  0.00  0.00     0.056 C 
BRANCH   7   8
ATOM      8  C1  UNL d   1      -0.357  -2.781  -0.999  0.00  0.00     0.007 C 
ATOM      9  C   UNL d   1      -0.224  -2.250  -2.420  0.00  0.00     0.009 C 
ENDBRANCH   7   8
ENDBRANCH   1   7
TORSDOF 2
ENDMDL
