MODEL 1
REMARK minimizedAffinity -0.794954181
REMARK minimizedRMSD -1
REMARK  1 active torsions:
REMARK  status: ('A' for Active; 'I' for Inactive)
REMARK    1  A    between atoms: C1_2  and  C2_3 
ROOT
ATOM      1  C2  UNL d   1       3.536  -5.960  -4.715  0.00  0.00    -0.076 A 
ATOM      2  C3  UNL d   1       2.843  -5.925  -3.492  0.00  0.00     0.004 A 
ATOM      3  C4  UNL d   1       3.528  -5.937  -2.279  0.00  0.00    -0.003 A 
ATOM      4  C5  UNL d   1       4.918  -5.983  -2.268  0.00  0.00     0.000 A 
ATOM      5  C6  UNL d   1       5.622  -6.000  -3.472  0.00  0.00     0.000 A 
ATOM      6  C7  UNL d   1       4.947  -5.972  -4.704  0.00  0.00    -0.073 A 
ATOM      7  C8  UNL d   1       5.756  -5.999  -5.972  0.00  0.00     0.078 C 
ENDROOT
BRANCH   1   8
ATOM      8  C1  UNL d   1       2.738  -5.973  -5.999  0.00  0.00     0.053 C 
ATOM      9  C   UNL d   1       1.237  -5.999  -5.753  0.00  0.00     0.018 C 
ENDBRANCH   1   8
TORSDOF 1
ENDMDL
