MODEL 1
REMARK minimizedAffinity -1.82745886
REMARK minimizedRMSD -1
REMARK  1 active torsions:
REMARK  status: ('A' for Active; 'I' for Inactive)
REMARK    1  A    between atoms: C1_2  and  C2_3 
ROOT
ATOM      1  C2  UNL d   1       3.303  -5.293  -4.660  0.00  0.00    -0.076 A 
ATOM      2  C3  UNL d   1       4.212  -5.322  -5.732  0.00  0.00     0.004 A 
ATOM      3  C4  UNL d   1       5.550  -5.659  -5.530  0.00  0.00    -0.003 A 
ATOM      4  C5  UNL d   1       6.000  -5.973  -4.252  0.00  0.00     0.000 A 
ATOM      5  C6  UNL d   1       5.108  -5.967  -3.180  0.00  0.00     0.000 A 
ATOM      6  C7  UNL d   1       3.753  -5.646  -3.369  0.00  0.00    -0.073 A 
ATOM      7  C8  UNL d   1       2.836  -5.649  -2.177  0.00  0.00     0.078 C 
ENDROOT
BRANCH   1   8
ATOM      8  C1  UNL d   1       1.871  -4.894  -4.936  0.00  0.00     0.053 C 
ATOM      9  C   UNL d   1       1.219  -5.763  -6.000  0.00  0.00     0.018 C 
ENDBRANCH   1   8
TORSDOF 1
ENDMDL
