MODEL 1
REMARK minimizedAffinity -1.98052752
REMARK minimizedRMSD -1
REMARK  1 active torsions:
REMARK  status: ('A' for Active; 'I' for Inactive)
REMARK    1  A    between atoms: C1_2  and  C2_3 
ROOT
ATOM      1  C2  UNL d   1       3.721  -5.654  -3.495  0.00  0.00    -0.076 A 
ATOM      2  C3  UNL d   1       2.323  -5.571  -3.613  0.00  0.00     0.004 A 
ATOM      3  C4  UNL d   1       1.700  -5.683  -4.855  0.00  0.00    -0.003 A 
ATOM      4  C5  UNL d   1       2.465  -5.881  -5.999  0.00  0.00     0.000 A 
ATOM      5  C6  UNL d   1       3.852  -5.983  -5.899  0.00  0.00     0.000 A 
ATOM      6  C7  UNL d   1       4.495  -5.888  -4.652  0.00  0.00    -0.073 A 
ATOM      7  C8  UNL d   1       5.994  -5.999  -4.603  0.00  0.00     0.078 C 
ENDROOT
BRANCH   1   8
ATOM      8  C1  UNL d   1       4.342  -5.498  -2.126  0.00  0.00     0.053 C 
ATOM      9  C   UNL d   1       3.377  -5.850  -1.004  0.00  0.00     0.018 C 
ENDBRANCH   1   8
TORSDOF 1
ENDMDL
