MODEL 1
REMARK minimizedAffinity -0.707037985
REMARK minimizedRMSD -1
REMARK  1 active torsions:
REMARK  status: ('A' for Active; 'I' for Inactive)
REMARK    1  A    between atoms: C1_2  and  C2_3 
ROOT
ATOM      1  C2  UNL d   1       4.374  -5.962  -4.447  0.00  0.00    -0.076 A 
ATOM      2  C3  UNL d   1       5.024  -5.976  -3.201  0.00  0.00     0.004 A 
ATOM      3  C4  UNL d   1       4.296  -5.993  -2.012  0.00  0.00    -0.003 A 
ATOM      4  C5  UNL d   1       2.906  -5.996  -2.051  0.00  0.00     0.000 A 
ATOM      5  C6  UNL d   1       2.245  -6.000  -3.278  0.00  0.00     0.000 A 
ATOM      6  C7  UNL d   1       2.963  -6.000  -4.486  0.00  0.00    -0.073 A 
ATOM      7  C8  UNL d   1       2.198  -5.998  -5.781  0.00  0.00     0.078 C 
ENDROOT
BRANCH   1   8
ATOM      8  C1  UNL d   1       5.215  -5.917  -5.703  0.00  0.00     0.053 C 
ATOM      9  C   UNL d   1       5.744  -4.522  -6.000  0.00  0.00     0.018 C 
ENDBRANCH   1   8
TORSDOF 1
ENDMDL
