MODEL 1
REMARK minimizedAffinity -0.259634346
REMARK minimizedRMSD -1
REMARK  1 active torsions:
REMARK  status: ('A' for Active; 'I' for Inactive)
REMARK    1  A    between atoms: C1_2  and  C2_3 
ROOT
ATOM      1  C2  UNL d   1       4.048  -5.914  -3.422  0.00  0.00    -0.076 A 
ATOM      2  C3  UNL d   1       5.440  -5.863  -3.607  0.00  0.00     0.004 A 
ATOM      3  C4  UNL d   1       5.995  -5.888  -4.886  0.00  0.00    -0.003 A 
ATOM      4  C5  UNL d   1       5.166  -5.963  -5.999  0.00  0.00     0.000 A 
ATOM      5  C6  UNL d   1       3.782  -5.996  -5.835  0.00  0.00     0.000 A 
ATOM      6  C7  UNL d   1       3.206  -5.955  -4.553  0.00  0.00    -0.073 A 
ATOM      7  C8  UNL d   1       1.707  -6.000  -4.434  0.00  0.00     0.078 C 
ENDROOT
BRANCH   1   8
ATOM      8  C1  UNL d   1       3.505  -5.911  -2.010  0.00  0.00     0.053 C 
ATOM      9  C   UNL d   1       3.401  -4.510  -1.429  0.00  0.00     0.018 C 
ENDBRANCH   1   8
TORSDOF 1
ENDMDL
