MODEL 1
REMARK minimizedAffinity -1.43737531
REMARK minimizedRMSD -1
REMARK  1 active torsions:
REMARK  status: ('A' for Active; 'I' for Inactive)
REMARK    1  A    between atoms: C1_2  and  C2_3 
ROOT
ATOM      1  C2  UNL d   1       3.300  -5.934  -3.413  0.00  0.00    -0.076 A 
ATOM      2  C3  UNL d   1       3.650  -5.916  -2.051  0.00  0.00     0.004 A 
ATOM      3  C4  UNL d   1       4.985  -5.947  -1.653  0.00  0.00    -0.003 A 
ATOM      4  C5  UNL d   1       5.992  -5.996  -2.611  0.00  0.00     0.000 A 
ATOM      5  C6  UNL d   1       5.664  -5.996  -3.966  0.00  0.00     0.000 A 
ATOM      6  C7  UNL d   1       4.323  -5.949  -4.384  0.00  0.00    -0.073 A 
ATOM      7  C8  UNL d   1       4.026  -5.957  -5.859  0.00  0.00     0.078 C 
ENDROOT
BRANCH   1   8
ATOM      8  C1  UNL d   1       1.834  -5.926  -3.784  0.00  0.00     0.053 C 
ATOM      9  C   UNL d   1       0.971  -5.242  -2.735  0.00  0.00     0.018 C 
ENDBRANCH   1   8
TORSDOF 1
ENDMDL
