MODEL 1
REMARK minimizedAffinity -2.14075279
REMARK minimizedRMSD -1
REMARK  1 active torsions:
REMARK  status: ('A' for Active; 'I' for Inactive)
REMARK    1  A    between atoms: C1_2  and  C2_3 
ROOT
ATOM      1  C2  UNL d   1       3.769  -5.353  -3.439  0.00  0.00    -0.076 A 
ATOM      2  C3  UNL d   1       3.013  -5.855  -4.513  0.00  0.00     0.004 A 
ATOM      3  C4  UNL d   1       3.575  -6.000  -5.780  0.00  0.00    -0.003 A 
ATOM      4  C5  UNL d   1       4.902  -5.645  -5.994  0.00  0.00     0.000 A 
ATOM      5  C6  UNL d   1       5.672  -5.162  -4.937  0.00  0.00     0.000 A 
ATOM      6  C7  UNL d   1       5.126  -5.025  -3.649  0.00  0.00    -0.073 A 
ATOM      7  C8  UNL d   1       6.000  -4.493  -2.547  0.00  0.00     0.078 C 
ENDROOT
BRANCH   1   8
ATOM      8  C1  UNL d   1       3.098  -5.192  -2.094  0.00  0.00     0.053 C 
ATOM      9  C   UNL d   1       1.768  -4.462  -2.189  0.00  0.00     0.018 C 
ENDBRANCH   1   8
TORSDOF 1
ENDMDL
