MODEL 1
REMARK minimizedAffinity -2.92057419
REMARK minimizedRMSD -1
REMARK  1 active torsions:
REMARK  status: ('A' for Active; 'I' for Inactive)
REMARK    1  A    between atoms: C1_2  and  C2_3 
ROOT
ATOM      1  C2  UNL d   1       3.371   3.011   1.720  0.00  0.00    -0.076 A 
ATOM      2  C3  UNL d   1       3.816   4.148   2.418  0.00  0.00     0.004 A 
ATOM      3  C4  UNL d   1       4.863   4.063   3.334  0.00  0.00    -0.003 A 
ATOM      4  C5  UNL d   1       5.483   2.841   3.566  0.00  0.00     0.000 A 
ATOM      5  C6  UNL d   1       5.067   1.707   2.870  0.00  0.00     0.000 A 
ATOM      6  C7  UNL d   1       4.024   1.778   1.931  0.00  0.00    -0.073 A 
ATOM      7  C8  UNL d   1       3.611   0.522   1.214  0.00  0.00     0.078 C 
ENDROOT
BRANCH   1   8
ATOM      8  C1  UNL d   1       2.213   3.158   0.759  0.00  0.00     0.053 C 
ATOM      9  C   UNL d   1       1.020   2.300   1.150  0.00  0.00     0.018 C 
ENDBRANCH   1   8
TORSDOF 1
ENDMDL
