MODEL 1
REMARK minimizedAffinity -2.6929791
REMARK minimizedRMSD -1
REMARK  1 active torsions:
REMARK  status: ('A' for Active; 'I' for Inactive)
REMARK    1  A    between atoms: C1_2  and  C2_3 
ROOT
ATOM      1  C2  UNL d   1       4.603  -4.921  -3.694  0.00  0.00    -0.076 A 
ATOM      2  C3  UNL d   1       4.095  -4.649  -2.412  0.00  0.00     0.004 A 
ATOM      3  C4  UNL d   1       2.806  -5.038  -2.054  0.00  0.00    -0.003 A 
ATOM      4  C5  UNL d   1       2.003  -5.706  -2.972  0.00  0.00     0.000 A 
ATOM      5  C6  UNL d   1       2.496  -5.999  -4.242  0.00  0.00     0.000 A 
ATOM      6  C7  UNL d   1       3.800  -5.629  -4.614  0.00  0.00    -0.073 A 
ATOM      7  C8  UNL d   1       4.278  -5.966  -6.000  0.00  0.00     0.078 C 
ENDROOT
BRANCH   1   8
ATOM      8  C1  UNL d   1       5.999  -4.452  -4.036  0.00  0.00     0.053 C 
ATOM      9  C   UNL d   1       5.998  -3.185  -4.877  0.00  0.00     0.018 C 
ENDBRANCH   1   8
TORSDOF 1
ENDMDL
