MODEL 1
REMARK minimizedAffinity 1.17034936
REMARK minimizedRMSD -1
REMARK  1 active torsions:
REMARK  status: ('A' for Active; 'I' for Inactive)
REMARK    1  A    between atoms: C1_2  and  C2_3 
ROOT
ATOM      1  C2  UNL d   1       3.298  -5.933  -3.026  0.00  0.00    -0.076 A 
ATOM      2  C3  UNL d   1       2.215  -5.923  -3.922  0.00  0.00     0.004 A 
ATOM      3  C4  UNL d   1       2.425  -5.918  -5.300  0.00  0.00    -0.003 A 
ATOM      4  C5  UNL d   1       3.721  -5.924  -5.804  0.00  0.00     0.000 A 
ATOM      5  C6  UNL d   1       4.807  -5.951  -4.929  0.00  0.00     0.000 A 
ATOM      6  C7  UNL d   1       4.612  -5.973  -3.538  0.00  0.00    -0.073 A 
ATOM      7  C8  UNL d   1       5.820  -5.996  -2.641  0.00  0.00     0.078 C 
ENDROOT
BRANCH   1   8
ATOM      8  C1  UNL d   1       3.010  -5.910  -1.542  0.00  0.00     0.053 C 
ATOM      9  C   UNL d   1       1.522  -6.000  -1.235  0.00  0.00     0.018 C 
ENDBRANCH   1   8
TORSDOF 1
ENDMDL
