MODEL 1
REMARK minimizedAffinity -2.49448037
REMARK minimizedRMSD -1
REMARK  1 active torsions:
REMARK  status: ('A' for Active; 'I' for Inactive)
REMARK    1  A    between atoms: C1_2  and  C2_3 
ROOT
ATOM      1  C2  UNL d   1       4.611  -5.419  -4.691  0.00  0.00    -0.076 A 
ATOM      2  C3  UNL d   1       3.349  -5.385  -5.310  0.00  0.00     0.004 A 
ATOM      3  C4  UNL d   1       2.184  -5.598  -4.575  0.00  0.00    -0.003 A 
ATOM      4  C5  UNL d   1       2.262  -5.848  -3.210  0.00  0.00     0.000 A 
ATOM      5  C6  UNL d   1       3.504  -5.867  -2.576  0.00  0.00     0.000 A 
ATOM      6  C7  UNL d   1       4.687  -5.638  -3.299  0.00  0.00    -0.073 A 
ATOM      7  C8  UNL d   1       6.000  -5.676  -2.566  0.00  0.00     0.078 C 
ENDROOT
BRANCH   1   8
ATOM      8  C1  UNL d   1       5.842  -5.208  -5.544  0.00  0.00     0.053 C 
ATOM      9  C   UNL d   1       5.997  -3.764  -5.995  0.00  0.00     0.018 C 
ENDBRANCH   1   8
TORSDOF 1
ENDMDL
