MODEL 1
REMARK minimizedAffinity -2.04726148
REMARK minimizedRMSD -1
REMARK  1 active torsions:
REMARK  status: ('A' for Active; 'I' for Inactive)
REMARK    1  A    between atoms: C1_2  and  C2_3 
ROOT
ATOM      1  C2  UNL d   1       3.594   3.349   2.143  0.00  0.00    -0.076 A 
ATOM      2  C3  UNL d   1       3.841   4.666   2.567  0.00  0.00     0.004 A 
ATOM      3  C4  UNL d   1       5.031   5.001   3.211  0.00  0.00    -0.003 A 
ATOM      4  C5  UNL d   1       5.994   4.025   3.440  0.00  0.00     0.000 A 
ATOM      5  C6  UNL d   1       5.773   2.717   3.011  0.00  0.00     0.000 A 
ATOM      6  C7  UNL d   1       4.586   2.365   2.346  0.00  0.00    -0.073 A 
ATOM      7  C8  UNL d   1       4.398   0.938   1.909  0.00  0.00     0.078 C 
ENDROOT
BRANCH   1   8
ATOM      8  C1  UNL d   1       2.274   3.038   1.474  0.00  0.00     0.053 C 
ATOM      9  C   UNL d   1       1.294   2.348   2.411  0.00  0.00     0.018 C 
ENDBRANCH   1   8
TORSDOF 1
ENDMDL
