MODEL 1
REMARK minimizedAffinity -1.95376706
REMARK minimizedRMSD -1
REMARK  1 active torsions:
REMARK  status: ('A' for Active; 'I' for Inactive)
REMARK    1  A    between atoms: C1_2  and  C2_3 
ROOT
ATOM      1  C2  UNL d   1       3.583  -5.174  -3.357  0.00  0.00    -0.076 A 
ATOM      2  C3  UNL d   1       2.691  -5.739  -4.285  0.00  0.00     0.004 A 
ATOM      3  C4  UNL d   1       3.088  -5.999  -5.595  0.00  0.00    -0.003 A 
ATOM      4  C5  UNL d   1       4.385  -5.699  -5.998  0.00  0.00     0.000 A 
ATOM      5  C6  UNL d   1       5.288  -5.155  -5.086  0.00  0.00     0.000 A 
ATOM      6  C7  UNL d   1       4.908  -4.901  -3.757  0.00  0.00    -0.073 A 
ATOM      7  C8  UNL d   1       5.922  -4.307  -2.817  0.00  0.00     0.078 C 
ENDROOT
BRANCH   1   8
ATOM      8  C1  UNL d   1       3.087  -4.888  -1.957  0.00  0.00     0.053 C 
ATOM      9  C   UNL d   1       1.593  -4.608  -1.914  0.00  0.00     0.018 C 
ENDBRANCH   1   8
TORSDOF 1
ENDMDL
