MODEL 1
REMARK minimizedAffinity 0.339440972
REMARK minimizedRMSD -1
REMARK  1 active torsions:
REMARK  status: ('A' for Active; 'I' for Inactive)
REMARK    1  A    between atoms: C1_2  and  C2_3 
ROOT
ATOM      1  C2  UNL d   1       4.935  -5.228  -3.418  0.00  0.00    -0.076 A 
ATOM      2  C3  UNL d   1       5.541  -5.387  -4.677  0.00  0.00     0.004 A 
ATOM      3  C4  UNL d   1       4.793  -5.766  -5.790  0.00  0.00    -0.003 A 
ATOM      4  C5  UNL d   1       3.427  -5.991  -5.664  0.00  0.00     0.000 A 
ATOM      5  C6  UNL d   1       2.806  -5.821  -4.426  0.00  0.00     0.000 A 
ATOM      6  C7  UNL d   1       3.543  -5.424  -3.297  0.00  0.00    -0.073 A 
ATOM      7  C8  UNL d   1       2.823  -5.261  -1.987  0.00  0.00     0.078 C 
ENDROOT
BRANCH   1   8
ATOM      8  C1  UNL d   1       5.802  -4.842  -2.241  0.00  0.00     0.053 C 
ATOM      9  C   UNL d   1       5.998  -5.988  -1.261  0.00  0.00     0.018 C 
ENDBRANCH   1   8
TORSDOF 1
ENDMDL
