MODEL 1
REMARK minimizedAffinity 3.10743093
REMARK minimizedRMSD -1
REMARK  0 active torsions:
REMARK  status: ('A' for Active; 'I' for Inactive)
ROOT
ATOM      1  C   UNL d   1       1.732  -4.644  -3.416  0.00  0.00    -0.002 A 
ATOM      2  C1  UNL d   1       0.972  -4.822  -2.268  0.00  0.00     0.010 A 
ATOM      3  C2  UNL d   1      -0.357  -5.240  -2.354  0.00  0.00     0.041 A 
ATOM      4  C3  UNL d   1      -0.915  -5.480  -3.625  0.00  0.00    -0.075 A 
ATOM      5  S   UNL d   1      -2.522  -5.999  -3.973  0.00  0.00     0.015 SA
ATOM      6  C4  UNL d   1      -2.238  -5.998  -5.654  0.00  0.00     0.022 A 
ATOM      7  C5  UNL d   1      -0.954  -5.614  -5.959  0.00  0.00     0.026 A 
ATOM      8  C6  UNL d   1      -0.170  -5.309  -4.795  0.00  0.00    -0.082 A 
ATOM      9  C7  UNL d   1       1.175  -4.884  -4.675  0.00  0.00     0.045 A 
ENDROOT
TORSDOF 0
ENDMDL
