MODEL 1
REMARK minimizedAffinity 6.01858234
REMARK minimizedRMSD -1
REMARK  0 active torsions:
REMARK  status: ('A' for Active; 'I' for Inactive)
ROOT
ATOM      1  C   UNL d   1      -1.154  -5.996  -1.639  0.00  0.00    -0.002 A 
ATOM      2  C1  UNL d   1      -2.192  -5.996  -2.561  0.00  0.00     0.010 A 
ATOM      3  C2  UNL d   1      -1.924  -5.992  -3.931  0.00  0.00     0.041 A 
ATOM      4  C3  UNL d   1      -0.584  -5.991  -4.364  0.00  0.00    -0.075 A 
ATOM      5  S   UNL d   1      -0.017  -5.988  -5.992  0.00  0.00     0.015 SA
ATOM      6  C4  UNL d   1       1.616  -5.988  -5.503  0.00  0.00     0.022 A 
ATOM      7  C5  UNL d   1       1.744  -5.990  -4.134  0.00  0.00     0.026 A 
ATOM      8  C6  UNL d   1       0.478  -5.992  -3.455  0.00  0.00    -0.082 A 
ATOM      9  C7  UNL d   1       0.174  -5.995  -2.072  0.00  0.00     0.045 A 
ENDROOT
TORSDOF 0
ENDMDL
