MODEL 1
REMARK minimizedAffinity 7.20946789
REMARK minimizedRMSD -1
REMARK  0 active torsions:
REMARK  status: ('A' for Active; 'I' for Inactive)
ROOT
ATOM      1  C   UNL d   1      -2.747  -5.837  -2.936  0.00  0.00    -0.002 A 
ATOM      2  C1  UNL d   1      -1.760  -5.934  -1.966  0.00  0.00     0.010 A 
ATOM      3  C2  UNL d   1      -0.412  -5.990  -2.327  0.00  0.00     0.041 A 
ATOM      4  C3  UNL d   1      -0.070  -5.944  -3.693  0.00  0.00    -0.075 A 
ATOM      5  S   UNL d   1       1.515  -5.997  -4.370  0.00  0.00     0.015 SA
ATOM      6  C4  UNL d   1       0.918  -5.891  -5.963  0.00  0.00     0.022 A 
ATOM      7  C5  UNL d   1      -0.454  -5.816  -5.996  0.00  0.00     0.026 A 
ATOM      8  C6  UNL d   1      -1.046  -5.845  -4.688  0.00  0.00    -0.082 A 
ATOM      9  C7  UNL d   1      -2.404  -5.791  -4.290  0.00  0.00     0.045 A 
ENDROOT
TORSDOF 0
ENDMDL
