MODEL 1
REMARK minimizedAffinity 2.35341763
REMARK minimizedRMSD -1
REMARK  0 active torsions:
REMARK  status: ('A' for Active; 'I' for Inactive)
ROOT
ATOM      1  C   UNL d   1       0.697  -5.997  -4.515  0.00  0.00    -0.002 A 
ATOM      2  C1  UNL d   1      -0.108  -5.997  -5.645  0.00  0.00     0.010 A 
ATOM      3  C2  UNL d   1      -1.500  -5.999  -5.525  0.00  0.00     0.041 A 
ATOM      4  C3  UNL d   1      -2.073  -5.999  -4.238  0.00  0.00    -0.075 A 
ATOM      5  S   UNL d   1      -3.753  -6.000  -3.849  0.00  0.00     0.015 SA
ATOM      6  C4  UNL d   1      -3.441  -5.999  -2.174  0.00  0.00     0.022 A 
ATOM      7  C5  UNL d   1      -2.093  -5.998  -1.900  0.00  0.00     0.026 A 
ATOM      8  C6  UNL d   1      -1.283  -5.998  -3.085  0.00  0.00    -0.082 A 
ATOM      9  C7  UNL d   1       0.124  -5.997  -3.240  0.00  0.00     0.045 A 
ENDROOT
TORSDOF 0
ENDMDL
