MODEL 1
REMARK minimizedAffinity -0.294745475
REMARK minimizedRMSD -1
REMARK  0 active torsions:
REMARK  status: ('A' for Active; 'I' for Inactive)
ROOT
ATOM      1  C   UNL d   1      -3.291  -5.783  -2.803  0.00  0.00    -0.002 A 
ATOM      2  C1  UNL d   1      -2.290  -5.421  -1.913  0.00  0.00     0.010 A 
ATOM      3  C2  UNL d   1      -0.973  -5.264  -2.351  0.00  0.00     0.041 A 
ATOM      4  C3  UNL d   1      -0.678  -5.477  -3.712  0.00  0.00    -0.075 A 
ATOM      5  S   UNL d   1       0.862  -5.340  -4.475  0.00  0.00     0.015 SA
ATOM      6  C4  UNL d   1       0.227  -5.759  -6.000  0.00  0.00     0.022 A 
ATOM      7  C5  UNL d   1      -1.125  -6.000  -5.947  0.00  0.00     0.026 A 
ATOM      8  C6  UNL d   1      -1.669  -5.841  -4.627  0.00  0.00    -0.082 A 
ATOM      9  C7  UNL d   1      -2.994  -5.993  -4.152  0.00  0.00     0.045 A 
ENDROOT
TORSDOF 0
ENDMDL
