MODEL 1
REMARK minimizedAffinity 6.07512188
REMARK minimizedRMSD -1
REMARK  0 active torsions:
REMARK  status: ('A' for Active; 'I' for Inactive)
ROOT
ATOM      1  C   UNL d   1       0.166  -2.954   1.912  0.00  0.00    -0.002 A 
ATOM      2  C1  UNL d   1       0.120  -3.634   0.703  0.00  0.00     0.010 A 
ATOM      3  C2  UNL d   1       0.485  -2.997  -0.485  0.00  0.00     0.041 A 
ATOM      4  C3  UNL d   1       0.903  -1.652  -0.437  0.00  0.00    -0.075 A 
ATOM      5  S   UNL d   1       1.397  -0.669  -1.764  0.00  0.00     0.015 SA
ATOM      6  C4  UNL d   1       1.682   0.676  -0.757  0.00  0.00     0.022 A 
ATOM      7  C5  UNL d   1       1.412   0.400   0.562  0.00  0.00     0.026 A 
ATOM      8  C6  UNL d   1       0.959  -0.947   0.769  0.00  0.00    -0.082 A 
ATOM      9  C7  UNL d   1       0.582  -1.620   1.956  0.00  0.00     0.045 A 
ENDROOT
TORSDOF 0
ENDMDL
