MODEL 1
REMARK minimizedAffinity -1.22602141
REMARK minimizedRMSD -1
REMARK  0 active torsions:
REMARK  status: ('A' for Active; 'I' for Inactive)
ROOT
ATOM      1  C   UNL d   1      -3.775  -5.998  -2.929  0.00  0.00    -0.002 A 
ATOM      2  C1  UNL d   1      -2.780  -5.999  -1.961  0.00  0.00     0.010 A 
ATOM      3  C2  UNL d   1      -1.433  -5.989  -2.327  0.00  0.00     0.041 A 
ATOM      4  C3  UNL d   1      -1.098  -5.976  -3.696  0.00  0.00    -0.075 A 
ATOM      5  S   UNL d   1       0.485  -5.961  -4.378  0.00  0.00     0.015 SA
ATOM      6  C4  UNL d   1      -0.122  -5.951  -5.971  0.00  0.00     0.022 A 
ATOM      7  C5  UNL d   1      -1.496  -5.959  -6.000  0.00  0.00     0.026 A 
ATOM      8  C6  UNL d   1      -2.082  -5.973  -4.689  0.00  0.00    -0.082 A 
ATOM      9  C7  UNL d   1      -3.439  -5.984  -4.286  0.00  0.00     0.045 A 
ENDROOT
TORSDOF 0
ENDMDL
