MODEL 1
REMARK minimizedAffinity 1.75534797
REMARK minimizedRMSD -1
REMARK  0 active torsions:
REMARK  status: ('A' for Active; 'I' for Inactive)
ROOT
ATOM      1  C   UNL d   1      -2.877  -6.000  -2.650  0.00  0.00    -0.002 A 
ATOM      2  C1  UNL d   1      -1.802  -5.990  -1.772  0.00  0.00     0.010 A 
ATOM      3  C2  UNL d   1      -0.492  -5.978  -2.255  0.00  0.00     0.041 A 
ATOM      4  C3  UNL d   1      -0.278  -5.974  -3.647  0.00  0.00    -0.075 A 
ATOM      5  S   UNL d   1       1.239  -5.958  -4.466  0.00  0.00     0.015 SA
ATOM      6  C4  UNL d   1       0.496  -5.964  -5.999  0.00  0.00     0.022 A 
ATOM      7  C5  UNL d   1      -0.875  -5.977  -5.908  0.00  0.00     0.026 A 
ATOM      8  C6  UNL d   1      -1.344  -5.983  -4.551  0.00  0.00    -0.082 A 
ATOM      9  C7  UNL d   1      -2.661  -5.996  -4.031  0.00  0.00     0.045 A 
ENDROOT
TORSDOF 0
ENDMDL
