MODEL 1
REMARK minimizedAffinity 10.0320778
REMARK minimizedRMSD -1
REMARK  0 active torsions:
REMARK  status: ('A' for Active; 'I' for Inactive)
ROOT
ATOM      1  C   UNL d   1      -1.697  -3.453   1.043  0.00  0.00    -0.002 A 
ATOM      2  C1  UNL d   1      -0.418  -3.967   1.205  0.00  0.00     0.010 A 
ATOM      3  C2  UNL d   1       0.700  -3.139   1.088  0.00  0.00     0.041 A 
ATOM      4  C3  UNL d   1       0.510  -1.772   0.805  0.00  0.00    -0.075 A 
ATOM      5  S   UNL d   1       1.731  -0.570   0.618  0.00  0.00     0.015 SA
ATOM      6  C4  UNL d   1       0.584   0.655   0.320  0.00  0.00     0.022 A 
ATOM      7  C5  UNL d   1      -0.704   0.176   0.358  0.00  0.00     0.026 A 
ATOM      8  C6  UNL d   1      -0.768  -1.231   0.639  0.00  0.00    -0.082 A 
ATOM      9  C7  UNL d   1      -1.881  -2.096   0.762  0.00  0.00     0.045 A 
ENDROOT
TORSDOF 0
ENDMDL
