MODEL 1
REMARK minimizedAffinity 0.967279375
REMARK minimizedRMSD -1
REMARK  0 active torsions:
REMARK  status: ('A' for Active; 'I' for Inactive)
ROOT
ATOM      1  C   UNL d   1      -2.200  -5.998  -2.871  0.00  0.00    -0.002 A 
ATOM      2  C1  UNL d   1      -1.183  -5.998  -1.927  0.00  0.00     0.010 A 
ATOM      3  C2  UNL d   1       0.156  -5.998  -2.324  0.00  0.00     0.041 A 
ATOM      4  C3  UNL d   1       0.458  -5.996  -3.700  0.00  0.00    -0.075 A 
ATOM      5  S   UNL d   1       2.024  -5.995  -4.420  0.00  0.00     0.015 SA
ATOM      6  C4  UNL d   1       1.381  -5.994  -5.998  0.00  0.00     0.022 A 
ATOM      7  C5  UNL d   1       0.006  -5.994  -5.995  0.00  0.00     0.026 A 
ATOM      8  C6  UNL d   1      -0.549  -5.995  -4.670  0.00  0.00    -0.082 A 
ATOM      9  C7  UNL d   1      -1.896  -5.996  -4.235  0.00  0.00     0.045 A 
ENDROOT
TORSDOF 0
ENDMDL
