MODEL 1
REMARK minimizedAffinity 3.55579042
REMARK minimizedRMSD -1
REMARK  0 active torsions:
REMARK  status: ('A' for Active; 'I' for Inactive)
ROOT
ATOM      1  C   UNL d   1      -2.974  -5.990  -3.681  0.00  0.00    -0.002 A 
ATOM      2  C1  UNL d   1      -2.288  -5.995  -2.475  0.00  0.00     0.010 A 
ATOM      3  C2  UNL d   1      -0.892  -5.999  -2.452  0.00  0.00     0.041 A 
ATOM      4  C3  UNL d   1      -0.190  -5.996  -3.673  0.00  0.00    -0.075 A 
ATOM      5  S   UNL d   1       1.521  -6.000  -3.889  0.00  0.00     0.015 SA
ATOM      6  C4  UNL d   1       1.381  -5.994  -5.588  0.00  0.00     0.022 A 
ATOM      7  C5  UNL d   1       0.069  -5.991  -5.997  0.00  0.00     0.026 A 
ATOM      8  C6  UNL d   1      -0.858  -5.991  -4.901  0.00  0.00    -0.082 A 
ATOM      9  C7  UNL d   1      -2.274  -5.988  -4.891  0.00  0.00     0.045 A 
ENDROOT
TORSDOF 0
ENDMDL
