MODEL 1
REMARK minimizedAffinity -4.68390226
REMARK minimizedRMSD -1
REMARK  1 active torsions:
REMARK  status: ('A' for Active; 'I' for Inactive)
REMARK    1  A    between atoms: C3_4  and  O_7 
ROOT
ATOM      1  C   UNL d   1      -0.264   0.107  -0.079  0.00  0.00    -0.033 A 
ATOM      2  C1  UNL d   1       0.927   0.676  -0.534  0.00  0.00     0.039 A 
ATOM      3  C2  UNL d   1       1.449   1.806   0.099  0.00  0.00    -0.080 A 
ATOM      4  C3  UNL d   1       0.772   2.355   1.185  0.00  0.00     0.150 A 
ATOM      5  C4  UNL d   1      -0.413   1.790   1.645  0.00  0.00    -0.007 A 
ATOM      6  C5  UNL d   1      -0.933   0.663   1.011  0.00  0.00     0.039 A 
ENDROOT
BRANCH   4   7
ATOM      7  O   UNL d   1       1.239   3.460   1.832  0.00  0.00    -0.526 OA
ATOM      8  H5  UNL d   1       2.050   3.758   1.386  0.00  0.00     0.418 HD
ENDBRANCH   4   7
TORSDOF 1
ENDMDL
