MODEL 1
REMARK minimizedAffinity -4.1783371
REMARK minimizedRMSD -1
REMARK  1 active torsions:
REMARK  status: ('A' for Active; 'I' for Inactive)
REMARK    1  A    between atoms: C3_4  and  O_7 
ROOT
ATOM      1  C   UNL d   1       0.020  -0.329   0.097  0.00  0.00    -0.033 A 
ATOM      2  C1  UNL d   1       1.233   0.162  -0.390  0.00  0.00     0.039 A 
ATOM      3  C2  UNL d   1       1.771   1.340   0.133  0.00  0.00    -0.080 A 
ATOM      4  C3  UNL d   1       1.087   2.015   1.141  0.00  0.00     0.150 A 
ATOM      5  C4  UNL d   1      -0.120   1.529   1.632  0.00  0.00    -0.007 A 
ATOM      6  C5  UNL d   1      -0.655   0.353   1.109  0.00  0.00     0.039 A 
ENDROOT
BRANCH   4   7
ATOM      7  O   UNL d   1       1.570   3.171   1.679  0.00  0.00    -0.526 OA
ATOM      8  H5  UNL d   1       2.396   3.402   1.222  0.00  0.00     0.418 HD
ENDBRANCH   4   7
TORSDOF 1
ENDMDL
