MODEL 1
REMARK minimizedAffinity -5.03038359
REMARK minimizedRMSD -1
REMARK  1 active torsions:
REMARK  status: ('A' for Active; 'I' for Inactive)
REMARK    1  A    between atoms: C3_4  and  O_7 
ROOT
ATOM      1  C   UNL d   1       1.233   2.388   1.165  0.00  0.00    -0.033 A 
ATOM      2  C1  UNL d   1       0.076   1.901   1.776  0.00  0.00     0.039 A 
ATOM      3  C2  UNL d   1      -0.531   0.738   1.298  0.00  0.00    -0.080 A 
ATOM      4  C3  UNL d   1       0.030   0.072   0.212  0.00  0.00     0.150 A 
ATOM      5  C4  UNL d   1       1.184   0.549  -0.399  0.00  0.00    -0.007 A 
ATOM      6  C5  UNL d   1       1.788   1.712   0.079  0.00  0.00     0.039 A 
ENDROOT
BRANCH   4   7
ATOM      7  O   UNL d   1      -0.529  -1.065  -0.293  0.00  0.00    -0.526 OA
ATOM      8  H5  UNL d   1      -1.338  -1.260   0.210  0.00  0.00     0.418 HD
ENDBRANCH   4   7
TORSDOF 1
ENDMDL
