MODEL 1
REMARK minimizedAffinity -4.00474119
REMARK minimizedRMSD -1
REMARK  1 active torsions:
REMARK  status: ('A' for Active; 'I' for Inactive)
REMARK    1  A    between atoms: C3_4  and  O_7 
ROOT
ATOM      1  C   UNL d   1      -1.764  -1.465  -2.620  0.00  0.00    -0.033 A 
ATOM      2  C1  UNL d   1      -1.428  -1.709  -1.287  0.00  0.00     0.039 A 
ATOM      3  C2  UNL d   1      -0.223  -1.230  -0.769  0.00  0.00    -0.080 A 
ATOM      4  C3  UNL d   1       0.636  -0.509  -1.594  0.00  0.00     0.150 A 
ATOM      5  C4  UNL d   1       0.306  -0.258  -2.922  0.00  0.00    -0.007 A 
ATOM      6  C5  UNL d   1      -0.897  -0.738  -3.437  0.00  0.00     0.039 A 
ENDROOT
BRANCH   4   7
ATOM      7  O   UNL d   1       1.825  -0.025  -1.135  0.00  0.00    -0.526 OA
ATOM      8  H5  UNL d   1       1.932  -0.299  -0.209  0.00  0.00     0.418 HD
ENDBRANCH   4   7
TORSDOF 1
ENDMDL
