MODEL 1
REMARK minimizedAffinity -2.06703138
REMARK minimizedRMSD -1
REMARK  1 active torsions:
REMARK  status: ('A' for Active; 'I' for Inactive)
REMARK    1  A    between atoms: C3_4  and  O_7 
ROOT
ATOM      1  C   UNL d   1       0.485  -0.309   0.130  0.00  0.00    -0.033 A 
ATOM      2  C1  UNL d   1      -0.655   0.492   0.037  0.00  0.00     0.039 A 
ATOM      3  C2  UNL d   1      -1.625   0.219  -0.930  0.00  0.00    -0.080 A 
ATOM      4  C3  UNL d   1      -1.444  -0.857  -1.795  0.00  0.00     0.150 A 
ATOM      5  C4  UNL d   1      -0.313  -1.661  -1.704  0.00  0.00    -0.007 A 
ATOM      6  C5  UNL d   1       0.655  -1.387  -0.739  0.00  0.00     0.039 A 
ENDROOT
BRANCH   4   7
ATOM      7  O   UNL d   1      -2.361  -1.160  -2.757  0.00  0.00    -0.526 OA
ATOM      8  H5  UNL d   1      -3.075  -0.502  -2.720  0.00  0.00     0.418 HD
ENDBRANCH   4   7
TORSDOF 1
ENDMDL
