MODEL 1
REMARK minimizedAffinity -4.87462378
REMARK minimizedRMSD -1
REMARK  1 active torsions:
REMARK  status: ('A' for Active; 'I' for Inactive)
REMARK    1  A    between atoms: C3_4  and  O_7 
ROOT
ATOM      1  C   UNL d   1       0.740   2.173   2.136  0.00  0.00    -0.033 A 
ATOM      2  C1  UNL d   1      -0.555   1.652   2.178  0.00  0.00     0.039 A 
ATOM      3  C2  UNL d   1      -1.050   0.919   1.098  0.00  0.00    -0.080 A 
ATOM      4  C3  UNL d   1      -0.242   0.713  -0.016  0.00  0.00     0.150 A 
ATOM      5  C4  UNL d   1       1.051   1.226  -0.063  0.00  0.00    -0.007 A 
ATOM      6  C5  UNL d   1       1.543   1.958   1.016  0.00  0.00     0.039 A 
ENDROOT
BRANCH   4   7
ATOM      7  O   UNL d   1      -0.683   0.009  -1.097  0.00  0.00    -0.526 OA
ATOM      8  H5  UNL d   1      -1.603  -0.259  -0.935  0.00  0.00     0.418 HD
ENDBRANCH   4   7
TORSDOF 1
ENDMDL
