MODEL 1
REMARK minimizedAffinity -5.34851456
REMARK minimizedRMSD -1
REMARK  1 active torsions:
REMARK  status: ('A' for Active; 'I' for Inactive)
REMARK    1  A    between atoms: C3_4  and  O_7 
ROOT
ATOM      1  C   UNL d   1      -0.143  -0.414  -0.002  0.00  0.00    -0.033 A 
ATOM      2  C1  UNL d   1       1.023   0.155  -0.517  0.00  0.00     0.039 A 
ATOM      3  C2  UNL d   1       1.465   1.393  -0.044  0.00  0.00    -0.080 A 
ATOM      4  C3  UNL d   1       0.734   2.048   0.943  0.00  0.00     0.150 A 
ATOM      5  C4  UNL d   1      -0.427   1.485   1.463  0.00  0.00    -0.007 A 
ATOM      6  C5  UNL d   1      -0.867   0.250   0.989  0.00  0.00     0.039 A 
ENDROOT
BRANCH   4   7
ATOM      7  O   UNL d   1       1.123   3.260   1.432  0.00  0.00    -0.526 OA
ATOM      8  H5  UNL d   1       1.925   3.539   0.959  0.00  0.00     0.418 HD
ENDBRANCH   4   7
TORSDOF 1
ENDMDL
