MODEL 1
REMARK minimizedAffinity -4.55825615
REMARK minimizedRMSD -1
REMARK  1 active torsions:
REMARK  status: ('A' for Active; 'I' for Inactive)
REMARK    1  A    between atoms: C3_4  and  O_7 
ROOT
ATOM      1  C   UNL d   1      -0.374  -0.377   0.091  0.00  0.00    -0.033 A 
ATOM      2  C1  UNL d   1       0.827   0.042  -0.486  0.00  0.00     0.039 A 
ATOM      3  C2  UNL d   1       1.452   1.206  -0.033  0.00  0.00    -0.080 A 
ATOM      4  C3  UNL d   1       0.868   1.939   0.997  0.00  0.00     0.150 A 
ATOM      5  C4  UNL d   1      -0.326   1.525   1.578  0.00  0.00    -0.007 A 
ATOM      6  C5  UNL d   1      -0.949   0.364   1.124  0.00  0.00     0.039 A 
ENDROOT
BRANCH   4   7
ATOM      7  O   UNL d   1       1.439   3.083   1.469  0.00  0.00    -0.526 OA
ATOM      8  H5  UNL d   1       2.243   3.262   0.953  0.00  0.00     0.418 HD
ENDBRANCH   4   7
TORSDOF 1
ENDMDL
