MODEL 1
REMARK minimizedAffinity -3.38308096
REMARK minimizedRMSD -1
REMARK  1 active torsions:
REMARK  status: ('A' for Active; 'I' for Inactive)
REMARK    1  A    between atoms: C3_4  and  O_7 
ROOT
ATOM      1  C   UNL d   1      -2.839  -1.748  -3.144  0.00  0.00    -0.033 A 
ATOM      2  C1  UNL d   1      -1.665  -1.009  -3.306  0.00  0.00     0.039 A 
ATOM      3  C2  UNL d   1      -0.810  -0.807  -2.221  0.00  0.00    -0.080 A 
ATOM      4  C3  UNL d   1      -1.139  -1.350  -0.982  0.00  0.00     0.150 A 
ATOM      5  C4  UNL d   1      -2.304  -2.091  -0.814  0.00  0.00    -0.007 A 
ATOM      6  C5  UNL d   1      -3.157  -2.290  -1.899  0.00  0.00     0.039 A 
ENDROOT
BRANCH   4   7
ATOM      7  O   UNL d   1      -0.338  -1.176   0.108  0.00  0.00    -0.526 OA
ATOM      8  H5  UNL d   1       0.416  -0.619  -0.150  0.00  0.00     0.418 HD
ENDBRANCH   4   7
TORSDOF 1
ENDMDL
