MODEL 1
REMARK minimizedAffinity -1.68689728
REMARK minimizedRMSD -1
REMARK  1 active torsions:
REMARK  status: ('A' for Active; 'I' for Inactive)
REMARK    1  A    between atoms: C3_4  and  O_7 
ROOT
ATOM      1  C   UNL d   1      -4.670   5.976  -5.872  0.00  0.00    -0.033 A 
ATOM      2  C1  UNL d   1      -5.631   5.976  -4.859  0.00  0.00     0.039 A 
ATOM      3  C2  UNL d   1      -5.237   5.981  -3.520  0.00  0.00    -0.080 A 
ATOM      4  C3  UNL d   1      -3.881   5.987  -3.207  0.00  0.00     0.150 A 
ATOM      5  C4  UNL d   1      -2.918   5.992  -4.210  0.00  0.00    -0.007 A 
ATOM      6  C5  UNL d   1      -3.313   5.986  -5.547  0.00  0.00     0.039 A 
ENDROOT
BRANCH   4   7
ATOM      7  O   UNL d   1      -3.448   5.987  -1.914  0.00  0.00    -0.526 OA
ATOM      8  H5  UNL d   1      -4.224   5.955  -1.330  0.00  0.00     0.418 HD
ENDBRANCH   4   7
TORSDOF 1
ENDMDL
