MODEL 1
REMARK minimizedAffinity -4.22680712
REMARK minimizedRMSD -1
REMARK  1 active torsions:
REMARK  status: ('A' for Active; 'I' for Inactive)
REMARK    1  A    between atoms: C3_4  and  O_7 
ROOT
ATOM      1  C   UNL d   1      -1.289  -0.196   0.585  0.00  0.00    -0.033 A 
ATOM      2  C1  UNL d   1      -1.763   0.667   1.575  0.00  0.00     0.039 A 
ATOM      3  C2  UNL d   1      -1.102   1.869   1.831  0.00  0.00    -0.080 A 
ATOM      4  C3  UNL d   1       0.030   2.198   1.090  0.00  0.00     0.150 A 
ATOM      5  C4  UNL d   1       0.506   1.345   0.099  0.00  0.00    -0.007 A 
ATOM      6  C5  UNL d   1      -0.155   0.144  -0.154  0.00  0.00     0.039 A 
ENDROOT
BRANCH   4   7
ATOM      7  O   UNL d   1       0.712   3.358   1.307  0.00  0.00    -0.526 OA
ATOM      8  H5  UNL d   1       0.286   3.833   2.040  0.00  0.00     0.418 HD
ENDBRANCH   4   7
TORSDOF 1
ENDMDL
