MODEL 1
REMARK minimizedAffinity -4.87656593
REMARK minimizedRMSD -1
REMARK  1 active torsions:
REMARK  status: ('A' for Active; 'I' for Inactive)
REMARK    1  A    between atoms: C3_4  and  O_7 
ROOT
ATOM      1  C   UNL d   1       1.703   2.174   0.323  0.00  0.00    -0.033 A 
ATOM      2  C1  UNL d   1       2.887   1.569  -0.104  0.00  0.00     0.039 A 
ATOM      3  C2  UNL d   1       3.825   1.130   0.832  0.00  0.00    -0.080 A 
ATOM      4  C3  UNL d   1       3.568   1.300   2.189  0.00  0.00     0.150 A 
ATOM      5  C4  UNL d   1       2.389   1.898   2.622  0.00  0.00    -0.007 A 
ATOM      6  C5  UNL d   1       1.454   2.337   1.686  0.00  0.00     0.039 A 
ENDROOT
BRANCH   4   7
ATOM      7  O   UNL d   1       4.456   0.891   3.140  0.00  0.00    -0.526 OA
ATOM      8  H5  UNL d   1       5.237   0.523   2.693  0.00  0.00     0.418 HD
ENDBRANCH   4   7
TORSDOF 1
ENDMDL
