MODEL 1
REMARK minimizedAffinity -4.37420702
REMARK minimizedRMSD -1
REMARK  1 active torsions:
REMARK  status: ('A' for Active; 'I' for Inactive)
REMARK    1  A    between atoms: C3_4  and  O_7 
ROOT
ATOM      1  C   UNL d   1       2.849   2.475   1.040  0.00  0.00    -0.033 A 
ATOM      2  C1  UNL d   1       1.476   2.535   1.284  0.00  0.00     0.039 A 
ATOM      3  C2  UNL d   1       0.611   1.650   0.638  0.00  0.00    -0.080 A 
ATOM      4  C3  UNL d   1       1.131   0.710  -0.247  0.00  0.00     0.150 A 
ATOM      5  C4  UNL d   1       2.499   0.642  -0.492  0.00  0.00    -0.007 A 
ATOM      6  C5  UNL d   1       3.361   1.528   0.153  0.00  0.00     0.039 A 
ENDROOT
BRANCH   4   7
ATOM      7  O   UNL d   1       0.326  -0.172  -0.905  0.00  0.00    -0.526 OA
ATOM      8  H5  UNL d   1      -0.596   0.011  -0.659  0.00  0.00     0.418 HD
ENDBRANCH   4   7
TORSDOF 1
ENDMDL
