MODEL 1
REMARK minimizedAffinity -2.07975459
REMARK minimizedRMSD -1
REMARK  1 active torsions:
REMARK  status: ('A' for Active; 'I' for Inactive)
REMARK    1  A    between atoms: C3_4  and  O_7 
ROOT
ATOM      1  C   UNL d   1       0.272  -1.111  -0.643  0.00  0.00    -0.033 A 
ATOM      2  C1  UNL d   1       1.388  -0.452  -1.162  0.00  0.00     0.039 A 
ATOM      3  C2  UNL d   1       1.763   0.795  -0.657  0.00  0.00    -0.080 A 
ATOM      4  C3  UNL d   1       1.016   1.370   0.367  0.00  0.00     0.150 A 
ATOM      5  C4  UNL d   1      -0.095   0.717   0.892  0.00  0.00    -0.007 A 
ATOM      6  C5  UNL d   1      -0.468  -0.527   0.386  0.00  0.00     0.039 A 
ENDROOT
BRANCH   4   7
ATOM      7  O   UNL d   1       1.340   2.587   0.889  0.00  0.00    -0.526 OA
ATOM      8  H5  UNL d   1       2.112   2.931   0.410  0.00  0.00     0.418 HD
ENDBRANCH   4   7
TORSDOF 1
ENDMDL
