MODEL 1
REMARK minimizedAffinity -4.45812416
REMARK minimizedRMSD -1
REMARK  1 active torsions:
REMARK  status: ('A' for Active; 'I' for Inactive)
REMARK    1  A    between atoms: C3_4  and  O_7 
ROOT
ATOM      1  C   UNL d   1      -0.500  -0.136  -0.177  0.00  0.00    -0.033 A 
ATOM      2  C1  UNL d   1       0.644   0.422  -0.751  0.00  0.00     0.039 A 
ATOM      3  C2  UNL d   1       1.282   1.499  -0.134  0.00  0.00    -0.080 A 
ATOM      4  C3  UNL d   1       0.767   2.008   1.056  0.00  0.00     0.150 A 
ATOM      5  C4  UNL d   1      -0.370   1.455   1.635  0.00  0.00    -0.007 A 
ATOM      6  C5  UNL d   1      -1.006   0.380   1.017  0.00  0.00     0.039 A 
ENDROOT
BRANCH   4   7
ATOM      7  O   UNL d   1       1.353   3.062   1.692  0.00  0.00    -0.526 OA
ATOM      8  H5  UNL d   1       2.111   3.359   1.162  0.00  0.00     0.418 HD
ENDBRANCH   4   7
TORSDOF 1
ENDMDL
