MODEL 1
REMARK minimizedAffinity -0.799249232
REMARK minimizedRMSD -1
REMARK  1 active torsions:
REMARK  status: ('A' for Active; 'I' for Inactive)
REMARK    1  A    between atoms: C3_4  and  O_7 
ROOT
ATOM      1  C   UNL d   1      -0.075   1.148   4.653  0.00  0.00    -0.033 A 
ATOM      2  C1  UNL d   1       1.142   0.835   5.261  0.00  0.00     0.039 A 
ATOM      3  C2  UNL d   1       2.308   0.763   4.498  0.00  0.00    -0.080 A 
ATOM      4  C3  UNL d   1       2.245   1.008   3.129  0.00  0.00     0.150 A 
ATOM      5  C4  UNL d   1       1.037   1.324   2.516  0.00  0.00    -0.007 A 
ATOM      6  C5  UNL d   1      -0.127   1.395   3.280  0.00  0.00     0.039 A 
ENDROOT
BRANCH   4   7
ATOM      7  O   UNL d   1       3.356   0.945   2.341  0.00  0.00    -0.526 OA
ATOM      8  H5  UNL d   1       4.112   0.688   2.896  0.00  0.00     0.418 HD
ENDBRANCH   4   7
TORSDOF 1
ENDMDL
