MODEL 1
REMARK minimizedAffinity 12.4993505
REMARK minimizedRMSD -1
REMARK  0 active torsions:
REMARK  status: ('A' for Active; 'I' for Inactive)
ROOT
ATOM      1  N1  IND d   1      -1.211  -1.605   1.406  0.00  0.00    -0.196 N 
ATOM      2  C2  IND d   1      -0.805  -2.907   1.323  0.00  0.00     0.054 A 
ATOM      3  C3  IND d   1       0.542  -2.975   1.230  0.00  0.00    -0.031 A 
ATOM      4  C4  IND d   1       2.284  -1.080   1.297  0.00  0.00     0.051 A 
ATOM      5  C5  IND d   1       2.393   0.282   1.325  0.00  0.00    -0.031 A 
ATOM      6  C6  IND d   1       1.284   1.101   1.386  0.00  0.00     0.015 A 
ATOM      7  C7  IND d   1       0.020   0.586   1.432  0.00  0.00    -0.016 A 
ATOM      8  C8  IND d   1      -0.096  -0.796   1.396  0.00  0.00    -0.047 A 
ATOM      9  C9  IND d   1       1.024  -1.631   1.292  0.00  0.00    -0.096 A 
ATOM     10  HN1 IND d   1      -2.026  -1.335   1.455  0.00  0.00     0.298 HD
ENDROOT
TORSDOF 0
ENDMDL
