MODEL 1
REMARK minimizedAffinity 15.2871895
REMARK minimizedRMSD -1
REMARK  0 active torsions:
REMARK  status: ('A' for Active; 'I' for Inactive)
ROOT
ATOM      1  N1  IND d   1       0.411  -1.720   4.040  0.00  0.00    -0.196 N 
ATOM      2  C2  IND d   1       0.499  -3.017   3.616  0.00  0.00     0.054 A 
ATOM      3  C3  IND d   1       1.177  -3.085   2.448  0.00  0.00    -0.031 A 
ATOM      4  C4  IND d   1       2.319  -1.207   1.109  0.00  0.00     0.051 A 
ATOM      5  C5  IND d   1       2.481   0.150   1.078  0.00  0.00    -0.031 A 
ATOM      6  C6  IND d   1       1.952   0.969   2.055  0.00  0.00     0.015 A 
ATOM      7  C7  IND d   1       1.249   0.458   3.109  0.00  0.00    -0.016 A 
ATOM      8  C8  IND d   1       1.077  -0.918   3.139  0.00  0.00    -0.047 A 
ATOM      9  C9  IND d   1       1.575  -1.751   2.128  0.00  0.00    -0.096 A 
ATOM     10  HN1 IND d   1       0.008  -1.451   4.750  0.00  0.00     0.298 HD
ENDROOT
TORSDOF 0
ENDMDL
