MODEL 1
REMARK minimizedAffinity 6.91802502
REMARK minimizedRMSD -1
REMARK  0 active torsions:
REMARK  status: ('A' for Active; 'I' for Inactive)
ROOT
ATOM      1  N1  IND d   1      -0.440  -2.618   2.548  0.00  0.00    -0.196 N 
ATOM      2  C2  IND d   1       0.795  -2.149   2.900  0.00  0.00     0.054 A 
ATOM      3  C3  IND d   1       1.759  -2.990   2.463  0.00  0.00    -0.031 A 
ATOM      4  C4  IND d   1       1.543  -5.139   1.062  0.00  0.00     0.051 A 
ATOM      5  C5  IND d   1       0.615  -5.989   0.529  0.00  0.00    -0.031 A 
ATOM      6  C6  IND d   1      -0.740  -5.753   0.642  0.00  0.00     0.015 A 
ATOM      7  C7  IND d   1      -1.219  -4.647   1.285  0.00  0.00    -0.016 A 
ATOM      8  C8  IND d   1      -0.279  -3.785   1.833  0.00  0.00    -0.047 A 
ATOM      9  C9  IND d   1       1.096  -4.042   1.759  0.00  0.00    -0.096 A 
ATOM     10  HN1 IND d   1      -1.191  -2.247   2.741  0.00  0.00     0.298 HD
ENDROOT
TORSDOF 0
ENDMDL
