MODEL 1
REMARK minimizedAffinity 19.1323128
REMARK minimizedRMSD -1
REMARK  0 active torsions:
REMARK  status: ('A' for Active; 'I' for Inactive)
ROOT
ATOM      1  N1  IND d   1      -4.399   1.585  -2.318  0.00  0.00    -0.196 N 
ATOM      2  C2  IND d   1      -3.792   0.531  -2.942  0.00  0.00     0.054 A 
ATOM      3  C3  IND d   1      -2.661   0.184  -2.288  0.00  0.00    -0.031 A 
ATOM      4  C4  IND d   1      -1.670   1.143  -0.114  0.00  0.00     0.051 A 
ATOM      5  C5  IND d   1      -1.849   2.140   0.803  0.00  0.00    -0.031 A 
ATOM      6  C6  IND d   1      -2.910   3.019   0.727  0.00  0.00     0.015 A 
ATOM      7  C7  IND d   1      -3.842   2.926  -0.268  0.00  0.00    -0.016 A 
ATOM      8  C8  IND d   1      -3.660   1.919  -1.205  0.00  0.00    -0.047 A 
ATOM      9  C9  IND d   1      -2.562   1.051  -1.157  0.00  0.00    -0.096 A 
ATOM     10  HN1 IND d   1      -5.121   1.973  -2.577  0.00  0.00     0.298 HD
ENDROOT
TORSDOF 0
ENDMDL
