MODEL 1
REMARK minimizedAffinity 11.2858534
REMARK minimizedRMSD -1
REMARK  0 active torsions:
REMARK  status: ('A' for Active; 'I' for Inactive)
ROOT
ATOM      1  N1  IND d   1      -3.145   3.128  -0.140  0.00  0.00    -0.196 N 
ATOM      2  C2  IND d   1      -2.313   2.393   0.659  0.00  0.00     0.054 A 
ATOM      3  C3  IND d   1      -2.082   1.180   0.108  0.00  0.00    -0.031 A 
ATOM      4  C4  IND d   1      -2.883   0.228  -2.145  0.00  0.00     0.051 A 
ATOM      5  C5  IND d   1      -3.694   0.513  -3.208  0.00  0.00    -0.031 A 
ATOM      6  C6  IND d   1      -4.374   1.709  -3.306  0.00  0.00     0.015 A 
ATOM      7  C7  IND d   1      -4.260   2.674  -2.346  0.00  0.00    -0.016 A 
ATOM      8  C8  IND d   1      -3.443   2.385  -1.262  0.00  0.00    -0.047 A 
ATOM      9  C9  IND d   1      -2.784   1.156  -1.136  0.00  0.00    -0.096 A 
ATOM     10  HN1 IND d   1      -3.432   3.920   0.029  0.00  0.00     0.298 HD
ENDROOT
TORSDOF 0
ENDMDL
