MODEL 1
REMARK minimizedAffinity 17.0830669
REMARK minimizedRMSD -1
REMARK  0 active torsions:
REMARK  status: ('A' for Active; 'I' for Inactive)
ROOT
ATOM      1  N1  IND d   1      -5.636   0.751  -5.825  0.00  0.00    -0.196 N 
ATOM      2  C2  IND d   1      -5.479   2.098  -6.000  0.00  0.00     0.054 A 
ATOM      3  C3  IND d   1      -5.084   2.680  -4.845  0.00  0.00    -0.031 A 
ATOM      4  C4  IND d   1      -4.536   1.599  -2.574  0.00  0.00     0.051 A 
ATOM      5  C5  IND d   1      -4.565   0.402  -1.915  0.00  0.00    -0.031 A 
ATOM      6  C6  IND d   1      -4.957  -0.764  -2.540  0.00  0.00     0.015 A 
ATOM      7  C7  IND d   1      -5.327  -0.778  -3.855  0.00  0.00    -0.016 A 
ATOM      8  C8  IND d   1      -5.305   0.437  -4.525  0.00  0.00    -0.047 A 
ATOM      9  C9  IND d   1      -4.949   1.631  -3.885  0.00  0.00    -0.096 A 
ATOM     10  HN1 IND d   1      -5.897   0.194  -6.425  0.00  0.00     0.298 HD
ENDROOT
TORSDOF 0
ENDMDL
