MODEL 1
REMARK minimizedAffinity 17.1231861
REMARK minimizedRMSD -1
REMARK  0 active torsions:
REMARK  status: ('A' for Active; 'I' for Inactive)
ROOT
ATOM      1  N1  IND d   1       1.718   1.205   5.233  0.00  0.00    -0.196 N 
ATOM      2  C2  IND d   1       1.026   0.160   5.778  0.00  0.00     0.054 A 
ATOM      3  C3  IND d   1       0.800  -0.792   4.845  0.00  0.00    -0.031 A 
ATOM      4  C4  IND d   1       1.564  -0.889   2.389  0.00  0.00     0.051 A 
ATOM      5  C5  IND d   1       2.192  -0.150   1.426  0.00  0.00    -0.031 A 
ATOM      6  C6  IND d   1       2.707   1.103   1.689  0.00  0.00     0.015 A 
ATOM      7  C7  IND d   1       2.623   1.661   2.933  0.00  0.00    -0.016 A 
ATOM      8  C8  IND d   1       1.980   0.916   3.912  0.00  0.00    -0.047 A 
ATOM      9  C9  IND d   1       1.418  -0.338   3.640  0.00  0.00    -0.096 A 
ATOM     10  HN1 IND d   1       1.952   1.922   5.646  0.00  0.00     0.298 HD
ENDROOT
TORSDOF 0
ENDMDL
