MODEL 1
REMARK minimizedAffinity 17.2332954
REMARK minimizedRMSD -1
REMARK  0 active torsions:
REMARK  status: ('A' for Active; 'I' for Inactive)
ROOT
ATOM      1  N1  IND d   1       0.992   0.494   5.253  0.00  0.00    -0.196 N 
ATOM      2  C2  IND d   1       0.617  -0.752   5.672  0.00  0.00     0.054 A 
ATOM      3  C3  IND d   1       0.785  -1.652   4.677  0.00  0.00    -0.031 A 
ATOM      4  C4  IND d   1       1.756  -1.319   2.316  0.00  0.00     0.051 A 
ATOM      5  C5  IND d   1       2.203  -0.351   1.462  0.00  0.00    -0.031 A 
ATOM      6  C6  IND d   1       2.274   0.976   1.837  0.00  0.00     0.015 A 
ATOM      7  C7  IND d   1       1.909   1.383   3.089  0.00  0.00    -0.016 A 
ATOM      8  C8  IND d   1       1.447   0.403   3.956  0.00  0.00    -0.047 A 
ATOM      9  C9  IND d   1       1.334  -0.938   3.568  0.00  0.00    -0.096 A 
ATOM     10  HN1 IND d   1       0.951   1.214   5.722  0.00  0.00     0.298 HD
ENDROOT
TORSDOF 0
ENDMDL
