MODEL 1
REMARK minimizedAffinity 10.3557482
REMARK minimizedRMSD -1
REMARK  0 active torsions:
REMARK  status: ('A' for Active; 'I' for Inactive)
ROOT
ATOM      1  N1  IND d   1      -4.731   3.509   2.201  0.00  0.00    -0.196 N 
ATOM      2  C2  IND d   1      -5.677   3.990   1.340  0.00  0.00     0.054 A 
ATOM      3  C3  IND d   1      -5.175   4.073   0.087  0.00  0.00    -0.031 A 
ATOM      4  C4  IND d   1      -2.859   3.377  -0.795  0.00  0.00     0.051 A 
ATOM      5  C5  IND d   1      -1.640   2.918  -0.379  0.00  0.00    -0.031 A 
ATOM      6  C6  IND d   1      -1.386   2.624   0.945  0.00  0.00     0.015 A 
ATOM      7  C7  IND d   1      -2.348   2.768   1.904  0.00  0.00    -0.016 A 
ATOM      8  C8  IND d   1      -3.584   3.240   1.486  0.00  0.00    -0.047 A 
ATOM      9  C9  IND d   1      -3.835   3.581   0.151  0.00  0.00    -0.096 A 
ATOM     10  HN1 IND d   1      -4.834   3.393   3.046  0.00  0.00     0.298 HD
ENDROOT
TORSDOF 0
ENDMDL
