MODEL 1
REMARK minimizedAffinity 9.27985477
REMARK minimizedRMSD -1
REMARK  0 active torsions:
REMARK  status: ('A' for Active; 'I' for Inactive)
ROOT
ATOM      1  N1  IND d   1       0.344  -1.751   1.838  0.00  0.00    -0.196 N 
ATOM      2  C2  IND d   1       1.707  -1.695   1.747  0.00  0.00     0.054 A 
ATOM      3  C3  IND d   1       2.104  -1.917   0.474  0.00  0.00    -0.031 A 
ATOM      4  C4  IND d   1       0.683  -2.291  -1.640  0.00  0.00     0.051 A 
ATOM      5  C5  IND d   1      -0.609  -2.462  -2.053  0.00  0.00    -0.031 A 
ATOM      6  C6  IND d   1      -1.670  -2.400  -1.173  0.00  0.00     0.015 A 
ATOM      7  C7  IND d   1      -1.480  -2.153   0.157  0.00  0.00    -0.016 A 
ATOM      8  C8  IND d   1      -0.169  -1.987   0.581  0.00  0.00    -0.047 A 
ATOM      9  C9  IND d   1       0.915  -2.090  -0.299  0.00  0.00    -0.096 A 
ATOM     10  HN1 IND d   1      -0.115  -1.655   2.558  0.00  0.00     0.298 HD
ENDROOT
TORSDOF 0
ENDMDL
