MODEL 1
REMARK minimizedAffinity 1.10064709
REMARK minimizedRMSD -1
REMARK  2 active torsions:
REMARK  status: ('A' for Active; 'I' for Inactive)
REMARK    1  A    between atoms: C2'_3  and  C1'_4 
REMARK    2  A    between atoms: C1'_4  and  C1_5 
ROOT
ATOM      1  C1  I4B d   1      -5.246   2.810  -3.815  0.00  0.00    -0.075 A 
ATOM      2  C2  I4B d   1      -5.921   3.177  -4.953  0.00  0.00     0.003 A 
ATOM      3  C3  I4B d   1      -5.243   3.849  -5.999  0.00  0.00     0.002 A 
ATOM      4  C4  I4B d   1      -3.912   4.177  -5.845  0.00  0.00    -0.004 A 
ATOM      5  C5  I4B d   1      -3.223   3.784  -4.701  0.00  0.00     0.002 A 
ATOM      6  C6  I4B d   1      -3.891   3.085  -3.685  0.00  0.00     0.003 A 
ENDROOT
BRANCH   1   7
ATOM      7  C1' I4B d   1      -6.000   2.130  -2.717  0.00  0.00     0.060 C 
BRANCH   7   8
ATOM      8  C2' I4B d   1      -5.494   0.706  -2.615  0.00  0.00    -0.013 C 
ATOM      9  C4' I4B d   1      -5.940   0.059  -1.330  0.00  0.00     0.013 C 
ATOM     10  C3' I4B d   1      -5.999  -0.052  -3.806  0.00  0.00     0.013 C 
ENDBRANCH   7   8
ENDBRANCH   1   7
TORSDOF 2
ENDMDL
