MODEL 1
REMARK minimizedAffinity 13.0215454
REMARK minimizedRMSD -1
REMARK  2 active torsions:
REMARK  status: ('A' for Active; 'I' for Inactive)
REMARK    1  A    between atoms: C2'_3  and  C1'_4 
REMARK    2  A    between atoms: C1'_4  and  C1_5 
ROOT
ATOM      1  C1  I4B d   1      -3.373   1.171  -2.989  0.00  0.00    -0.075 A 
ATOM      2  C2  I4B d   1      -4.467   0.758  -2.270  0.00  0.00     0.003 A 
ATOM      3  C3  I4B d   1      -4.863   1.462  -1.107  0.00  0.00     0.002 A 
ATOM      4  C4  I4B d   1      -4.111   2.535  -0.674  0.00  0.00    -0.004 A 
ATOM      5  C5  I4B d   1      -3.015   2.966  -1.416  0.00  0.00     0.002 A 
ATOM      6  C6  I4B d   1      -2.651   2.287  -2.588  0.00  0.00     0.003 A 
ENDROOT
BRANCH   1   7
ATOM      7  C1' I4B d   1      -2.964   0.384  -4.194  0.00  0.00     0.060 C 
BRANCH   7   8
ATOM      8  C2' I4B d   1      -1.543   0.774  -4.546  0.00  0.00    -0.013 C 
ATOM      9  C4' I4B d   1      -0.548   0.043  -3.683  0.00  0.00     0.013 C 
ATOM     10  C3' I4B d   1      -1.325   0.471  -5.998  0.00  0.00     0.013 C 
ENDBRANCH   7   8
ENDBRANCH   1   7
TORSDOF 2
ENDMDL
