MODEL 1
REMARK minimizedAffinity 15.8433743
REMARK minimizedRMSD -1
REMARK  2 active torsions:
REMARK  status: ('A' for Active; 'I' for Inactive)
REMARK    1  A    between atoms: C2'_3  and  C1'_4 
REMARK    2  A    between atoms: C1'_4  and  C1_5 
ROOT
ATOM      1  C1  I4B d   1      -1.620   3.084  -1.307  0.00  0.00    -0.075 A 
ATOM      2  C2  I4B d   1      -1.852   4.318  -1.862  0.00  0.00     0.003 A 
ATOM      3  C3  I4B d   1      -0.768   5.140  -2.251  0.00  0.00     0.002 A 
ATOM      4  C4  I4B d   1       0.525   4.714  -2.021  0.00  0.00    -0.004 A 
ATOM      5  C5  I4B d   1       0.759   3.454  -1.479  0.00  0.00     0.002 A 
ATOM      6  C6  I4B d   1      -0.320   2.628  -1.131  0.00  0.00     0.003 A 
ENDROOT
BRANCH   1   7
ATOM      7  C1' I4B d   1      -2.789   2.255  -0.877  0.00  0.00     0.060 C 
BRANCH   7   8
ATOM      8  C2' I4B d   1      -4.053   2.975  -1.302  0.00  0.00    -0.013 C 
ATOM      9  C4' I4B d   1      -4.901   2.107  -2.194  0.00  0.00     0.013 C 
ATOM     10  C3' I4B d   1      -4.799   3.370  -0.063  0.00  0.00     0.013 C 
ENDBRANCH   7   8
ENDBRANCH   1   7
TORSDOF 2
ENDMDL
