MODEL 1
REMARK minimizedAffinity 19.4381084
REMARK minimizedRMSD -1
REMARK  2 active torsions:
REMARK  status: ('A' for Active; 'I' for Inactive)
REMARK    1  A    between atoms: C2'_3  and  C1'_4 
REMARK    2  A    between atoms: C1'_4  and  C1_5 
ROOT
ATOM      1  C1  I4B d   1      -2.641   1.348  -3.851  0.00  0.00    -0.075 A 
ATOM      2  C2  I4B d   1      -1.523   1.301  -3.056  0.00  0.00     0.003 A 
ATOM      3  C3  I4B d   1      -0.356   0.636  -3.505  0.00  0.00     0.002 A 
ATOM      4  C4  I4B d   1      -0.368  -0.007  -4.726  0.00  0.00    -0.004 A 
ATOM      5  C5  I4B d   1      -1.495   0.061  -5.540  0.00  0.00     0.002 A 
ATOM      6  C6  I4B d   1      -2.635   0.753  -5.106  0.00  0.00     0.003 A 
ENDROOT
BRANCH   1   7
ATOM      7  C1' I4B d   1      -3.867   2.030  -3.331  0.00  0.00     0.060 C 
BRANCH   7   8
ATOM      8  C2' I4B d   1      -4.752   0.978  -2.694  0.00  0.00    -0.013 C 
ATOM      9  C4' I4B d   1      -5.079   1.332  -1.268  0.00  0.00     0.013 C 
ATOM     10  C3' I4B d   1      -5.997   0.858  -3.522  0.00  0.00     0.013 C 
ENDBRANCH   7   8
ENDBRANCH   1   7
TORSDOF 2
ENDMDL
