MODEL 1
REMARK minimizedAffinity 0.281532675
REMARK minimizedRMSD -1
REMARK  2 active torsions:
REMARK  status: ('A' for Active; 'I' for Inactive)
REMARK    1  A    between atoms: C2'_3  and  C1'_4 
REMARK    2  A    between atoms: C1'_4  and  C1_5 
ROOT
ATOM      1  C1  I4B d   1      -2.273   3.373   1.188  0.00  0.00    -0.075 A 
ATOM      2  C2  I4B d   1      -2.230   4.052  -0.004  0.00  0.00     0.003 A 
ATOM      3  C3  I4B d   1      -1.114   3.911  -0.864  0.00  0.00     0.002 A 
ATOM      4  C4  I4B d   1      -0.049   3.126  -0.472  0.00  0.00    -0.004 A 
ATOM      5  C5  I4B d   1      -0.104   2.421   0.726  0.00  0.00     0.002 A 
ATOM      6  C6  I4B d   1      -1.229   2.535   1.557  0.00  0.00     0.003 A 
ENDROOT
BRANCH   1   7
ATOM      7  C1' I4B d   1      -3.452   3.571   2.088  0.00  0.00     0.060 C 
BRANCH   7   8
ATOM      8  C2' I4B d   1      -4.120   4.875   1.702  0.00  0.00    -0.013 C 
ATOM      9  C4' I4B d   1      -5.536   4.934   2.212  0.00  0.00     0.013 C 
ATOM     10  C3' I4B d   1      -3.297   5.999   2.257  0.00  0.00     0.013 C 
ENDBRANCH   7   8
ENDBRANCH   1   7
TORSDOF 2
ENDMDL
