MODEL 1
REMARK minimizedAffinity 8.42725277
REMARK minimizedRMSD -1
REMARK  2 active torsions:
REMARK  status: ('A' for Active; 'I' for Inactive)
REMARK    1  A    between atoms: C2'_3  and  C1'_4 
REMARK    2  A    between atoms: C1'_4  and  C1_5 
ROOT
ATOM      1  C1  I4B d   1      -1.005   4.245  -1.653  0.00  0.00    -0.075 A 
ATOM      2  C2  I4B d   1      -0.004   3.344  -1.390  0.00  0.00     0.003 A 
ATOM      3  C3  I4B d   1       1.347   3.768  -1.357  0.00  0.00     0.002 A 
ATOM      4  C4  I4B d   1       1.653   5.083  -1.642  0.00  0.00    -0.004 A 
ATOM      5  C5  I4B d   1       0.635   6.000  -1.886  0.00  0.00     0.002 A 
ATOM      6  C6  I4B d   1      -0.703   5.581  -1.880  0.00  0.00     0.003 A 
ENDROOT
BRANCH   1   7
ATOM      7  C1' I4B d   1      -2.417   3.756  -1.713  0.00  0.00     0.060 C 
BRANCH   7   8
ATOM      8  C2' I4B d   1      -2.629   3.104  -3.064  0.00  0.00    -0.013 C 
ATOM      9  C4' I4B d   1      -3.685   2.033  -2.993  0.00  0.00     0.013 C 
ATOM     10  C3' I4B d   1      -3.011   4.176  -4.041  0.00  0.00     0.013 C 
ENDBRANCH   7   8
ENDBRANCH   1   7
TORSDOF 2
ENDMDL
