MODEL 1
REMARK minimizedAffinity 8.12366581
REMARK minimizedRMSD -1
REMARK  0 active torsions:
REMARK  status: ('A' for Active; 'I' for Inactive)
ROOT
ATOM      1  C   UNL d   1      -2.924   1.448  -0.950  0.00  0.00     0.124 A 
ATOM      2  C1  UNL d   1      -2.220   0.997   0.157  0.00  0.00     0.062 A 
ATOM      3  C2  UNL d   1      -1.770  -0.319   0.213  0.00  0.00     0.162 A 
ATOM      4  C3  UNL d   1      -2.023  -1.194  -0.844  0.00  0.00    -0.034 A 
ATOM      5  C4  UNL d   1      -2.733  -0.734  -1.954  0.00  0.00     0.162 A 
ATOM      6  C5  UNL d   1      -3.180   0.582  -2.004  0.00  0.00     0.062 A 
ATOM      7  F   UNL d   1      -3.861   1.016  -3.075  0.00  0.00    -0.097 F 
ATOM      8  F1  UNL d   1      -2.993  -1.549  -2.987  0.00  0.00    -0.096 F 
ATOM      9  I   UNL d   1      -1.352  -3.163  -0.765  0.00  0.00    -0.060 I 
ATOM     10  F2  UNL d   1      -1.091  -0.727   1.295  0.00  0.00    -0.096 F 
ATOM     11  F3  UNL d   1      -1.972   1.831   1.177  0.00  0.00    -0.097 F 
ATOM     12  F4  UNL d   1      -3.357   2.714  -1.001  0.00  0.00    -0.092 F 
ENDROOT
TORSDOF 0
ENDMDL
