MODEL 1
REMARK minimizedAffinity 29.1445274
REMARK minimizedRMSD -1
REMARK  0 active torsions:
REMARK  status: ('A' for Active; 'I' for Inactive)
ROOT
ATOM      1  C   UNL d   1       1.254  -1.772   3.931  0.00  0.00     0.124 A 
ATOM      2  C1  UNL d   1       1.658  -1.210   2.728  0.00  0.00     0.062 A 
ATOM      3  C2  UNL d   1       3.012  -1.097   2.427  0.00  0.00     0.162 A 
ATOM      4  C3  UNL d   1       3.974  -1.548   3.331  0.00  0.00    -0.034 A 
ATOM      5  C4  UNL d   1       3.561  -2.111   4.539  0.00  0.00     0.162 A 
ATOM      6  C5  UNL d   1       2.206  -2.222   4.835  0.00  0.00     0.062 A 
ATOM      7  F   UNL d   1       1.818  -2.765   5.998  0.00  0.00    -0.097 F 
ATOM      8  F1  UNL d   1       4.459  -2.555   5.431  0.00  0.00    -0.096 F 
ATOM      9  I   UNL d   1       6.000  -1.381   2.885  0.00  0.00    -0.060 I 
ATOM     10  F2  UNL d   1       3.373  -0.549   1.257  0.00  0.00    -0.096 F 
ATOM     11  F3  UNL d   1       0.740  -0.773   1.853  0.00  0.00    -0.097 F 
ATOM     12  F4  UNL d   1      -0.049  -1.878   4.218  0.00  0.00    -0.092 F 
ENDROOT
TORSDOF 0
ENDMDL
