MODEL 1
REMARK minimizedAffinity 15.0849018
REMARK minimizedRMSD -1
REMARK  0 active torsions:
REMARK  status: ('A' for Active; 'I' for Inactive)
ROOT
ATOM      1  C   UNL d   1       2.175  -2.546   3.631  0.00  0.00     0.124 A 
ATOM      2  C1  UNL d   1       1.723  -1.262   3.359  0.00  0.00     0.062 A 
ATOM      3  C2  UNL d   1       1.347  -0.911   2.066  0.00  0.00     0.162 A 
ATOM      4  C3  UNL d   1       1.422  -1.846   1.033  0.00  0.00    -0.034 A 
ATOM      5  C4  UNL d   1       1.879  -3.135   1.314  0.00  0.00     0.162 A 
ATOM      6  C5  UNL d   1       2.253  -3.481   2.608  0.00  0.00     0.062 A 
ATOM      7  F   UNL d   1       2.690  -4.722   2.868  0.00  0.00    -0.097 F 
ATOM      8  F1  UNL d   1       1.963  -4.058   0.345  0.00  0.00    -0.096 F 
ATOM      9  I   UNL d   1       0.861  -1.325  -0.902  0.00  0.00    -0.060 I 
ATOM     10  F2  UNL d   1       0.914   0.337   1.833  0.00  0.00    -0.096 F 
ATOM     11  F3  UNL d   1       1.648  -0.357   4.346  0.00  0.00    -0.097 F 
ATOM     12  F4  UNL d   1       2.537  -2.881   4.876  0.00  0.00    -0.092 F 
ENDROOT
TORSDOF 0
ENDMDL
