MODEL 1
REMARK minimizedAffinity 10.3984385
REMARK minimizedRMSD -1
REMARK  0 active torsions:
REMARK  status: ('A' for Active; 'I' for Inactive)
ROOT
ATOM      1  C   UNL d   1       2.387  -0.784   3.082  0.00  0.00     0.124 A 
ATOM      2  C1  UNL d   1       3.703  -0.439   2.804  0.00  0.00     0.062 A 
ATOM      3  C2  UNL d   1       4.736  -0.919   3.604  0.00  0.00     0.162 A 
ATOM      4  C3  UNL d   1       4.458  -1.749   4.690  0.00  0.00    -0.034 A 
ATOM      5  C4  UNL d   1       3.132  -2.090   4.964  0.00  0.00     0.162 A 
ATOM      6  C5  UNL d   1       2.103  -1.609   4.161  0.00  0.00     0.062 A 
ATOM      7  F   UNL d   1       0.833  -1.943   4.431  0.00  0.00    -0.097 F 
ATOM      8  F1  UNL d   1       2.830  -2.887   6.000  0.00  0.00    -0.096 F 
ATOM      9  I   UNL d   1       6.000  -2.468   5.889  0.00  0.00    -0.060 I 
ATOM     10  F2  UNL d   1       5.998  -0.569   3.312  0.00  0.00    -0.096 F 
ATOM     11  F3  UNL d   1       3.980   0.358   1.762  0.00  0.00    -0.097 F 
ATOM     12  F4  UNL d   1       1.395  -0.321   2.311  0.00  0.00    -0.092 F 
ENDROOT
TORSDOF 0
ENDMDL
