MODEL 1
REMARK minimizedAffinity 21.1566372
REMARK minimizedRMSD -1
REMARK  0 active torsions:
REMARK  status: ('A' for Active; 'I' for Inactive)
ROOT
ATOM      1  C   UNL d   1       3.047  -0.224   0.609  0.00  0.00     0.124 A 
ATOM      2  C1  UNL d   1       2.990  -0.255  -0.777  0.00  0.00     0.062 A 
ATOM      3  C2  UNL d   1       1.760  -0.293  -1.426  0.00  0.00     0.162 A 
ATOM      4  C3  UNL d   1       0.575  -0.299  -0.690  0.00  0.00    -0.034 A 
ATOM      5  C4  UNL d   1       0.641  -0.269   0.705  0.00  0.00     0.162 A 
ATOM      6  C5  UNL d   1       1.873  -0.231   1.349  0.00  0.00     0.062 A 
ATOM      7  F   UNL d   1       1.926  -0.202   2.688  0.00  0.00    -0.097 F 
ATOM      8  F1  UNL d   1      -0.479  -0.274   1.443  0.00  0.00    -0.096 F 
ATOM      9  I   UNL d   1      -1.267  -0.355  -1.657  0.00  0.00    -0.060 I 
ATOM     10  F2  UNL d   1       1.735  -0.322  -2.767  0.00  0.00    -0.096 F 
ATOM     11  F3  UNL d   1       4.124  -0.249  -1.494  0.00  0.00    -0.097 F 
ATOM     12  F4  UNL d   1       4.233  -0.189   1.231  0.00  0.00    -0.092 F 
ENDROOT
TORSDOF 0
ENDMDL
