MODEL 1
REMARK minimizedAffinity 11.3795319
REMARK minimizedRMSD -1
REMARK  0 active torsions:
REMARK  status: ('A' for Active; 'I' for Inactive)
ROOT
ATOM      1  C   UNL d   1       2.393  -1.145   2.948  0.00  0.00     0.124 A 
ATOM      2  C1  UNL d   1       3.708  -0.797   2.671  0.00  0.00     0.062 A 
ATOM      3  C2  UNL d   1       4.738  -1.244   3.492  0.00  0.00     0.162 A 
ATOM      4  C3  UNL d   1       4.458  -2.046   4.599  0.00  0.00    -0.034 A 
ATOM      5  C4  UNL d   1       3.134  -2.391   4.872  0.00  0.00     0.162 A 
ATOM      6  C5  UNL d   1       2.107  -1.941   4.048  0.00  0.00     0.062 A 
ATOM      7  F   UNL d   1       0.837  -2.278   4.317  0.00  0.00    -0.097 F 
ATOM      8  F1  UNL d   1       2.829  -3.160   5.927  0.00  0.00    -0.096 F 
ATOM      9  I   UNL d   1       5.997  -2.717   5.829  0.00  0.00    -0.060 I 
ATOM     10  F2  UNL d   1       5.999  -0.892   3.200  0.00  0.00    -0.096 F 
ATOM     11  F3  UNL d   1       3.986  -0.026   1.609  0.00  0.00    -0.097 F 
ATOM     12  F4  UNL d   1       1.403  -0.712   2.156  0.00  0.00    -0.092 F 
ENDROOT
TORSDOF 0
ENDMDL
