MODEL 1
REMARK minimizedAffinity 12.7052746
REMARK minimizedRMSD -1
REMARK  0 active torsions:
REMARK  status: ('A' for Active; 'I' for Inactive)
ROOT
ATOM      1  C   UNL d   1       3.078   2.594   1.931  0.00  0.00     0.124 A 
ATOM      2  C1  UNL d   1       2.708   1.497   1.166  0.00  0.00     0.062 A 
ATOM      3  C2  UNL d   1       2.422   0.281   1.778  0.00  0.00     0.162 A 
ATOM      4  C3  UNL d   1       2.502   0.155   3.165  0.00  0.00    -0.034 A 
ATOM      5  C4  UNL d   1       2.876   1.263   3.928  0.00  0.00     0.162 A 
ATOM      6  C5  UNL d   1       3.161   2.476   3.311  0.00  0.00     0.062 A 
ATOM      7  F   UNL d   1       3.518   3.535   4.052  0.00  0.00    -0.097 F 
ATOM      8  F1  UNL d   1       2.964   1.177   5.264  0.00  0.00    -0.096 F 
ATOM      9  I   UNL d   1       2.075  -1.662   4.085  0.00  0.00    -0.060 I 
ATOM     10  F2  UNL d   1       2.067  -0.763   1.014  0.00  0.00    -0.096 F 
ATOM     11  F3  UNL d   1       2.628   1.608  -0.168  0.00  0.00    -0.097 F 
ATOM     12  F4  UNL d   1       3.354   3.763   1.339  0.00  0.00    -0.092 F 
ENDROOT
TORSDOF 0
ENDMDL
