MODEL 1
REMARK minimizedAffinity 10.7939615
REMARK minimizedRMSD -1
REMARK  0 active torsions:
REMARK  status: ('A' for Active; 'I' for Inactive)
ROOT
ATOM      1  C   UNL d   1       2.115  -3.580   3.489  0.00  0.00     0.124 A 
ATOM      2  C1  UNL d   1       2.108  -3.141   2.172  0.00  0.00     0.062 A 
ATOM      3  C2  UNL d   1       1.974  -1.786   1.886  0.00  0.00     0.162 A 
ATOM      4  C3  UNL d   1       1.845  -0.858   2.920  0.00  0.00    -0.034 A 
ATOM      5  C4  UNL d   1       1.852  -1.307   4.242  0.00  0.00     0.162 A 
ATOM      6  C5  UNL d   1       1.987  -2.663   4.522  0.00  0.00     0.062 A 
ATOM      7  F   UNL d   1       1.993  -3.085   5.795  0.00  0.00    -0.097 F 
ATOM      8  F1  UNL d   1       1.731  -0.442   5.260  0.00  0.00    -0.096 F 
ATOM      9  I   UNL d   1       1.643   1.170   2.497  0.00  0.00    -0.060 I 
ATOM     10  F2  UNL d   1       1.970  -1.390   0.604  0.00  0.00    -0.096 F 
ATOM     11  F3  UNL d   1       2.231  -4.026   1.171  0.00  0.00    -0.097 F 
ATOM     12  F4  UNL d   1       2.244  -4.885   3.761  0.00  0.00    -0.092 F 
ENDROOT
TORSDOF 0
ENDMDL
