MODEL 1
REMARK minimizedAffinity 5.62301254
REMARK minimizedRMSD -1
REMARK  1 active torsions:
REMARK  status: ('A' for Active; 'I' for Inactive)
REMARK    1  A    between atoms: C3_4  and  O_7 
ROOT
ATOM      1  C   UNL d   1       2.735  -0.554  -0.374  0.00  0.00    -0.033 A 
ATOM      2  C1  UNL d   1       3.393   0.527   0.216  0.00  0.00     0.039 A 
ATOM      3  C2  UNL d   1       4.145   1.402  -0.570  0.00  0.00    -0.080 A 
ATOM      4  C3  UNL d   1       4.229   1.187  -1.943  0.00  0.00     0.150 A 
ATOM      5  C4  UNL d   1       3.573   0.115  -2.538  0.00  0.00    -0.007 A 
ATOM      6  C5  UNL d   1       2.824  -0.759  -1.751  0.00  0.00     0.039 A 
ENDROOT
BRANCH   4   7
ATOM      7  O   UNL d   1       4.955   2.012  -2.750  0.00  0.00    -0.526 OA
ATOM      8  H5  UNL d   1       5.376   2.691  -2.197  0.00  0.00     0.418 HD
ENDBRANCH   4   7
TORSDOF 1
ENDMDL
