MODEL 1
REMARK minimizedAffinity 4.79757261
REMARK minimizedRMSD -1
REMARK  1 active torsions:
REMARK  status: ('A' for Active; 'I' for Inactive)
REMARK    1  A    between atoms: C3_4  and  O_7 
ROOT
ATOM      1  C   UNL d   1       2.938   3.750   4.062  0.00  0.00    -0.033 A 
ATOM      2  C1  UNL d   1       2.829   4.128   5.402  0.00  0.00     0.039 A 
ATOM      3  C2  UNL d   1       3.836   4.887   6.000  0.00  0.00    -0.080 A 
ATOM      4  C3  UNL d   1       4.946   5.263   5.248  0.00  0.00     0.150 A 
ATOM      5  C4  UNL d   1       5.060   4.893   3.912  0.00  0.00    -0.007 A 
ATOM      6  C5  UNL d   1       4.053   4.134   3.317  0.00  0.00     0.039 A 
ENDROOT
BRANCH   4   7
ATOM      7  O   UNL d   1       5.957   6.000   5.789  0.00  0.00    -0.526 OA
ATOM      8  H5  UNL d   1       5.756   6.156   6.727  0.00  0.00     0.418 HD
ENDBRANCH   4   7
TORSDOF 1
ENDMDL
