MODEL 1
REMARK minimizedAffinity 11.0005112
REMARK minimizedRMSD -1
REMARK  1 active torsions:
REMARK  status: ('A' for Active; 'I' for Inactive)
REMARK    1  A    between atoms: C3_4  and  O_7 
ROOT
ATOM      1  C   UNL d   1      -0.717   2.864   0.852  0.00  0.00    -0.033 A 
ATOM      2  C1  UNL d   1      -1.740   2.810   1.800  0.00  0.00     0.039 A 
ATOM      3  C2  UNL d   1      -1.446   2.499   3.130  0.00  0.00    -0.080 A 
ATOM      4  C3  UNL d   1      -0.127   2.246   3.497  0.00  0.00     0.150 A 
ATOM      5  C4  UNL d   1       0.897   2.301   2.558  0.00  0.00    -0.007 A 
ATOM      6  C5  UNL d   1       0.602   2.611   1.231  0.00  0.00     0.039 A 
ENDROOT
BRANCH   4   7
ATOM      7  O   UNL d   1       0.207   1.933   4.781  0.00  0.00    -0.526 OA
ATOM      8  H5  UNL d   1      -0.606   1.903   5.312  0.00  0.00     0.418 HD
ENDBRANCH   4   7
TORSDOF 1
ENDMDL
