MODEL 1
REMARK minimizedAffinity 2.45874667
REMARK minimizedRMSD -1
REMARK  1 active torsions:
REMARK  status: ('A' for Active; 'I' for Inactive)
REMARK    1  A    between atoms: C3_4  and  O_7 
ROOT
ATOM      1  C   UNL d   1      -2.608   0.295  -4.491  0.00  0.00    -0.033 A 
ATOM      2  C1  UNL d   1      -2.540   0.707  -3.159  0.00  0.00     0.039 A 
ATOM      3  C2  UNL d   1      -3.636   1.336  -2.564  0.00  0.00    -0.080 A 
ATOM      4  C3  UNL d   1      -4.792   1.546  -3.311  0.00  0.00     0.150 A 
ATOM      5  C4  UNL d   1      -4.868   1.135  -4.637  0.00  0.00    -0.007 A 
ATOM      6  C5  UNL d   1      -3.773   0.508  -5.230  0.00  0.00     0.039 A 
ENDROOT
BRANCH   4   7
ATOM      7  O   UNL d   1      -5.885   2.159  -2.775  0.00  0.00    -0.526 OA
ATOM      8  H5  UNL d   1      -5.677   2.414  -1.860  0.00  0.00     0.418 HD
ENDBRANCH   4   7
TORSDOF 1
ENDMDL
