MODEL 1
REMARK minimizedAffinity 5.48770666
REMARK minimizedRMSD -1
REMARK  1 active torsions:
REMARK  status: ('A' for Active; 'I' for Inactive)
REMARK    1  A    between atoms: C3_4  and  O_7 
ROOT
ATOM      1  C   UNL d   1       3.090  -0.336  -1.110  0.00  0.00    -0.033 A 
ATOM      2  C1  UNL d   1       3.892   0.491  -0.322  0.00  0.00     0.039 A 
ATOM      3  C2  UNL d   1       4.877   1.283  -0.915  0.00  0.00    -0.080 A 
ATOM      4  C3  UNL d   1       5.048   1.241  -2.296  0.00  0.00     0.150 A 
ATOM      5  C4  UNL d   1       4.249   0.422  -3.088  0.00  0.00    -0.007 A 
ATOM      6  C5  UNL d   1       3.267  -0.369  -2.493  0.00  0.00     0.039 A 
ENDROOT
BRANCH   4   7
ATOM      7  O   UNL d   1       5.999   1.992  -2.920  0.00  0.00    -0.526 OA
ATOM      8  H5  UNL d   1       6.493   2.486  -2.244  0.00  0.00     0.418 HD
ENDBRANCH   4   7
TORSDOF 1
ENDMDL
