MODEL 1
REMARK minimizedAffinity 0.998188496
REMARK minimizedRMSD -1
REMARK  1 active torsions:
REMARK  status: ('A' for Active; 'I' for Inactive)
REMARK    1  A    between atoms: C3_4  and  O_7 
ROOT
ATOM      1  C   UNL d   1       3.753   0.568  -0.310  0.00  0.00    -0.033 A 
ATOM      2  C1  UNL d   1       4.883   0.813  -1.091  0.00  0.00     0.039 A 
ATOM      3  C2  UNL d   1       4.983   0.261  -2.370  0.00  0.00    -0.080 A 
ATOM      4  C3  UNL d   1       3.947  -0.533  -2.855  0.00  0.00     0.150 A 
ATOM      5  C4  UNL d   1       2.816  -0.778  -2.083  0.00  0.00    -0.007 A 
ATOM      6  C5  UNL d   1       2.718  -0.227  -0.806  0.00  0.00     0.039 A 
ENDROOT
BRANCH   4   7
ATOM      7  O   UNL d   1       4.002  -1.097  -4.094  0.00  0.00    -0.526 OA
ATOM      8  H5  UNL d   1       4.853  -0.865  -4.501  0.00  0.00     0.418 HD
ENDBRANCH   4   7
TORSDOF 1
ENDMDL
