MODEL 1
REMARK minimizedAffinity 6.51282406
REMARK minimizedRMSD -1
REMARK  1 active torsions:
REMARK  status: ('A' for Active; 'I' for Inactive)
REMARK    1  A    between atoms: C3_4  and  O_7 
ROOT
ATOM      1  C   UNL d   1       4.134   5.205   6.000  0.00  0.00    -0.033 A 
ATOM      2  C1  UNL d   1       5.248   5.886   5.504  0.00  0.00     0.039 A 
ATOM      3  C2  UNL d   1       5.650   5.699   4.181  0.00  0.00    -0.080 A 
ATOM      4  C3  UNL d   1       4.930   4.832   3.363  0.00  0.00     0.150 A 
ATOM      5  C4  UNL d   1       3.817   4.153   3.849  0.00  0.00    -0.007 A 
ATOM      6  C5  UNL d   1       3.418   4.340   5.172  0.00  0.00     0.039 A 
ENDROOT
BRANCH   4   7
ATOM      7  O   UNL d   1       5.288   4.614   2.066  0.00  0.00    -0.526 OA
ATOM      8  H5  UNL d   1       6.091   5.127   1.878  0.00  0.00     0.418 HD
ENDBRANCH   4   7
TORSDOF 1
ENDMDL
