MODEL 1
REMARK minimizedAffinity 2.29589272
REMARK minimizedRMSD -1
REMARK  1 active torsions:
REMARK  status: ('A' for Active; 'I' for Inactive)
REMARK    1  A    between atoms: C3_4  and  O_7 
ROOT
ATOM      1  C   UNL d   1      -0.166  -1.524  -0.849  0.00  0.00    -0.033 A 
ATOM      2  C1  UNL d   1       0.252  -0.698   0.196  0.00  0.00     0.039 A 
ATOM      3  C2  UNL d   1       1.548  -0.814   0.705  0.00  0.00    -0.080 A 
ATOM      4  C3  UNL d   1       2.414  -1.757   0.159  0.00  0.00     0.150 A 
ATOM      5  C4  UNL d   1       2.005  -2.581  -0.885  0.00  0.00    -0.007 A 
ATOM      6  C5  UNL d   1       0.711  -2.465  -1.390  0.00  0.00     0.039 A 
ENDROOT
BRANCH   4   7
ATOM      7  O   UNL d   1       3.686  -1.910   0.625  0.00  0.00    -0.526 OA
ATOM      8  H5  UNL d   1       3.819  -1.295   1.365  0.00  0.00     0.418 HD
ENDBRANCH   4   7
TORSDOF 1
ENDMDL
