MODEL 1
REMARK minimizedAffinity 0.684206903
REMARK minimizedRMSD -1
REMARK  1 active torsions:
REMARK  status: ('A' for Active; 'I' for Inactive)
REMARK    1  A    between atoms: C3_4  and  O_7 
ROOT
ATOM      1  C   UNL d   1       0.108  -2.225  -0.711  0.00  0.00    -0.033 A 
ATOM      2  C1  UNL d   1      -0.650  -1.060  -0.845  0.00  0.00     0.039 A 
ATOM      3  C2  UNL d   1      -0.049   0.189  -0.682  0.00  0.00    -0.080 A 
ATOM      4  C3  UNL d   1       1.309   0.261  -0.386  0.00  0.00     0.150 A 
ATOM      5  C4  UNL d   1       2.072  -0.895  -0.255  0.00  0.00    -0.007 A 
ATOM      6  C5  UNL d   1       1.470  -2.142  -0.418  0.00  0.00     0.039 A 
ENDROOT
BRANCH   4   7
ATOM      7  O   UNL d   1       1.939   1.458  -0.214  0.00  0.00    -0.526 OA
ATOM      8  H5  UNL d   1       1.281   2.167  -0.305  0.00  0.00     0.418 HD
ENDBRANCH   4   7
TORSDOF 1
ENDMDL
