MODEL 1
REMARK minimizedAffinity 4.24612999
REMARK minimizedRMSD -1
REMARK  1 active torsions:
REMARK  status: ('A' for Active; 'I' for Inactive)
REMARK    1  A    between atoms: N_2  and  C1_3 
ROOT
ATOM      1  C1  UNL d   1      -0.977   1.692  -1.857  0.00  0.00     0.143 A 
ATOM      2  C2  UNL d   1      -0.247   0.499  -1.830  0.00  0.00    -0.057 A 
ATOM      3  C3  UNL d   1      -0.884  -0.744  -1.930  0.00  0.00     0.033 A 
ATOM      4  C4  UNL d   1      -2.270  -0.816  -2.030  0.00  0.00    -0.042 A 
ATOM      5  C5  UNL d   1      -3.017   0.356  -2.034  0.00  0.00     0.033 A 
ATOM      6  C6  UNL d   1      -2.374   1.595  -1.940  0.00  0.00    -0.057 A 
ENDROOT
BRANCH   1   7
ATOM      7  N   UNL d   1      -0.410   2.954  -1.662  0.00  0.00    -0.732 N 
ATOM      8  C   UNL d   1      -0.139   3.443  -0.327  0.00  0.00     0.284 C 
ATOM      9  H3  UNL d   1       0.323   3.159  -2.337  0.00  0.00     0.395 HD
ENDBRANCH   1   7
TORSDOF 1
ENDMDL
