MODEL 1
REMARK minimizedAffinity -3.89748001
REMARK minimizedRMSD -1
REMARK  1 active torsions:
REMARK  status: ('A' for Active; 'I' for Inactive)
REMARK    1  A    between atoms: N_2  and  C1_3 
ROOT
ATOM      1  C1  UNL d   1       1.772  -3.092  -1.047  0.00  0.00     0.143 A 
ATOM      2  C2  UNL d   1       2.460  -2.040  -1.660  0.00  0.00    -0.057 A 
ATOM      3  C3  UNL d   1       1.968  -1.427  -2.819  0.00  0.00     0.033 A 
ATOM      4  C4  UNL d   1       0.788  -1.877  -3.403  0.00  0.00    -0.042 A 
ATOM      5  C5  UNL d   1       0.100  -2.938  -2.825  0.00  0.00     0.033 A 
ATOM      6  C6  UNL d   1       0.594  -3.541  -1.664  0.00  0.00    -0.057 A 
ENDROOT
BRANCH   1   7
ATOM      7  N   UNL d   1       2.260  -3.806   0.049  0.00  0.00    -0.732 N 
ATOM      8  C   UNL d   1       2.384  -5.247  -0.006  0.00  0.00     0.284 C 
ATOM      9  H3  UNL d   1       3.043  -3.339   0.500  0.00  0.00     0.395 HD
ENDBRANCH   1   7
TORSDOF 1
ENDMDL
