MODEL 1
REMARK minimizedAffinity 7.31042433
REMARK minimizedRMSD -1
REMARK  1 active torsions:
REMARK  status: ('A' for Active; 'I' for Inactive)
REMARK    1  A    between atoms: N_2  and  C1_3 
ROOT
ATOM      1  C1  UNL d   1       0.919   2.493   1.520  0.00  0.00     0.143 A 
ATOM      2  C2  UNL d   1       0.234   1.423   0.934  0.00  0.00    -0.057 A 
ATOM      3  C3  UNL d   1      -0.032   0.251   1.653  0.00  0.00     0.033 A 
ATOM      4  C4  UNL d   1       0.409   0.118   2.966  0.00  0.00    -0.042 A 
ATOM      5  C5  UNL d   1       1.113   1.160   3.560  0.00  0.00     0.033 A 
ATOM      6  C6  UNL d   1       1.370   2.330   2.839  0.00  0.00    -0.057 A 
ENDROOT
BRANCH   1   7
ATOM      7  N   UNL d   1       1.300   3.645   0.827  0.00  0.00    -0.732 N 
ATOM      8  C   UNL d   1       0.405   4.259  -0.131  0.00  0.00     0.284 C 
ATOM      9  H3  UNL d   1       1.794   4.309   1.418  0.00  0.00     0.395 HD
ENDBRANCH   1   7
TORSDOF 1
ENDMDL
