MODEL 1
REMARK minimizedAffinity -0.203783587
REMARK minimizedRMSD -1
REMARK  1 active torsions:
REMARK  status: ('A' for Active; 'I' for Inactive)
REMARK    1  A    between atoms: N_2  and  C1_3 
ROOT
ATOM      1  C1  UNL d   1       3.934  -3.085  -2.324  0.00  0.00     0.143 A 
ATOM      2  C2  UNL d   1       5.152  -3.698  -2.013  0.00  0.00    -0.057 A 
ATOM      3  C3  UNL d   1       5.303  -5.089  -2.079  0.00  0.00     0.033 A 
ATOM      4  C4  UNL d   1       4.225  -5.895  -2.430  0.00  0.00    -0.042 A 
ATOM      5  C5  UNL d   1       2.998  -5.309  -2.719  0.00  0.00     0.033 A 
ATOM      6  C6  UNL d   1       2.856  -3.920  -2.658  0.00  0.00    -0.057 A 
ENDROOT
BRANCH   1   7
ATOM      7  N   UNL d   1       3.694  -1.716  -2.183  0.00  0.00    -0.732 N 
ATOM      8  C   UNL d   1       2.833  -1.224  -1.129  0.00  0.00     0.284 C 
ATOM      9  H3  UNL d   1       4.531  -1.157  -2.331  0.00  0.00     0.395 HD
ENDBRANCH   1   7
TORSDOF 1
ENDMDL
