MODEL 1
REMARK minimizedAffinity 3.78452945
REMARK minimizedRMSD -1
REMARK  1 active torsions:
REMARK  status: ('A' for Active; 'I' for Inactive)
REMARK    1  A    between atoms: N_2  and  C1_3 
ROOT
ATOM      1  C1  UNL d   1       0.128   2.845   1.262  0.00  0.00     0.143 A 
ATOM      2  C2  UNL d   1      -0.653   2.392   2.331  0.00  0.00    -0.057 A 
ATOM      3  C3  UNL d   1      -0.096   2.178   3.598  0.00  0.00     0.033 A 
ATOM      4  C4  UNL d   1       1.262   2.385   3.811  0.00  0.00    -0.042 A 
ATOM      5  C5  UNL d   1       2.063   2.812   2.757  0.00  0.00     0.033 A 
ATOM      6  C6  UNL d   1       1.499   3.031   1.496  0.00  0.00    -0.057 A 
ENDROOT
BRANCH   1   7
ATOM      7  N   UNL d   1      -0.347   2.983  -0.044  0.00  0.00    -0.732 N 
ATOM      8  C   UNL d   1       0.101   4.076  -0.880  0.00  0.00     0.284 C 
ATOM      9  H3  UNL d   1      -0.415   2.091  -0.529  0.00  0.00     0.395 HD
ENDBRANCH   1   7
TORSDOF 1
ENDMDL
