MODEL 1
REMARK minimizedAffinity 1.84537828
REMARK minimizedRMSD -1
REMARK  1 active torsions:
REMARK  status: ('A' for Active; 'I' for Inactive)
REMARK    1  A    between atoms: N_2  and  C1_3 
ROOT
ATOM      1  C1  UNL d   1       4.409  -4.821  -2.192  0.00  0.00     0.143 A 
ATOM      2  C2  UNL d   1       4.263  -3.569  -1.583  0.00  0.00    -0.057 A 
ATOM      3  C3  UNL d   1       4.073  -2.410  -2.344  0.00  0.00     0.033 A 
ATOM      4  C4  UNL d   1       4.054  -2.477  -3.733  0.00  0.00    -0.042 A 
ATOM      5  C5  UNL d   1       4.223  -3.707  -4.361  0.00  0.00     0.033 A 
ATOM      6  C6  UNL d   1       4.406  -4.862  -3.595  0.00  0.00    -0.057 A 
ENDROOT
BRANCH   1   7
ATOM      7  N   UNL d   1       4.700  -5.996  -1.494  0.00  0.00    -0.732 N 
ATOM      8  C   UNL d   1       5.683  -5.999  -0.433  0.00  0.00     0.284 C 
ATOM      9  H3  UNL d   1       3.867  -6.542  -1.291  0.00  0.00     0.395 HD
ENDBRANCH   1   7
TORSDOF 1
ENDMDL
