MODEL 1
REMARK minimizedAffinity 1.00112033
REMARK minimizedRMSD -1
REMARK  1 active torsions:
REMARK  status: ('A' for Active; 'I' for Inactive)
REMARK    1  A    between atoms: N_2  and  C1_3 
ROOT
ATOM      1  C1  UNL d   1       4.424  -3.741  -2.770  0.00  0.00     0.143 A 
ATOM      2  C2  UNL d   1       5.722  -4.131  -2.424  0.00  0.00    -0.057 A 
ATOM      3  C3  UNL d   1       5.952  -5.258  -1.625  0.00  0.00     0.033 A 
ATOM      4  C4  UNL d   1       4.883  -6.000  -1.133  0.00  0.00    -0.042 A 
ATOM      5  C5  UNL d   1       3.584  -5.615  -1.444  0.00  0.00     0.033 A 
ATOM      6  C6  UNL d   1       3.360  -4.493  -2.248  0.00  0.00    -0.057 A 
ENDROOT
BRANCH   1   7
ATOM      7  N   UNL d   1       4.126  -2.574  -3.479  0.00  0.00    -0.732 N 
ATOM      8  C   UNL d   1       3.373  -1.506  -2.857  0.00  0.00     0.284 C 
ATOM      9  H3  UNL d   1       4.906  -2.256  -4.049  0.00  0.00     0.395 HD
ENDBRANCH   1   7
TORSDOF 1
ENDMDL
