MODEL 1
REMARK minimizedAffinity -1.88946927
REMARK minimizedRMSD -1
REMARK  1 active torsions:
REMARK  status: ('A' for Active; 'I' for Inactive)
REMARK    1  A    between atoms: N_2  and  C1_3 
ROOT
ATOM      1  C1  UNL d   1       4.865  -4.773  -1.713  0.00  0.00     0.143 A 
ATOM      2  C2  UNL d   1       4.531  -4.689  -3.069  0.00  0.00    -0.057 A 
ATOM      3  C3  UNL d   1       4.161  -3.471  -3.652  0.00  0.00     0.033 A 
ATOM      4  C4  UNL d   1       4.090  -2.317  -2.879  0.00  0.00    -0.042 A 
ATOM      5  C5  UNL d   1       4.393  -2.381  -1.524  0.00  0.00     0.033 A 
ATOM      6  C6  UNL d   1       4.768  -3.599  -0.949  0.00  0.00    -0.057 A 
ENDROOT
BRANCH   1   7
ATOM      7  N   UNL d   1       5.145  -5.972  -1.053  0.00  0.00    -0.732 N 
ATOM      8  C   UNL d   1       5.943  -5.981   0.154  0.00  0.00     0.284 C 
ATOM      9  H3  UNL d   1       4.342  -6.597  -1.026  0.00  0.00     0.395 HD
ENDBRANCH   1   7
TORSDOF 1
ENDMDL
