MODEL 1
REMARK minimizedAffinity 3.40945745
REMARK minimizedRMSD -1
REMARK  1 active torsions:
REMARK  status: ('A' for Active; 'I' for Inactive)
REMARK    1  A    between atoms: N_2  and  C1_3 
ROOT
ATOM      1  C1  UNL d   1      -1.375   5.117  -0.348  0.00  0.00     0.143 A 
ATOM      2  C2  UNL d   1      -1.539   5.420  -1.704  0.00  0.00    -0.057 A 
ATOM      3  C3  UNL d   1      -1.114   4.534  -2.702  0.00  0.00     0.033 A 
ATOM      4  C4  UNL d   1      -0.489   3.339  -2.360  0.00  0.00    -0.042 A 
ATOM      5  C5  UNL d   1      -0.294   3.029  -1.019  0.00  0.00     0.033 A 
ATOM      6  C6  UNL d   1      -0.726   3.915  -0.027  0.00  0.00    -0.057 A 
ENDROOT
BRANCH   1   7
ATOM      7  N   UNL d   1      -1.688   6.000   0.689  0.00  0.00    -0.732 N 
ATOM      8  C   UNL d   1      -2.998   5.982   1.303  0.00  0.00     0.284 C 
ATOM      9  H3  UNL d   1      -0.921   6.111   1.349  0.00  0.00     0.395 HD
ENDBRANCH   1   7
TORSDOF 1
ENDMDL
