MODEL 1
REMARK minimizedAffinity -3.84559298
REMARK minimizedRMSD -1
REMARK  1 active torsions:
REMARK  status: ('A' for Active; 'I' for Inactive)
REMARK    1  A    between atoms: C1_2  and  C2_3 
ROOT
ATOM      1  C2  UNL d   1       1.416   0.350  -0.227  0.00  0.00    -0.076 A 
ATOM      2  C3  UNL d   1       2.517  -0.453  -0.574  0.00  0.00     0.004 A 
ATOM      3  C4  UNL d   1       2.427  -1.844  -0.548  0.00  0.00    -0.003 A 
ATOM      4  C5  UNL d   1       1.235  -2.455  -0.175  0.00  0.00     0.000 A 
ATOM      5  C6  UNL d   1       0.127  -1.674   0.155  0.00  0.00     0.000 A 
ATOM      6  C7  UNL d   1       0.196  -0.271   0.118  0.00  0.00    -0.073 A 
ATOM      7  C8  UNL d   1      -1.027   0.522   0.490  0.00  0.00     0.078 C 
ENDROOT
BRANCH   1   8
ATOM      8  C1  UNL d   1       1.581   1.852  -0.248  0.00  0.00     0.053 C 
ATOM      9  C   UNL d   1       2.977   2.291   0.166  0.00  0.00     0.018 C 
ENDBRANCH   1   8
TORSDOF 1
ENDMDL
