MODEL 1
REMARK minimizedAffinity 3.64677143
REMARK minimizedRMSD -1
REMARK  1 active torsions:
REMARK  status: ('A' for Active; 'I' for Inactive)
REMARK    1  A    between atoms: C1_2  and  C2_3 
ROOT
ATOM      1  C2  UNL d   1      -1.051  -1.958  -4.393  0.00  0.00    -0.076 A 
ATOM      2  C3  UNL d   1      -0.390  -1.548  -3.222  0.00  0.00     0.004 A 
ATOM      3  C4  UNL d   1      -0.233  -2.418  -2.145  0.00  0.00    -0.003 A 
ATOM      4  C5  UNL d   1      -0.734  -3.713  -2.220  0.00  0.00     0.000 A 
ATOM      5  C6  UNL d   1      -1.378  -4.142  -3.381  0.00  0.00     0.000 A 
ATOM      6  C7  UNL d   1      -1.530  -3.283  -4.482  0.00  0.00    -0.073 A 
ATOM      7  C8  UNL d   1      -2.237  -3.796  -5.706  0.00  0.00     0.078 C 
ENDROOT
BRANCH   1   8
ATOM      8  C1  UNL d   1      -1.216  -0.962  -5.519  0.00  0.00     0.053 C 
ATOM      9  C   UNL d   1      -1.735   0.383  -5.035  0.00  0.00     0.018 C 
ENDBRANCH   1   8
TORSDOF 1
ENDMDL
