MODEL 1
REMARK minimizedAffinity -4.17754126
REMARK minimizedRMSD -1
REMARK  1 active torsions:
REMARK  status: ('A' for Active; 'I' for Inactive)
REMARK    1  A    between atoms: C1_2  and  C2_3 
ROOT
ATOM      1  C2  UNL d   1       0.968  -0.357  -0.443  0.00  0.00    -0.076 A 
ATOM      2  C3  UNL d   1       0.426  -1.513  -1.032  0.00  0.00     0.004 A 
ATOM      3  C4  UNL d   1      -0.538  -1.423  -2.035  0.00  0.00    -0.003 A 
ATOM      4  C5  UNL d   1      -0.975  -0.175  -2.466  0.00  0.00     0.000 A 
ATOM      5  C6  UNL d   1      -0.435   0.982  -1.905  0.00  0.00     0.000 A 
ATOM      6  C7  UNL d   1       0.549   0.909  -0.905  0.00  0.00    -0.073 A 
ATOM      7  C8  UNL d   1       1.092   2.189  -0.331  0.00  0.00     0.078 C 
ENDROOT
BRANCH   1   8
ATOM      8  C1  UNL d   1       1.990  -0.518   0.659  0.00  0.00     0.053 C 
ATOM      9  C   UNL d   1       1.353  -0.594   2.038  0.00  0.00     0.018 C 
ENDBRANCH   1   8
TORSDOF 1
ENDMDL
