MODEL 1
REMARK minimizedAffinity 0.262348235
REMARK minimizedRMSD -1
REMARK  1 active torsions:
REMARK  status: ('A' for Active; 'I' for Inactive)
REMARK    1  A    between atoms: C1_2  and  C2_3 
ROOT
ATOM      1  C2  UNL d   1       1.200   0.083   1.059  0.00  0.00    -0.076 A 
ATOM      2  C3  UNL d   1       0.184  -0.704   0.490  0.00  0.00     0.004 A 
ATOM      3  C4  UNL d   1      -0.661  -0.185  -0.490  0.00  0.00    -0.003 A 
ATOM      4  C5  UNL d   1      -0.502   1.128  -0.918  0.00  0.00     0.000 A 
ATOM      5  C6  UNL d   1       0.512   1.917  -0.377  0.00  0.00     0.000 A 
ATOM      6  C7  UNL d   1       1.383   1.405   0.601  0.00  0.00    -0.073 A 
ATOM      7  C8  UNL d   1       2.455   2.302   1.154  0.00  0.00     0.078 C 
ENDROOT
BRANCH   1   8
ATOM      8  C1  UNL d   1       2.068  -0.525   2.138  0.00  0.00     0.053 C 
ATOM      9  C   UNL d   1       1.295  -0.810   3.416  0.00  0.00     0.018 C 
ENDBRANCH   1   8
TORSDOF 1
ENDMDL
