MODEL 1
REMARK minimizedAffinity 0.411779553
REMARK minimizedRMSD -1
REMARK  1 active torsions:
REMARK  status: ('A' for Active; 'I' for Inactive)
REMARK    1  A    between atoms: C1_2  and  C2_3 
ROOT
ATOM      1  C2  UNL d   1       0.379  -0.983  -0.830  0.00  0.00    -0.076 A 
ATOM      2  C3  UNL d   1       1.564  -1.651  -1.184  0.00  0.00     0.004 A 
ATOM      3  C4  UNL d   1       2.653  -1.689  -0.314  0.00  0.00    -0.003 A 
ATOM      4  C5  UNL d   1       2.574  -1.060   0.923  0.00  0.00     0.000 A 
ATOM      5  C6  UNL d   1       1.400  -0.408   1.298  0.00  0.00     0.000 A 
ATOM      6  C7  UNL d   1       0.287  -0.374   0.440  0.00  0.00    -0.073 A 
ATOM      7  C8  UNL d   1      -0.952   0.349   0.893  0.00  0.00     0.078 C 
ENDROOT
BRANCH   1   8
ATOM      8  C1  UNL d   1      -0.760  -0.952  -1.824  0.00  0.00     0.053 C 
ATOM      9  C   UNL d   1      -0.820  -2.207  -2.681  0.00  0.00     0.018 C 
ENDBRANCH   1   8
TORSDOF 1
ENDMDL
