MODEL 1
REMARK minimizedAffinity -2.87310696
REMARK minimizedRMSD -1
REMARK  1 active torsions:
REMARK  status: ('A' for Active; 'I' for Inactive)
REMARK    1  A    between atoms: C1_2  and  C2_3 
ROOT
ATOM      1  C2  UNL d   1      -0.578  -0.454  -1.257  0.00  0.00    -0.076 A 
ATOM      2  C3  UNL d   1       0.455  -1.324  -1.645  0.00  0.00     0.004 A 
ATOM      3  C4  UNL d   1       1.533  -1.581  -0.800  0.00  0.00    -0.003 A 
ATOM      4  C5  UNL d   1       1.595  -0.971   0.448  0.00  0.00     0.000 A 
ATOM      5  C6  UNL d   1       0.571  -0.118   0.857  0.00  0.00     0.000 A 
ATOM      6  C7  UNL d   1      -0.531   0.138   0.024  0.00  0.00    -0.073 A 
ATOM      7  C8  UNL d   1      -1.605   1.071   0.513  0.00  0.00     0.078 C 
ENDROOT
BRANCH   1   8
ATOM      8  C1  UNL d   1      -1.708  -0.192  -2.227  0.00  0.00     0.053 C 
ATOM      9  C   UNL d   1      -1.451  -0.798  -3.598  0.00  0.00     0.018 C 
ENDBRANCH   1   8
TORSDOF 1
ENDMDL
