MODEL 1
REMARK minimizedAffinity 1.40462124
REMARK minimizedRMSD -1
REMARK  1 active torsions:
REMARK  status: ('A' for Active; 'I' for Inactive)
REMARK    1  A    between atoms: C1_2  and  C2_3 
ROOT
ATOM      1  C2  UNL d   1      -1.647   0.016  -0.389  0.00  0.00    -0.076 A 
ATOM      2  C3  UNL d   1      -1.121  -0.254  -1.665  0.00  0.00     0.004 A 
ATOM      3  C4  UNL d   1      -1.955  -0.366  -2.775  0.00  0.00    -0.003 A 
ATOM      4  C5  UNL d   1      -3.329  -0.209  -2.629  0.00  0.00     0.000 A 
ATOM      5  C6  UNL d   1      -3.866   0.076  -1.374  0.00  0.00     0.000 A 
ATOM      6  C7  UNL d   1      -3.037   0.209  -0.247  0.00  0.00    -0.073 A 
ATOM      7  C8  UNL d   1      -3.671   0.511   1.083  0.00  0.00     0.078 C 
ENDROOT
BRANCH   1   8
ATOM      8  C1  UNL d   1      -0.696   0.100   0.783  0.00  0.00     0.053 C 
ATOM      9  C   UNL d   1       0.726   0.433   0.358  0.00  0.00     0.018 C 
ENDBRANCH   1   8
TORSDOF 1
ENDMDL
