MODEL 1
REMARK minimizedAffinity -3.16664529
REMARK minimizedRMSD -1
REMARK  1 active torsions:
REMARK  status: ('A' for Active; 'I' for Inactive)
REMARK    1  A    between atoms: C1_2  and  C2_3 
ROOT
ATOM      1  C2  UNL d   1       3.012  -1.042  -0.145  0.00  0.00    -0.076 A 
ATOM      2  C3  UNL d   1       2.735  -2.223  -0.855  0.00  0.00     0.004 A 
ATOM      3  C4  UNL d   1       3.213  -2.410  -2.151  0.00  0.00    -0.003 A 
ATOM      4  C5  UNL d   1       3.976  -1.418  -2.757  0.00  0.00     0.000 A 
ATOM      5  C6  UNL d   1       4.276  -0.248  -2.061  0.00  0.00     0.000 A 
ATOM      6  C7  UNL d   1       3.815  -0.051  -0.748  0.00  0.00    -0.073 A 
ATOM      7  C8  UNL d   1       4.163   1.233  -0.046  0.00  0.00     0.078 C 
ENDROOT
BRANCH   1   8
ATOM      8  C1  UNL d   1       2.443  -0.885   1.248  0.00  0.00     0.053 C 
ATOM      9  C   UNL d   1       1.244   0.050   1.285  0.00  0.00     0.018 C 
ENDBRANCH   1   8
TORSDOF 1
ENDMDL
