MODEL 1
REMARK minimizedAffinity -2.4422226
REMARK minimizedRMSD -1
REMARK  1 active torsions:
REMARK  status: ('A' for Active; 'I' for Inactive)
REMARK    1  A    between atoms: C1_2  and  C2_3 
ROOT
ATOM      1  C2  UNL d   1       1.886  -1.496  -0.667  0.00  0.00    -0.076 A 
ATOM      2  C3  UNL d   1       3.007  -1.094   0.080  0.00  0.00     0.004 A 
ATOM      3  C4  UNL d   1       2.909  -0.082   1.033  0.00  0.00    -0.003 A 
ATOM      4  C5  UNL d   1       1.688   0.544   1.257  0.00  0.00     0.000 A 
ATOM      5  C6  UNL d   1       0.561   0.145   0.538  0.00  0.00     0.000 A 
ATOM      6  C7  UNL d   1       0.639  -0.884  -0.415  0.00  0.00    -0.073 A 
ATOM      7  C8  UNL d   1      -0.606  -1.269  -1.166  0.00  0.00     0.078 C 
ENDROOT
BRANCH   1   8
ATOM      8  C1  UNL d   1       2.058  -2.580  -1.707  0.00  0.00     0.053 C 
ATOM      9  C   UNL d   1       3.155  -2.256  -2.709  0.00  0.00     0.018 C 
ENDBRANCH   1   8
TORSDOF 1
ENDMDL
