MODEL 1
REMARK minimizedAffinity 10.7930717
REMARK minimizedRMSD -1
REMARK  0 active torsions:
REMARK  status: ('A' for Active; 'I' for Inactive)
ROOT
ATOM      1  C4' PXY d   1       2.698   0.842   3.680  0.00  0.00     0.077 C 
ATOM      2  C1' PXY d   1      -2.099  -1.234   1.212  0.00  0.00     0.077 C 
ATOM      3  C1  PXY d   1      -0.844  -0.678   1.855  0.00  0.00    -0.082 A 
ATOM      4  C2  PXY d   1       0.202  -1.467   2.039  0.00  0.00     0.003 A 
ATOM      5  C3  PXY d   1       1.333  -0.988   2.648  0.00  0.00     0.003 A 
ATOM      6  C4  PXY d   1       1.414   0.326   3.026  0.00  0.00    -0.082 A 
ATOM      7  C5  PXY d   1       0.354   1.140   2.832  0.00  0.00     0.003 A 
ATOM      8  C6  PXY d   1      -0.799   0.624   2.249  0.00  0.00     0.003 A 
ENDROOT
TORSDOF 0
ENDMDL
