MODEL 1
REMARK minimizedAffinity 17.7081203
REMARK minimizedRMSD -1
REMARK  0 active torsions:
REMARK  status: ('A' for Active; 'I' for Inactive)
ROOT
ATOM      1  C4' PXY d   1       0.747   0.363  -3.658  0.00  0.00     0.077 C 
ATOM      2  C1' PXY d   1      -2.175  -4.178  -5.721  0.00  0.00     0.077 C 
ATOM      3  C1  PXY d   1      -1.416  -2.987  -5.170  0.00  0.00    -0.082 A 
ATOM      4  C2  PXY d   1      -0.748  -2.198  -5.995  0.00  0.00     0.003 A 
ATOM      5  C3  PXY d   1      -0.030  -1.135  -5.510  0.00  0.00     0.003 A 
ATOM      6  C4  PXY d   1      -0.041  -0.845  -4.172  0.00  0.00    -0.082 A 
ATOM      7  C5  PXY d   1      -0.729  -1.639  -3.324  0.00  0.00     0.003 A 
ATOM      8  C6  PXY d   1      -1.417  -2.737  -3.832  0.00  0.00     0.003 A 
ENDROOT
TORSDOF 0
ENDMDL
