MODEL 1
REMARK minimizedAffinity 6.0782547
REMARK minimizedRMSD -1
REMARK  0 active torsions:
REMARK  status: ('A' for Active; 'I' for Inactive)
ROOT
ATOM      1  C4' PXY d   1       2.903   0.053  -3.915  0.00  0.00     0.077 C 
ATOM      2  C1' PXY d   1      -1.942  -2.489  -2.050  0.00  0.00     0.077 C 
ATOM      3  C1  PXY d   1      -0.676  -1.823  -2.552  0.00  0.00    -0.082 A 
ATOM      4  C2  PXY d   1       0.432  -1.899  -1.832  0.00  0.00     0.003 A 
ATOM      5  C3  PXY d   1       1.577  -1.275  -2.255  0.00  0.00     0.003 A 
ATOM      6  C4  PXY d   1       1.604  -0.612  -3.453  0.00  0.00    -0.082 A 
ATOM      7  C5  PXY d   1       0.480  -0.540  -4.198  0.00  0.00     0.003 A 
ATOM      8  C6  PXY d   1      -0.683  -1.145  -3.731  0.00  0.00     0.003 A 
ENDROOT
TORSDOF 0
ENDMDL
