MODEL 1
REMARK minimizedAffinity 10.5199041
REMARK minimizedRMSD -1
REMARK  0 active torsions:
REMARK  status: ('A' for Active; 'I' for Inactive)
ROOT
ATOM      1  C4' PXY d   1      -2.176  -1.885   0.728  0.00  0.00     0.077 C 
ATOM      2  C1' PXY d   1      -5.402   2.803  -0.285  0.00  0.00     0.077 C 
ATOM      3  C1  PXY d   1      -4.548   1.581  -0.012  0.00  0.00    -0.082 A 
ATOM      4  C2  PXY d   1      -4.510   0.598  -0.897  0.00  0.00     0.003 A 
ATOM      5  C3  PXY d   1      -3.768  -0.529  -0.651  0.00  0.00     0.003 A 
ATOM      6  C4  PXY d   1      -3.016  -0.628   0.489  0.00  0.00    -0.082 A 
ATOM      7  C5  PXY d   1      -3.041   0.375   1.392  0.00  0.00     0.003 A 
ATOM      8  C6  PXY d   1      -3.833   1.493   1.143  0.00  0.00     0.003 A 
ENDROOT
TORSDOF 0
ENDMDL
