MODEL 1
REMARK minimizedAffinity 5.52064514
REMARK minimizedRMSD -1
REMARK  0 active torsions:
REMARK  status: ('A' for Active; 'I' for Inactive)
ROOT
ATOM      1  C4' PXY d   1       2.267  -2.876   5.627  0.00  0.00     0.077 C 
ATOM      2  C1' PXY d   1       0.279   1.231   2.078  0.00  0.00     0.077 C 
ATOM      3  C1  PXY d   1       0.794   0.145   3.002  0.00  0.00    -0.082 A 
ATOM      4  C2  PXY d   1       1.142   0.451   4.242  0.00  0.00     0.003 A 
ATOM      5  C3  PXY d   1       1.640  -0.513   5.080  0.00  0.00     0.003 A 
ATOM      6  C4  PXY d   1       1.733  -1.814   4.663  0.00  0.00    -0.082 A 
ATOM      7  C5  PXY d   1       1.371  -2.136   3.403  0.00  0.00     0.003 A 
ATOM      8  C6  PXY d   1       0.907  -1.135   2.554  0.00  0.00     0.003 A 
ENDROOT
TORSDOF 0
ENDMDL
