MODEL 1
REMARK minimizedAffinity 16.0739079
REMARK minimizedRMSD -1
REMARK  0 active torsions:
REMARK  status: ('A' for Active; 'I' for Inactive)
ROOT
ATOM      1  C4' PXY d   1       1.499  -0.010  -3.749  0.00  0.00     0.077 C 
ATOM      2  C1' PXY d   1      -1.875  -4.129  -6.000  0.00  0.00     0.077 C 
ATOM      3  C1  PXY d   1      -0.980  -3.057  -5.411  0.00  0.00    -0.082 A 
ATOM      4  C2  PXY d   1      -1.507  -2.107  -4.655  0.00  0.00     0.003 A 
ATOM      5  C3  PXY d   1      -0.717  -1.112  -4.140  0.00  0.00     0.003 A 
ATOM      6  C4  PXY d   1       0.635  -1.118  -4.358  0.00  0.00    -0.082 A 
ATOM      7  C5  PXY d   1       1.182  -2.090  -5.119  0.00  0.00     0.003 A 
ATOM      8  C6  PXY d   1       0.356  -3.068  -5.666  0.00  0.00     0.003 A 
ENDROOT
TORSDOF 0
ENDMDL
