MODEL 1
REMARK minimizedAffinity 10.3406458
REMARK minimizedRMSD -1
REMARK  0 active torsions:
REMARK  status: ('A' for Active; 'I' for Inactive)
ROOT
ATOM      1  C4' PXY d   1       0.102  -0.641  -3.835  0.00  0.00     0.077 C 
ATOM      2  C1' PXY d   1      -2.463  -5.609  -5.304  0.00  0.00     0.077 C 
ATOM      3  C1  PXY d   1      -1.799  -4.304  -4.910  0.00  0.00    -0.082 A 
ATOM      4  C2  PXY d   1      -1.072  -3.645  -5.797  0.00  0.00     0.003 A 
ATOM      5  C3  PXY d   1      -0.439  -2.481  -5.448  0.00  0.00     0.003 A 
ATOM      6  C4  PXY d   1      -0.594  -1.957  -4.192  0.00  0.00    -0.082 A 
ATOM      7  C5  PXY d   1      -1.343  -2.618  -3.284  0.00  0.00     0.003 A 
ATOM      8  C6  PXY d   1      -1.945  -3.820  -3.646  0.00  0.00     0.003 A 
ENDROOT
TORSDOF 0
ENDMDL
