MODEL 1
REMARK minimizedAffinity 13.4709158
REMARK minimizedRMSD -1
REMARK  0 active torsions:
REMARK  status: ('A' for Active; 'I' for Inactive)
ROOT
ATOM      1  C4' PXY d   1       2.609  -4.969  -5.992  0.00  0.00     0.077 C 
ATOM      2  C1' PXY d   1       0.074  -0.016  -4.425  0.00  0.00     0.077 C 
ATOM      3  C1  PXY d   1       0.750  -1.310  -4.834  0.00  0.00    -0.082 A 
ATOM      4  C2  PXY d   1       0.108  -2.166  -5.612  0.00  0.00     0.003 A 
ATOM      5  C3  PXY d   1       0.693  -3.355  -5.965  0.00  0.00     0.003 A 
ATOM      6  C4  PXY d   1       1.968  -3.647  -5.561  0.00  0.00    -0.082 A 
ATOM      7  C5  PXY d   1       2.634  -2.773  -4.776  0.00  0.00     0.003 A 
ATOM      8  C6  PXY d   1       2.007  -1.590  -4.395  0.00  0.00     0.003 A 
ENDROOT
TORSDOF 0
ENDMDL
