MODEL 1
REMARK minimizedAffinity 10.4995213
REMARK minimizedRMSD -1
REMARK  0 active torsions:
REMARK  status: ('A' for Active; 'I' for Inactive)
ROOT
ATOM      1  C4' PXY d   1       0.594  -0.246  -3.683  0.00  0.00     0.077 C 
ATOM      2  C1' PXY d   1      -2.492  -4.689  -5.721  0.00  0.00     0.077 C 
ATOM      3  C1  PXY d   1      -1.691  -3.523  -5.177  0.00  0.00    -0.082 A 
ATOM      4  C2  PXY d   1      -0.946  -2.801  -5.998  0.00  0.00     0.003 A 
ATOM      5  C3  PXY d   1      -0.191  -1.762  -5.517  0.00  0.00     0.003 A 
ATOM      6  C4  PXY d   1      -0.239  -1.427  -4.190  0.00  0.00    -0.082 A 
ATOM      7  C5  PXY d   1      -1.004  -2.153  -3.348  0.00  0.00     0.003 A 
ATOM      8  C6  PXY d   1      -1.732  -3.228  -3.849  0.00  0.00     0.003 A 
ENDROOT
TORSDOF 0
ENDMDL
