MODEL 1
REMARK minimizedAffinity 10.8973398
REMARK minimizedRMSD -1
REMARK  0 active torsions:
REMARK  status: ('A' for Active; 'I' for Inactive)
ROOT
ATOM      1  C4' PXY d   1       5.241  -4.147   5.556  0.00  0.00     0.077 C 
ATOM      2  C1' PXY d   1       1.847   0.232   3.909  0.00  0.00     0.077 C 
ATOM      3  C1  PXY d   1       2.747  -0.909   4.338  0.00  0.00    -0.082 A 
ATOM      4  C2  PXY d   1       2.296  -2.152   4.291  0.00  0.00     0.003 A 
ATOM      5  C3  PXY d   1       3.086  -3.193   4.706  0.00  0.00     0.003 A 
ATOM      6  C4  PXY d   1       4.370  -2.964   5.123  0.00  0.00    -0.082 A 
ATOM      7  C5  PXY d   1       4.842  -1.700   5.164  0.00  0.00     0.003 A 
ATOM      8  C6  PXY d   1       4.010  -0.653   4.777  0.00  0.00     0.003 A 
ENDROOT
TORSDOF 0
ENDMDL
