MODEL 1
REMARK minimizedAffinity -1.92982042
REMARK minimizedRMSD -1
REMARK  1 active torsions:
REMARK  status: ('A' for Active; 'I' for Inactive)
REMARK    1  A    between atoms: C1_2  and  C2_3 
ROOT
ATOM      1  C2  UNL d   1       0.269  -0.654   0.071  0.00  0.00    -0.073 A 
ATOM      2  C3  UNL d   1       1.341  -1.553   0.081  0.00  0.00    -0.002 A 
ATOM      3  C4  UNL d   1       1.112  -2.923   0.213  0.00  0.00     0.004 A 
ATOM      4  C5  UNL d   1      -0.191  -3.409   0.331  0.00  0.00    -0.004 A 
ATOM      5  C6  UNL d   1      -1.276  -2.527   0.311  0.00  0.00    -0.075 A 
ATOM      6  C7  UNL d   1      -2.683  -3.033   0.439  0.00  0.00     0.076 C 
ATOM      7  C8  UNL d   1      -1.038  -1.152   0.181  0.00  0.00     0.001 A 
ENDROOT
BRANCH   1   8
ATOM      8  C1  UNL d   1       0.511   0.825  -0.079  0.00  0.00     0.053 C 
ATOM      9  C   UNL d   1      -0.385   1.645   0.837  0.00  0.00     0.018 C 
ENDBRANCH   1   8
TORSDOF 1
ENDMDL
