MODEL 1
REMARK minimizedAffinity -2.3560071
REMARK minimizedRMSD -1
REMARK  1 active torsions:
REMARK  status: ('A' for Active; 'I' for Inactive)
REMARK    1  A    between atoms: C1_2  and  C2_3 
ROOT
ATOM      1  C2  UNL d   1       0.618   1.460   0.036  0.00  0.00    -0.073 A 
ATOM      2  C3  UNL d   1       0.299   1.428  -1.327  0.00  0.00    -0.002 A 
ATOM      3  C4  UNL d   1       0.003   0.216  -1.953  0.00  0.00     0.004 A 
ATOM      4  C5  UNL d   1       0.016  -0.972  -1.223  0.00  0.00    -0.004 A 
ATOM      5  C6  UNL d   1       0.321  -0.959   0.141  0.00  0.00    -0.075 A 
ATOM      6  C7  UNL d   1       0.342  -2.230   0.940  0.00  0.00     0.076 C 
ATOM      7  C8  UNL d   1       0.620   0.261   0.763  0.00  0.00     0.001 A 
ENDROOT
BRANCH   1   8
ATOM      8  C1  UNL d   1       0.932   2.767   0.717  0.00  0.00     0.053 C 
ATOM      9  C   UNL d   1       2.323   3.272   0.369  0.00  0.00     0.018 C 
ENDBRANCH   1   8
TORSDOF 1
ENDMDL
