MODEL 1
REMARK minimizedAffinity -5.2547636
REMARK minimizedRMSD -1
REMARK  1 active torsions:
REMARK  status: ('A' for Active; 'I' for Inactive)
REMARK    1  A    between atoms: C1_2  and  C2_3 
ROOT
ATOM      1  C2  UNL d   1       0.461  -0.321   0.104  0.00  0.00    -0.073 A 
ATOM      2  C3  UNL d   1      -0.083   0.089  -1.118  0.00  0.00    -0.002 A 
ATOM      3  C4  UNL d   1      -0.193   1.447  -1.422  0.00  0.00     0.004 A 
ATOM      4  C5  UNL d   1       0.246   2.407  -0.510  0.00  0.00    -0.004 A 
ATOM      5  C6  UNL d   1       0.803   2.018   0.712  0.00  0.00    -0.075 A 
ATOM      6  C7  UNL d   1       1.278   3.038   1.704  0.00  0.00     0.076 C 
ATOM      7  C8  UNL d   1       0.908   0.652   1.010  0.00  0.00     0.001 A 
ENDROOT
BRANCH   1   8
ATOM      8  C1  UNL d   1       0.587  -1.786   0.433  0.00  0.00     0.053 C 
ATOM      9  C   UNL d   1      -0.766  -2.477   0.485  0.00  0.00     0.018 C 
ENDBRANCH   1   8
TORSDOF 1
ENDMDL
