MODEL 1
REMARK minimizedAffinity -2.31830883
REMARK minimizedRMSD -1
REMARK  1 active torsions:
REMARK  status: ('A' for Active; 'I' for Inactive)
REMARK    1  A    between atoms: C1_2  and  C2_3 
ROOT
ATOM      1  C2  UNL d   1      -0.136  -0.280   0.103  0.00  0.00    -0.073 A 
ATOM      2  C3  UNL d   1       0.714  -1.272   0.605  0.00  0.00    -0.002 A 
ATOM      3  C4  UNL d   1       1.556  -1.979  -0.254  0.00  0.00     0.004 A 
ATOM      4  C5  UNL d   1       1.563  -1.697  -1.620  0.00  0.00    -0.004 A 
ATOM      5  C6  UNL d   1       0.730  -0.701  -2.139  0.00  0.00    -0.075 A 
ATOM      6  C7  UNL d   1       0.724  -0.387  -3.607  0.00  0.00     0.076 C 
ATOM      7  C8  UNL d   1      -0.115   0.003  -1.271  0.00  0.00     0.001 A 
ENDROOT
BRANCH   1   8
ATOM      8  C1  UNL d   1      -1.043   0.491   1.027  0.00  0.00     0.053 C 
ATOM      9  C   UNL d   1      -2.175  -0.370   1.564  0.00  0.00     0.018 C 
ENDBRANCH   1   8
TORSDOF 1
ENDMDL
