MODEL 1
REMARK minimizedAffinity -3.37955832
REMARK minimizedRMSD -1
REMARK  1 active torsions:
REMARK  status: ('A' for Active; 'I' for Inactive)
REMARK    1  A    between atoms: C1_2  and  C2_3 
ROOT
ATOM      1  C2  UNL d   1       0.008   0.572  -0.788  0.00  0.00    -0.073 A 
ATOM      2  C3  UNL d   1      -0.424   0.095   0.455  0.00  0.00    -0.002 A 
ATOM      3  C4  UNL d   1      -0.497  -1.277   0.696  0.00  0.00     0.004 A 
ATOM      4  C5  UNL d   1      -0.134  -2.186  -0.298  0.00  0.00    -0.004 A 
ATOM      5  C6  UNL d   1       0.311  -1.728  -1.543  0.00  0.00    -0.075 A 
ATOM      6  C7  UNL d   1       0.704  -2.692  -2.623  0.00  0.00     0.076 C 
ATOM      7  C8  UNL d   1       0.380  -0.349  -1.778  0.00  0.00     0.001 A 
ENDROOT
BRANCH   1   8
ATOM      8  C1  UNL d   1       0.095   2.053  -1.052  0.00  0.00     0.053 C 
ATOM      9  C   UNL d   1       0.622   2.816   0.153  0.00  0.00     0.018 C 
ENDBRANCH   1   8
TORSDOF 1
ENDMDL
