MODEL 1
REMARK minimizedAffinity -3.32938719
REMARK minimizedRMSD -1
REMARK  1 active torsions:
REMARK  status: ('A' for Active; 'I' for Inactive)
REMARK    1  A    between atoms: C1_2  and  C2_3 
ROOT
ATOM      1  C2  UNL d   1       0.776   0.846  -0.163  0.00  0.00    -0.073 A 
ATOM      2  C3  UNL d   1      -0.567   1.230  -0.249  0.00  0.00    -0.002 A 
ATOM      3  C4  UNL d   1      -1.581   0.317   0.045  0.00  0.00     0.004 A 
ATOM      4  C5  UNL d   1      -1.263  -0.985   0.433  0.00  0.00    -0.004 A 
ATOM      5  C6  UNL d   1       0.073  -1.383   0.537  0.00  0.00    -0.075 A 
ATOM      6  C7  UNL d   1       0.432  -2.780   0.951  0.00  0.00     0.076 C 
ATOM      7  C8  UNL d   1       1.086  -0.462   0.238  0.00  0.00     0.001 A 
ENDROOT
BRANCH   1   8
ATOM      8  C1  UNL d   1       1.875   1.830  -0.472  0.00  0.00     0.053 C 
ATOM      9  C   UNL d   1       1.728   3.117   0.323  0.00  0.00     0.018 C 
ENDBRANCH   1   8
TORSDOF 1
ENDMDL
