MODEL 1
REMARK minimizedAffinity -3.06977224
REMARK minimizedRMSD -1
REMARK  1 active torsions:
REMARK  status: ('A' for Active; 'I' for Inactive)
REMARK    1  A    between atoms: C1_2  and  C2_3 
ROOT
ATOM      1  C2  UNL d   1       0.932   2.039  -0.678  0.00  0.00    -0.073 A 
ATOM      2  C3  UNL d   1       2.201   2.447  -1.106  0.00  0.00    -0.002 A 
ATOM      3  C4  UNL d   1       2.780   3.607  -0.588  0.00  0.00     0.004 A 
ATOM      4  C5  UNL d   1       2.101   4.365   0.365  0.00  0.00    -0.004 A 
ATOM      5  C6  UNL d   1       0.838   3.968   0.814  0.00  0.00    -0.075 A 
ATOM      6  C7  UNL d   1       0.093   4.774   1.838  0.00  0.00     0.076 C 
ATOM      7  C8  UNL d   1       0.262   2.803   0.288  0.00  0.00     0.001 A 
ENDROOT
BRANCH   1   8
ATOM      8  C1  UNL d   1       0.306   0.784  -1.228  0.00  0.00     0.053 C 
ATOM      9  C   UNL d   1       0.384  -0.371  -0.244  0.00  0.00     0.018 C 
ENDBRANCH   1   8
TORSDOF 1
ENDMDL
