MODEL 1
REMARK minimizedAffinity -3.48201585
REMARK minimizedRMSD -1
REMARK  1 active torsions:
REMARK  status: ('A' for Active; 'I' for Inactive)
REMARK    1  A    between atoms: C1_2  and  C2_3 
ROOT
ATOM      1  C2  UNL d   1       0.338   0.347   0.074  0.00  0.00    -0.073 A 
ATOM      2  C3  UNL d   1      -0.938   0.645   0.567  0.00  0.00    -0.002 A 
ATOM      3  C4  UNL d   1      -1.743  -0.365   1.095  0.00  0.00     0.004 A 
ATOM      4  C5  UNL d   1      -1.280  -1.679   1.143  0.00  0.00    -0.004 A 
ATOM      5  C6  UNL d   1      -0.003  -1.995   0.666  0.00  0.00    -0.075 A 
ATOM      6  C7  UNL d   1       0.509  -3.405   0.707  0.00  0.00     0.076 C 
ATOM      7  C8  UNL d   1       0.798  -0.976   0.134  0.00  0.00     0.001 A 
ENDROOT
BRANCH   1   8
ATOM      8  C1  UNL d   1       1.213   1.436  -0.492  0.00  0.00     0.053 C 
ATOM      9  C   UNL d   1       1.409   2.578   0.492  0.00  0.00     0.018 C 
ENDBRANCH   1   8
TORSDOF 1
ENDMDL
