MODEL 1
REMARK minimizedAffinity -0.356285781
REMARK minimizedRMSD -1
REMARK  1 active torsions:
REMARK  status: ('A' for Active; 'I' for Inactive)
REMARK    1  A    between atoms: C1_2  and  C2_3 
ROOT
ATOM      1  C2  UNL d   1       0.949   2.072  -0.619  0.00  0.00    -0.073 A 
ATOM      2  C3  UNL d   1       2.123   2.448  -1.281  0.00  0.00    -0.002 A 
ATOM      3  C4  UNL d   1       2.973   3.402  -0.721  0.00  0.00     0.004 A 
ATOM      4  C5  UNL d   1       2.663   3.985   0.508  0.00  0.00    -0.004 A 
ATOM      5  C6  UNL d   1       1.500   3.613   1.191  0.00  0.00    -0.075 A 
ATOM      6  C7  UNL d   1       1.150   4.232   2.512  0.00  0.00     0.076 C 
ATOM      7  C8  UNL d   1       0.650   2.656   0.621  0.00  0.00     0.001 A 
ENDROOT
BRANCH   1   8
ATOM      8  C1  UNL d   1       0.031   1.037  -1.216  0.00  0.00     0.053 C 
ATOM      9  C   UNL d   1      -0.130  -0.173  -0.310  0.00  0.00     0.018 C 
ENDBRANCH   1   8
TORSDOF 1
ENDMDL
