MODEL 1
REMARK minimizedAffinity -5.65795517
REMARK minimizedRMSD -1
REMARK  1 active torsions:
REMARK  status: ('A' for Active; 'I' for Inactive)
REMARK    1  A    between atoms: C1_2  and  C2_3 
ROOT
ATOM      1  C2  UNL d   1      -0.332  -1.134  -0.288  0.00  0.00    -0.073 A 
ATOM      2  C3  UNL d   1      -0.302  -2.156   0.668  0.00  0.00    -0.002 A 
ATOM      3  C4  UNL d   1       0.113  -3.440   0.315  0.00  0.00     0.004 A 
ATOM      4  C5  UNL d   1       0.510  -3.714  -0.994  0.00  0.00    -0.004 A 
ATOM      5  C6  UNL d   1       0.499  -2.704  -1.961  0.00  0.00    -0.075 A 
ATOM      6  C7  UNL d   1       0.921  -2.983  -3.373  0.00  0.00     0.076 C 
ATOM      7  C8  UNL d   1       0.078  -1.417  -1.599  0.00  0.00     0.001 A 
ENDROOT
BRANCH   1   8
ATOM      8  C1  UNL d   1      -0.774   0.256   0.091  0.00  0.00     0.053 C 
ATOM      9  C   UNL d   1      -0.433   1.275  -0.985  0.00  0.00     0.018 C 
ENDBRANCH   1   8
TORSDOF 1
ENDMDL
