MODEL 1
REMARK minimizedAffinity -3.546731
REMARK minimizedRMSD -1
REMARK  1 active torsions:
REMARK  status: ('A' for Active; 'I' for Inactive)
REMARK    1  A    between atoms: C1_2  and  C2_3 
ROOT
ATOM      1  C2  UNL d   1      -0.108   0.068  -0.304  0.00  0.00    -0.073 A 
ATOM      2  C3  UNL d   1      -0.971   0.214   0.788  0.00  0.00    -0.002 A 
ATOM      3  C4  UNL d   1      -1.378  -0.903   1.519  0.00  0.00     0.004 A 
ATOM      4  C5  UNL d   1      -0.923  -2.174   1.171  0.00  0.00    -0.004 A 
ATOM      5  C6  UNL d   1      -0.051  -2.340   0.090  0.00  0.00    -0.075 A 
ATOM      6  C7  UNL d   1       0.447  -3.701  -0.300  0.00  0.00     0.076 C 
ATOM      7  C8  UNL d   1       0.352  -1.213  -0.641  0.00  0.00     0.001 A 
ENDROOT
BRANCH   1   8
ATOM      8  C1  UNL d   1       0.340   1.271  -1.092  0.00  0.00     0.053 C 
ATOM      9  C   UNL d   1       0.888   2.369  -0.194  0.00  0.00     0.018 C 
ENDBRANCH   1   8
TORSDOF 1
ENDMDL
