MODEL 1
REMARK minimizedAffinity -6.03771305
REMARK minimizedRMSD -1
REMARK  1 active torsions:
REMARK  status: ('A' for Active; 'I' for Inactive)
REMARK    1  A    between atoms: C1_2  and  C2_3 
ROOT
ATOM      1  C2  UNL d   1      -0.152  -0.045  -0.086  0.00  0.00    -0.073 A 
ATOM      2  C3  UNL d   1      -0.421  -0.993   0.907  0.00  0.00    -0.002 A 
ATOM      3  C4  UNL d   1      -0.389  -2.355   0.608  0.00  0.00     0.004 A 
ATOM      4  C5  UNL d   1      -0.082  -2.784  -0.683  0.00  0.00    -0.004 A 
ATOM      5  C6  UNL d   1       0.201  -1.852  -1.686  0.00  0.00    -0.075 A 
ATOM      6  C7  UNL d   1       0.532  -2.296  -3.081  0.00  0.00     0.076 C 
ATOM      7  C8  UNL d   1       0.165  -0.485  -1.379  0.00  0.00     0.001 A 
ENDROOT
BRANCH   1   8
ATOM      8  C1  UNL d   1      -0.179   1.428   0.234  0.00  0.00     0.053 C 
ATOM      9  C   UNL d   1       1.168   2.089  -0.011  0.00  0.00     0.018 C 
ENDBRANCH   1   8
TORSDOF 1
ENDMDL
