MODEL 1
REMARK minimizedAffinity -5.40598726
REMARK minimizedRMSD -1
REMARK  1 active torsions:
REMARK  status: ('A' for Active; 'I' for Inactive)
REMARK    1  A    between atoms: C1_2  and  C2_3 
ROOT
ATOM      1  C2  UNL d   1       0.225   0.603  -0.164  0.00  0.00    -0.073 A 
ATOM      2  C3  UNL d   1      -0.763   1.033   0.730  0.00  0.00    -0.002 A 
ATOM      3  C4  UNL d   1      -1.441   0.111   1.528  0.00  0.00     0.004 A 
ATOM      4  C5  UNL d   1      -1.134  -1.247   1.447  0.00  0.00    -0.004 A 
ATOM      5  C6  UNL d   1      -0.142  -1.695   0.569  0.00  0.00    -0.075 A 
ATOM      6  C7  UNL d   1       0.198  -3.153   0.468  0.00  0.00     0.076 C 
ATOM      7  C8  UNL d   1       0.533  -0.764  -0.231  0.00  0.00     0.001 A 
ENDROOT
BRANCH   1   8
ATOM      8  C1  UNL d   1       0.964   1.595  -1.023  0.00  0.00     0.053 C 
ATOM      9  C   UNL d   1       1.798   2.558  -0.193  0.00  0.00     0.018 C 
ENDBRANCH   1   8
TORSDOF 1
ENDMDL
