MODEL 1
REMARK minimizedAffinity -4.75010967
REMARK minimizedRMSD -1
REMARK  0 active torsions:
REMARK  status: ('A' for Active; 'I' for Inactive)
ROOT
ATOM      1  C   UNL d   1      -0.551   0.470   0.240  0.00  0.00     0.023 A 
ATOM      2  C1  UNL d   1       0.750   0.352  -0.248  0.00  0.00     0.003 A 
ATOM      3  C2  UNL d   1       1.597  -0.640   0.251  0.00  0.00     0.048 A 
ATOM      4  C3  UNL d   1       1.135  -1.511   1.237  0.00  0.00     0.023 A 
ATOM      5  C4  UNL d   1      -0.166  -1.397   1.728  0.00  0.00     0.048 A 
ATOM      6  C5  UNL d   1      -1.009  -0.404   1.226  0.00  0.00     0.003 A 
ATOM      7  I   UNL d   1       2.394  -2.988   1.982  0.00  0.00    -0.146 I 
ENDROOT
TORSDOF 0
ENDMDL
