MODEL 1
REMARK minimizedAffinity -3.9262538
REMARK minimizedRMSD -1
REMARK  0 active torsions:
REMARK  status: ('A' for Active; 'I' for Inactive)
ROOT
ATOM      1  C   UNL d   1       1.420  -2.592   0.927  0.00  0.00     0.023 A 
ATOM      2  C1  UNL d   1       2.096  -1.657   0.143  0.00  0.00     0.003 A 
ATOM      3  C2  UNL d   1       1.437  -0.506  -0.297  0.00  0.00     0.048 A 
ATOM      4  C3  UNL d   1       0.103  -0.297   0.053  0.00  0.00     0.023 A 
ATOM      5  C4  UNL d   1      -0.576  -1.230   0.838  0.00  0.00     0.048 A 
ATOM      6  C5  UNL d   1       0.086  -2.379   1.274  0.00  0.00     0.003 A 
ATOM      7  I   UNL d   1      -0.879   1.414  -0.600  0.00  0.00    -0.146 I 
ENDROOT
TORSDOF 0
ENDMDL
