MODEL 1
REMARK minimizedAffinity -5.11178541
REMARK minimizedRMSD -1
REMARK  0 active torsions:
REMARK  status: ('A' for Active; 'I' for Inactive)
ROOT
ATOM      1  C   UNL d   1       0.080  -3.466   3.450  0.00  0.00     0.023 A 
ATOM      2  C1  UNL d   1       1.259  -3.495   2.705  0.00  0.00     0.003 A 
ATOM      3  C2  UNL d   1       1.468  -2.559   1.690  0.00  0.00     0.048 A 
ATOM      4  C3  UNL d   1       0.494  -1.598   1.424  0.00  0.00     0.023 A 
ATOM      5  C4  UNL d   1      -0.688  -1.565   2.167  0.00  0.00     0.048 A 
ATOM      6  C5  UNL d   1      -0.893  -2.503   3.181  0.00  0.00     0.003 A 
ATOM      7  I   UNL d   1       0.802  -0.205  -0.087  0.00  0.00    -0.146 I 
ENDROOT
TORSDOF 0
ENDMDL
