MODEL 1
REMARK minimizedAffinity -3.8269341
REMARK minimizedRMSD -1
REMARK  0 active torsions:
REMARK  status: ('A' for Active; 'I' for Inactive)
ROOT
ATOM      1  C   UNL d   1       1.036  -3.081   2.063  0.00  0.00     0.023 A 
ATOM      2  C1  UNL d   1      -0.108  -2.521   2.632  0.00  0.00     0.003 A 
ATOM      3  C2  UNL d   1      -0.729  -1.429   2.022  0.00  0.00     0.048 A 
ATOM      4  C3  UNL d   1      -0.202  -0.902   0.843  0.00  0.00     0.023 A 
ATOM      5  C4  UNL d   1       0.943  -1.460   0.271  0.00  0.00     0.048 A 
ATOM      6  C5  UNL d   1       1.561  -2.551   0.885  0.00  0.00     0.003 A 
ATOM      7  I   UNL d   1      -1.124   0.723  -0.066  0.00  0.00    -0.146 I 
ENDROOT
TORSDOF 0
ENDMDL
