MODEL 1
REMARK minimizedAffinity -4.06200695
REMARK minimizedRMSD -1
REMARK  0 active torsions:
REMARK  status: ('A' for Active; 'I' for Inactive)
ROOT
ATOM      1  C   UNL d   1       0.949  -3.318   2.201  0.00  0.00     0.023 A 
ATOM      2  C1  UNL d   1      -0.054  -2.412   2.544  0.00  0.00     0.003 A 
ATOM      3  C2  UNL d   1      -0.294  -1.297   1.738  0.00  0.00     0.048 A 
ATOM      4  C3  UNL d   1       0.472  -1.095   0.591  0.00  0.00     0.023 A 
ATOM      5  C4  UNL d   1       1.477  -2.000   0.244  0.00  0.00     0.048 A 
ATOM      6  C5  UNL d   1       1.714  -3.113   1.053  0.00  0.00     0.003 A 
ATOM      7  I   UNL d   1       0.117   0.564  -0.609  0.00  0.00    -0.146 I 
ENDROOT
TORSDOF 0
ENDMDL
