MODEL 1
REMARK minimizedAffinity -2.82049513
REMARK minimizedRMSD -1
REMARK  0 active torsions:
REMARK  status: ('A' for Active; 'I' for Inactive)
ROOT
ATOM      1  C   UNL d   1       1.503  -1.508   1.940  0.00  0.00     0.023 A 
ATOM      2  C1  UNL d   1       2.046  -1.213   0.690  0.00  0.00     0.003 A 
ATOM      3  C2  UNL d   1       1.352  -0.387  -0.197  0.00  0.00     0.048 A 
ATOM      4  C3  UNL d   1       0.116   0.142   0.174  0.00  0.00     0.023 A 
ATOM      5  C4  UNL d   1      -0.430  -0.149   1.425  0.00  0.00     0.048 A 
ATOM      6  C5  UNL d   1       0.266  -0.977   2.307  0.00  0.00     0.003 A 
ATOM      7  I   UNL d   1      -0.918   1.372  -1.144  0.00  0.00    -0.146 I 
ENDROOT
TORSDOF 0
ENDMDL
