MODEL 1
REMARK minimizedAffinity -2.3111155
REMARK minimizedRMSD -1
REMARK  0 active torsions:
REMARK  status: ('A' for Active; 'I' for Inactive)
ROOT
ATOM      1  C   UNL d   1       0.822  -2.669   2.981  0.00  0.00     0.023 A 
ATOM      2  C1  UNL d   1      -0.440  -2.121   2.750  0.00  0.00     0.003 A 
ATOM      3  C2  UNL d   1      -0.673  -1.359   1.604  0.00  0.00     0.048 A 
ATOM      4  C3  UNL d   1       0.360  -1.150   0.691  0.00  0.00     0.023 A 
ATOM      5  C4  UNL d   1       1.624  -1.697   0.917  0.00  0.00     0.048 A 
ATOM      6  C5  UNL d   1       1.853  -2.457   2.065  0.00  0.00     0.003 A 
ATOM      7  I   UNL d   1       0.015  -0.016  -1.017  0.00  0.00    -0.146 I 
ENDROOT
TORSDOF 0
ENDMDL
