MODEL 1
REMARK minimizedAffinity 0.818154991
REMARK minimizedRMSD -1
REMARK  0 active torsions:
REMARK  status: ('A' for Active; 'I' for Inactive)
ROOT
ATOM      1  C   UNL d   1       1.490  -2.364   2.620  0.00  0.00     0.023 A 
ATOM      2  C1  UNL d   1       2.133  -2.030   1.428  0.00  0.00     0.003 A 
ATOM      3  C2  UNL d   1       1.509  -1.181   0.511  0.00  0.00     0.048 A 
ATOM      4  C3  UNL d   1       0.243  -0.670   0.793  0.00  0.00     0.023 A 
ATOM      5  C4  UNL d   1      -0.404  -1.001   1.985  0.00  0.00     0.048 A 
ATOM      6  C5  UNL d   1       0.223  -1.850   2.898  0.00  0.00     0.003 A 
ATOM      7  I   UNL d   1      -0.687   0.594  -0.570  0.00  0.00    -0.146 I 
ENDROOT
TORSDOF 0
ENDMDL
