MODEL 1
REMARK minimizedAffinity -3.47292113
REMARK minimizedRMSD -1
REMARK  0 active torsions:
REMARK  status: ('A' for Active; 'I' for Inactive)
ROOT
ATOM      1  C   UNL d   1      -2.118   2.152  -2.594  0.00  0.00     0.023 A 
ATOM      2  C1  UNL d   1      -2.362   0.793  -2.398  0.00  0.00     0.003 A 
ATOM      3  C2  UNL d   1      -1.585   0.067  -1.493  0.00  0.00     0.048 A 
ATOM      4  C3  UNL d   1      -0.567   0.706  -0.787  0.00  0.00     0.023 A 
ATOM      5  C4  UNL d   1      -0.319   2.066  -0.980  0.00  0.00     0.048 A 
ATOM      6  C5  UNL d   1      -1.098   2.788  -1.887  0.00  0.00     0.003 A 
ATOM      7  I   UNL d   1       0.591  -0.373   0.560  0.00  0.00    -0.146 I 
ENDROOT
TORSDOF 0
ENDMDL
