MODEL 1
REMARK minimizedAffinity -1.64801002
REMARK minimizedRMSD -1
REMARK  0 active torsions:
REMARK  status: ('A' for Active; 'I' for Inactive)
ROOT
ATOM      1  C   UNL d   1       0.912  -2.478   2.165  0.00  0.00     0.023 A 
ATOM      2  C1  UNL d   1      -0.183  -1.734   2.603  0.00  0.00     0.003 A 
ATOM      3  C2  UNL d   1      -0.667  -0.679   1.828  0.00  0.00     0.048 A 
ATOM      4  C3  UNL d   1      -0.052  -0.373   0.615  0.00  0.00     0.023 A 
ATOM      5  C4  UNL d   1       1.044  -1.115   0.172  0.00  0.00     0.048 A 
ATOM      6  C5  UNL d   1       1.525  -2.169   0.950  0.00  0.00     0.003 A 
ATOM      7  I   UNL d   1      -0.770   1.198  -0.541  0.00  0.00    -0.146 I 
ENDROOT
TORSDOF 0
ENDMDL
