MODEL 1
REMARK minimizedAffinity -1.9020735
REMARK minimizedRMSD -1
REMARK  0 active torsions:
REMARK  status: ('A' for Active; 'I' for Inactive)
ROOT
ATOM      1  C   UNL d   1      -2.808   1.762  -3.232  0.00  0.00     0.023 A 
ATOM      2  C1  UNL d   1      -2.580   0.387  -3.268  0.00  0.00     0.003 A 
ATOM      3  C2  UNL d   1      -1.650  -0.191  -2.400  0.00  0.00     0.048 A 
ATOM      4  C3  UNL d   1      -0.953   0.613  -1.499  0.00  0.00     0.023 A 
ATOM      5  C4  UNL d   1      -1.179   1.990  -1.459  0.00  0.00     0.048 A 
ATOM      6  C5  UNL d   1      -2.109   2.563  -2.329  0.00  0.00     0.003 A 
ATOM      7  I   UNL d   1       0.431  -0.244  -0.207  0.00  0.00    -0.146 I 
ENDROOT
TORSDOF 0
ENDMDL
