MODEL 1
REMARK minimizedAffinity -2.96278
REMARK minimizedRMSD -1
REMARK  0 active torsions:
REMARK  status: ('A' for Active; 'I' for Inactive)
ROOT
ATOM      1  C   UNL d   1       1.423  -0.088  -1.210  0.00  0.00     0.023 A 
ATOM      2  C1  UNL d   1       2.236  -0.922  -0.442  0.00  0.00     0.003 A 
ATOM      3  C2  UNL d   1       1.785  -1.397   0.791  0.00  0.00     0.048 A 
ATOM      4  C3  UNL d   1       0.519  -1.036   1.250  0.00  0.00     0.023 A 
ATOM      5  C4  UNL d   1      -0.299  -0.203   0.485  0.00  0.00     0.048 A 
ATOM      6  C5  UNL d   1       0.157   0.271  -0.747  0.00  0.00     0.003 A 
ATOM      7  I   UNL d   1      -0.154  -1.742   3.085  0.00  0.00    -0.146 I 
ENDROOT
TORSDOF 0
ENDMDL
