MODEL 1
REMARK minimizedAffinity -4.70216894
REMARK minimizedRMSD -1
REMARK  0 active torsions:
REMARK  status: ('A' for Active; 'I' for Inactive)
ROOT
ATOM      1  C   UNL d   1       0.783  -3.121   2.052  0.00  0.00     0.023 A 
ATOM      2  C1  UNL d   1      -0.338  -2.374   2.412  0.00  0.00     0.003 A 
ATOM      3  C2  UNL d   1      -0.684  -1.235   1.682  0.00  0.00     0.048 A 
ATOM      4  C3  UNL d   1       0.095  -0.849   0.592  0.00  0.00     0.023 A 
ATOM      5  C4  UNL d   1       1.218  -1.594   0.228  0.00  0.00     0.048 A 
ATOM      6  C5  UNL d   1       1.561  -2.731   0.961  0.00  0.00     0.003 A 
ATOM      7  I   UNL d   1      -0.417   0.846  -0.496  0.00  0.00    -0.146 I 
ENDROOT
TORSDOF 0
ENDMDL
