MODEL 1
REMARK minimizedAffinity -2.56065726
REMARK minimizedRMSD -1
REMARK  1 active torsions:
REMARK  status: ('A' for Active; 'I' for Inactive)
REMARK    1  A    between atoms: C1_2  and  C2_3 
ROOT
ATOM      1  C2  UNL d   1       2.887  -5.931  -3.575  0.00  0.00    -0.076 A 
ATOM      2  C3  UNL d   1       1.486  -5.975  -3.466  0.00  0.00     0.004 A 
ATOM      3  C4  UNL d   1       0.679  -5.995  -4.602  0.00  0.00    -0.003 A 
ATOM      4  C5  UNL d   1       1.259  -5.972  -5.865  0.00  0.00     0.000 A 
ATOM      5  C6  UNL d   1       2.648  -5.946  -5.992  0.00  0.00     0.000 A 
ATOM      6  C7  UNL d   1       3.477  -5.942  -4.857  0.00  0.00    -0.073 A 
ATOM      7  C8  UNL d   1       4.968  -5.908  -5.052  0.00  0.00     0.078 C 
ENDROOT
BRANCH   1   8
ATOM      8  C1  UNL d   1       3.711  -5.883  -2.308  0.00  0.00     0.053 C 
ATOM      9  C   UNL d   1       2.851  -5.788  -1.057  0.00  0.00     0.018 C 
ENDBRANCH   1   8
TORSDOF 1
ENDMDL
