MODEL 1
REMARK minimizedAffinity 13.3819942
REMARK minimizedRMSD -1
REMARK  1 active torsions:
REMARK  status: ('A' for Active; 'I' for Inactive)
REMARK    1  A    between atoms: C1_2  and  C2_3 
ROOT
ATOM      1  C2  UNL d   1       2.416   0.568   1.745  0.00  0.00    -0.076 A 
ATOM      2  C3  UNL d   1       1.928   1.242   2.878  0.00  0.00     0.004 A 
ATOM      3  C4  UNL d   1       2.117   2.614   3.033  0.00  0.00    -0.003 A 
ATOM      4  C5  UNL d   1       2.796   3.335   2.056  0.00  0.00     0.000 A 
ATOM      5  C6  UNL d   1       3.272   2.685   0.918  0.00  0.00     0.000 A 
ATOM      6  C7  UNL d   1       3.075   1.305   0.738  0.00  0.00    -0.073 A 
ATOM      7  C8  UNL d   1       3.614   0.655  -0.506  0.00  0.00     0.078 C 
ENDROOT
BRANCH   1   8
ATOM      8  C1  UNL d   1       2.205  -0.926   1.645  0.00  0.00     0.053 C 
ATOM      9  C   UNL d   1       1.819  -1.551   2.976  0.00  0.00     0.018 C 
ENDBRANCH   1   8
TORSDOF 1
ENDMDL
