MODEL 1
REMARK minimizedAffinity 10.5058918
REMARK minimizedRMSD -1
REMARK  1 active torsions:
REMARK  status: ('A' for Active; 'I' for Inactive)
REMARK    1  A    between atoms: C1_2  and  C2_3 
ROOT
ATOM      1  C2  UNL d   1       3.222  -2.735   3.620  0.00  0.00    -0.076 A 
ATOM      2  C3  UNL d   1       3.540  -1.552   2.931  0.00  0.00     0.004 A 
ATOM      3  C4  UNL d   1       2.568  -0.853   2.217  0.00  0.00    -0.003 A 
ATOM      4  C5  UNL d   1       1.260  -1.326   2.182  0.00  0.00     0.000 A 
ATOM      5  C6  UNL d   1       0.923  -2.489   2.874  0.00  0.00     0.000 A 
ATOM      6  C7  UNL d   1       1.888  -3.196   3.612  0.00  0.00    -0.073 A 
ATOM      7  C8  UNL d   1       1.469  -4.447   4.335  0.00  0.00     0.078 C 
ENDROOT
BRANCH   1   8
ATOM      8  C1  UNL d   1       4.324  -3.465   4.354  0.00  0.00     0.053 C 
ATOM      9  C   UNL d   1       4.507  -2.962   5.778  0.00  0.00     0.018 C 
ENDBRANCH   1   8
TORSDOF 1
ENDMDL
