MODEL 1
REMARK minimizedAffinity 0.689746201
REMARK minimizedRMSD -1
REMARK  1 active torsions:
REMARK  status: ('A' for Active; 'I' for Inactive)
REMARK    1  A    between atoms: C1_2  and  C2_3 
ROOT
ATOM      1  C2  UNL d   1       3.481  -2.792   3.907  0.00  0.00    -0.076 A 
ATOM      2  C3  UNL d   1       3.425  -1.710   3.011  0.00  0.00     0.004 A 
ATOM      3  C4  UNL d   1       2.264  -1.435   2.290  0.00  0.00    -0.003 A 
ATOM      4  C5  UNL d   1       1.140  -2.236   2.455  0.00  0.00     0.000 A 
ATOM      5  C6  UNL d   1       1.172  -3.303   3.353  0.00  0.00     0.000 A 
ATOM      6  C7  UNL d   1       2.329  -3.584   4.099  0.00  0.00    -0.073 A 
ATOM      7  C8  UNL d   1       2.310  -4.751   5.048  0.00  0.00     0.078 C 
ENDROOT
BRANCH   1   8
ATOM      8  C1  UNL d   1       4.776  -3.058   4.640  0.00  0.00     0.053 C 
ATOM      9  C   UNL d   1       6.000  -2.710   3.806  0.00  0.00     0.018 C 
ENDBRANCH   1   8
TORSDOF 1
ENDMDL
