MODEL 1
REMARK minimizedAffinity 9.89044285
REMARK minimizedRMSD -1
REMARK  1 active torsions:
REMARK  status: ('A' for Active; 'I' for Inactive)
REMARK    1  A    between atoms: C1_2  and  C2_3 
ROOT
ATOM      1  C2  UNL d   1       3.480  -2.500   4.126  0.00  0.00    -0.076 A 
ATOM      2  C3  UNL d   1       3.185  -1.257   3.540  0.00  0.00     0.004 A 
ATOM      3  C4  UNL d   1       2.135  -1.122   2.633  0.00  0.00    -0.003 A 
ATOM      4  C5  UNL d   1       1.362  -2.228   2.298  0.00  0.00     0.000 A 
ATOM      5  C6  UNL d   1       1.629  -3.465   2.883  0.00  0.00     0.000 A 
ATOM      6  C7  UNL d   1       2.674  -3.615   3.811  0.00  0.00    -0.073 A 
ATOM      7  C8  UNL d   1       2.921  -4.974   4.407  0.00  0.00     0.078 C 
ENDROOT
BRANCH   1   8
ATOM      8  C1  UNL d   1       4.648  -2.591   5.081  0.00  0.00     0.053 C 
ATOM      9  C   UNL d   1       5.982  -2.341   4.396  0.00  0.00     0.018 C 
ENDBRANCH   1   8
TORSDOF 1
ENDMDL
