MODEL 1
REMARK minimizedAffinity 5.57519293
REMARK minimizedRMSD -1
REMARK  1 active torsions:
REMARK  status: ('A' for Active; 'I' for Inactive)
REMARK    1  A    between atoms: C1_2  and  C2_3 
ROOT
ATOM      1  C2  UNL d   1       1.510  -3.471   4.296  0.00  0.00    -0.076 A 
ATOM      2  C3  UNL d   1       1.696  -2.160   4.767  0.00  0.00     0.004 A 
ATOM      3  C4  UNL d   1       2.316  -1.194   3.975  0.00  0.00    -0.003 A 
ATOM      4  C5  UNL d   1       2.759  -1.525   2.699  0.00  0.00     0.000 A 
ATOM      5  C6  UNL d   1       2.568  -2.817   2.209  0.00  0.00     0.000 A 
ATOM      6  C7  UNL d   1       1.930  -3.797   2.989  0.00  0.00    -0.073 A 
ATOM      7  C8  UNL d   1       1.755  -5.176   2.413  0.00  0.00     0.078 C 
ENDROOT
BRANCH   1   8
ATOM      8  C1  UNL d   1       0.856  -4.483   5.210  0.00  0.00     0.053 C 
ATOM      9  C   UNL d   1       1.871  -5.302   5.993  0.00  0.00     0.018 C 
ENDBRANCH   1   8
TORSDOF 1
ENDMDL
