MODEL 1
REMARK minimizedAffinity 11.4317446
REMARK minimizedRMSD -1
REMARK  1 active torsions:
REMARK  status: ('A' for Active; 'I' for Inactive)
REMARK    1  A    between atoms: C1_2  and  C2_3 
ROOT
ATOM      1  C2  UNL d   1      -4.053   2.553  -0.908  0.00  0.00    -0.076 A 
ATOM      2  C3  UNL d   1      -3.499   2.640   0.381  0.00  0.00     0.004 A 
ATOM      3  C4  UNL d   1      -4.181   3.284   1.412  0.00  0.00    -0.003 A 
ATOM      4  C5  UNL d   1      -5.428   3.851   1.171  0.00  0.00     0.000 A 
ATOM      5  C6  UNL d   1      -6.000   3.758  -0.097  0.00  0.00     0.000 A 
ATOM      6  C7  UNL d   1      -5.333   3.098  -1.144  0.00  0.00    -0.073 A 
ATOM      7  C8  UNL d   1      -5.994   3.033  -2.493  0.00  0.00     0.078 C 
ENDROOT
BRANCH   1   8
ATOM      8  C1  UNL d   1      -3.255   1.866  -1.994  0.00  0.00     0.053 C 
ATOM      9  C   UNL d   1      -2.259   0.861  -1.438  0.00  0.00     0.018 C 
ENDBRANCH   1   8
TORSDOF 1
ENDMDL
