MODEL 1
REMARK minimizedAffinity 9.16181278
REMARK minimizedRMSD -1
REMARK  1 active torsions:
REMARK  status: ('A' for Active; 'I' for Inactive)
REMARK    1  A    between atoms: C1_2  and  C2_3 
ROOT
ATOM      1  C2  UNL d   1       1.707  -3.229   3.000  0.00  0.00    -0.076 A 
ATOM      2  C3  UNL d   1       0.402  -3.750   3.034  0.00  0.00     0.004 A 
ATOM      3  C4  UNL d   1       0.112  -4.912   3.748  0.00  0.00    -0.003 A 
ATOM      4  C5  UNL d   1       1.122  -5.571   4.440  0.00  0.00     0.000 A 
ATOM      5  C6  UNL d   1       2.419  -5.059   4.432  0.00  0.00     0.000 A 
ATOM      6  C7  UNL d   1       2.725  -3.880   3.730  0.00  0.00    -0.073 A 
ATOM      7  C8  UNL d   1       4.142  -3.375   3.750  0.00  0.00     0.078 C 
ENDROOT
BRANCH   1   8
ATOM      8  C1  UNL d   1       1.968  -1.982   2.187  0.00  0.00     0.053 C 
ATOM      9  C   UNL d   1       1.875  -0.713   3.020  0.00  0.00     0.018 C 
ENDBRANCH   1   8
TORSDOF 1
ENDMDL
