MODEL 1
REMARK minimizedAffinity 4.04928398
REMARK minimizedRMSD -1
REMARK  2 active torsions:
REMARK  status: ('A' for Active; 'I' for Inactive)
REMARK    1  A    between atoms: C1_2  and  C2_3 
REMARK    2  A    between atoms: C2_3  and  C3_4 
ROOT
ATOM      1  C3  UNL d   1      -1.027   1.672  -1.560  0.00  0.00    -0.075 A 
ATOM      2  C4  UNL d   1      -2.288   1.197  -1.174  0.00  0.00     0.002 A 
ATOM      3  C5  UNL d   1      -2.764  -0.023  -1.656  0.00  0.00     0.002 A 
ATOM      4  C6  UNL d   1      -1.991  -0.777  -2.536  0.00  0.00    -0.004 A 
ATOM      5  C7  UNL d   1      -0.743  -0.307  -2.939  0.00  0.00     0.002 A 
ATOM      6  C8  UNL d   1      -0.262   0.912  -2.455  0.00  0.00     0.002 A 
ENDROOT
BRANCH   1   7
ATOM      7  C2  UNL d   1      -0.494   2.977  -1.019  0.00  0.00     0.056 C 
BRANCH   7   8
ATOM      8  C1  UNL d   1      -0.923   3.277   0.421  0.00  0.00     0.007 C 
ATOM      9  C   UNL d   1      -0.202   2.420   1.453  0.00  0.00     0.009 C 
ENDBRANCH   7   8
ENDBRANCH   1   7
TORSDOF 2
ENDMDL
