MODEL 1
REMARK minimizedAffinity 3.06852078
REMARK minimizedRMSD -1
REMARK  2 active torsions:
REMARK  status: ('A' for Active; 'I' for Inactive)
REMARK    1  A    between atoms: C1_2  and  C2_3 
REMARK    2  A    between atoms: C2_3  and  C3_4 
ROOT
ATOM      1  C3  UNL d   1      -1.358   1.686   0.254  0.00  0.00    -0.075 A 
ATOM      2  C4  UNL d   1      -1.383   1.252   1.587  0.00  0.00     0.002 A 
ATOM      3  C5  UNL d   1      -1.581   2.163   2.625  0.00  0.00     0.002 A 
ATOM      4  C6  UNL d   1      -1.745   3.518   2.345  0.00  0.00    -0.004 A 
ATOM      5  C7  UNL d   1      -1.705   3.962   1.025  0.00  0.00     0.002 A 
ATOM      6  C8  UNL d   1      -1.512   3.052  -0.016  0.00  0.00     0.002 A 
ENDROOT
BRANCH   1   7
ATOM      7  C2  UNL d   1      -1.174   0.701  -0.876  0.00  0.00     0.056 C 
BRANCH   7   8
ATOM      8  C1  UNL d   1      -2.233  -0.406  -0.918  0.00  0.00     0.007 C 
ATOM      9  C   UNL d   1      -1.894  -1.525  -1.893  0.00  0.00     0.009 C 
ENDBRANCH   7   8
ENDBRANCH   1   7
TORSDOF 2
ENDMDL
