MODEL 1
REMARK minimizedAffinity 12.585701
REMARK minimizedRMSD -1
REMARK  2 active torsions:
REMARK  status: ('A' for Active; 'I' for Inactive)
REMARK    1  A    between atoms: C1_2  and  C2_3 
REMARK    2  A    between atoms: C2_3  and  C3_4 
ROOT
ATOM      1  C3  UNL d   1       0.027   0.137   3.129  0.00  0.00    -0.075 A 
ATOM      2  C4  UNL d   1       0.704   0.516   1.961  0.00  0.00     0.002 A 
ATOM      3  C5  UNL d   1       0.224   1.561   1.171  0.00  0.00     0.002 A 
ATOM      4  C6  UNL d   1      -0.943   2.232   1.532  0.00  0.00    -0.004 A 
ATOM      5  C7  UNL d   1      -1.633   1.852   2.681  0.00  0.00     0.002 A 
ATOM      6  C8  UNL d   1      -1.152   0.810   3.476  0.00  0.00     0.002 A 
ENDROOT
BRANCH   1   7
ATOM      7  C2  UNL d   1       0.557  -0.973   4.004  0.00  0.00     0.056 C 
BRANCH   7   8
ATOM      8  C1  UNL d   1       1.846  -1.617   3.482  0.00  0.00     0.007 C 
ATOM      9  C   UNL d   1       2.247  -2.868   4.252  0.00  0.00     0.009 C 
ENDBRANCH   7   8
ENDBRANCH   1   7
TORSDOF 2
ENDMDL
