MODEL 1
REMARK minimizedAffinity 6.40032005
REMARK minimizedRMSD -1
REMARK  2 active torsions:
REMARK  status: ('A' for Active; 'I' for Inactive)
REMARK    1  A    between atoms: C1_2  and  C2_3 
REMARK    2  A    between atoms: C2_3  and  C3_4 
ROOT
ATOM      1  C3  UNL d   1      -0.881   2.179   0.127  0.00  0.00    -0.075 A 
ATOM      2  C4  UNL d   1       0.269   2.018   0.914  0.00  0.00     0.002 A 
ATOM      3  C5  UNL d   1       0.177   2.005   2.306  0.00  0.00     0.002 A 
ATOM      4  C6  UNL d   1      -1.059   2.162   2.928  0.00  0.00    -0.004 A 
ATOM      5  C7  UNL d   1      -2.206   2.339   2.156  0.00  0.00     0.002 A 
ATOM      6  C8  UNL d   1      -2.118   2.348   0.763  0.00  0.00     0.002 A 
ENDROOT
BRANCH   1   7
ATOM      7  C2  UNL d   1      -0.793   2.165  -1.381  0.00  0.00     0.056 C 
BRANCH   7   8
ATOM      8  C1  UNL d   1      -0.074   0.939  -1.952  0.00  0.00     0.007 C 
ATOM      9  C   UNL d   1      -1.026  -0.105  -2.521  0.00  0.00     0.009 C 
ENDBRANCH   7   8
ENDBRANCH   1   7
TORSDOF 2
ENDMDL
