MODEL 1
REMARK minimizedAffinity 2.78389311
REMARK minimizedRMSD -1
REMARK  2 active torsions:
REMARK  status: ('A' for Active; 'I' for Inactive)
REMARK    1  A    between atoms: C1_2  and  C2_3 
REMARK    2  A    between atoms: C2_3  and  C3_4 
ROOT
ATOM      1  C3  UNL d   1      -4.263   4.833  -3.450  0.00  0.00    -0.075 A 
ATOM      2  C4  UNL d   1      -5.550   4.497  -3.894  0.00  0.00     0.002 A 
ATOM      3  C5  UNL d   1      -5.991   4.898  -5.156  0.00  0.00     0.002 A 
ATOM      4  C6  UNL d   1      -5.157   5.647  -5.983  0.00  0.00    -0.004 A 
ATOM      5  C7  UNL d   1      -3.883   6.000  -5.545  0.00  0.00     0.002 A 
ATOM      6  C8  UNL d   1      -3.437   5.596  -4.286  0.00  0.00     0.002 A 
ENDROOT
BRANCH   1   7
ATOM      7  C2  UNL d   1      -3.769   4.377  -2.098  0.00  0.00     0.056 C 
BRANCH   7   8
ATOM      8  C1  UNL d   1      -2.949   3.083  -2.137  0.00  0.00     0.007 C 
ATOM      9  C   UNL d   1      -2.255   2.772  -0.818  0.00  0.00     0.009 C 
ENDBRANCH   7   8
ENDBRANCH   1   7
TORSDOF 2
ENDMDL
