MODEL 1
REMARK minimizedAffinity 6.01316547
REMARK minimizedRMSD -1
REMARK  2 active torsions:
REMARK  status: ('A' for Active; 'I' for Inactive)
REMARK    1  A    between atoms: C1_2  and  C2_3 
REMARK    2  A    between atoms: C2_3  and  C3_4 
ROOT
ATOM      1  C3  UNL d   1      -2.702  -0.135  -1.132  0.00  0.00    -0.075 A 
ATOM      2  C4  UNL d   1      -1.756   0.899  -1.085  0.00  0.00     0.002 A 
ATOM      3  C5  UNL d   1      -0.626   0.863  -1.903  0.00  0.00     0.002 A 
ATOM      4  C6  UNL d   1      -0.422  -0.211  -2.767  0.00  0.00    -0.004 A 
ATOM      5  C7  UNL d   1      -1.347  -1.252  -2.810  0.00  0.00     0.002 A 
ATOM      6  C8  UNL d   1      -2.481  -1.215  -1.997  0.00  0.00     0.002 A 
ENDROOT
BRANCH   1   7
ATOM      7  C2  UNL d   1      -3.942  -0.087  -0.272  0.00  0.00     0.056 C 
BRANCH   7   8
ATOM      8  C1  UNL d   1      -3.771  -0.737   1.106  0.00  0.00     0.007 C 
ATOM      9  C   UNL d   1      -4.081   0.209   2.258  0.00  0.00     0.009 C 
ENDBRANCH   7   8
ENDBRANCH   1   7
TORSDOF 2
ENDMDL
