MODEL 1
REMARK minimizedAffinity 4.0502739
REMARK minimizedRMSD -1
REMARK  1 active torsions:
REMARK  status: ('A' for Active; 'I' for Inactive)
REMARK    1  A    between atoms: C3_4  and  O_7 
ROOT
ATOM      1  C   UNL d   1      -5.999   3.004   1.350  0.00  0.00    -0.033 A 
ATOM      2  C1  UNL d   1      -4.850   3.043   0.559  0.00  0.00     0.039 A 
ATOM      3  C2  UNL d   1      -3.689   2.390   0.978  0.00  0.00    -0.080 A 
ATOM      4  C3  UNL d   1      -3.690   1.702   2.188  0.00  0.00     0.150 A 
ATOM      5  C4  UNL d   1      -4.833   1.656   2.980  0.00  0.00    -0.007 A 
ATOM      6  C5  UNL d   1      -5.991   2.309   2.560  0.00  0.00     0.039 A 
ENDROOT
BRANCH   4   7
ATOM      7  O   UNL d   1      -2.580   1.054   2.641  0.00  0.00    -0.526 OA
ATOM      8  H5  UNL d   1      -1.860   1.196   2.004  0.00  0.00     0.418 HD
ENDBRANCH   4   7
TORSDOF 1
ENDMDL
