MODEL 1
REMARK minimizedAffinity -0.574492037
REMARK minimizedRMSD -1
REMARK  1 active torsions:
REMARK  status: ('A' for Active; 'I' for Inactive)
REMARK    1  A    between atoms: C3_4  and  O_7 
ROOT
ATOM      1  C   UNL d   1      -0.252   4.587  -2.763  0.00  0.00    -0.033 A 
ATOM      2  C1  UNL d   1      -0.327   3.381  -3.463  0.00  0.00     0.039 A 
ATOM      3  C2  UNL d   1      -1.569   2.799  -3.723  0.00  0.00    -0.080 A 
ATOM      4  C3  UNL d   1      -2.727   3.432  -3.279  0.00  0.00     0.150 A 
ATOM      5  C4  UNL d   1      -2.659   4.636  -2.585  0.00  0.00    -0.007 A 
ATOM      6  C5  UNL d   1      -1.418   5.215  -2.325  0.00  0.00     0.039 A 
ENDROOT
BRANCH   4   7
ATOM      7  O   UNL d   1      -3.961   2.900  -3.505  0.00  0.00    -0.526 OA
ATOM      8  H5  UNL d   1      -3.851   2.054  -3.970  0.00  0.00     0.418 HD
ENDBRANCH   4   7
TORSDOF 1
ENDMDL
