MODEL 1
REMARK minimizedAffinity 4.74044943
REMARK minimizedRMSD -1
REMARK  1 active torsions:
REMARK  status: ('A' for Active; 'I' for Inactive)
REMARK    1  A    between atoms: C3_4  and  O_7 
ROOT
ATOM      1  C   UNL d   1      -2.704   0.033   2.180  0.00  0.00    -0.033 A 
ATOM      2  C1  UNL d   1      -2.483   1.409   2.109  0.00  0.00     0.039 A 
ATOM      3  C2  UNL d   1      -3.538   2.274   1.811  0.00  0.00    -0.080 A 
ATOM      4  C3  UNL d   1      -4.808   1.750   1.587  0.00  0.00     0.150 A 
ATOM      5  C4  UNL d   1      -5.037   0.379   1.660  0.00  0.00    -0.007 A 
ATOM      6  C5  UNL d   1      -3.982  -0.482   1.957  0.00  0.00     0.039 A 
ENDROOT
BRANCH   4   7
ATOM      7  O   UNL d   1      -5.868   2.553   1.288  0.00  0.00    -0.526 OA
ATOM      8  H5  UNL d   1      -5.554   3.472   1.244  0.00  0.00     0.418 HD
ENDBRANCH   4   7
TORSDOF 1
ENDMDL
