MODEL 1
REMARK minimizedAffinity 4.58966398
REMARK minimizedRMSD -1
REMARK  1 active torsions:
REMARK  status: ('A' for Active; 'I' for Inactive)
REMARK    1  A    between atoms: C3_4  and  O_7 
ROOT
ATOM      1  C   UNL d   1      -2.210   6.000  -0.365  0.00  0.00    -0.033 A 
ATOM      2  C1  UNL d   1      -2.852   5.324  -1.405  0.00  0.00     0.039 A 
ATOM      3  C2  UNL d   1      -2.101   4.648  -2.369  0.00  0.00    -0.080 A 
ATOM      4  C3  UNL d   1      -0.712   4.655  -2.281  0.00  0.00     0.150 A 
ATOM      5  C4  UNL d   1      -0.066   5.323  -1.246  0.00  0.00    -0.007 A 
ATOM      6  C5  UNL d   1      -0.818   5.998  -0.285  0.00  0.00     0.039 A 
ENDROOT
BRANCH   4   7
ATOM      7  O   UNL d   1       0.063   4.013  -3.201  0.00  0.00    -0.526 OA
ATOM      8  H5  UNL d   1      -0.518   3.621  -3.873  0.00  0.00     0.418 HD
ENDBRANCH   4   7
TORSDOF 1
ENDMDL
