MODEL 1
REMARK minimizedAffinity 5.86615944
REMARK minimizedRMSD -1
REMARK  1 active torsions:
REMARK  status: ('A' for Active; 'I' for Inactive)
REMARK    1  A    between atoms: C3_4  and  O_7 
ROOT
ATOM      1  C   UNL d   1      -3.302  -5.333   0.118  0.00  0.00    -0.033 A 
ATOM      2  C1  UNL d   1      -4.110  -5.381   1.255  0.00  0.00     0.039 A 
ATOM      3  C2  UNL d   1      -4.434  -4.205   1.934  0.00  0.00    -0.080 A 
ATOM      4  C3  UNL d   1      -3.945  -2.989   1.465  0.00  0.00     0.150 A 
ATOM      5  C4  UNL d   1      -3.142  -2.933   0.330  0.00  0.00    -0.007 A 
ATOM      6  C5  UNL d   1      -2.819  -4.109  -0.345  0.00  0.00     0.039 A 
ENDROOT
BRANCH   4   7
ATOM      7  O   UNL d   1      -4.230  -1.815   2.097  0.00  0.00    -0.526 OA
ATOM      8  H5  UNL d   1      -4.770  -2.010   2.881  0.00  0.00     0.418 HD
ENDBRANCH   4   7
TORSDOF 1
ENDMDL
