MODEL 1
REMARK minimizedAffinity -3.37775159
REMARK minimizedRMSD -1
REMARK  1 active torsions:
REMARK  status: ('A' for Active; 'I' for Inactive)
REMARK    1  A    between atoms: C3_4  and  O_7 
ROOT
ATOM      1  C   UNL d   1      -0.755   5.863   0.906  0.00  0.00    -0.033 A 
ATOM      2  C1  UNL d   1      -0.518   4.803   0.029  0.00  0.00     0.039 A 
ATOM      3  C2  UNL d   1      -1.526   3.873  -0.233  0.00  0.00    -0.080 A 
ATOM      4  C3  UNL d   1      -2.764   4.014   0.388  0.00  0.00     0.150 A 
ATOM      5  C4  UNL d   1      -3.008   5.070   1.260  0.00  0.00    -0.007 A 
ATOM      6  C5  UNL d   1      -2.000   5.997   1.521  0.00  0.00     0.039 A 
ENDROOT
BRANCH   4   7
ATOM      7  O   UNL d   1      -3.777   3.128   0.167  0.00  0.00    -0.526 OA
ATOM      8  H5  UNL d   1      -3.455   2.436  -0.435  0.00  0.00     0.418 HD
ENDBRANCH   4   7
TORSDOF 1
ENDMDL
