MODEL 1
REMARK minimizedAffinity 0.434468836
REMARK minimizedRMSD -1
REMARK  1 active torsions:
REMARK  status: ('A' for Active; 'I' for Inactive)
REMARK    1  A    between atoms: C3_4  and  O_7 
ROOT
ATOM      1  C   UNL d   1      -2.030   5.986   1.689  0.00  0.00    -0.033 A 
ATOM      2  C1  UNL d   1      -0.695   5.950   1.281  0.00  0.00     0.039 A 
ATOM      3  C2  UNL d   1      -0.379   5.912  -0.079  0.00  0.00    -0.080 A 
ATOM      4  C3  UNL d   1      -1.406   5.912  -1.019  0.00  0.00     0.150 A 
ATOM      5  C4  UNL d   1      -2.738   5.952  -0.620  0.00  0.00    -0.007 A 
ATOM      6  C5  UNL d   1      -3.051   5.989   0.739  0.00  0.00     0.039 A 
ENDROOT
BRANCH   4   7
ATOM      7  O   UNL d   1      -1.147   5.871  -2.357  0.00  0.00    -0.526 OA
ATOM      8  H5  UNL d   1      -0.185   5.817  -2.482  0.00  0.00     0.418 HD
ENDBRANCH   4   7
TORSDOF 1
ENDMDL
