MODEL 1
REMARK minimizedAffinity 2.30871081
REMARK minimizedRMSD -1
REMARK  1 active torsions:
REMARK  status: ('A' for Active; 'I' for Inactive)
REMARK    1  A    between atoms: C3_4  and  O_7 
ROOT
ATOM      1  C   UNL d   1      -1.422   1.726  -4.306  0.00  0.00    -0.033 A 
ATOM      2  C1  UNL d   1      -0.064   2.025  -4.180  0.00  0.00     0.039 A 
ATOM      3  C2  UNL d   1       0.336   3.270  -3.691  0.00  0.00    -0.080 A 
ATOM      4  C3  UNL d   1      -0.630   4.204  -3.329  0.00  0.00     0.150 A 
ATOM      5  C4  UNL d   1      -1.985   3.912  -3.448  0.00  0.00    -0.007 A 
ATOM      6  C5  UNL d   1      -2.383   2.669  -3.938  0.00  0.00     0.039 A 
ENDROOT
BRANCH   4   7
ATOM      7  O   UNL d   1      -0.288   5.434  -2.851  0.00  0.00    -0.526 OA
ATOM      8  H5  UNL d   1       0.681   5.506  -2.851  0.00  0.00     0.418 HD
ENDBRANCH   4   7
TORSDOF 1
ENDMDL
