MODEL 1
REMARK minimizedAffinity 3.16872859
REMARK minimizedRMSD -1
REMARK  1 active torsions:
REMARK  status: ('A' for Active; 'I' for Inactive)
REMARK    1  A    between atoms: C3_4  and  O_7 
ROOT
ATOM      1  C   UNL d   1      -1.134   5.986  -2.190  0.00  0.00    -0.033 A 
ATOM      2  C1  UNL d   1      -2.414   5.432  -2.141  0.00  0.00     0.039 A 
ATOM      3  C2  UNL d   1      -2.685   4.234  -2.805  0.00  0.00    -0.080 A 
ATOM      4  C3  UNL d   1      -1.667   3.600  -3.512  0.00  0.00     0.150 A 
ATOM      5  C4  UNL d   1      -0.388   4.145  -3.562  0.00  0.00    -0.007 A 
ATOM      6  C5  UNL d   1      -0.120   5.342  -2.899  0.00  0.00     0.039 A 
ENDROOT
BRANCH   4   7
ATOM      7  O   UNL d   1      -1.884   2.432  -4.180  0.00  0.00    -0.526 OA
ATOM      8  H5  UNL d   1      -2.820   2.190  -4.081  0.00  0.00     0.418 HD
ENDBRANCH   4   7
TORSDOF 1
ENDMDL
