MODEL 1
REMARK minimizedAffinity 2.06793118
REMARK minimizedRMSD -1
REMARK  1 active torsions:
REMARK  status: ('A' for Active; 'I' for Inactive)
REMARK    1  A    between atoms: C3_4  and  O_7 
ROOT
ATOM      1  C   UNL d   1       1.503  -1.897   1.496  0.00  0.00    -0.033 A 
ATOM      2  C1  UNL d   1       1.858  -2.864   0.553  0.00  0.00     0.039 A 
ATOM      3  C2  UNL d   1       2.967  -2.664  -0.271  0.00  0.00    -0.080 A 
ATOM      4  C3  UNL d   1       3.713  -1.496  -0.143  0.00  0.00     0.150 A 
ATOM      5  C4  UNL d   1       3.367  -0.530   0.797  0.00  0.00    -0.007 A 
ATOM      6  C5  UNL d   1       2.259  -0.730   1.619  0.00  0.00     0.039 A 
ENDROOT
BRANCH   4   7
ATOM      7  O   UNL d   1       4.800  -1.255  -0.928  0.00  0.00    -0.526 OA
ATOM      8  H5  UNL d   1       4.902  -1.995  -1.549  0.00  0.00     0.418 HD
ENDBRANCH   4   7
TORSDOF 1
ENDMDL
