MODEL 1
REMARK minimizedAffinity 3.09467697
REMARK minimizedRMSD -1
REMARK  1 active torsions:
REMARK  status: ('A' for Active; 'I' for Inactive)
REMARK    1  A    between atoms: C3_4  and  O_7 
ROOT
ATOM      1  C   UNL d   1       2.854  -1.075  -0.755  0.00  0.00    -0.033 A 
ATOM      2  C1  UNL d   1       3.332   0.234  -0.835  0.00  0.00     0.039 A 
ATOM      3  C2  UNL d   1       4.390   0.542  -1.693  0.00  0.00    -0.080 A 
ATOM      4  C3  UNL d   1       4.959  -0.466  -2.465  0.00  0.00     0.150 A 
ATOM      5  C4  UNL d   1       4.485  -1.772  -2.394  0.00  0.00    -0.007 A 
ATOM      6  C5  UNL d   1       3.429  -2.078  -1.536  0.00  0.00     0.039 A 
ENDROOT
BRANCH   4   7
ATOM      7  O   UNL d   1       5.996  -0.215  -3.314  0.00  0.00    -0.526 OA
ATOM      8  H5  UNL d   1       6.236   0.723  -3.237  0.00  0.00     0.418 HD
ENDBRANCH   4   7
TORSDOF 1
ENDMDL
