MODEL 1
REMARK minimizedAffinity 4.56781673
REMARK minimizedRMSD -1
REMARK  1 active torsions:
REMARK  status: ('A' for Active; 'I' for Inactive)
REMARK    1  A    between atoms: C3_4  and  O_7 
ROOT
ATOM      1  C   UNL d   1      -0.561   3.653  -2.767  0.00  0.00    -0.033 A 
ATOM      2  C1  UNL d   1       0.694   3.194  -3.174  0.00  0.00     0.039 A 
ATOM      3  C2  UNL d   1       0.846   1.882  -3.627  0.00  0.00    -0.080 A 
ATOM      4  C3  UNL d   1      -0.262   1.041  -3.670  0.00  0.00     0.150 A 
ATOM      5  C4  UNL d   1      -1.516   1.493  -3.270  0.00  0.00    -0.007 A 
ATOM      6  C5  UNL d   1      -1.666   2.803  -2.817  0.00  0.00     0.039 A 
ENDROOT
BRANCH   4   7
ATOM      7  O   UNL d   1      -0.162  -0.248  -4.101  0.00  0.00    -0.526 OA
ATOM      8  H5  UNL d   1       0.768  -0.429  -4.317  0.00  0.00     0.418 HD
ENDBRANCH   4   7
TORSDOF 1
ENDMDL
