MODEL 1
REMARK minimizedAffinity 7.10027504
REMARK minimizedRMSD -1
REMARK  1 active torsions:
REMARK  status: ('A' for Active; 'I' for Inactive)
REMARK    1  A    between atoms: C3_4  and  O_7 
ROOT
ATOM      1  C   UNL d   1      -4.652  -5.999  -0.270  0.00  0.00    -0.033 A 
ATOM      2  C1  UNL d   1      -4.439  -4.856  -1.043  0.00  0.00     0.039 A 
ATOM      3  C2  UNL d   1      -4.193  -3.629  -0.424  0.00  0.00    -0.080 A 
ATOM      4  C3  UNL d   1      -4.162  -3.559   0.966  0.00  0.00     0.150 A 
ATOM      5  C4  UNL d   1      -4.369  -4.694   1.742  0.00  0.00    -0.007 A 
ATOM      6  C5  UNL d   1      -4.616  -5.919   1.123  0.00  0.00     0.039 A 
ENDROOT
BRANCH   4   7
ATOM      7  O   UNL d   1      -3.930  -2.383   1.615  0.00  0.00    -0.526 OA
ATOM      8  H5  UNL d   1      -3.833  -1.679   0.952  0.00  0.00     0.418 HD
ENDBRANCH   4   7
TORSDOF 1
ENDMDL
