MODEL 1
REMARK minimizedAffinity 1.4320426
REMARK minimizedRMSD -1
REMARK  1 active torsions:
REMARK  status: ('A' for Active; 'I' for Inactive)
REMARK    1  A    between atoms: C3_4  and  O_7 
ROOT
ATOM      1  C   UNL d   1       2.365  -2.072  -1.082  0.00  0.00    -0.033 A 
ATOM      2  C1  UNL d   1       2.787  -2.642  -2.285  0.00  0.00     0.039 A 
ATOM      3  C2  UNL d   1       3.928  -2.157  -2.927  0.00  0.00    -0.080 A 
ATOM      4  C3  UNL d   1       4.638  -1.104  -2.356  0.00  0.00     0.150 A 
ATOM      5  C4  UNL d   1       4.226  -0.535  -1.156  0.00  0.00    -0.007 A 
ATOM      6  C5  UNL d   1       3.086  -1.019  -0.517  0.00  0.00     0.039 A 
ENDROOT
BRANCH   4   7
ATOM      7  O   UNL d   1       5.755  -0.594  -2.948  0.00  0.00    -0.526 OA
ATOM      8  H5  UNL d   1       5.903  -1.067  -3.785  0.00  0.00     0.418 HD
ENDBRANCH   4   7
TORSDOF 1
ENDMDL
