MODEL 1
REMARK minimizedAffinity 3.16414785
REMARK minimizedRMSD -1
REMARK  1 active torsions:
REMARK  status: ('A' for Active; 'I' for Inactive)
REMARK    1  A    between atoms: C3_4  and  O_7 
ROOT
ATOM      1  C   UNL d   1      -0.259   1.731  -4.066  0.00  0.00    -0.033 A 
ATOM      2  C1  UNL d   1       0.930   2.434  -3.863  0.00  0.00     0.039 A 
ATOM      3  C2  UNL d   1       0.990   3.445  -2.902  0.00  0.00    -0.080 A 
ATOM      4  C3  UNL d   1      -0.144   3.742  -2.151  0.00  0.00     0.150 A 
ATOM      5  C4  UNL d   1      -1.331   3.044  -2.346  0.00  0.00    -0.007 A 
ATOM      6  C5  UNL d   1      -1.389   2.035  -3.306  0.00  0.00     0.039 A 
ENDROOT
BRANCH   4   7
ATOM      7  O   UNL d   1      -0.135   4.724  -1.205  0.00  0.00    -0.526 OA
ATOM      8  H5  UNL d   1       0.744   5.139  -1.202  0.00  0.00     0.418 HD
ENDBRANCH   4   7
TORSDOF 1
ENDMDL
