MODEL 1
REMARK minimizedAffinity -0.0557913594
REMARK minimizedRMSD -1
REMARK  1 active torsions:
REMARK  status: ('A' for Active; 'I' for Inactive)
REMARK    1  A    between atoms: C3_4  and  O_7 
ROOT
ATOM      1  C   UNL d   1       2.608  -0.289  -0.697  0.00  0.00    -0.033 A 
ATOM      2  C1  UNL d   1       2.971   0.847  -1.424  0.00  0.00     0.039 A 
ATOM      3  C2  UNL d   1       4.110   0.827  -2.230  0.00  0.00    -0.080 A 
ATOM      4  C3  UNL d   1       4.877  -0.333  -2.302  0.00  0.00     0.150 A 
ATOM      5  C4  UNL d   1       4.519  -1.469  -1.584  0.00  0.00    -0.007 A 
ATOM      6  C5  UNL d   1       3.381  -1.447  -0.778  0.00  0.00     0.039 A 
ENDROOT
BRANCH   4   7
ATOM      7  O   UNL d   1       6.000  -0.398  -3.072  0.00  0.00    -0.526 OA
ATOM      8  H5  UNL d   1       6.139   0.469  -3.488  0.00  0.00     0.418 HD
ENDBRANCH   4   7
TORSDOF 1
ENDMDL
