MODEL 1
REMARK minimizedAffinity 5.12017536
REMARK minimizedRMSD -1
REMARK  1 active torsions:
REMARK  status: ('A' for Active; 'I' for Inactive)
REMARK    1  A    between atoms: C1_2  and  C2_3 
ROOT
ATOM      1  C2  UNL d   1       3.531  -5.370  -4.581  0.00  0.00    -0.073 A 
ATOM      2  C3  UNL d   1       4.268  -5.993  -5.594  0.00  0.00    -0.002 A 
ATOM      3  C4  UNL d   1       5.495  -5.465  -6.000  0.00  0.00     0.004 A 
ATOM      4  C5  UNL d   1       5.999  -4.314  -5.393  0.00  0.00    -0.004 A 
ATOM      5  C6  UNL d   1       5.282  -3.684  -4.371  0.00  0.00    -0.075 A 
ATOM      6  C7  UNL d   1       5.809  -2.444  -3.711  0.00  0.00     0.076 C 
ATOM      7  C8  UNL d   1       4.050  -4.219  -3.971  0.00  0.00     0.001 A 
ENDROOT
BRANCH   1   8
ATOM      8  C1  UNL d   1       2.209  -5.940  -4.134  0.00  0.00     0.053 C 
ATOM      9  C   UNL d   1       1.200  -5.996  -5.270  0.00  0.00     0.018 C 
ENDBRANCH   1   8
TORSDOF 1
ENDMDL
