MODEL 1
REMARK minimizedAffinity 2.28283811
REMARK minimizedRMSD -1
REMARK  1 active torsions:
REMARK  status: ('A' for Active; 'I' for Inactive)
REMARK    1  A    between atoms: C1_2  and  C2_3 
ROOT
ATOM      1  C2  UNL d   1      -1.291  -1.984   1.492  0.00  0.00    -0.073 A 
ATOM      2  C3  UNL d   1      -0.330  -1.011   1.196  0.00  0.00    -0.002 A 
ATOM      3  C4  UNL d   1       0.231  -0.941  -0.080  0.00  0.00     0.004 A 
ATOM      4  C5  UNL d   1      -0.168  -1.835  -1.073  0.00  0.00    -0.004 A 
ATOM      5  C6  UNL d   1      -1.136  -2.807  -0.800  0.00  0.00    -0.075 A 
ATOM      6  C7  UNL d   1      -1.574  -3.779  -1.856  0.00  0.00     0.076 C 
ATOM      7  C8  UNL d   1      -1.692  -2.874   0.485  0.00  0.00     0.001 A 
ENDROOT
BRANCH   1   8
ATOM      8  C1  UNL d   1      -1.904  -2.061   2.867  0.00  0.00     0.053 C 
ATOM      9  C   UNL d   1      -2.104  -3.497   3.323  0.00  0.00     0.018 C 
ENDBRANCH   1   8
TORSDOF 1
ENDMDL
