MODEL 1
REMARK minimizedAffinity 16.0277824
REMARK minimizedRMSD -1
REMARK  1 active torsions:
REMARK  status: ('A' for Active; 'I' for Inactive)
REMARK    1  A    between atoms: C1_2  and  C2_3 
ROOT
ATOM      1  C2  UNL d   1      -1.703  -4.409  -0.497  0.00  0.00    -0.073 A 
ATOM      2  C3  UNL d   1      -1.738  -4.122  -1.867  0.00  0.00    -0.002 A 
ATOM      3  C4  UNL d   1      -1.076  -3.001  -2.369  0.00  0.00     0.004 A 
ATOM      4  C5  UNL d   1      -0.367  -2.161  -1.511  0.00  0.00    -0.004 A 
ATOM      5  C6  UNL d   1      -0.310  -2.438  -0.141  0.00  0.00    -0.075 A 
ATOM      6  C7  UNL d   1       0.446  -1.542   0.796  0.00  0.00     0.076 C 
ATOM      7  C8  UNL d   1      -0.980  -3.564   0.357  0.00  0.00     0.001 A 
ENDROOT
BRANCH   1   8
ATOM      8  C1  UNL d   1      -2.411  -5.622   0.049  0.00  0.00     0.053 C 
ATOM      9  C   UNL d   1      -1.908  -6.000   1.433  0.00  0.00     0.018 C 
ENDBRANCH   1   8
TORSDOF 1
ENDMDL
