MODEL 1
REMARK minimizedAffinity 8.84281635
REMARK minimizedRMSD -1
REMARK  1 active torsions:
REMARK  status: ('A' for Active; 'I' for Inactive)
REMARK    1  A    between atoms: C1_2  and  C2_3 
ROOT
ATOM      1  C2  UNL d   1       2.378   1.499   1.016  0.00  0.00    -0.073 A 
ATOM      2  C3  UNL d   1       1.625   2.119   0.012  0.00  0.00    -0.002 A 
ATOM      3  C4  UNL d   1       2.011   3.361  -0.493  0.00  0.00     0.004 A 
ATOM      4  C5  UNL d   1       3.156   3.992  -0.007  0.00  0.00    -0.004 A 
ATOM      5  C6  UNL d   1       3.928   3.383   0.988  0.00  0.00    -0.075 A 
ATOM      6  C7  UNL d   1       5.161   4.049   1.523  0.00  0.00     0.076 C 
ATOM      7  C8  UNL d   1       3.532   2.137   1.492  0.00  0.00     0.001 A 
ENDROOT
BRANCH   1   8
ATOM      8  C1  UNL d   1       1.968   0.155   1.560  0.00  0.00     0.053 C 
ATOM      9  C   UNL d   1       0.545  -0.210   1.167  0.00  0.00     0.018 C 
ENDBRANCH   1   8
TORSDOF 1
ENDMDL
