MODEL 1
REMARK minimizedAffinity 8.44588184
REMARK minimizedRMSD -1
REMARK  1 active torsions:
REMARK  status: ('A' for Active; 'I' for Inactive)
REMARK    1  A    between atoms: C1_2  and  C2_3 
ROOT
ATOM      1  C2  UNL d   1       0.834   2.584   1.065  0.00  0.00    -0.073 A 
ATOM      2  C3  UNL d   1       1.369   3.364   0.034  0.00  0.00    -0.002 A 
ATOM      3  C4  UNL d   1       0.528   4.077  -0.822  0.00  0.00     0.004 A 
ATOM      4  C5  UNL d   1      -0.856   4.022  -0.651  0.00  0.00    -0.004 A 
ATOM      5  C6  UNL d   1      -1.410   3.258   0.381  0.00  0.00    -0.075 A 
ATOM      6  C7  UNL d   1      -2.896   3.187   0.576  0.00  0.00     0.076 C 
ATOM      7  C8  UNL d   1      -0.558   2.543   1.234  0.00  0.00     0.001 A 
ENDROOT
BRANCH   1   8
ATOM      8  C1  UNL d   1       1.739   1.819   1.995  0.00  0.00     0.053 C 
ATOM      9  C   UNL d   1       1.941   0.382   1.539  0.00  0.00     0.018 C 
ENDBRANCH   1   8
TORSDOF 1
ENDMDL
