MODEL 1
REMARK minimizedAffinity 9.7128706
REMARK minimizedRMSD -1
REMARK  1 active torsions:
REMARK  status: ('A' for Active; 'I' for Inactive)
REMARK    1  A    between atoms: C1_2  and  C2_3 
ROOT
ATOM      1  C2  UNL d   1      -0.754   3.750   1.636  0.00  0.00    -0.073 A 
ATOM      2  C3  UNL d   1       0.105   2.676   1.895  0.00  0.00    -0.002 A 
ATOM      3  C4  UNL d   1       0.136   2.087   3.159  0.00  0.00     0.004 A 
ATOM      4  C5  UNL d   1      -0.694   2.560   4.175  0.00  0.00    -0.004 A 
ATOM      5  C6  UNL d   1      -1.568   3.625   3.933  0.00  0.00    -0.075 A 
ATOM      6  C7  UNL d   1      -2.467   4.148   5.015  0.00  0.00     0.076 C 
ATOM      7  C8  UNL d   1      -1.592   4.213   2.661  0.00  0.00     0.001 A 
ENDROOT
BRANCH   1   8
ATOM      8  C1  UNL d   1      -0.796   4.385   0.270  0.00  0.00     0.053 C 
ATOM      9  C   UNL d   1       0.285   5.441   0.099  0.00  0.00     0.018 C 
ENDBRANCH   1   8
TORSDOF 1
ENDMDL
