MODEL 1
REMARK minimizedAffinity -1.88876164
REMARK minimizedRMSD -1
REMARK  1 active torsions:
REMARK  status: ('A' for Active; 'I' for Inactive)
REMARK    1  A    between atoms: C1_2  and  C2_3 
ROOT
ATOM      1  C2  UNL d   1      -1.737   3.073  -0.622  0.00  0.00    -0.073 A 
ATOM      2  C3  UNL d   1      -0.653   2.991   0.259  0.00  0.00    -0.002 A 
ATOM      3  C4  UNL d   1      -0.690   2.113   1.343  0.00  0.00     0.004 A 
ATOM      4  C5  UNL d   1      -1.806   1.303   1.553  0.00  0.00    -0.004 A 
ATOM      5  C6  UNL d   1      -2.895   1.362   0.676  0.00  0.00    -0.075 A 
ATOM      6  C7  UNL d   1      -4.104   0.499   0.890  0.00  0.00     0.076 C 
ATOM      7  C8  UNL d   1      -2.851   2.248  -0.408  0.00  0.00     0.001 A 
ENDROOT
BRANCH   1   8
ATOM      8  C1  UNL d   1      -1.700   4.015  -1.797  0.00  0.00     0.053 C 
ATOM      9  C   UNL d   1      -1.875   3.285  -3.119  0.00  0.00     0.018 C 
ENDBRANCH   1   8
TORSDOF 1
ENDMDL
