MODEL 1
REMARK minimizedAffinity 11.0882645
REMARK minimizedRMSD -1
REMARK  1 active torsions:
REMARK  status: ('A' for Active; 'I' for Inactive)
REMARK    1  A    between atoms: C1_2  and  C2_3 
ROOT
ATOM      1  C2  UNL d   1       0.834  -4.792  -3.041  0.00  0.00    -0.073 A 
ATOM      2  C3  UNL d   1       0.990  -3.578  -2.363  0.00  0.00    -0.002 A 
ATOM      3  C4  UNL d   1       0.019  -3.146  -1.459  0.00  0.00     0.004 A 
ATOM      4  C5  UNL d   1      -1.112  -3.926  -1.218  0.00  0.00    -0.004 A 
ATOM      5  C6  UNL d   1      -1.280  -5.148  -1.877  0.00  0.00    -0.075 A 
ATOM      6  C7  UNL d   1      -2.493  -5.997  -1.631  0.00  0.00     0.076 C 
ATOM      7  C8  UNL d   1      -0.302  -5.573  -2.786  0.00  0.00     0.001 A 
ENDROOT
BRANCH   1   8
ATOM      8  C1  UNL d   1       1.883  -5.266  -4.014  0.00  0.00     0.053 C 
ATOM      9  C   UNL d   1       1.268  -5.902  -5.251  0.00  0.00     0.018 C 
ENDBRANCH   1   8
TORSDOF 1
ENDMDL
