MODEL 1
REMARK minimizedAffinity 7.39710045
REMARK minimizedRMSD -1
REMARK  1 active torsions:
REMARK  status: ('A' for Active; 'I' for Inactive)
REMARK    1  A    between atoms: C1_2  and  C2_3 
ROOT
ATOM      1  C2  UNL d   1      -0.570   0.728   1.261  0.00  0.00    -0.073 A 
ATOM      2  C3  UNL d   1      -1.587   0.524   2.201  0.00  0.00    -0.002 A 
ATOM      3  C4  UNL d   1      -2.317  -0.665   2.201  0.00  0.00     0.004 A 
ATOM      4  C5  UNL d   1      -2.035  -1.663   1.268  0.00  0.00    -0.004 A 
ATOM      5  C6  UNL d   1      -1.015  -1.482   0.329  0.00  0.00    -0.075 A 
ATOM      6  C7  UNL d   1      -0.700  -2.545  -0.683  0.00  0.00     0.076 C 
ATOM      7  C8  UNL d   1      -0.287  -0.284   0.333  0.00  0.00     0.001 A 
ENDROOT
BRANCH   1   8
ATOM      8  C1  UNL d   1       0.226   2.008   1.261  0.00  0.00     0.053 C 
ATOM      9  C   UNL d   1       1.471   1.905   2.128  0.00  0.00     0.018 C 
ENDBRANCH   1   8
TORSDOF 1
ENDMDL
