MODEL 1
REMARK minimizedAffinity 3.21914291
REMARK minimizedRMSD -1
REMARK  1 active torsions:
REMARK  status: ('A' for Active; 'I' for Inactive)
REMARK    1  A    between atoms: C1_2  and  C2_3 
ROOT
ATOM      1  C2  UNL d   1       2.350   1.850   1.749  0.00  0.00    -0.073 A 
ATOM      2  C3  UNL d   1       2.877   2.606   0.696  0.00  0.00    -0.002 A 
ATOM      3  C4  UNL d   1       4.050   3.341   0.875  0.00  0.00     0.004 A 
ATOM      4  C5  UNL d   1       4.710   3.322   2.103  0.00  0.00    -0.004 A 
ATOM      5  C6  UNL d   1       4.205   2.563   3.164  0.00  0.00    -0.075 A 
ATOM      6  C7  UNL d   1       4.903   2.533   4.492  0.00  0.00     0.076 C 
ATOM      7  C8  UNL d   1       3.026   1.829   2.978  0.00  0.00     0.001 A 
ENDROOT
BRANCH   1   8
ATOM      8  C1  UNL d   1       1.087   1.049   1.559  0.00  0.00     0.053 C 
ATOM      9  C   UNL d   1       1.354  -0.447   1.569  0.00  0.00     0.018 C 
ENDBRANCH   1   8
TORSDOF 1
ENDMDL
