MODEL 1
REMARK minimizedAffinity -2.602319
REMARK minimizedRMSD -1
REMARK  1 active torsions:
REMARK  status: ('A' for Active; 'I' for Inactive)
REMARK    1  A    between atoms: C1_2  and  C2_3 
ROOT
ATOM      1  C2  UNL d   1       3.743   2.746   1.871  0.00  0.00    -0.073 A 
ATOM      2  C3  UNL d   1       3.672   3.583   0.752  0.00  0.00    -0.002 A 
ATOM      3  C4  UNL d   1       2.569   3.526  -0.102  0.00  0.00     0.004 A 
ATOM      4  C5  UNL d   1       1.525   2.640   0.159  0.00  0.00    -0.004 A 
ATOM      5  C6  UNL d   1       1.571   1.804   1.280  0.00  0.00    -0.075 A 
ATOM      6  C7  UNL d   1       0.457   0.844   1.573  0.00  0.00     0.076 C 
ATOM      7  C8  UNL d   1       2.684   1.865   2.130  0.00  0.00     0.001 A 
ENDROOT
BRANCH   1   8
ATOM      8  C1  UNL d   1       4.929   2.808   2.799  0.00  0.00     0.053 C 
ATOM      9  C   UNL d   1       4.565   2.400   4.218  0.00  0.00     0.018 C 
ENDBRANCH   1   8
TORSDOF 1
ENDMDL
