MODEL 1
REMARK minimizedAffinity -2.67093873
REMARK minimizedRMSD -1
REMARK  0 active torsions:
REMARK  status: ('A' for Active; 'I' for Inactive)
ROOT
ATOM      1  C   UNL d   1       0.616  -2.183   0.383  0.00  0.00     0.172 C 
ATOM      2  N   UNL d   1      -0.327  -2.629  -0.615  0.00  0.00    -0.070 N 
ATOM      3  C1  UNL d   1      -1.642  -2.938  -0.389  0.00  0.00    -0.004 A 
ATOM      4  C2  UNL d   1      -2.199  -3.319  -1.591  0.00  0.00    -0.047 A 
ATOM      5  C3  UNL d   1      -1.183  -3.238  -2.573  0.00  0.00    -0.047 A 
ATOM      6  C4  UNL d   1      -0.035  -2.808  -1.942  0.00  0.00    -0.004 A 
ENDROOT
TORSDOF 0
ENDMDL
