MODEL 1
REMARK minimizedAffinity -2.61589694
REMARK minimizedRMSD -1
REMARK  0 active torsions:
REMARK  status: ('A' for Active; 'I' for Inactive)
ROOT
ATOM      1  C   UNL d   1      -1.389  -2.714  -2.480  0.00  0.00     0.172 C 
ATOM      2  N   UNL d   1      -0.767  -1.951  -1.423  0.00  0.00    -0.070 N 
ATOM      3  C1  UNL d   1      -1.005  -0.631  -1.145  0.00  0.00    -0.004 A 
ATOM      4  C2  UNL d   1      -0.221  -0.278  -0.069  0.00  0.00    -0.047 A 
ATOM      5  C3  UNL d   1       0.515  -1.425   0.313  0.00  0.00    -0.047 A 
ATOM      6  C4  UNL d   1       0.157  -2.446  -0.542  0.00  0.00    -0.004 A 
ENDROOT
TORSDOF 0
ENDMDL
