MODEL 1
REMARK minimizedAffinity -3.31136894
REMARK minimizedRMSD -1
REMARK  0 active torsions:
REMARK  status: ('A' for Active; 'I' for Inactive)
ROOT
ATOM      1  C   UNL d   1      -0.857  -1.781  -0.348  0.00  0.00     0.172 C 
ATOM      2  N   UNL d   1      -0.918  -0.407   0.090  0.00  0.00    -0.070 N 
ATOM      3  C1  UNL d   1      -1.982   0.438  -0.078  0.00  0.00    -0.004 A 
ATOM      4  C2  UNL d   1      -1.647   1.654   0.477  0.00  0.00    -0.047 A 
ATOM      5  C3  UNL d   1      -0.336   1.536   0.996  0.00  0.00    -0.047 A 
ATOM      6  C4  UNL d   1       0.092   0.250   0.743  0.00  0.00    -0.004 A 
ENDROOT
TORSDOF 0
ENDMDL
