MODEL 1
REMARK minimizedAffinity -0.785051763
REMARK minimizedRMSD -1
REMARK  0 active torsions:
REMARK  status: ('A' for Active; 'I' for Inactive)
ROOT
ATOM      1  C   UNL d   1      -0.280  -1.248  -0.102  0.00  0.00     0.172 C 
ATOM      2  N   UNL d   1      -0.758   0.044   0.331  0.00  0.00    -0.070 N 
ATOM      3  C1  UNL d   1      -2.062   0.462   0.308  0.00  0.00    -0.004 A 
ATOM      4  C2  UNL d   1      -2.101   1.748   0.802  0.00  0.00    -0.047 A 
ATOM      5  C3  UNL d   1      -0.775   2.116   1.132  0.00  0.00    -0.047 A 
ATOM      6  C4  UNL d   1       0.036   1.043   0.830  0.00  0.00    -0.004 A 
ENDROOT
TORSDOF 0
ENDMDL
