MODEL 1
REMARK minimizedAffinity -1.89361441
REMARK minimizedRMSD -1
REMARK  0 active torsions:
REMARK  status: ('A' for Active; 'I' for Inactive)
ROOT
ATOM      1  C   UNL d   1       0.252  -0.738  -0.052  0.00  0.00     0.172 C 
ATOM      2  N   UNL d   1      -0.127  -1.784  -0.972  0.00  0.00    -0.070 N 
ATOM      3  C1  UNL d   1       0.635  -2.247  -2.012  0.00  0.00    -0.004 A 
ATOM      4  C2  UNL d   1      -0.077  -3.242  -2.646  0.00  0.00    -0.047 A 
ATOM      5  C3  UNL d   1      -1.310  -3.381  -1.965  0.00  0.00    -0.047 A 
ATOM      6  C4  UNL d   1      -1.314  -2.466  -0.933  0.00  0.00    -0.004 A 
ENDROOT
TORSDOF 0
ENDMDL
