MODEL 1
REMARK minimizedAffinity -1.99548459
REMARK minimizedRMSD -1
REMARK  0 active torsions:
REMARK  status: ('A' for Active; 'I' for Inactive)
ROOT
ATOM      1  C   UNL d   1       0.323  -1.343  -0.011  0.00  0.00     0.172 C 
ATOM      2  N   UNL d   1      -0.236  -2.311  -0.925  0.00  0.00    -0.070 N 
ATOM      3  C1  UNL d   1       0.281  -2.648  -2.147  0.00  0.00    -0.004 A 
ATOM      4  C2  UNL d   1      -0.540  -3.603  -2.705  0.00  0.00    -0.047 A 
ATOM      5  C3  UNL d   1      -1.589  -3.849  -1.787  0.00  0.00    -0.047 A 
ATOM      6  C4  UNL d   1      -1.376  -3.036  -0.694  0.00  0.00    -0.004 A 
ENDROOT
TORSDOF 0
ENDMDL
