MODEL 1
REMARK minimizedAffinity -3.38496947
REMARK minimizedRMSD -1
REMARK  0 active torsions:
REMARK  status: ('A' for Active; 'I' for Inactive)
ROOT
ATOM      1  C   UNL d   1      -0.342   2.448   0.690  0.00  0.00     0.172 C 
ATOM      2  N   UNL d   1       0.142   1.087   0.676  0.00  0.00    -0.070 N 
ATOM      3  C1  UNL d   1      -0.638  -0.038   0.711  0.00  0.00    -0.004 A 
ATOM      4  C2  UNL d   1       0.199  -1.132   0.681  0.00  0.00    -0.047 A 
ATOM      5  C3  UNL d   1       1.528  -0.648   0.626  0.00  0.00    -0.047 A 
ATOM      6  C4  UNL d   1       1.463   0.729   0.624  0.00  0.00    -0.004 A 
ENDROOT
TORSDOF 0
ENDMDL
