MODEL 1
REMARK minimizedAffinity -3.23498273
REMARK minimizedRMSD -1
REMARK  0 active torsions:
REMARK  status: ('A' for Active; 'I' for Inactive)
ROOT
ATOM      1  C   UNL d   1       1.661  -2.236  -1.605  0.00  0.00     0.172 C 
ATOM      2  N   UNL d   1       0.864  -1.346  -0.794  0.00  0.00    -0.070 N 
ATOM      3  C1  UNL d   1      -0.160  -1.722   0.034  0.00  0.00    -0.004 A 
ATOM      4  C2  UNL d   1      -0.663  -0.585   0.628  0.00  0.00    -0.047 A 
ATOM      5  C3  UNL d   1       0.084   0.513   0.139  0.00  0.00    -0.047 A 
ATOM      6  C4  UNL d   1       1.022   0.014  -0.739  0.00  0.00    -0.004 A 
ENDROOT
TORSDOF 0
ENDMDL
