MODEL 1
REMARK minimizedAffinity 0.0918186456
REMARK minimizedRMSD -1
REMARK  0 active torsions:
REMARK  status: ('A' for Active; 'I' for Inactive)
ROOT
ATOM      1  C   UNL d   1      -0.045  -1.511  -0.138  0.00  0.00     0.172 C 
ATOM      2  N   UNL d   1      -0.196  -0.114   0.193  0.00  0.00    -0.070 N 
ATOM      3  C1  UNL d   1       0.782   0.695   0.707  0.00  0.00    -0.004 A 
ATOM      4  C2  UNL d   1       0.243   1.951   0.882  0.00  0.00    -0.047 A 
ATOM      5  C3  UNL d   1      -1.106   1.895   0.458  0.00  0.00    -0.047 A 
ATOM      6  C4  UNL d   1      -1.351   0.606   0.037  0.00  0.00    -0.004 A 
ENDROOT
TORSDOF 0
ENDMDL
