MODEL 1
REMARK minimizedAffinity -1.75938487
REMARK minimizedRMSD -1
REMARK  0 active torsions:
REMARK  status: ('A' for Active; 'I' for Inactive)
ROOT
ATOM      1  C   UNL d   1      -0.018  -0.473  -0.003  0.00  0.00     0.172 C 
ATOM      2  N   UNL d   1      -0.171  -1.641  -0.837  0.00  0.00    -0.070 N 
ATOM      3  C1  UNL d   1      -0.442  -2.909  -0.395  0.00  0.00    -0.004 A 
ATOM      4  C2  UNL d   1      -0.512  -3.735  -1.496  0.00  0.00    -0.047 A 
ATOM      5  C3  UNL d   1      -0.272  -2.936  -2.639  0.00  0.00    -0.047 A 
ATOM      6  C4  UNL d   1      -0.064  -1.645  -2.203  0.00  0.00    -0.004 A 
ENDROOT
TORSDOF 0
ENDMDL
