MODEL 1
REMARK minimizedAffinity -2.06946802
REMARK minimizedRMSD -1
REMARK  0 active torsions:
REMARK  status: ('A' for Active; 'I' for Inactive)
ROOT
ATOM      1  C   UNL d   1       2.380   1.527   1.022  0.00  0.00     0.172 C 
ATOM      2  N   UNL d   1       1.073   0.964   0.773  0.00  0.00    -0.070 N 
ATOM      3  C1  UNL d   1      -0.105   1.662   0.750  0.00  0.00    -0.004 A 
ATOM      4  C2  UNL d   1      -1.119   0.768   0.480  0.00  0.00    -0.047 A 
ATOM      5  C3  UNL d   1      -0.530  -0.510   0.337  0.00  0.00    -0.047 A 
ATOM      6  C4  UNL d   1       0.828  -0.360   0.523  0.00  0.00    -0.004 A 
ENDROOT
TORSDOF 0
ENDMDL
