MODEL 1
REMARK minimizedAffinity -3.03202009
REMARK minimizedRMSD -1
REMARK  0 active torsions:
REMARK  status: ('A' for Active; 'I' for Inactive)
ROOT
ATOM      1  C   UNL d   1      -0.411   2.679   0.542  0.00  0.00     0.172 C 
ATOM      2  N   UNL d   1      -0.355   1.254   0.315  0.00  0.00    -0.070 N 
ATOM      3  C1  UNL d   1       0.778   0.484   0.347  0.00  0.00    -0.004 A 
ATOM      4  C2  UNL d   1       0.411  -0.818   0.083  0.00  0.00    -0.047 A 
ATOM      5  C3  UNL d   1      -0.990  -0.831  -0.116  0.00  0.00    -0.047 A 
ATOM      6  C4  UNL d   1      -1.439   0.464   0.034  0.00  0.00    -0.004 A 
ENDROOT
TORSDOF 0
ENDMDL
