MODEL 1
REMARK minimizedAffinity -2.97110701
REMARK minimizedRMSD -1
REMARK  0 active torsions:
REMARK  status: ('A' for Active; 'I' for Inactive)
ROOT
ATOM      1  C   UNL d   1       0.066  -0.517   0.122  0.00  0.00     0.172 C 
ATOM      2  N   UNL d   1      -0.110  -1.353  -1.043  0.00  0.00    -0.070 N 
ATOM      3  C1  UNL d   1       0.662  -1.321  -2.173  0.00  0.00    -0.004 A 
ATOM      4  C2  UNL d   1       0.172  -2.267  -3.046  0.00  0.00    -0.047 A 
ATOM      5  C3  UNL d   1      -0.934  -2.889  -2.420  0.00  0.00    -0.047 A 
ATOM      6  C4  UNL d   1      -1.087  -2.303  -1.181  0.00  0.00    -0.004 A 
ENDROOT
TORSDOF 0
ENDMDL
