MODEL 1
REMARK minimizedAffinity -3.38137555
REMARK minimizedRMSD -1
REMARK  0 active torsions:
REMARK  status: ('A' for Active; 'I' for Inactive)
ROOT
ATOM      1  C   UNL d   1      -0.079  -0.399  -0.014  0.00  0.00     0.172 C 
ATOM      2  N   UNL d   1      -0.343  -1.328  -1.088  0.00  0.00    -0.070 N 
ATOM      3  C1  UNL d   1      -0.725  -2.634  -0.938  0.00  0.00    -0.004 A 
ATOM      4  C2  UNL d   1      -0.876  -3.177  -2.195  0.00  0.00    -0.047 A 
ATOM      5  C3  UNL d   1      -0.572  -2.162  -3.134  0.00  0.00    -0.047 A 
ATOM      6  C4  UNL d   1      -0.245  -1.028  -2.421  0.00  0.00    -0.004 A 
ENDROOT
TORSDOF 0
ENDMDL
