MODEL 1
REMARK minimizedAffinity -1.37647867
REMARK minimizedRMSD -1
REMARK  0 active torsions:
REMARK  status: ('A' for Active; 'I' for Inactive)
ROOT
ATOM      1  C   UNL d   1      -0.023  -1.037   0.019  0.00  0.00     0.172 C 
ATOM      2  N   UNL d   1      -0.424   0.344   0.149  0.00  0.00    -0.070 N 
ATOM      3  C1  UNL d   1      -1.693   0.786   0.415  0.00  0.00    -0.004 A 
ATOM      4  C2  UNL d   1      -1.660   2.163   0.459  0.00  0.00    -0.047 A 
ATOM      5  C3  UNL d   1      -0.325   2.563   0.210  0.00  0.00    -0.047 A 
ATOM      6  C4  UNL d   1       0.418   1.417   0.021  0.00  0.00    -0.004 A 
ENDROOT
TORSDOF 0
ENDMDL
