MODEL 1
REMARK minimizedAffinity -2.68002415
REMARK minimizedRMSD -1
REMARK  0 active torsions:
REMARK  status: ('A' for Active; 'I' for Inactive)
ROOT
ATOM      1  C   UNL d   1      -0.416   2.660   0.699  0.00  0.00     0.172 C 
ATOM      2  N   UNL d   1       0.111   1.319   0.604  0.00  0.00    -0.070 N 
ATOM      3  C1  UNL d   1       1.436   0.977   0.651  0.00  0.00    -0.004 A 
ATOM      4  C2  UNL d   1       1.523  -0.393   0.528  0.00  0.00    -0.047 A 
ATOM      5  C3  UNL d   1       0.205  -0.891   0.402  0.00  0.00    -0.047 A 
ATOM      6  C4  UNL d   1      -0.649   0.190   0.452  0.00  0.00    -0.004 A 
ENDROOT
TORSDOF 0
ENDMDL
