MODEL 1
REMARK minimizedAffinity -1.56174684
REMARK minimizedRMSD -1
REMARK  0 active torsions:
REMARK  status: ('A' for Active; 'I' for Inactive)
ROOT
ATOM      1  C2' OXE d   1       0.366   1.204  -0.112  0.00  0.00     0.078 C 
ATOM      2  C1' OXE d   1      -1.762   0.759   1.665  0.00  0.00     0.078 C 
ATOM      3  C1  OXE d   1      -1.016  -0.445   1.145  0.00  0.00    -0.078 A 
ATOM      4  C2  OXE d   1      -0.007  -0.221   0.240  0.00  0.00    -0.078 A 
ATOM      5  C3  OXE d   1       0.749  -1.291  -0.229  0.00  0.00     0.003 A 
ATOM      6  C4  OXE d   1       0.391  -2.606   0.093  0.00  0.00    -0.002 A 
ATOM      7  C5  OXE d   1      -0.659  -2.859   0.982  0.00  0.00    -0.002 A 
ATOM      8  C6  OXE d   1      -1.344  -1.790   1.549  0.00  0.00     0.003 A 
ENDROOT
TORSDOF 0
ENDMDL
