MODEL 1
REMARK minimizedAffinity -5.10830355
REMARK minimizedRMSD -1
REMARK  0 active torsions:
REMARK  status: ('A' for Active; 'I' for Inactive)
ROOT
ATOM      1  C2' OXE d   1      -0.412  -2.195   1.063  0.00  0.00     0.078 C 
ATOM      2  C1' OXE d   1      -2.381  -0.719   2.413  0.00  0.00     0.078 C 
ATOM      3  C1  OXE d   1      -1.479   0.021   1.457  0.00  0.00    -0.078 A 
ATOM      4  C2  OXE d   1      -0.488  -0.701   0.836  0.00  0.00    -0.078 A 
ATOM      5  C3  OXE d   1       0.336  -0.079  -0.096  0.00  0.00     0.003 A 
ATOM      6  C4  OXE d   1       0.266   1.306  -0.293  0.00  0.00    -0.002 A 
ATOM      7  C5  OXE d   1      -0.710   2.067   0.360  0.00  0.00    -0.002 A 
ATOM      8  C6  OXE d   1      -1.616   1.434   1.204  0.00  0.00     0.003 A 
ENDROOT
TORSDOF 0
ENDMDL
