MODEL 1
REMARK minimizedAffinity -4.36818314
REMARK minimizedRMSD -1
REMARK  0 active torsions:
REMARK  status: ('A' for Active; 'I' for Inactive)
ROOT
ATOM      1  C2' OXE d   1       0.004   0.515  -0.716  0.00  0.00     0.078 C 
ATOM      2  C1' OXE d   1       1.771  -1.095   0.756  0.00  0.00     0.078 C 
ATOM      3  C1  OXE d   1       0.339  -1.551   0.635  0.00  0.00    -0.078 A 
ATOM      4  C2  OXE d   1      -0.530  -0.734  -0.048  0.00  0.00    -0.078 A 
ATOM      5  C3  OXE d   1      -1.850  -1.134  -0.236  0.00  0.00     0.003 A 
ATOM      6  C4  OXE d   1      -2.338  -2.285   0.394  0.00  0.00    -0.002 A 
ATOM      7  C5  OXE d   1      -1.479  -3.112   1.127  0.00  0.00    -0.002 A 
ATOM      8  C6  OXE d   1      -0.132  -2.782   1.221  0.00  0.00     0.003 A 
ENDROOT
TORSDOF 0
ENDMDL
