MODEL 1
REMARK minimizedAffinity -1.12256718
REMARK minimizedRMSD -1
REMARK  0 active torsions:
REMARK  status: ('A' for Active; 'I' for Inactive)
ROOT
ATOM      1  C2' OXE d   1       0.354   1.078  -0.697  0.00  0.00     0.078 C 
ATOM      2  C1' OXE d   1      -1.648   1.252   1.262  0.00  0.00     0.078 C 
ATOM      3  C1  OXE d   1      -0.947  -0.072   1.090  0.00  0.00    -0.078 A 
ATOM      4  C2  OXE d   1      -0.001  -0.161   0.097  0.00  0.00    -0.078 A 
ATOM      5  C3  OXE d   1       0.715  -1.343  -0.069  0.00  0.00     0.003 A 
ATOM      6  C4  OXE d   1       0.373  -2.487   0.663  0.00  0.00    -0.002 A 
ATOM      7  C5  OXE d   1      -0.615  -2.429   1.652  0.00  0.00    -0.002 A 
ATOM      8  C6  OXE d   1      -1.254  -1.220   1.906  0.00  0.00     0.003 A 
ENDROOT
TORSDOF 0
ENDMDL
