MODEL 1
REMARK minimizedAffinity -0.457568258
REMARK minimizedRMSD -1
REMARK  0 active torsions:
REMARK  status: ('A' for Active; 'I' for Inactive)
ROOT
ATOM      1  C2' OXE d   1       0.487   0.986  -0.798  0.00  0.00     0.078 C 
ATOM      2  C1' OXE d   1       1.469  -1.473   0.134  0.00  0.00     0.078 C 
ATOM      3  C1  OXE d   1       0.030  -1.133   0.429  0.00  0.00    -0.078 A 
ATOM      4  C2  OXE d   1      -0.429   0.092   0.010  0.00  0.00    -0.078 A 
ATOM      5  C3  OXE d   1      -1.764   0.433   0.208  0.00  0.00     0.003 A 
ATOM      6  C4  OXE d   1      -2.602  -0.394   0.965  0.00  0.00    -0.002 A 
ATOM      7  C5  OXE d   1      -2.144  -1.629   1.435  0.00  0.00    -0.002 A 
ATOM      8  C6  OXE d   1      -0.846  -2.032   1.140  0.00  0.00     0.003 A 
ENDROOT
TORSDOF 0
ENDMDL
