MODEL 1
REMARK minimizedAffinity -5.73260546
REMARK minimizedRMSD -1
REMARK  0 active torsions:
REMARK  status: ('A' for Active; 'I' for Inactive)
ROOT
ATOM      1  C2' OXE d   1       1.845  -1.149  -0.204  0.00  0.00     0.078 C 
ATOM      2  C1' OXE d   1       0.455   1.246  -0.669  0.00  0.00     0.078 C 
ATOM      3  C1  OXE d   1      -0.312   0.091  -0.075  0.00  0.00    -0.078 A 
ATOM      4  C2  OXE d   1       0.364  -1.091   0.106  0.00  0.00    -0.078 A 
ATOM      5  C3  OXE d   1      -0.282  -2.171   0.701  0.00  0.00     0.003 A 
ATOM      6  C4  OXE d   1      -1.654  -2.113   0.975  0.00  0.00    -0.002 A 
ATOM      7  C5  OXE d   1      -2.371  -0.931   0.761  0.00  0.00    -0.002 A 
ATOM      8  C6  OXE d   1      -1.707   0.191   0.278  0.00  0.00     0.003 A 
ENDROOT
TORSDOF 0
ENDMDL
