MODEL 1
REMARK minimizedAffinity -1.14303589
REMARK minimizedRMSD -1
REMARK  0 active torsions:
REMARK  status: ('A' for Active; 'I' for Inactive)
ROOT
ATOM      1  C2' OXE d   1      -0.730   1.436   0.494  0.00  0.00     0.078 C 
ATOM      2  C1' OXE d   1       0.523  -1.027   0.001  0.00  0.00     0.078 C 
ATOM      3  C1  OXE d   1       0.624   0.039  -1.061  0.00  0.00    -0.078 A 
ATOM      4  C2  OXE d   1      -0.031   1.225  -0.832  0.00  0.00    -0.078 A 
ATOM      5  C3  OXE d   1       0.076   2.262  -1.754  0.00  0.00     0.003 A 
ATOM      6  C4  OXE d   1       0.716   2.054  -2.982  0.00  0.00    -0.002 A 
ATOM      7  C5  OXE d   1       1.356   0.841  -3.253  0.00  0.00    -0.002 A 
ATOM      8  C6  OXE d   1       1.356  -0.160  -2.288  0.00  0.00     0.003 A 
ENDROOT
TORSDOF 0
ENDMDL
