MODEL 1
REMARK minimizedAffinity -4.95466518
REMARK minimizedRMSD -1
REMARK  0 active torsions:
REMARK  status: ('A' for Active; 'I' for Inactive)
ROOT
ATOM      1  C2' OXE d   1      -1.520  -2.297   0.858  0.00  0.00     0.078 C 
ATOM      2  C1' OXE d   1      -2.440   0.352   0.967  0.00  0.00     0.078 C 
ATOM      3  C1  OXE d   1      -0.987   0.125   0.629  0.00  0.00    -0.078 A 
ATOM      4  C2  OXE d   1      -0.535  -1.172   0.624  0.00  0.00    -0.078 A 
ATOM      5  C3  OXE d   1       0.783  -1.441   0.266  0.00  0.00     0.003 A 
ATOM      6  C4  OXE d   1       1.690  -0.394   0.061  0.00  0.00    -0.002 A 
ATOM      7  C5  OXE d   1       1.259   0.936   0.101  0.00  0.00    -0.002 A 
ATOM      8  C6  OXE d   1      -0.083   1.211   0.341  0.00  0.00     0.003 A 
ENDROOT
TORSDOF 0
ENDMDL
