MODEL 1
REMARK minimizedAffinity -0.928358197
REMARK minimizedRMSD -1
REMARK  0 active torsions:
REMARK  status: ('A' for Active; 'I' for Inactive)
ROOT
ATOM      1  C2' OXE d   1      -1.229  -2.268   1.779  0.00  0.00     0.078 C 
ATOM      2  C1' OXE d   1      -1.844   0.410   1.207  0.00  0.00     0.078 C 
ATOM      3  C1  OXE d   1      -0.528  -0.132   0.707  0.00  0.00    -0.078 A 
ATOM      4  C2  OXE d   1      -0.215  -1.430   1.031  0.00  0.00    -0.078 A 
ATOM      5  C3  OXE d   1       0.962  -1.996   0.548  0.00  0.00     0.003 A 
ATOM      6  C4  OXE d   1       1.899  -1.210  -0.134  0.00  0.00    -0.002 A 
ATOM      7  C5  OXE d   1       1.617   0.125  -0.441  0.00  0.00    -0.002 A 
ATOM      8  C6  OXE d   1       0.392   0.666  -0.065  0.00  0.00     0.003 A 
ENDROOT
TORSDOF 0
ENDMDL
