MODEL 1
REMARK minimizedAffinity -4.732306
REMARK minimizedRMSD -1
REMARK  0 active torsions:
REMARK  status: ('A' for Active; 'I' for Inactive)
ROOT
ATOM      1  C2' OXE d   1       0.358   0.862  -0.170  0.00  0.00     0.078 C 
ATOM      2  C1' OXE d   1      -2.329   0.862   0.642  0.00  0.00     0.078 C 
ATOM      3  C1  OXE d   1      -1.562  -0.432   0.748  0.00  0.00    -0.078 A 
ATOM      4  C2  OXE d   1      -0.261  -0.434   0.304  0.00  0.00    -0.078 A 
ATOM      5  C3  OXE d   1       0.508  -1.588   0.429  0.00  0.00     0.003 A 
ATOM      6  C4  OXE d   1      -0.076  -2.786   0.860  0.00  0.00    -0.002 A 
ATOM      7  C5  OXE d   1      -1.410  -2.815   1.279  0.00  0.00    -0.002 A 
ATOM      8  C6  OXE d   1      -2.153  -1.640   1.270  0.00  0.00     0.003 A 
ENDROOT
TORSDOF 0
ENDMDL
