MODEL 1
REMARK minimizedAffinity 1.09542692
REMARK minimizedRMSD -1
REMARK  0 active torsions:
REMARK  status: ('A' for Active; 'I' for Inactive)
ROOT
ATOM      1  C2' OXE d   1      -0.049   2.565  -3.780  0.00  0.00     0.078 C 
ATOM      2  C1' OXE d   1       1.718   3.304  -5.832  0.00  0.00     0.078 C 
ATOM      3  C1  OXE d   1       2.312   2.827  -4.530  0.00  0.00    -0.078 A 
ATOM      4  C2  OXE d   1       1.440   2.512  -3.515  0.00  0.00    -0.078 A 
ATOM      5  C3  OXE d   1       1.933   2.015  -2.312  0.00  0.00     0.003 A 
ATOM      6  C4  OXE d   1       3.312   1.978  -2.072  0.00  0.00    -0.002 A 
ATOM      7  C5  OXE d   1       4.217   2.332  -3.078  0.00  0.00    -0.002 A 
ATOM      8  C6  OXE d   1       3.735   2.717  -4.324  0.00  0.00     0.003 A 
ENDROOT
TORSDOF 0
ENDMDL
