MODEL 1
REMARK minimizedAffinity -1.88761795
REMARK minimizedRMSD -1
REMARK  0 active torsions:
REMARK  status: ('A' for Active; 'I' for Inactive)
ROOT
ATOM      1  C2' OXE d   1       1.576  -1.613  -0.274  0.00  0.00     0.078 C 
ATOM      2  C1' OXE d   1      -0.877  -2.281   0.916  0.00  0.00     0.078 C 
ATOM      3  C1  OXE d   1      -0.628  -0.831   0.584  0.00  0.00    -0.078 A 
ATOM      4  C2  OXE d   1       0.593  -0.507   0.044  0.00  0.00    -0.078 A 
ATOM      5  C3  OXE d   1       0.853   0.808  -0.331  0.00  0.00     0.003 A 
ATOM      6  C4  OXE d   1      -0.057   1.827  -0.024  0.00  0.00    -0.002 A 
ATOM      7  C5  OXE d   1      -1.291   1.523   0.562  0.00  0.00    -0.002 A 
ATOM      8  C6  OXE d   1      -1.609   0.197   0.832  0.00  0.00     0.003 A 
ENDROOT
TORSDOF 0
ENDMDL
