MODEL 1
REMARK minimizedAffinity -5.95191669
REMARK minimizedRMSD -1
REMARK  0 active torsions:
REMARK  status: ('A' for Active; 'I' for Inactive)
ROOT
ATOM      1  C2' OXE d   1       1.378  -1.711  -0.059  0.00  0.00     0.078 C 
ATOM      2  C1' OXE d   1       0.353   0.895  -0.258  0.00  0.00     0.078 C 
ATOM      3  C1  OXE d   1      -0.466  -0.128   0.490  0.00  0.00    -0.078 A 
ATOM      4  C2  OXE d   1       0.021  -1.411   0.543  0.00  0.00    -0.078 A 
ATOM      5  C3  OXE d   1      -0.667  -2.381   1.267  0.00  0.00     0.003 A 
ATOM      6  C4  OXE d   1      -1.925  -2.098   1.812  0.00  0.00    -0.002 A 
ATOM      7  C5  OXE d   1      -2.458  -0.807   1.735  0.00  0.00    -0.002 A 
ATOM      8  C6  OXE d   1      -1.723   0.198   1.116  0.00  0.00     0.003 A 
ENDROOT
TORSDOF 0
ENDMDL
