MODEL 1
REMARK minimizedAffinity -2.07657743
REMARK minimizedRMSD -1
REMARK  0 active torsions:
REMARK  status: ('A' for Active; 'I' for Inactive)
ROOT
ATOM      1  C2' OXE d   1       0.880  -0.854   0.221  0.00  0.00     0.078 C 
ATOM      2  C1' OXE d   1      -1.573  -2.211   0.071  0.00  0.00     0.078 C 
ATOM      3  C1  OXE d   1      -1.599  -0.749   0.443  0.00  0.00    -0.078 A 
ATOM      4  C2  OXE d   1      -0.391  -0.105   0.559  0.00  0.00    -0.078 A 
ATOM      5  C3  OXE d   1      -0.360   1.257   0.845  0.00  0.00     0.003 A 
ATOM      6  C4  OXE d   1      -1.540   1.940   1.166  0.00  0.00    -0.002 A 
ATOM      7  C5  OXE d   1      -2.778   1.293   1.093  0.00  0.00    -0.002 A 
ATOM      8  C6  OXE d   1      -2.828  -0.037   0.692  0.00  0.00     0.003 A 
ENDROOT
TORSDOF 0
ENDMDL
