MODEL 1
REMARK minimizedAffinity -5.5265255
REMARK minimizedRMSD -1
REMARK  0 active torsions:
REMARK  status: ('A' for Active; 'I' for Inactive)
ROOT
ATOM      1  C2' OXE d   1       0.393   0.574   0.491  0.00  0.00     0.078 C 
ATOM      2  C1' OXE d   1       0.507  -2.226   0.327  0.00  0.00     0.078 C 
ATOM      3  C1  OXE d   1      -0.740  -1.605   0.906  0.00  0.00    -0.078 A 
ATOM      4  C2  OXE d   1      -0.768  -0.236   1.025  0.00  0.00    -0.078 A 
ATOM      5  C3  OXE d   1      -1.915   0.391   1.502  0.00  0.00     0.003 A 
ATOM      6  C4  OXE d   1      -2.981  -0.366   2.004  0.00  0.00    -0.002 A 
ATOM      7  C5  OXE d   1      -2.956  -1.762   1.928  0.00  0.00    -0.002 A 
ATOM      8  C6  OXE d   1      -1.864  -2.394   1.345  0.00  0.00     0.003 A 
ENDROOT
TORSDOF 0
ENDMDL
