MODEL 1
REMARK minimizedAffinity -3.71308804
REMARK minimizedRMSD -1
REMARK  0 active torsions:
REMARK  status: ('A' for Active; 'I' for Inactive)
ROOT
ATOM      1  C2' OXE d   1       0.735   0.953  -0.822  0.00  0.00     0.078 C 
ATOM      2  C1' OXE d   1       2.137  -1.309   0.070  0.00  0.00     0.078 C 
ATOM      3  C1  OXE d   1       0.688  -1.179   0.466  0.00  0.00    -0.078 A 
ATOM      4  C2  OXE d   1       0.022  -0.046   0.064  0.00  0.00    -0.078 A 
ATOM      5  C3  OXE d   1      -1.331   0.099   0.356  0.00  0.00     0.003 A 
ATOM      6  C4  OXE d   1      -1.981  -0.824   1.184  0.00  0.00    -0.002 A 
ATOM      7  C5  OXE d   1      -1.310  -1.965   1.638  0.00  0.00    -0.002 A 
ATOM      8  C6  OXE d   1       0.009  -2.179   1.253  0.00  0.00     0.003 A 
ENDROOT
TORSDOF 0
ENDMDL
