MODEL 1
REMARK minimizedAffinity -4.91877174
REMARK minimizedRMSD -1
REMARK  0 active torsions:
REMARK  status: ('A' for Active; 'I' for Inactive)
ROOT
ATOM      1  C2' OXE d   1       1.889  -1.333   0.226  0.00  0.00     0.078 C 
ATOM      2  C1' OXE d   1       0.348   0.968  -0.237  0.00  0.00     0.078 C 
ATOM      3  C1  OXE d   1      -0.366  -0.274   0.235  0.00  0.00    -0.078 A 
ATOM      4  C2  OXE d   1       0.389  -1.408   0.414  0.00  0.00    -0.078 A 
ATOM      5  C3  OXE d   1      -0.211  -2.566   0.900  0.00  0.00     0.003 A 
ATOM      6  C4  OXE d   1      -1.601  -2.631   1.061  0.00  0.00    -0.002 A 
ATOM      7  C5  OXE d   1      -2.393  -1.498   0.846  0.00  0.00    -0.002 A 
ATOM      8  C6  OXE d   1      -1.788  -0.303   0.475  0.00  0.00     0.003 A 
ENDROOT
TORSDOF 0
ENDMDL
