MODEL 1
REMARK minimizedAffinity -2.00717759
REMARK minimizedRMSD -1
REMARK  0 active torsions:
REMARK  status: ('A' for Active; 'I' for Inactive)
ROOT
ATOM      1  C2' OXE d   1      -1.218   2.038   0.896  0.00  0.00     0.078 C 
ATOM      2  C1' OXE d   1       0.578   1.572  -1.210  0.00  0.00     0.078 C 
ATOM      3  C1  OXE d   1       0.274   0.425  -0.280  0.00  0.00    -0.078 A 
ATOM      4  C2  OXE d   1      -0.571   0.675   0.776  0.00  0.00    -0.078 A 
ATOM      5  C3  OXE d   1      -0.928  -0.362   1.633  0.00  0.00     0.003 A 
ATOM      6  C4  OXE d   1      -0.317  -1.617   1.521  0.00  0.00    -0.002 A 
ATOM      7  C5  OXE d   1       0.576  -1.881   0.477  0.00  0.00    -0.002 A 
ATOM      8  C6  OXE d   1       0.849  -0.885  -0.455  0.00  0.00     0.003 A 
ENDROOT
TORSDOF 0
ENDMDL
