MODEL 1
REMARK minimizedAffinity -4.37227774
REMARK minimizedRMSD -1
REMARK  0 active torsions:
REMARK  status: ('A' for Active; 'I' for Inactive)
ROOT
ATOM      1  C2' OXE d   1      -2.231  -0.562  -0.585  0.00  0.00     0.078 C 
ATOM      2  C1' OXE d   1       0.276  -0.967   0.610  0.00  0.00     0.078 C 
ATOM      3  C1  OXE d   1      -0.949  -1.367   1.393  0.00  0.00    -0.078 A 
ATOM      4  C2  OXE d   1      -2.174  -1.122   0.820  0.00  0.00    -0.078 A 
ATOM      5  C3  OXE d   1      -3.334  -1.521   1.476  0.00  0.00     0.003 A 
ATOM      6  C4  OXE d   1      -3.273  -2.029   2.780  0.00  0.00    -0.002 A 
ATOM      7  C5  OXE d   1      -2.037  -2.250   3.398  0.00  0.00    -0.002 A 
ATOM      8  C6  OXE d   1      -0.867  -1.965   2.703  0.00  0.00     0.003 A 
ENDROOT
TORSDOF 0
ENDMDL
