MODEL 1
REMARK minimizedAffinity 6.51164007
REMARK minimizedRMSD -1
REMARK  0 active torsions:
REMARK  status: ('A' for Active; 'I' for Inactive)
ROOT
ATOM      1  C2' OXE d   1      -4.158  -3.021  -5.364  0.00  0.00     0.078 C 
ATOM      2  C1' OXE d   1      -5.999  -0.939  -5.761  0.00  0.00     0.078 C 
ATOM      3  C1  OXE d   1      -5.543  -1.216  -4.350  0.00  0.00    -0.078 A 
ATOM      4  C2  OXE d   1      -4.678  -2.266  -4.159  0.00  0.00    -0.078 A 
ATOM      5  C3  OXE d   1      -4.185  -2.530  -2.885  0.00  0.00     0.003 A 
ATOM      6  C4  OXE d   1      -4.679  -1.834  -1.775  0.00  0.00    -0.002 A 
ATOM      7  C5  OXE d   1      -5.591  -0.787  -1.943  0.00  0.00    -0.002 A 
ATOM      8  C6  OXE d   1      -6.000  -0.438  -3.225  0.00  0.00     0.003 A 
ENDROOT
TORSDOF 0
ENDMDL
