MODEL 1
REMARK minimizedAffinity -1.7896595
REMARK minimizedRMSD -1
REMARK  1 active torsions:
REMARK  status: ('A' for Active; 'I' for Inactive)
REMARK    1  A    between atoms: C1_2  and  C2_3 
ROOT
ATOM      1  C2  UNL d   1       0.286   0.696  -1.336  0.00  0.00    -0.076 A 
ATOM      2  C3  UNL d   1       0.660  -0.602  -1.725  0.00  0.00     0.004 A 
ATOM      3  C4  UNL d   1       0.710  -1.642  -0.798  0.00  0.00    -0.003 A 
ATOM      4  C5  UNL d   1       0.386  -1.401   0.533  0.00  0.00     0.000 A 
ATOM      5  C6  UNL d   1      -0.004  -0.123   0.932  0.00  0.00     0.000 A 
ATOM      6  C7  UNL d   1      -0.076   0.933   0.008  0.00  0.00    -0.073 A 
ATOM      7  C8  UNL d   1      -0.497   2.292   0.495  0.00  0.00     0.078 C 
ENDROOT
BRANCH   1   8
ATOM      8  C1  UNL d   1       0.276   1.790  -2.380  0.00  0.00     0.053 C 
ATOM      9  C   UNL d   1       0.975   1.375  -3.665  0.00  0.00     0.018 C 
ENDBRANCH   1   8
TORSDOF 1
ENDMDL
