MODEL 1
REMARK minimizedAffinity -0.89413625
REMARK minimizedRMSD -1
REMARK  1 active torsions:
REMARK  status: ('A' for Active; 'I' for Inactive)
REMARK    1  A    between atoms: C1_2  and  C2_3 
ROOT
ATOM      1  C2  UNL d   1      -1.087  -0.908   1.633  0.00  0.00    -0.076 A 
ATOM      2  C3  UNL d   1      -1.394   0.211   0.840  0.00  0.00     0.004 A 
ATOM      3  C4  UNL d   1      -0.493   0.684  -0.112  0.00  0.00    -0.003 A 
ATOM      4  C5  UNL d   1       0.730   0.046  -0.286  0.00  0.00     0.000 A 
ATOM      5  C6  UNL d   1       1.044  -1.076   0.480  0.00  0.00     0.000 A 
ATOM      6  C7  UNL d   1       0.140  -1.576   1.432  0.00  0.00    -0.073 A 
ATOM      7  C8  UNL d   1       0.533  -2.786   2.235  0.00  0.00     0.078 C 
ENDROOT
BRANCH   1   8
ATOM      8  C1  UNL d   1      -2.092  -1.360   2.668  0.00  0.00     0.053 C 
ATOM      9  C   UNL d   1      -2.939  -0.213   3.197  0.00  0.00     0.018 C 
ENDBRANCH   1   8
TORSDOF 1
ENDMDL
