MODEL 1
REMARK minimizedAffinity -1.43537748
REMARK minimizedRMSD -1
REMARK  1 active torsions:
REMARK  status: ('A' for Active; 'I' for Inactive)
REMARK    1  A    between atoms: C1_2  and  C2_3 
ROOT
ATOM      1  C2  UNL d   1       0.229   0.384   0.352  0.00  0.00    -0.076 A 
ATOM      2  C3  UNL d   1       1.204  -0.601   0.114  0.00  0.00     0.004 A 
ATOM      3  C4  UNL d   1       1.060  -1.891   0.622  0.00  0.00    -0.003 A 
ATOM      4  C5  UNL d   1      -0.062  -2.217   1.376  0.00  0.00     0.000 A 
ATOM      5  C6  UNL d   1      -1.048  -1.258   1.607  0.00  0.00     0.000 A 
ATOM      6  C7  UNL d   1      -0.926   0.042   1.089  0.00  0.00    -0.073 A 
ATOM      7  C8  UNL d   1      -2.016   1.038   1.374  0.00  0.00     0.078 C 
ENDROOT
BRANCH   1   8
ATOM      8  C1  UNL d   1       0.452   1.773  -0.202  0.00  0.00     0.053 C 
ATOM      9  C   UNL d   1       0.883   1.757  -1.660  0.00  0.00     0.018 C 
ENDBRANCH   1   8
TORSDOF 1
ENDMDL
