MODEL 1
REMARK minimizedAffinity 0.0123995505
REMARK minimizedRMSD -1
REMARK  1 active torsions:
REMARK  status: ('A' for Active; 'I' for Inactive)
REMARK    1  A    between atoms: C1_2  and  C2_3 
ROOT
ATOM      1  C2  UNL d   1       1.077   0.809  -0.271  0.00  0.00    -0.076 A 
ATOM      2  C3  UNL d   1       2.101   0.931  -1.227  0.00  0.00     0.004 A 
ATOM      3  C4  UNL d   1       1.991   1.830  -2.286  0.00  0.00    -0.003 A 
ATOM      4  C5  UNL d   1       0.855   2.623  -2.406  0.00  0.00     0.000 A 
ATOM      5  C6  UNL d   1      -0.163   2.528  -1.458  0.00  0.00     0.000 A 
ATOM      6  C7  UNL d   1      -0.061   1.638  -0.375  0.00  0.00    -0.073 A 
ATOM      7  C8  UNL d   1      -1.191   1.572   0.615  0.00  0.00     0.078 C 
ENDROOT
BRANCH   1   8
ATOM      8  C1  UNL d   1       1.240  -0.204   0.840  0.00  0.00     0.053 C 
ATOM      9  C   UNL d   1       0.662  -1.564   0.478  0.00  0.00     0.018 C 
ENDBRANCH   1   8
TORSDOF 1
ENDMDL
