MODEL 1
REMARK minimizedAffinity 6.75885105
REMARK minimizedRMSD -1
REMARK  1 active torsions:
REMARK  status: ('A' for Active; 'I' for Inactive)
REMARK    1  A    between atoms: C1_2  and  C2_3 
ROOT
ATOM      1  C2  UNL d   1       4.691   3.191  -0.516  0.00  0.00    -0.076 A 
ATOM      2  C3  UNL d   1       4.731   3.949  -1.699  0.00  0.00     0.004 A 
ATOM      3  C4  UNL d   1       4.682   5.342  -1.660  0.00  0.00    -0.003 A 
ATOM      4  C5  UNL d   1       4.594   5.998  -0.438  0.00  0.00     0.000 A 
ATOM      5  C6  UNL d   1       4.571   5.262   0.747  0.00  0.00     0.000 A 
ATOM      6  C7  UNL d   1       4.635   3.859   0.726  0.00  0.00    -0.073 A 
ATOM      7  C8  UNL d   1       4.600   3.115   2.033  0.00  0.00     0.078 C 
ENDROOT
BRANCH   1   8
ATOM      8  C1  UNL d   1       4.719   1.683  -0.622  0.00  0.00     0.053 C 
ATOM      9  C   UNL d   1       3.350   1.094  -0.926  0.00  0.00     0.018 C 
ENDBRANCH   1   8
TORSDOF 1
ENDMDL
