MODEL 1
REMARK minimizedAffinity -2.40792584
REMARK minimizedRMSD -1
REMARK  1 active torsions:
REMARK  status: ('A' for Active; 'I' for Inactive)
REMARK    1  A    between atoms: C1_2  and  C2_3 
ROOT
ATOM      1  C2  UNL d   1       0.538   0.415  -0.463  0.00  0.00    -0.076 A 
ATOM      2  C3  UNL d   1       1.535  -0.555  -0.670  0.00  0.00     0.004 A 
ATOM      3  C4  UNL d   1       1.466  -1.799  -0.045  0.00  0.00    -0.003 A 
ATOM      4  C5  UNL d   1       0.398  -2.094   0.796  0.00  0.00     0.000 A 
ATOM      5  C6  UNL d   1      -0.608  -1.151   0.999  0.00  0.00     0.000 A 
ATOM      6  C7  UNL d   1      -0.562   0.102   0.364  0.00  0.00    -0.073 A 
ATOM      7  C8  UNL d   1      -1.672   1.084   0.623  0.00  0.00     0.078 C 
ENDROOT
BRANCH   1   8
ATOM      8  C1  UNL d   1       0.680   1.756  -1.145  0.00  0.00     0.053 C 
ATOM      9  C   UNL d   1       0.588   1.652  -2.660  0.00  0.00     0.018 C 
ENDBRANCH   1   8
TORSDOF 1
ENDMDL
