MODEL 1
REMARK minimizedAffinity -3.30954528
REMARK minimizedRMSD -1
REMARK  1 active torsions:
REMARK  status: ('A' for Active; 'I' for Inactive)
REMARK    1  A    between atoms: C1_2  and  C2_3 
ROOT
ATOM      1  C2  UNL d   1      -0.627  -0.753   0.794  0.00  0.00    -0.076 A 
ATOM      2  C3  UNL d   1      -0.764  -1.916   1.572  0.00  0.00     0.004 A 
ATOM      3  C4  UNL d   1      -1.759  -2.017   2.543  0.00  0.00    -0.003 A 
ATOM      4  C5  UNL d   1      -2.634  -0.957   2.751  0.00  0.00     0.000 A 
ATOM      5  C6  UNL d   1      -2.525   0.197   1.977  0.00  0.00     0.000 A 
ATOM      6  C7  UNL d   1      -1.537   0.309   0.983  0.00  0.00    -0.073 A 
ATOM      7  C8  UNL d   1      -1.461   1.580   0.182  0.00  0.00     0.078 C 
ENDROOT
BRANCH   1   8
ATOM      8  C1  UNL d   1       0.488  -0.690  -0.225  0.00  0.00     0.053 C 
ATOM      9  C   UNL d   1       1.866  -0.699   0.418  0.00  0.00     0.018 C 
ENDBRANCH   1   8
TORSDOF 1
ENDMDL
