MODEL 1
REMARK minimizedAffinity 2.04553628
REMARK minimizedRMSD -1
REMARK  1 active torsions:
REMARK  status: ('A' for Active; 'I' for Inactive)
REMARK    1  A    between atoms: C1_2  and  C2_3 
ROOT
ATOM      1  C2  UNL d   1      -2.220  -3.887  -4.876  0.00  0.00    -0.076 A 
ATOM      2  C3  UNL d   1      -3.060  -3.800  -5.999  0.00  0.00     0.004 A 
ATOM      3  C4  UNL d   1      -4.173  -2.961  -5.999  0.00  0.00    -0.003 A 
ATOM      4  C5  UNL d   1      -4.464  -2.196  -4.875  0.00  0.00     0.000 A 
ATOM      5  C6  UNL d   1      -3.631  -2.256  -3.758  0.00  0.00     0.000 A 
ATOM      6  C7  UNL d   1      -2.496  -3.084  -3.748  0.00  0.00    -0.073 A 
ATOM      7  C8  UNL d   1      -1.636  -3.115  -2.515  0.00  0.00     0.078 C 
ENDROOT
BRANCH   1   8
ATOM      8  C1  UNL d   1      -1.042  -4.835  -4.924  0.00  0.00     0.053 C 
ATOM      9  C   UNL d   1      -1.266  -5.994  -5.883  0.00  0.00     0.018 C 
ENDBRANCH   1   8
TORSDOF 1
ENDMDL
