MODEL 1
REMARK minimizedAffinity -2.21591401
REMARK minimizedRMSD -1
REMARK  1 active torsions:
REMARK  status: ('A' for Active; 'I' for Inactive)
REMARK    1  A    between atoms: C1_2  and  C2_3 
ROOT
ATOM      1  C2  UNL d   1       0.505   0.153   0.232  0.00  0.00    -0.076 A 
ATOM      2  C3  UNL d   1       1.472  -0.773  -0.194  0.00  0.00     0.004 A 
ATOM      3  C4  UNL d   1       1.368  -2.123   0.138  0.00  0.00    -0.003 A 
ATOM      4  C5  UNL d   1       0.295  -2.568   0.901  0.00  0.00     0.000 A 
ATOM      5  C6  UNL d   1      -0.683  -1.666   1.318  0.00  0.00     0.000 A 
ATOM      6  C7  UNL d   1      -0.602  -0.305   0.978  0.00  0.00    -0.073 A 
ATOM      7  C8  UNL d   1      -1.682   0.625   1.459  0.00  0.00     0.078 C 
ENDROOT
BRANCH   1   8
ATOM      8  C1  UNL d   1       0.685   1.609  -0.135  0.00  0.00     0.053 C 
ATOM      9  C   UNL d   1       1.092   1.797  -1.588  0.00  0.00     0.018 C 
ENDBRANCH   1   8
TORSDOF 1
ENDMDL
