MODEL 1
REMARK minimizedAffinity -1.14596903
REMARK minimizedRMSD -1
REMARK  0 active torsions:
REMARK  status: ('A' for Active; 'I' for Inactive)
ROOT
ATOM      1  C   UNL d   1      -1.320  -5.897  -5.247  0.00  0.00    -0.002 A 
ATOM      2  C1  UNL d   1      -0.247  -5.722  -4.384  0.00  0.00     0.010 A 
ATOM      3  C2  UNL d   1      -0.451  -5.643  -3.005  0.00  0.00     0.041 A 
ATOM      4  C3  UNL d   1      -1.763  -5.746  -2.503  0.00  0.00    -0.075 A 
ATOM      5  S   UNL d   1      -2.252  -5.678  -0.851  0.00  0.00     0.015 SA
ATOM      6  C4  UNL d   1      -3.896  -5.882  -1.252  0.00  0.00     0.022 A 
ATOM      7  C5  UNL d   1      -4.085  -6.000  -2.609  0.00  0.00     0.026 A 
ATOM      8  C6  UNL d   1      -2.859  -5.924  -3.352  0.00  0.00    -0.082 A 
ATOM      9  C7  UNL d   1      -2.620  -5.999  -4.745  0.00  0.00     0.045 A 
ENDROOT
TORSDOF 0
ENDMDL
