MODEL 1
REMARK minimizedAffinity -2.46476388
REMARK minimizedRMSD -1
REMARK  0 active torsions:
REMARK  status: ('A' for Active; 'I' for Inactive)
ROOT
ATOM      1  C   UNL d   1       2.133  -5.220  -5.767  0.00  0.00    -0.002 A 
ATOM      2  C1  UNL d   1       2.709  -5.374  -4.514  0.00  0.00     0.010 A 
ATOM      3  C2  UNL d   1       1.913  -5.614  -3.392  0.00  0.00     0.041 A 
ATOM      4  C3  UNL d   1       0.516  -5.701  -3.553  0.00  0.00    -0.075 A 
ATOM      5  S   UNL d   1      -0.656  -5.990  -2.322  0.00  0.00     0.015 SA
ATOM      6  C4  UNL d   1      -1.948  -5.918  -3.431  0.00  0.00     0.022 A 
ATOM      7  C5  UNL d   1      -1.514  -5.679  -4.713  0.00  0.00     0.026 A 
ATOM      8  C6  UNL d   1      -0.086  -5.551  -4.805  0.00  0.00    -0.082 A 
ATOM      9  C7  UNL d   1       0.747  -5.307  -5.923  0.00  0.00     0.045 A 
ENDROOT
TORSDOF 0
ENDMDL
