MODEL 1
REMARK minimizedAffinity -3.56077051
REMARK minimizedRMSD -1
REMARK  0 active torsions:
REMARK  status: ('A' for Active; 'I' for Inactive)
ROOT
ATOM      1  C   UNL d   1      -0.420  -5.618  -3.598  0.00  0.00    -0.002 A 
ATOM      2  C1  UNL d   1      -1.439  -5.666  -4.539  0.00  0.00     0.010 A 
ATOM      3  C2  UNL d   1      -2.771  -5.785  -4.137  0.00  0.00     0.041 A 
ATOM      4  C3  UNL d   1      -3.065  -5.852  -2.761  0.00  0.00    -0.075 A 
ATOM      5  S   UNL d   1      -4.622  -5.998  -2.036  0.00  0.00     0.015 SA
ATOM      6  C4  UNL d   1      -3.971  -5.999  -0.461  0.00  0.00     0.022 A 
ATOM      7  C5  UNL d   1      -2.601  -5.891  -0.469  0.00  0.00     0.026 A 
ATOM      8  C6  UNL d   1      -2.055  -5.805  -1.795  0.00  0.00    -0.082 A 
ATOM      9  C7  UNL d   1      -0.715  -5.685  -2.234  0.00  0.00     0.045 A 
ENDROOT
TORSDOF 0
ENDMDL
