MODEL 1
REMARK minimizedAffinity -0.00444539869
REMARK minimizedRMSD -1
REMARK  0 active torsions:
REMARK  status: ('A' for Active; 'I' for Inactive)
ROOT
ATOM      1  C   UNL d   1      -0.004  -5.557  -1.272  0.00  0.00    -0.002 A 
ATOM      2  C1  UNL d   1      -1.371  -5.627  -1.500  0.00  0.00     0.010 A 
ATOM      3  C2  UNL d   1      -1.868  -5.763  -2.798  0.00  0.00     0.041 A 
ATOM      4  C3  UNL d   1      -0.960  -5.831  -3.872  0.00  0.00    -0.075 A 
ATOM      5  S   UNL d   1      -1.340  -5.999  -5.546  0.00  0.00     0.015 SA
ATOM      6  C4  UNL d   1       0.303  -5.982  -5.997  0.00  0.00     0.022 A 
ATOM      7  C5  UNL d   1       1.135  -5.853  -4.911  0.00  0.00     0.026 A 
ATOM      8  C6  UNL d   1       0.421  -5.764  -3.668  0.00  0.00    -0.082 A 
ATOM      9  C7  UNL d   1       0.894  -5.624  -2.341  0.00  0.00     0.045 A 
ENDROOT
TORSDOF 0
ENDMDL
