MODEL 1
REMARK minimizedAffinity 8.88763809
REMARK minimizedRMSD -1
REMARK  0 active torsions:
REMARK  status: ('A' for Active; 'I' for Inactive)
ROOT
ATOM      1  C   UNL d   1       4.214  -1.488   3.957  0.00  0.00    -0.002 A 
ATOM      2  C1  UNL d   1       5.023  -0.714   3.138  0.00  0.00     0.010 A 
ATOM      3  C2  UNL d   1       4.520  -0.162   1.959  0.00  0.00     0.041 A 
ATOM      4  C3  UNL d   1       3.175  -0.401   1.614  0.00  0.00    -0.075 A 
ATOM      5  S   UNL d   1       2.342   0.174   0.218  0.00  0.00     0.015 SA
ATOM      6  C4  UNL d   1       0.891  -0.593   0.677  0.00  0.00     0.022 A 
ATOM      7  C5  UNL d   1       1.021  -1.276   1.863  0.00  0.00     0.026 A 
ATOM      8  C6  UNL d   1       2.340  -1.176   2.423  0.00  0.00    -0.082 A 
ATOM      9  C7  UNL d   1       2.880  -1.723   3.611  0.00  0.00     0.045 A 
ENDROOT
TORSDOF 0
ENDMDL
