MODEL 1
REMARK minimizedAffinity -4.03574467
REMARK minimizedRMSD -1
REMARK  0 active torsions:
REMARK  status: ('A' for Active; 'I' for Inactive)
ROOT
ATOM      1  C   UNL d   1      -3.531  -5.988  -2.222  0.00  0.00    -0.002 A 
ATOM      2  C1  UNL d   1      -2.389  -5.986  -1.434  0.00  0.00     0.010 A 
ATOM      3  C2  UNL d   1      -1.122  -5.984  -2.021  0.00  0.00     0.041 A 
ATOM      4  C3  UNL d   1      -1.021  -5.981  -3.426  0.00  0.00    -0.075 A 
ATOM      5  S   UNL d   1       0.425  -5.976  -4.365  0.00  0.00     0.015 SA
ATOM      6  C4  UNL d   1      -0.440  -5.976  -5.833  0.00  0.00     0.022 A 
ATOM      7  C5  UNL d   1      -1.800  -5.979  -5.631  0.00  0.00     0.026 A 
ATOM      8  C6  UNL d   1      -2.157  -5.981  -4.240  0.00  0.00    -0.082 A 
ATOM      9  C7  UNL d   1      -3.428  -5.985  -3.615  0.00  0.00     0.045 A 
ENDROOT
TORSDOF 0
ENDMDL
