MODEL 1
REMARK minimizedAffinity 12.1573744
REMARK minimizedRMSD -1
REMARK  0 active torsions:
REMARK  status: ('A' for Active; 'I' for Inactive)
ROOT
ATOM      1  C   UNL d   1       4.753  -1.270   3.827  0.00  0.00    -0.002 A 
ATOM      2  C1  UNL d   1       5.412  -0.767   2.714  0.00  0.00     0.010 A 
ATOM      3  C2  UNL d   1       4.699  -0.410   1.568  0.00  0.00     0.041 A 
ATOM      4  C3  UNL d   1       3.299  -0.566   1.560  0.00  0.00    -0.075 A 
ATOM      5  S   UNL d   1       2.219  -0.194   0.268  0.00  0.00     0.015 SA
ATOM      6  C4  UNL d   1       0.857  -0.692   1.164  0.00  0.00     0.022 A 
ATOM      7  C5  UNL d   1       1.200  -1.135   2.420  0.00  0.00     0.026 A 
ATOM      8  C6  UNL d   1       2.613  -1.069   2.669  0.00  0.00    -0.082 A 
ATOM      9  C7  UNL d   1       3.364  -1.423   3.815  0.00  0.00     0.045 A 
ENDROOT
TORSDOF 0
ENDMDL
