MODEL 1
REMARK minimizedAffinity 3.64773893
REMARK minimizedRMSD -1
REMARK  0 active torsions:
REMARK  status: ('A' for Active; 'I' for Inactive)
ROOT
ATOM      1  C   UNL d   1       2.749  -4.710  -4.037  0.00  0.00    -0.002 A 
ATOM      2  C1  UNL d   1       2.842  -5.232  -5.319  0.00  0.00     0.010 A 
ATOM      3  C2  UNL d   1       1.699  -5.657  -5.998  0.00  0.00     0.041 A 
ATOM      4  C3  UNL d   1       0.447  -5.545  -5.361  0.00  0.00    -0.075 A 
ATOM      5  S   UNL d   1      -1.088  -6.000  -6.000  0.00  0.00     0.015 SA
ATOM      6  C4  UNL d   1      -1.905  -5.511  -4.586  0.00  0.00     0.022 A 
ATOM      7  C5  UNL d   1      -1.042  -5.011  -3.639  0.00  0.00     0.026 A 
ATOM      8  C6  UNL d   1       0.327  -5.022  -4.071  0.00  0.00    -0.082 A 
ATOM      9  C7  UNL d   1       1.506  -4.601  -3.408  0.00  0.00     0.045 A 
ENDROOT
TORSDOF 0
ENDMDL
