MODEL 1
REMARK minimizedAffinity -4.18581724
REMARK minimizedRMSD -1
REMARK  0 active torsions:
REMARK  status: ('A' for Active; 'I' for Inactive)
ROOT
ATOM      1  C   UNL d   1       0.497  -0.413  -0.302  0.00  0.00     0.172 C 
ATOM      2  N   UNL d   1       0.145   0.185   0.964  0.00  0.00    -0.070 N 
ATOM      3  C1  UNL d   1       0.928   0.192   2.088  0.00  0.00    -0.004 A 
ATOM      4  C2  UNL d   1       0.238   0.857   3.078  0.00  0.00    -0.047 A 
ATOM      5  C3  UNL d   1      -1.002   1.263   2.531  0.00  0.00    -0.047 A 
ATOM      6  C4  UNL d   1      -1.034   0.834   1.221  0.00  0.00    -0.004 A 
ENDROOT
TORSDOF 0
ENDMDL
