MODEL 1
REMARK minimizedAffinity -3.95270801
REMARK minimizedRMSD -1
REMARK  0 active torsions:
REMARK  status: ('A' for Active; 'I' for Inactive)
ROOT
ATOM      1  C   UNL d   1       2.093  -0.279   2.840  0.00  0.00     0.172 C 
ATOM      2  N   UNL d   1       0.812   0.270   2.461  0.00  0.00    -0.070 N 
ATOM      3  C1  UNL d   1       0.346   0.400   1.180  0.00  0.00    -0.004 A 
ATOM      4  C2  UNL d   1      -0.910   0.964   1.242  0.00  0.00    -0.047 A 
ATOM      5  C3  UNL d   1      -1.208   1.182   2.608  0.00  0.00    -0.047 A 
ATOM      6  C4  UNL d   1      -0.125   0.744   3.341  0.00  0.00    -0.004 A 
ENDROOT
TORSDOF 0
ENDMDL
