MODEL 1
REMARK minimizedAffinity -3.71851659
REMARK minimizedRMSD -1
REMARK  0 active torsions:
REMARK  status: ('A' for Active; 'I' for Inactive)
ROOT
ATOM      1  C   UNL d   1       0.098  -0.303  -0.364  0.00  0.00     0.172 C 
ATOM      2  N   UNL d   1       0.038   0.123   1.015  0.00  0.00    -0.070 N 
ATOM      3  C1  UNL d   1       1.005  -0.094   1.959  0.00  0.00    -0.004 A 
ATOM      4  C2  UNL d   1       0.572   0.465   3.142  0.00  0.00    -0.047 A 
ATOM      5  C3  UNL d   1      -0.700   1.036   2.900  0.00  0.00    -0.047 A 
ATOM      6  C4  UNL d   1      -1.006   0.810   1.575  0.00  0.00    -0.004 A 
ENDROOT
TORSDOF 0
ENDMDL
