MODEL 1
REMARK minimizedAffinity -1.64240885
REMARK minimizedRMSD -1
REMARK  0 active torsions:
REMARK  status: ('A' for Active; 'I' for Inactive)
ROOT
ATOM      1  C   UNL d   1       1.825   2.138  -0.211  0.00  0.00    -0.002 A 
ATOM      2  C1  UNL d   1       2.380   1.085   0.503  0.00  0.00     0.010 A 
ATOM      3  C2  UNL d   1       1.613  -0.034   0.831  0.00  0.00     0.041 A 
ATOM      4  C3  UNL d   1       0.265  -0.079   0.423  0.00  0.00    -0.075 A 
ATOM      5  S   UNL d   1      -0.866  -1.349   0.711  0.00  0.00     0.015 SA
ATOM      6  C4  UNL d   1      -2.113  -0.524  -0.108  0.00  0.00     0.022 A 
ATOM      7  C5  UNL d   1      -1.694   0.691  -0.595  0.00  0.00     0.026 A 
ATOM      8  C6  UNL d   1      -0.317   0.968  -0.297  0.00  0.00    -0.082 A 
ATOM      9  C7  UNL d   1       0.487   2.089  -0.613  0.00  0.00     0.045 A 
ENDROOT
TORSDOF 0
ENDMDL
