MODEL 1
REMARK minimizedAffinity -1.69852054
REMARK minimizedRMSD -1
REMARK  0 active torsions:
REMARK  status: ('A' for Active; 'I' for Inactive)
ROOT
ATOM      1  C   UNL d   1      -2.474  -0.410  -1.930  0.00  0.00    -0.002 A 
ATOM      2  C1  UNL d   1      -2.831  -0.599  -3.258  0.00  0.00     0.010 A 
ATOM      3  C2  UNL d   1      -3.447   0.425  -3.980  0.00  0.00     0.041 A 
ATOM      4  C3  UNL d   1      -3.698   1.655  -3.341  0.00  0.00    -0.075 A 
ATOM      5  S   UNL d   1      -4.439   3.051  -4.028  0.00  0.00     0.015 SA
ATOM      6  C4  UNL d   1      -4.299   3.932  -2.576  0.00  0.00     0.022 A 
ATOM      7  C5  UNL d   1      -3.703   3.194  -1.581  0.00  0.00     0.026 A 
ATOM      8  C6  UNL d   1      -3.347   1.870  -2.005  0.00  0.00    -0.082 A 
ATOM      9  C7  UNL d   1      -2.725   0.812  -1.299  0.00  0.00     0.045 A 
ENDROOT
TORSDOF 0
ENDMDL
