MODEL 1
REMARK minimizedAffinity -3.54050994
REMARK minimizedRMSD -1
REMARK  0 active torsions:
REMARK  status: ('A' for Active; 'I' for Inactive)
ROOT
ATOM      1  C   UNL d   1       2.983  -1.839   2.188  0.00  0.00    -0.002 A 
ATOM      2  C1  UNL d   1       3.461  -0.555   2.407  0.00  0.00     0.010 A 
ATOM      3  C2  UNL d   1       2.777   0.553   1.901  0.00  0.00     0.041 A 
ATOM      4  C3  UNL d   1       1.593   0.346   1.166  0.00  0.00    -0.075 A 
ATOM      5  S   UNL d   1       0.589   1.552   0.451  0.00  0.00     0.015 SA
ATOM      6  C4  UNL d   1      -0.498   0.390  -0.160  0.00  0.00     0.022 A 
ATOM      7  C5  UNL d   1      -0.119  -0.891   0.163  0.00  0.00     0.026 A 
ATOM      8  C6  UNL d   1       1.092  -0.938   0.933  0.00  0.00    -0.082 A 
ATOM      9  C7  UNL d   1       1.808  -2.040   1.458  0.00  0.00     0.045 A 
ENDROOT
TORSDOF 0
ENDMDL
