MODEL 1
REMARK minimizedAffinity -2.67459035
REMARK minimizedRMSD -1
REMARK  0 active torsions:
REMARK  status: ('A' for Active; 'I' for Inactive)
ROOT
ATOM      1  C   UNL d   1       2.362  -1.216   2.479  0.00  0.00    -0.002 A 
ATOM      2  C1  UNL d   1       1.279  -2.084   2.452  0.00  0.00     0.010 A 
ATOM      3  C2  UNL d   1       0.168  -1.809   1.653  0.00  0.00     0.041 A 
ATOM      4  C3  UNL d   1       0.163  -0.636   0.873  0.00  0.00    -0.075 A 
ATOM      5  S   UNL d   1      -1.088  -0.095  -0.182  0.00  0.00     0.015 SA
ATOM      6  C4  UNL d   1      -0.215   1.301  -0.623  0.00  0.00     0.022 A 
ATOM      7  C5  UNL d   1       1.003   1.369   0.010  0.00  0.00     0.026 A 
ATOM      8  C6  UNL d   1       1.242   0.253   0.882  0.00  0.00    -0.082 A 
ATOM      9  C7  UNL d   1       2.353  -0.054   1.703  0.00  0.00     0.045 A 
ENDROOT
TORSDOF 0
ENDMDL
