MODEL 1
REMARK minimizedAffinity 5.23662949
REMARK minimizedRMSD -1
REMARK  0 active torsions:
REMARK  status: ('A' for Active; 'I' for Inactive)
ROOT
ATOM      1  C   UNL d   1       2.384   1.662   1.064  0.00  0.00    -0.002 A 
ATOM      2  C1  UNL d   1       1.590   2.465   0.258  0.00  0.00     0.010 A 
ATOM      3  C2  UNL d   1       0.368   1.996  -0.228  0.00  0.00     0.041 A 
ATOM      4  C3  UNL d   1      -0.047   0.694   0.115  0.00  0.00    -0.075 A 
ATOM      5  S   UNL d   1      -1.505  -0.092  -0.364  0.00  0.00     0.015 SA
ATOM      6  C4  UNL d   1      -1.108  -1.512   0.492  0.00  0.00     0.022 A 
ATOM      7  C5  UNL d   1       0.104  -1.406   1.133  0.00  0.00     0.026 A 
ATOM      8  C6  UNL d   1       0.735  -0.133   0.926  0.00  0.00    -0.082 A 
ATOM      9  C7  UNL d   1       1.969   0.372   1.403  0.00  0.00     0.045 A 
ENDROOT
TORSDOF 0
ENDMDL
