MODEL 1
REMARK minimizedAffinity -4.22933817
REMARK minimizedRMSD -1
REMARK  0 active torsions:
REMARK  status: ('A' for Active; 'I' for Inactive)
ROOT
ATOM      1  O1  BZF d   1       0.606  -1.055  -0.150  0.00  0.00    -0.204 OA
ATOM      2  C2  BZF d   1       0.314  -0.858  -1.486  0.00  0.00     0.174 A 
ATOM      3  C3  BZF d   1      -0.564   0.155  -1.639  0.00  0.00    -0.012 A 
ATOM      4  C3A BZF d   1      -0.767   0.679  -0.324  0.00  0.00    -0.107 A 
ATOM      5  C4  BZF d   1      -1.519   1.705   0.173  0.00  0.00     0.055 A 
ATOM      6  C5  BZF d   1      -1.553   1.910   1.516  0.00  0.00    -0.016 A 
ATOM      7  C6  BZF d   1      -0.852   1.106   2.391  0.00  0.00     0.022 A 
ATOM      8  C7  BZF d   1      -0.088   0.080   1.945  0.00  0.00     0.029 A 
ATOM      9  C7A BZF d   1      -0.025  -0.110   0.586  0.00  0.00     0.058 A 
ENDROOT
TORSDOF 0
ENDMDL
