MODEL 1
REMARK minimizedAffinity -5.35927725
REMARK minimizedRMSD -1
REMARK  0 active torsions:
REMARK  status: ('A' for Active; 'I' for Inactive)
ROOT
ATOM      1  O1  BZF d   1       0.652   0.917  -1.437  0.00  0.00    -0.204 OA
ATOM      2  C2  BZF d   1       1.431  -0.217  -1.314  0.00  0.00     0.174 A 
ATOM      3  C3  BZF d   1       1.220  -0.816  -0.124  0.00  0.00    -0.012 A 
ATOM      4  C3A BZF d   1       0.181  -0.056   0.500  0.00  0.00    -0.107 A 
ATOM      5  C4  BZF d   1      -0.476  -0.166   1.693  0.00  0.00     0.055 A 
ATOM      6  C5  BZF d   1      -1.388   0.782   2.034  0.00  0.00    -0.016 A 
ATOM      7  C6  BZF d   1      -1.665   1.854   1.211  0.00  0.00     0.022 A 
ATOM      8  C7  BZF d   1      -1.042   2.003   0.016  0.00  0.00     0.029 A 
ATOM      9  C7A BZF d   1      -0.144   1.029  -0.347  0.00  0.00     0.058 A 
ENDROOT
TORSDOF 0
ENDMDL
