MODEL 1
REMARK minimizedAffinity 1.64044523
REMARK minimizedRMSD -1
REMARK  0 active torsions:
REMARK  status: ('A' for Active; 'I' for Inactive)
ROOT
ATOM      1  O1  BZF d   1       1.129   1.552  -1.690  0.00  0.00    -0.204 OA
ATOM      2  C2  BZF d   1       0.368   2.635  -2.088  0.00  0.00     0.174 A 
ATOM      3  C3  BZF d   1      -0.897   2.524  -1.632  0.00  0.00    -0.012 A 
ATOM      4  C3A BZF d   1      -0.904   1.341  -0.827  0.00  0.00    -0.107 A 
ATOM      5  C4  BZF d   1      -1.868   0.712  -0.092  0.00  0.00     0.055 A 
ATOM      6  C5  BZF d   1      -1.570  -0.465   0.518  0.00  0.00    -0.016 A 
ATOM      7  C6  BZF d   1      -0.322  -1.044   0.410  0.00  0.00     0.022 A 
ATOM      8  C7  BZF d   1       0.667  -0.454  -0.304  0.00  0.00     0.029 A 
ATOM      9  C7A BZF d   1       0.379   0.752  -0.894  0.00  0.00     0.058 A 
ENDROOT
TORSDOF 0
ENDMDL
