MODEL 1
REMARK minimizedAffinity -5.01421547
REMARK minimizedRMSD -1
REMARK  0 active torsions:
REMARK  status: ('A' for Active; 'I' for Inactive)
ROOT
ATOM      1  O1  BZF d   1      -0.977  -0.226  -1.461  0.00  0.00    -0.204 OA
ATOM      2  C2  BZF d   1      -0.017  -1.218  -1.428  0.00  0.00     0.174 A 
ATOM      3  C3  BZF d   1       0.552  -1.292  -0.208  0.00  0.00    -0.012 A 
ATOM      4  C3A BZF d   1      -0.157  -0.346   0.597  0.00  0.00    -0.107 A 
ATOM      5  C4  BZF d   1      -0.065   0.030   1.907  0.00  0.00     0.055 A 
ATOM      6  C5  BZF d   1      -0.856   1.036   2.363  0.00  0.00    -0.016 A 
ATOM      7  C6  BZF d   1      -1.746   1.691   1.537  0.00  0.00     0.022 A 
ATOM      8  C7  BZF d   1      -1.877   1.351   0.232  0.00  0.00     0.029 A 
ATOM      9  C7A BZF d   1      -1.102   0.312  -0.224  0.00  0.00     0.058 A 
ENDROOT
TORSDOF 0
ENDMDL
