MODEL 1
REMARK minimizedAffinity -3.89601183
REMARK minimizedRMSD -1
REMARK  0 active torsions:
REMARK  status: ('A' for Active; 'I' for Inactive)
ROOT
ATOM      1  O1  BZF d   1       0.986   1.987  -1.600  0.00  0.00    -0.204 OA
ATOM      2  C2  BZF d   1       0.781   3.234  -2.158  0.00  0.00     0.174 A 
ATOM      3  C3  BZF d   1      -0.349   3.793  -1.677  0.00  0.00    -0.012 A 
ATOM      4  C3A BZF d   1      -0.834   2.874  -0.693  0.00  0.00    -0.107 A 
ATOM      5  C4  BZF d   1      -1.914   2.878   0.143  0.00  0.00     0.055 A 
ATOM      6  C5  BZF d   1      -2.143   1.795   0.931  0.00  0.00    -0.016 A 
ATOM      7  C6  BZF d   1      -1.317   0.690   0.904  0.00  0.00     0.022 A 
ATOM      8  C7  BZF d   1      -0.231   0.642   0.094  0.00  0.00     0.029 A 
ATOM      9  C7A BZF d   1       0.022   1.749  -0.679  0.00  0.00     0.058 A 
ENDROOT
TORSDOF 0
ENDMDL
