MODEL 1
REMARK minimizedAffinity -1.54668891
REMARK minimizedRMSD -1
REMARK  0 active torsions:
REMARK  status: ('A' for Active; 'I' for Inactive)
ROOT
ATOM      1  O1  BZF d   1       1.257  -0.741  -1.210  0.00  0.00    -0.204 OA
ATOM      2  C2  BZF d   1       0.840  -1.725  -0.335  0.00  0.00     0.174 A 
ATOM      3  C3  BZF d   1      -0.184  -1.287   0.424  0.00  0.00    -0.012 A 
ATOM      4  C3A BZF d   1      -0.483   0.024  -0.066  0.00  0.00    -0.107 A 
ATOM      5  C4  BZF d   1      -1.413   0.964   0.274  0.00  0.00     0.055 A 
ATOM      6  C5  BZF d   1      -1.392   2.170  -0.352  0.00  0.00    -0.016 A 
ATOM      7  C6  BZF d   1      -0.453   2.472  -1.316  0.00  0.00     0.022 A 
ATOM      8  C7  BZF d   1       0.486   1.569  -1.691  0.00  0.00     0.029 A 
ATOM      9  C7A BZF d   1       0.447   0.338  -1.084  0.00  0.00     0.058 A 
ENDROOT
TORSDOF 0
ENDMDL
