MODEL 1
REMARK minimizedAffinity -5.21733522
REMARK minimizedRMSD -1
REMARK  0 active torsions:
REMARK  status: ('A' for Active; 'I' for Inactive)
ROOT
ATOM      1  O1  BZF d   1       1.042  -0.304   1.126  0.00  0.00    -0.204 OA
ATOM      2  C2  BZF d   1       1.127  -1.000  -0.065  0.00  0.00     0.174 A 
ATOM      3  C3  BZF d   1       0.099  -0.683  -0.878  0.00  0.00    -0.012 A 
ATOM      4  C3A BZF d   1      -0.626   0.339  -0.188  0.00  0.00    -0.107 A 
ATOM      5  C4  BZF d   1      -1.740   1.069  -0.492  0.00  0.00     0.055 A 
ATOM      6  C5  BZF d   1      -2.233   1.937   0.429  0.00  0.00    -0.016 A 
ATOM      7  C6  BZF d   1      -1.642   2.096   1.666  0.00  0.00     0.022 A 
ATOM      8  C7  BZF d   1      -0.533   1.399   2.011  0.00  0.00     0.029 A 
ATOM      9  C7A BZF d   1      -0.013   0.545   1.069  0.00  0.00     0.058 A 
ENDROOT
TORSDOF 0
ENDMDL
