MODEL 1
REMARK minimizedAffinity -4.35921907
REMARK minimizedRMSD -1
REMARK  0 active torsions:
REMARK  status: ('A' for Active; 'I' for Inactive)
ROOT
ATOM      1  O1  BZF d   1       1.222  -0.366   1.045  0.00  0.00    -0.204 OA
ATOM      2  C2  BZF d   1       1.616  -0.212  -0.270  0.00  0.00     0.174 A 
ATOM      3  C3  BZF d   1       0.642   0.376  -0.995  0.00  0.00    -0.012 A 
ATOM      4  C3A BZF d   1      -0.391   0.687  -0.055  0.00  0.00    -0.107 A 
ATOM      5  C4  BZF d   1      -1.609   1.294  -0.166  0.00  0.00     0.055 A 
ATOM      6  C5  BZF d   1      -2.408   1.378   0.931  0.00  0.00    -0.016 A 
ATOM      7  C6  BZF d   1      -2.022   0.861   2.151  0.00  0.00     0.022 A 
ATOM      8  C7  BZF d   1      -0.821   0.255   2.311  0.00  0.00     0.029 A 
ATOM      9  C7A BZF d   1       0.002   0.199   1.212  0.00  0.00     0.058 A 
ENDROOT
TORSDOF 0
ENDMDL
