MODEL 1
REMARK minimizedAffinity -4.99183226
REMARK minimizedRMSD -1
REMARK  0 active torsions:
REMARK  status: ('A' for Active; 'I' for Inactive)
ROOT
ATOM      1  O1  BZF d   1      -0.883  -0.153  -0.862  0.00  0.00    -0.204 OA
ATOM      2  C2  BZF d   1       0.079  -1.115  -0.624  0.00  0.00     0.174 A 
ATOM      3  C3  BZF d   1       0.616  -0.961   0.603  0.00  0.00    -0.012 A 
ATOM      4  C3A BZF d   1      -0.116   0.111   1.203  0.00  0.00    -0.107 A 
ATOM      5  C4  BZF d   1      -0.059   0.720   2.424  0.00  0.00     0.055 A 
ATOM      6  C5  BZF d   1      -0.864   1.787   2.669  0.00  0.00    -0.016 A 
ATOM      7  C6  BZF d   1      -1.734   2.274   1.716  0.00  0.00     0.022 A 
ATOM      8  C7  BZF d   1      -1.831   1.700   0.492  0.00  0.00     0.029 A 
ATOM      9  C7A BZF d   1      -1.042   0.601   0.252  0.00  0.00     0.058 A 
ENDROOT
TORSDOF 0
ENDMDL
