MODEL 1
REMARK minimizedAffinity -3.27740574
REMARK minimizedRMSD -1
REMARK  0 active torsions:
REMARK  status: ('A' for Active; 'I' for Inactive)
ROOT
ATOM      1  O1  BZF d   1       1.016  -0.025   1.263  0.00  0.00    -0.204 OA
ATOM      2  C2  BZF d   1       1.102  -0.664   0.041  0.00  0.00     0.174 A 
ATOM      3  C3  BZF d   1      -0.009  -0.446  -0.692  0.00  0.00    -0.012 A 
ATOM      4  C3A BZF d   1      -0.802   0.457   0.085  0.00  0.00    -0.107 A 
ATOM      5  C4  BZF d   1      -2.012   1.056  -0.118  0.00  0.00     0.055 A 
ATOM      6  C5  BZF d   1      -2.541   1.826   0.869  0.00  0.00    -0.016 A 
ATOM      7  C6  BZF d   1      -1.891   2.013   2.072  0.00  0.00     0.022 A 
ATOM      8  C7  BZF d   1      -0.686   1.443   2.317  0.00  0.00     0.029 A 
ATOM      9  C7A BZF d   1      -0.133   0.692   1.309  0.00  0.00     0.058 A 
ENDROOT
TORSDOF 0
ENDMDL
