MODEL 1
REMARK minimizedAffinity -4.84805536
REMARK minimizedRMSD -1
REMARK  0 active torsions:
REMARK  status: ('A' for Active; 'I' for Inactive)
ROOT
ATOM      1  O1  BZF d   1       1.305  -0.060  -0.046  0.00  0.00    -0.204 OA
ATOM      2  C2  BZF d   1       1.255   0.713  -1.191  0.00  0.00     0.174 A 
ATOM      3  C3  BZF d   1       0.115   1.432  -1.232  0.00  0.00    -0.012 A 
ATOM      4  C3A BZF d   1      -0.548   1.158   0.006  0.00  0.00    -0.107 A 
ATOM      5  C4  BZF d   1      -1.720   1.590   0.559  0.00  0.00     0.055 A 
ATOM      6  C5  BZF d   1      -2.116   1.075   1.752  0.00  0.00    -0.016 A 
ATOM      7  C6  BZF d   1      -1.370   0.123   2.416  0.00  0.00     0.022 A 
ATOM      8  C7  BZF d   1      -0.199  -0.332   1.909  0.00  0.00     0.029 A 
ATOM      9  C7A BZF d   1       0.221   0.211   0.720  0.00  0.00     0.058 A 
ENDROOT
TORSDOF 0
ENDMDL
