MODEL 1
REMARK minimizedAffinity -5.15274382
REMARK minimizedRMSD -1
REMARK  0 active torsions:
REMARK  status: ('A' for Active; 'I' for Inactive)
ROOT
ATOM      1  O1  BZF d   1       0.793   2.034  -0.895  0.00  0.00    -0.204 OA
ATOM      2  C2  BZF d   1       1.264   0.784  -1.245  0.00  0.00     0.174 A 
ATOM      3  C3  BZF d   1       0.816  -0.154  -0.386  0.00  0.00    -0.012 A 
ATOM      4  C3A BZF d   1      -0.060   0.541   0.506  0.00  0.00    -0.107 A 
ATOM      5  C4  BZF d   1      -0.822   0.148   1.569  0.00  0.00     0.055 A 
ATOM      6  C5  BZF d   1      -1.506   1.087   2.275  0.00  0.00    -0.016 A 
ATOM      7  C6  BZF d   1      -1.447   2.426   1.948  0.00  0.00     0.022 A 
ATOM      8  C7  BZF d   1      -0.708   2.863   0.899  0.00  0.00     0.029 A 
ATOM      9  C7A BZF d   1      -0.042   1.913   0.165  0.00  0.00     0.058 A 
ENDROOT
TORSDOF 0
ENDMDL
