MODEL 1
REMARK minimizedAffinity -3.55109787
REMARK minimizedRMSD -1
REMARK  0 active torsions:
REMARK  status: ('A' for Active; 'I' for Inactive)
ROOT
ATOM      1  O1  BZF d   1      -0.153  -0.569  -1.972  0.00  0.00    -0.204 OA
ATOM      2  C2  BZF d   1       0.391  -0.339  -0.723  0.00  0.00     0.174 A 
ATOM      3  C3  BZF d   1       1.072  -1.420  -0.292  0.00  0.00    -0.012 A 
ATOM      4  C3A BZF d   1       1.023  -2.353  -1.376  0.00  0.00    -0.107 A 
ATOM      5  C4  BZF d   1       1.532  -3.607  -1.559  0.00  0.00     0.055 A 
ATOM      6  C5  BZF d   1       1.242  -4.276  -2.706  0.00  0.00    -0.016 A 
ATOM      7  C6  BZF d   1       0.444  -3.725  -3.686  0.00  0.00     0.022 A 
ATOM      8  C7  BZF d   1      -0.080  -2.482  -3.552  0.00  0.00     0.029 A 
ATOM      9  C7A BZF d   1       0.238  -1.790  -2.409  0.00  0.00     0.058 A 
ENDROOT
TORSDOF 0
ENDMDL
