MODEL 1
REMARK minimizedAffinity -4.68698359
REMARK minimizedRMSD -1
REMARK  1 active torsions:
REMARK  status: ('A' for Active; 'I' for Inactive)
REMARK    1  A    between atoms: C1_2  and  C2_3 
ROOT
ATOM      1  C2  UNL d   1       2.792   4.857   4.224  0.00  0.00    -0.077 A 
ATOM      2  C3  UNL d   1       3.596   5.999   4.115  0.00  0.00     0.002 A 
ATOM      3  C4  UNL d   1       4.844   5.928   3.492  0.00  0.00     0.002 A 
ATOM      4  C5  UNL d   1       5.296   4.717   2.971  0.00  0.00    -0.004 A 
ATOM      5  C6  UNL d   1       4.503   3.575   3.076  0.00  0.00     0.002 A 
ATOM      6  C7  UNL d   1       3.257   3.644   3.699  0.00  0.00     0.002 A 
ENDROOT
BRANCH   1   7
ATOM      7  C1  UNL d   1       1.425   4.943   4.852  0.00  0.00     0.055 C 
ATOM      8  C   UNL d   1       0.459   5.722   3.970  0.00  0.00     0.019 C 
ENDBRANCH   1   7
TORSDOF 1
ENDMDL
