MODEL 1
REMARK minimizedAffinity 0.447735757
REMARK minimizedRMSD -1
REMARK  1 active torsions:
REMARK  status: ('A' for Active; 'I' for Inactive)
REMARK    1  A    between atoms: C1_2  and  C2_3 
ROOT
ATOM      1  C2  UNL d   1       0.698   3.819   2.228  0.00  0.00    -0.077 A 
ATOM      2  C3  UNL d   1       1.877   3.248   2.728  0.00  0.00     0.002 A 
ATOM      3  C4  UNL d   1       2.848   4.047   3.334  0.00  0.00     0.002 A 
ATOM      4  C5  UNL d   1       2.648   5.421   3.450  0.00  0.00    -0.004 A 
ATOM      5  C6  UNL d   1       1.480   6.000   2.955  0.00  0.00     0.002 A 
ATOM      6  C7  UNL d   1       0.509   5.202   2.348  0.00  0.00     0.002 A 
ENDROOT
BRANCH   1   7
ATOM      7  C1  UNL d   1      -0.372   2.952   1.619  0.00  0.00     0.055 C 
ATOM      8  C   UNL d   1      -0.024   1.476   1.740  0.00  0.00     0.019 C 
ENDBRANCH   1   7
TORSDOF 1
ENDMDL
