MODEL 1
REMARK minimizedAffinity 4.0668273
REMARK minimizedRMSD -1
REMARK  1 active torsions:
REMARK  status: ('A' for Active; 'I' for Inactive)
REMARK    1  A    between atoms: C1_2  and  C2_3 
ROOT
ATOM      1  C2  UNL d   1       3.841   2.994   3.050  0.00  0.00    -0.077 A 
ATOM      2  C3  UNL d   1       3.355   4.309   3.017  0.00  0.00     0.002 A 
ATOM      3  C4  UNL d   1       2.729   4.859   4.137  0.00  0.00     0.002 A 
ATOM      4  C5  UNL d   1       2.587   4.103   5.299  0.00  0.00    -0.004 A 
ATOM      5  C6  UNL d   1       3.064   2.794   5.341  0.00  0.00     0.002 A 
ATOM      6  C7  UNL d   1       3.689   2.242   4.222  0.00  0.00     0.002 A 
ENDROOT
BRANCH   1   7
ATOM      7  C1  UNL d   1       4.560   2.416   1.860  0.00  0.00     0.055 C 
ATOM      8  C   UNL d   1       3.698   1.394   1.134  0.00  0.00     0.019 C 
ENDBRANCH   1   7
TORSDOF 1
ENDMDL
