MODEL 1
REMARK minimizedAffinity 0.670721173
REMARK minimizedRMSD -1
REMARK  1 active torsions:
REMARK  status: ('A' for Active; 'I' for Inactive)
REMARK    1  A    between atoms: C1_2  and  C2_3 
ROOT
ATOM      1  C2  UNL d   1       3.886   1.502   1.568  0.00  0.00    -0.077 A 
ATOM      2  C3  UNL d   1       4.194   0.134   1.578  0.00  0.00     0.002 A 
ATOM      3  C4  UNL d   1       3.568  -0.737   0.685  0.00  0.00     0.002 A 
ATOM      4  C5  UNL d   1       2.633  -0.251  -0.227  0.00  0.00    -0.004 A 
ATOM      5  C6  UNL d   1       2.319   1.108  -0.244  0.00  0.00     0.002 A 
ATOM      6  C7  UNL d   1       2.943   1.980   0.649  0.00  0.00     0.002 A 
ENDROOT
BRANCH   1   7
ATOM      7  C1  UNL d   1       4.596   2.452   2.497  0.00  0.00     0.055 C 
ATOM      8  C   UNL d   1       3.690   2.891   3.638  0.00  0.00     0.019 C 
ENDBRANCH   1   7
TORSDOF 1
ENDMDL
