MODEL 1
REMARK minimizedAffinity 6.03429556
REMARK minimizedRMSD -1
REMARK  1 active torsions:
REMARK  status: ('A' for Active; 'I' for Inactive)
REMARK    1  A    between atoms: C1_2  and  C2_3 
ROOT
ATOM      1  C2  UNL d   1       3.463   1.063  -0.143  0.00  0.00    -0.077 A 
ATOM      2  C3  UNL d   1       4.448   1.448   0.777  0.00  0.00     0.002 A 
ATOM      3  C4  UNL d   1       5.711   1.846   0.334  0.00  0.00     0.002 A 
ATOM      4  C5  UNL d   1       5.999   1.866  -1.029  0.00  0.00    -0.004 A 
ATOM      5  C6  UNL d   1       5.027   1.483  -1.952  0.00  0.00     0.002 A 
ATOM      6  C7  UNL d   1       3.765   1.084  -1.511  0.00  0.00     0.002 A 
ENDROOT
BRANCH   1   7
ATOM      7  C1  UNL d   1       2.085   0.680   0.329  0.00  0.00     0.055 C 
ATOM      8  C   UNL d   1       1.007   1.386  -0.480  0.00  0.00     0.019 C 
ENDBRANCH   1   7
TORSDOF 1
ENDMDL
