MODEL 1
REMARK minimizedAffinity -0.023694206
REMARK minimizedRMSD -1
REMARK  1 active torsions:
REMARK  status: ('A' for Active; 'I' for Inactive)
REMARK    1  A    between atoms: C1_2  and  C2_3 
ROOT
ATOM      1  C2  UNL d   1       2.719  -0.776  -0.280  0.00  0.00    -0.077 A 
ATOM      2  C3  UNL d   1       1.957   0.381  -0.063  0.00  0.00     0.002 A 
ATOM      3  C4  UNL d   1       2.544   1.643  -0.173  0.00  0.00     0.002 A 
ATOM      4  C5  UNL d   1       3.892   1.760  -0.504  0.00  0.00    -0.004 A 
ATOM      5  C6  UNL d   1       4.658   0.615  -0.719  0.00  0.00     0.002 A 
ATOM      6  C7  UNL d   1       4.074  -0.647  -0.608  0.00  0.00     0.002 A 
ENDROOT
BRANCH   1   7
ATOM      7  C1  UNL d   1       2.076  -2.137  -0.210  0.00  0.00     0.055 C 
ATOM      8  C   UNL d   1       0.961  -2.276  -1.236  0.00  0.00     0.019 C 
ENDBRANCH   1   7
TORSDOF 1
ENDMDL
