MODEL 1
REMARK minimizedAffinity 2.58522201
REMARK minimizedRMSD -1
REMARK  0 active torsions:
REMARK  status: ('A' for Active; 'I' for Inactive)
ROOT
ATOM      1  N1  IND d   1       1.068  -0.656  -1.402  0.00  0.00    -0.196 N 
ATOM      2  C2  IND d   1      -0.045  -0.053  -1.918  0.00  0.00     0.054 A 
ATOM      3  C3  IND d   1      -0.549   0.839  -1.037  0.00  0.00    -0.031 A 
ATOM      4  C4  IND d   1       0.350   1.545   1.270  0.00  0.00     0.051 A 
ATOM      5  C5  IND d   1       1.320   1.247   2.186  0.00  0.00    -0.031 A 
ATOM      6  C6  IND d   1       2.277   0.282   1.946  0.00  0.00     0.015 A 
ATOM      7  C7  IND d   1       2.306  -0.417   0.772  0.00  0.00    -0.016 A 
ATOM      8  C8  IND d   1       1.318  -0.122  -0.157  0.00  0.00    -0.047 A 
ATOM      9  C9  IND d   1       0.319   0.827   0.098  0.00  0.00    -0.096 A 
ATOM     10  HN1 IND d   1       1.534  -1.266  -1.789  0.00  0.00     0.298 HD
ENDROOT
TORSDOF 0
ENDMDL
