MODEL 1
REMARK minimizedAffinity -2.439291
REMARK minimizedRMSD -1
REMARK  0 active torsions:
REMARK  status: ('A' for Active; 'I' for Inactive)
ROOT
ATOM      1  N1  IND d   1       0.196  -0.566  -0.455  0.00  0.00    -0.196 N 
ATOM      2  C2  IND d   1      -1.061  -0.607  -0.991  0.00  0.00     0.054 A 
ATOM      3  C3  IND d   1      -1.957  -0.075  -0.130  0.00  0.00    -0.031 A 
ATOM      4  C4  IND d   1      -1.567   1.015   2.170  0.00  0.00     0.051 A 
ATOM      5  C5  IND d   1      -0.592   1.253   3.097  0.00  0.00    -0.031 A 
ATOM      6  C6  IND d   1       0.722   0.892   2.883  0.00  0.00     0.015 A 
ATOM      7  C7  IND d   1       1.115   0.287   1.722  0.00  0.00    -0.016 A 
ATOM      8  C8  IND d   1       0.126   0.037   0.781  0.00  0.00    -0.047 A 
ATOM      9  C9  IND d   1      -1.217   0.362   1.011  0.00  0.00    -0.096 A 
ATOM     10  HN1 IND d   1       0.910  -0.867  -0.828  0.00  0.00     0.298 HD
ENDROOT
TORSDOF 0
ENDMDL
