MODEL 1
REMARK minimizedAffinity -0.0430260859
REMARK minimizedRMSD -1
REMARK  0 active torsions:
REMARK  status: ('A' for Active; 'I' for Inactive)
ROOT
ATOM      1  N1  IND d   1       2.164  -1.348   0.014  0.00  0.00    -0.196 N 
ATOM      2  C2  IND d   1       2.839  -1.024   1.158  0.00  0.00     0.054 A 
ATOM      3  C3  IND d   1       2.133  -0.127   1.882  0.00  0.00    -0.031 A 
ATOM      4  C4  IND d   1      -0.198   0.868   1.431  0.00  0.00     0.051 A 
ATOM      5  C5  IND d   1      -1.192   0.901   0.493  0.00  0.00    -0.031 A 
ATOM      6  C6  IND d   1      -1.118   0.169  -0.674  0.00  0.00     0.015 A 
ATOM      7  C7  IND d   1      -0.047  -0.636  -0.943  0.00  0.00    -0.016 A 
ATOM      8  C8  IND d   1       0.968  -0.666   0.003  0.00  0.00    -0.047 A 
ATOM      9  C9  IND d   1       0.917   0.107   1.170  0.00  0.00    -0.096 A 
ATOM     10  HN1 IND d   1       2.441  -1.888  -0.596  0.00  0.00     0.298 HD
ENDROOT
TORSDOF 0
ENDMDL
