MODEL 1
REMARK minimizedAffinity -1.62129354
REMARK minimizedRMSD -1
REMARK  0 active torsions:
REMARK  status: ('A' for Active; 'I' for Inactive)
ROOT
ATOM      1  N1  IND d   1       1.204   1.098   0.296  0.00  0.00    -0.196 N 
ATOM      2  C2  IND d   1       2.032   0.031   0.510  0.00  0.00     0.054 A 
ATOM      3  C3  IND d   1       1.352  -1.128   0.365  0.00  0.00    -0.031 A 
ATOM      4  C4  IND d   1      -1.099  -1.512  -0.321  0.00  0.00     0.051 A 
ATOM      5  C5  IND d   1      -2.261  -0.843  -0.586  0.00  0.00    -0.031 A 
ATOM      6  C6  IND d   1      -2.328   0.535  -0.573  0.00  0.00     0.015 A 
ATOM      7  C7  IND d   1      -1.228   1.299  -0.304  0.00  0.00    -0.016 A 
ATOM      8  C8  IND d   1      -0.048   0.623  -0.028  0.00  0.00    -0.047 A 
ATOM      9  C9  IND d   1       0.016  -0.776   0.003  0.00  0.00    -0.096 A 
ATOM     10  HN1 IND d   1       1.428   1.926   0.355  0.00  0.00     0.298 HD
ENDROOT
TORSDOF 0
ENDMDL
