MODEL 1
REMARK minimizedAffinity 1.07630014
REMARK minimizedRMSD -1
REMARK  0 active torsions:
REMARK  status: ('A' for Active; 'I' for Inactive)
ROOT
ATOM      1  N1  IND d   1      -0.642  -1.099  -1.194  0.00  0.00    -0.196 N 
ATOM      2  C2  IND d   1      -1.905  -0.915  -1.683  0.00  0.00     0.054 A 
ATOM      3  C3  IND d   1      -2.717  -0.430  -0.716  0.00  0.00    -0.031 A 
ATOM      4  C4  IND d   1      -2.158   0.231   1.709  0.00  0.00     0.051 A 
ATOM      5  C5  IND d   1      -1.145   0.209   2.625  0.00  0.00    -0.031 A 
ATOM      6  C6  IND d   1       0.115  -0.257   2.308  0.00  0.00     0.015 A 
ATOM      7  C7  IND d   1       0.412  -0.710   1.053  0.00  0.00    -0.016 A 
ATOM      8  C8  IND d   1      -0.617  -0.696   0.122  0.00  0.00    -0.047 A 
ATOM      9  C9  IND d   1      -1.909  -0.264   0.451  0.00  0.00    -0.096 A 
ATOM     10  HN1 IND d   1       0.025  -1.415  -1.636  0.00  0.00     0.298 HD
ENDROOT
TORSDOF 0
ENDMDL
