MODEL 1
REMARK minimizedAffinity 2.15919971
REMARK minimizedRMSD -1
REMARK  0 active torsions:
REMARK  status: ('A' for Active; 'I' for Inactive)
ROOT
ATOM      1  N1  IND d   1      -1.592  -1.010   2.682  0.00  0.00    -0.196 N 
ATOM      2  C2  IND d   1      -2.230  -1.594   3.741  0.00  0.00     0.054 A 
ATOM      3  C3  IND d   1      -1.329  -2.082   4.623  0.00  0.00    -0.031 A 
ATOM      4  C4  IND d   1       1.241  -1.944   4.581  0.00  0.00     0.051 A 
ATOM      5  C5  IND d   1       2.285  -1.539   3.798  0.00  0.00    -0.031 A 
ATOM      6  C6  IND d   1       2.087  -0.922   2.580  0.00  0.00     0.015 A 
ATOM      7  C7  IND d   1       0.830  -0.676   2.102  0.00  0.00    -0.016 A 
ATOM      8  C8  IND d   1      -0.232  -1.092   2.891  0.00  0.00    -0.047 A 
ATOM      9  C9  IND d   1      -0.037  -1.757   4.109  0.00  0.00    -0.096 A 
ATOM     10  HN1 IND d   1      -1.974  -0.653   2.001  0.00  0.00     0.298 HD
ENDROOT
TORSDOF 0
ENDMDL
