MODEL 1
REMARK minimizedAffinity 6.39242506
REMARK minimizedRMSD -1
REMARK  0 active torsions:
REMARK  status: ('A' for Active; 'I' for Inactive)
ROOT
ATOM      1  N1  IND d   1       2.877   4.663   1.080  0.00  0.00    -0.196 N 
ATOM      2  C2  IND d   1       2.402   3.455   0.651  0.00  0.00     0.054 A 
ATOM      3  C3  IND d   1       2.853   2.462   1.450  0.00  0.00    -0.031 A 
ATOM      4  C4  IND d   1       4.297   2.602   3.577  0.00  0.00     0.051 A 
ATOM      5  C5  IND d   1       5.003   3.487   4.343  0.00  0.00    -0.031 A 
ATOM      6  C6  IND d   1       5.034   4.837   4.057  0.00  0.00     0.015 A 
ATOM      7  C7  IND d   1       4.349   5.356   2.995  0.00  0.00    -0.016 A 
ATOM      8  C8  IND d   1       3.637   4.459   2.211  0.00  0.00    -0.047 A 
ATOM      9  C9  IND d   1       3.636   3.083   2.471  0.00  0.00    -0.096 A 
ATOM     10  HN1 IND d   1       2.726   5.423   0.706  0.00  0.00     0.298 HD
ENDROOT
TORSDOF 0
ENDMDL
