MODEL 1
REMARK minimizedAffinity 7.96677637
REMARK minimizedRMSD -1
REMARK  0 active torsions:
REMARK  status: ('A' for Active; 'I' for Inactive)
ROOT
ATOM      1  N1  IND d   1      -1.950  -5.515  -5.993  0.00  0.00    -0.196 N 
ATOM      2  C2  IND d   1      -0.618  -5.820  -5.990  0.00  0.00     0.054 A 
ATOM      3  C3  IND d   1       0.124  -4.689  -6.000  0.00  0.00    -0.031 A 
ATOM      4  C4  IND d   1      -0.640  -2.232  -5.918  0.00  0.00     0.051 A 
ATOM      5  C5  IND d   1      -1.762  -1.451  -5.947  0.00  0.00    -0.031 A 
ATOM      6  C6  IND d   1      -3.029  -1.996  -5.991  0.00  0.00     0.015 A 
ATOM      7  C7  IND d   1      -3.223  -3.348  -5.996  0.00  0.00    -0.016 A 
ATOM      8  C8  IND d   1      -2.086  -4.145  -5.974  0.00  0.00    -0.047 A 
ATOM      9  C9  IND d   1      -0.797  -3.597  -5.972  0.00  0.00    -0.096 A 
ATOM     10  HN1 IND d   1      -2.595  -6.084  -6.005  0.00  0.00     0.298 HD
ENDROOT
TORSDOF 0
ENDMDL
