MODEL 1
REMARK minimizedAffinity 3.56227255
REMARK minimizedRMSD -1
REMARK  0 active torsions:
REMARK  status: ('A' for Active; 'I' for Inactive)
ROOT
ATOM      1  N1  IND d   1       1.331  -0.843   2.886  0.00  0.00    -0.196 N 
ATOM      2  C2  IND d   1       1.123  -1.272   4.168  0.00  0.00     0.054 A 
ATOM      3  C3  IND d   1      -0.164  -1.068   4.529  0.00  0.00    -0.031 A 
ATOM      4  C4  IND d   1      -2.124  -0.139   3.142  0.00  0.00     0.051 A 
ATOM      5  C5  IND d   1      -2.416   0.420   1.930  0.00  0.00    -0.031 A 
ATOM      6  C6  IND d   1      -1.456   0.588   0.954  0.00  0.00     0.015 A 
ATOM      7  C7  IND d   1      -0.163   0.190   1.150  0.00  0.00    -0.016 A 
ATOM      8  C8  IND d   1       0.139  -0.372   2.383  0.00  0.00    -0.047 A 
ATOM      9  C9  IND d   1      -0.823  -0.506   3.393  0.00  0.00    -0.096 A 
ATOM     10  HN1 IND d   1       2.081  -0.864   2.466  0.00  0.00     0.298 HD
ENDROOT
TORSDOF 0
ENDMDL
