MODEL 1
REMARK minimizedAffinity 1.62584329
REMARK minimizedRMSD -1
REMARK  0 active torsions:
REMARK  status: ('A' for Active; 'I' for Inactive)
ROOT
ATOM      1  N1  IND d   1       1.129  -1.046   2.752  0.00  0.00    -0.196 N 
ATOM      2  C2  IND d   1       1.527  -0.064   1.887  0.00  0.00     0.054 A 
ATOM      3  C3  IND d   1       0.477   0.715   1.545  0.00  0.00    -0.031 A 
ATOM      4  C4  IND d   1      -1.963   0.624   2.361  0.00  0.00     0.051 A 
ATOM      5  C5  IND d   1      -2.816  -0.121   3.127  0.00  0.00    -0.031 A 
ATOM      6  C6  IND d   1      -2.388  -1.233   3.823  0.00  0.00     0.015 A 
ATOM      7  C7  IND d   1      -1.083  -1.637   3.788  0.00  0.00    -0.016 A 
ATOM      8  C8  IND d   1      -0.216  -0.887   3.006  0.00  0.00    -0.047 A 
ATOM      9  C9  IND d   1      -0.653   0.218   2.264  0.00  0.00    -0.096 A 
ATOM     10  HN1 IND d   1       1.633  -1.659   3.081  0.00  0.00     0.298 HD
ENDROOT
TORSDOF 0
ENDMDL
