MODEL 1
REMARK minimizedAffinity 2.16080284
REMARK minimizedRMSD -1
REMARK  0 active torsions:
REMARK  status: ('A' for Active; 'I' for Inactive)
ROOT
ATOM      1  N1  IND d   1       1.708  -1.287   2.834  0.00  0.00    -0.196 N 
ATOM      2  C2  IND d   1       1.376  -1.665   4.105  0.00  0.00     0.054 A 
ATOM      3  C3  IND d   1       0.095  -1.326   4.377  0.00  0.00    -0.031 A 
ATOM      4  C4  IND d   1      -1.668  -0.238   2.849  0.00  0.00     0.051 A 
ATOM      5  C5  IND d   1      -1.823   0.321   1.612  0.00  0.00    -0.031 A 
ATOM      6  C6  IND d   1      -0.790   0.371   0.699  0.00  0.00     0.015 A 
ATOM      7  C7  IND d   1       0.441  -0.148   0.987  0.00  0.00    -0.016 A 
ATOM      8  C8  IND d   1       0.604  -0.710   2.245  0.00  0.00    -0.047 A 
ATOM      9  C9  IND d   1      -0.429  -0.726   3.191  0.00  0.00    -0.096 A 
ATOM     10  HN1 IND d   1       2.477  -1.392   2.464  0.00  0.00     0.298 HD
ENDROOT
TORSDOF 0
ENDMDL
