MODEL 1
REMARK minimizedAffinity -0.651006758
REMARK minimizedRMSD -1
REMARK  0 active torsions:
REMARK  status: ('A' for Active; 'I' for Inactive)
ROOT
ATOM      1  N1  IND d   1       0.162  -2.320   4.633  0.00  0.00    -0.196 N 
ATOM      2  C2  IND d   1       1.212  -1.589   4.152  0.00  0.00     0.054 A 
ATOM      3  C3  IND d   1       0.775  -0.662   3.269  0.00  0.00    -0.031 A 
ATOM      4  C4  IND d   1      -1.631  -0.102   2.543  0.00  0.00     0.051 A 
ATOM      5  C5  IND d   1      -2.924  -0.522   2.684  0.00  0.00    -0.031 A 
ATOM      6  C6  IND d   1      -3.262  -1.582   3.500  0.00  0.00     0.015 A 
ATOM      7  C7  IND d   1      -2.316  -2.258   4.218  0.00  0.00    -0.016 A 
ATOM      8  C8  IND d   1      -1.001  -1.839   4.072  0.00  0.00    -0.047 A 
ATOM      9  C9  IND d   1      -0.647  -0.791   3.213  0.00  0.00    -0.096 A 
ATOM     10  HN1 IND d   1       0.218  -2.970   5.192  0.00  0.00     0.298 HD
ENDROOT
TORSDOF 0
ENDMDL
