MODEL 1
REMARK minimizedAffinity 2.43688178
REMARK minimizedRMSD -1
REMARK  0 active torsions:
REMARK  status: ('A' for Active; 'I' for Inactive)
ROOT
ATOM      1  N1  IND d   1       0.868  -4.336  -1.874  0.00  0.00    -0.196 N 
ATOM      2  C2  IND d   1       0.537  -3.041  -1.588  0.00  0.00     0.054 A 
ATOM      3  C3  IND d   1       0.087  -2.415  -2.698  0.00  0.00    -0.031 A 
ATOM      4  C4  IND d   1      -0.284  -3.352  -5.067  0.00  0.00     0.051 A 
ATOM      5  C5  IND d   1      -0.092  -4.473  -5.825  0.00  0.00    -0.031 A 
ATOM      6  C6  IND d   1       0.439  -5.630  -5.292  0.00  0.00     0.015 A 
ATOM      7  C7  IND d   1       0.788  -5.713  -3.974  0.00  0.00    -0.016 A 
ATOM      8  C8  IND d   1       0.600  -4.575  -3.204  0.00  0.00    -0.047 A 
ATOM      9  C9  IND d   1       0.102  -3.384  -3.748  0.00  0.00    -0.096 A 
ATOM     10  HN1 IND d   1       1.190  -4.906  -1.316  0.00  0.00     0.298 HD
ENDROOT
TORSDOF 0
ENDMDL
