MODEL 1
REMARK minimizedAffinity -3.67398548
REMARK minimizedRMSD -1
REMARK  0 active torsions:
REMARK  status: ('A' for Active; 'I' for Inactive)
ROOT
ATOM      1  N1  IND d   1       1.409  -2.244  -1.096  0.00  0.00    -0.196 N 
ATOM      2  C2  IND d   1       2.383  -1.771  -0.262  0.00  0.00     0.054 A 
ATOM      3  C3  IND d   1       1.891  -0.792   0.530  0.00  0.00    -0.031 A 
ATOM      4  C4  IND d   1      -0.510   0.123   0.697  0.00  0.00     0.051 A 
ATOM      5  C5  IND d   1      -1.742   0.029   0.113  0.00  0.00    -0.031 A 
ATOM      6  C6  IND d   1      -1.992  -0.847  -0.923  0.00  0.00     0.015 A 
ATOM      7  C7  IND d   1      -1.019  -1.674  -1.408  0.00  0.00    -0.016 A 
ATOM      8  C8  IND d   1       0.235  -1.576  -0.822  0.00  0.00    -0.047 A 
ATOM      9  C9  IND d   1       0.507  -0.659   0.201  0.00  0.00    -0.096 A 
ATOM     10  HN1 IND d   1       1.511  -2.856  -1.691  0.00  0.00     0.298 HD
ENDROOT
TORSDOF 0
ENDMDL
