MODEL 1
REMARK minimizedAffinity -3.32647777
REMARK minimizedRMSD -1
REMARK  0 active torsions:
REMARK  status: ('A' for Active; 'I' for Inactive)
ROOT
ATOM      1  C   UNL d   1      -0.105  -0.880   0.692  0.00  0.00     0.077 C 
ATOM      2  C1  UNL d   1       0.519   0.386   0.184  0.00  0.00    -0.074 A 
ATOM      3  C2  UNL d   1       0.190   0.893  -1.077  0.00  0.00    -0.005 A 
ATOM      4  C3  UNL d   1       0.772   2.077  -1.532  0.00  0.00     0.006 A 
ATOM      5  C4  UNL d   1       1.687   2.763  -0.733  0.00  0.00    -0.005 A 
ATOM      6  C5  UNL d   1       2.027   2.271   0.531  0.00  0.00    -0.074 A 
ATOM      7  C6  UNL d   1       3.001   3.001   1.407  0.00  0.00     0.077 C 
ATOM      8  C7  UNL d   1       1.433   1.085   0.985  0.00  0.00    -0.001 A 
ENDROOT
TORSDOF 0
ENDMDL
