MODEL 1
REMARK minimizedAffinity -4.68094158
REMARK minimizedRMSD -1
REMARK  0 active torsions:
REMARK  status: ('A' for Active; 'I' for Inactive)
ROOT
ATOM      1  C   UNL d   1      -2.465   0.332   2.090  0.00  0.00     0.077 C 
ATOM      2  C1  UNL d   1      -1.383  -0.020   1.113  0.00  0.00    -0.074 A 
ATOM      3  C2  UNL d   1      -0.861   0.942   0.242  0.00  0.00    -0.005 A 
ATOM      4  C3  UNL d   1       0.153   0.603  -0.654  0.00  0.00     0.006 A 
ATOM      5  C4  UNL d   1       0.654  -0.699  -0.688  0.00  0.00    -0.005 A 
ATOM      6  C5  UNL d   1       0.145  -1.674   0.176  0.00  0.00    -0.074 A 
ATOM      7  C6  UNL d   1       0.679  -3.075   0.159  0.00  0.00     0.077 C 
ATOM      8  C7  UNL d   1      -0.869  -1.323   1.078  0.00  0.00    -0.001 A 
ENDROOT
TORSDOF 0
ENDMDL
