MODEL 1
REMARK minimizedAffinity -4.3146615
REMARK minimizedRMSD -1
REMARK  0 active torsions:
REMARK  status: ('A' for Active; 'I' for Inactive)
ROOT
ATOM      1  C   UNL d   1       0.382   1.704  -1.085  0.00  0.00     0.077 C 
ATOM      2  C1  UNL d   1      -0.149   0.520  -0.333  0.00  0.00    -0.074 A 
ATOM      3  C2  UNL d   1      -1.264   0.640   0.503  0.00  0.00    -0.005 A 
ATOM      4  C3  UNL d   1      -1.752  -0.472   1.188  0.00  0.00     0.006 A 
ATOM      5  C4  UNL d   1      -1.132  -1.714   1.044  0.00  0.00    -0.005 A 
ATOM      6  C5  UNL d   1      -0.017  -1.854   0.212  0.00  0.00    -0.074 A 
ATOM      7  C6  UNL d   1       0.655  -3.183   0.038  0.00  0.00     0.077 C 
ATOM      8  C7  UNL d   1       0.463  -0.733  -0.479  0.00  0.00    -0.001 A 
ENDROOT
TORSDOF 0
ENDMDL
