MODEL 1
REMARK minimizedAffinity -3.67622352
REMARK minimizedRMSD -1
REMARK  0 active torsions:
REMARK  status: ('A' for Active; 'I' for Inactive)
ROOT
ATOM      1  C   UNL d   1       0.416  -2.991   0.679  0.00  0.00     0.077 C 
ATOM      2  C1  UNL d   1      -0.006  -1.554   0.607  0.00  0.00    -0.074 A 
ATOM      3  C2  UNL d   1      -1.281  -1.158   1.025  0.00  0.00    -0.005 A 
ATOM      4  C3  UNL d   1      -1.657   0.184   0.961  0.00  0.00     0.006 A 
ATOM      5  C4  UNL d   1      -0.763   1.142   0.481  0.00  0.00    -0.005 A 
ATOM      6  C5  UNL d   1       0.516   0.765   0.060  0.00  0.00    -0.074 A 
ATOM      7  C6  UNL d   1       1.492   1.783  -0.449  0.00  0.00     0.077 C 
ATOM      8  C7  UNL d   1       0.888  -0.584   0.134  0.00  0.00    -0.001 A 
ENDROOT
TORSDOF 0
ENDMDL
