MODEL 1
REMARK minimizedAffinity -3.23985791
REMARK minimizedRMSD -1
REMARK  0 active torsions:
REMARK  status: ('A' for Active; 'I' for Inactive)
ROOT
ATOM      1  C   UNL d   1       2.013   3.480   1.229  0.00  0.00     0.077 C 
ATOM      2  C1  UNL d   1       1.188   2.572   0.367  0.00  0.00    -0.074 A 
ATOM      3  C2  UNL d   1       0.564   3.050  -0.790  0.00  0.00    -0.005 A 
ATOM      4  C3  UNL d   1      -0.192   2.190  -1.587  0.00  0.00     0.006 A 
ATOM      5  C4  UNL d   1      -0.332   0.847  -1.236  0.00  0.00    -0.005 A 
ATOM      6  C5  UNL d   1       0.286   0.351  -0.084  0.00  0.00    -0.074 A 
ATOM      7  C6  UNL d   1       0.155  -1.093   0.302  0.00  0.00     0.077 C 
ATOM      8  C7  UNL d   1       1.050   1.219   0.708  0.00  0.00    -0.001 A 
ENDROOT
TORSDOF 0
ENDMDL
