MODEL 1
REMARK minimizedAffinity -3.63392806
REMARK minimizedRMSD -1
REMARK  0 active torsions:
REMARK  status: ('A' for Active; 'I' for Inactive)
ROOT
ATOM      1  C   UNL d   1       0.339  -3.634  -0.124  0.00  0.00     0.077 C 
ATOM      2  C1  UNL d   1       0.093  -2.159  -0.004  0.00  0.00    -0.074 A 
ATOM      3  C2  UNL d   1       0.755  -1.250  -0.835  0.00  0.00    -0.005 A 
ATOM      4  C3  UNL d   1       0.509   0.118  -0.719  0.00  0.00     0.006 A 
ATOM      5  C4  UNL d   1      -0.400   0.590   0.228  0.00  0.00    -0.005 A 
ATOM      6  C5  UNL d   1      -1.073  -0.304   1.067  0.00  0.00    -0.074 A 
ATOM      7  C6  UNL d   1      -2.061   0.185   2.084  0.00  0.00     0.077 C 
ATOM      8  C7  UNL d   1      -0.825  -1.678   0.940  0.00  0.00    -0.001 A 
ENDROOT
TORSDOF 0
ENDMDL
