MODEL 1
REMARK minimizedAffinity -4.61377239
REMARK minimizedRMSD -1
REMARK  0 active torsions:
REMARK  status: ('A' for Active; 'I' for Inactive)
ROOT
ATOM      1  C   UNL d   1      -1.841   0.315   1.826  0.00  0.00     0.077 C 
ATOM      2  C1  UNL d   1      -0.914  -0.444   0.924  0.00  0.00    -0.074 A 
ATOM      3  C2  UNL d   1      -0.569  -1.771   1.200  0.00  0.00    -0.005 A 
ATOM      4  C3  UNL d   1       0.287  -2.467   0.346  0.00  0.00     0.006 A 
ATOM      5  C4  UNL d   1       0.804  -1.845  -0.790  0.00  0.00    -0.005 A 
ATOM      6  C5  UNL d   1       0.469  -0.520  -1.083  0.00  0.00    -0.074 A 
ATOM      7  C6  UNL d   1       1.009   0.161  -2.306  0.00  0.00     0.077 C 
ATOM      8  C7  UNL d   1      -0.397   0.171  -0.224  0.00  0.00    -0.001 A 
ENDROOT
TORSDOF 0
ENDMDL
