MODEL 1
REMARK minimizedAffinity -1.80655789
REMARK minimizedRMSD -1
REMARK  0 active torsions:
REMARK  status: ('A' for Active; 'I' for Inactive)
ROOT
ATOM      1  C   UNL d   1      -0.035  -3.143   0.778  0.00  0.00     0.077 C 
ATOM      2  C1  UNL d   1       0.155  -1.818   0.102  0.00  0.00    -0.074 A 
ATOM      3  C2  UNL d   1       0.554  -1.744  -1.237  0.00  0.00    -0.005 A 
ATOM      4  C3  UNL d   1       0.717  -0.504  -1.855  0.00  0.00     0.006 A 
ATOM      5  C4  UNL d   1       0.484   0.673  -1.142  0.00  0.00    -0.005 A 
ATOM      6  C5  UNL d   1       0.083   0.619   0.197  0.00  0.00    -0.074 A 
ATOM      7  C6  UNL d   1      -0.181   1.873   0.975  0.00  0.00     0.077 C 
ATOM      8  C7  UNL d   1      -0.085  -0.631   0.809  0.00  0.00    -0.001 A 
ENDROOT
TORSDOF 0
ENDMDL
