MODEL 1
REMARK minimizedAffinity -5.56152773
REMARK minimizedRMSD -1
REMARK  0 active torsions:
REMARK  status: ('A' for Active; 'I' for Inactive)
ROOT
ATOM      1  C   UNL d   1      -0.077   4.817   3.664  0.00  0.00     0.077 C 
ATOM      2  C1  UNL d   1       0.449   4.180   2.413  0.00  0.00    -0.074 A 
ATOM      3  C2  UNL d   1       1.613   4.655   1.799  0.00  0.00    -0.005 A 
ATOM      4  C3  UNL d   1       2.096   4.047   0.641  0.00  0.00     0.006 A 
ATOM      5  C4  UNL d   1       1.421   2.959   0.085  0.00  0.00    -0.005 A 
ATOM      6  C5  UNL d   1       0.256   2.470   0.685  0.00  0.00    -0.074 A 
ATOM      7  C6  UNL d   1      -0.476   1.296   0.106  0.00  0.00     0.077 C 
ATOM      8  C7  UNL d   1      -0.219   3.082   1.852  0.00  0.00    -0.001 A 
ENDROOT
TORSDOF 0
ENDMDL
