MODEL 1
REMARK minimizedAffinity -3.99585986
REMARK minimizedRMSD -1
REMARK  0 active torsions:
REMARK  status: ('A' for Active; 'I' for Inactive)
ROOT
ATOM      1  C   UNL d   1      -2.225   6.000   3.048  0.00  0.00     0.077 C 
ATOM      2  C1  UNL d   1      -1.057   5.101   2.766  0.00  0.00    -0.074 A 
ATOM      3  C2  UNL d   1       0.010   5.006   3.664  0.00  0.00    -0.005 A 
ATOM      4  C3  UNL d   1       1.084   4.159   3.393  0.00  0.00     0.006 A 
ATOM      5  C4  UNL d   1       1.102   3.400   2.222  0.00  0.00    -0.005 A 
ATOM      6  C5  UNL d   1       0.043   3.481   1.313  0.00  0.00    -0.074 A 
ATOM      7  C6  UNL d   1       0.042   2.664   0.055  0.00  0.00     0.077 C 
ATOM      8  C7  UNL d   1      -1.036   4.329   1.596  0.00  0.00    -0.001 A 
ENDROOT
TORSDOF 0
ENDMDL
