MODEL 1
REMARK minimizedAffinity -2.78380322
REMARK minimizedRMSD -1
REMARK  0 active torsions:
REMARK  status: ('A' for Active; 'I' for Inactive)
ROOT
ATOM      1  C   UNL d   1      -1.431  -1.484   2.532  0.00  0.00     0.077 C 
ATOM      2  C1  UNL d   1      -0.828  -1.660   1.170  0.00  0.00    -0.074 A 
ATOM      3  C2  UNL d   1      -0.553  -2.935   0.665  0.00  0.00    -0.005 A 
ATOM      4  C3  UNL d   1      -0.001  -3.083  -0.607  0.00  0.00     0.006 A 
ATOM      5  C4  UNL d   1       0.280  -1.960  -1.386  0.00  0.00    -0.005 A 
ATOM      6  C5  UNL d   1       0.011  -0.678  -0.899  0.00  0.00    -0.074 A 
ATOM      7  C6  UNL d   1       0.299   0.539  -1.727  0.00  0.00     0.077 C 
ATOM      8  C7  UNL d   1      -0.550  -0.537   0.378  0.00  0.00    -0.001 A 
ENDROOT
TORSDOF 0
ENDMDL
