MODEL 1
REMARK minimizedAffinity -4.74141932
REMARK minimizedRMSD -1
REMARK  0 active torsions:
REMARK  status: ('A' for Active; 'I' for Inactive)
ROOT
ATOM      1  C   UNL d   1       1.584   3.050   1.231  0.00  0.00     0.077 C 
ATOM      2  C1  UNL d   1       1.029   1.866   0.496  0.00  0.00    -0.074 A 
ATOM      3  C2  UNL d   1       1.038   1.820  -0.902  0.00  0.00    -0.005 A 
ATOM      4  C3  UNL d   1       0.528   0.709  -1.573  0.00  0.00     0.006 A 
ATOM      5  C4  UNL d   1       0.004  -0.366  -0.853  0.00  0.00    -0.005 A 
ATOM      6  C5  UNL d   1      -0.013  -0.338   0.545  0.00  0.00    -0.074 A 
ATOM      7  C6  UNL d   1      -0.563  -1.490   1.333  0.00  0.00     0.077 C 
ATOM      8  C7  UNL d   1       0.508   0.779   1.211  0.00  0.00    -0.001 A 
ENDROOT
TORSDOF 0
ENDMDL
