MODEL 1
REMARK minimizedAffinity -5.03599358
REMARK minimizedRMSD -1
REMARK  0 active torsions:
REMARK  status: ('A' for Active; 'I' for Inactive)
ROOT
ATOM      1  C   UNL d   1       0.015   1.277   0.002  0.00  0.00     0.077 C 
ATOM      2  C1  UNL d   1       0.169  -0.046  -0.686  0.00  0.00    -0.074 A 
ATOM      3  C2  UNL d   1       0.363  -0.119  -2.069  0.00  0.00    -0.005 A 
ATOM      4  C3  UNL d   1       0.514  -1.357  -2.694  0.00  0.00     0.006 A 
ATOM      5  C4  UNL d   1       0.472  -2.533  -1.943  0.00  0.00    -0.005 A 
ATOM      6  C5  UNL d   1       0.280  -2.480  -0.559  0.00  0.00    -0.074 A 
ATOM      7  C6  UNL d   1       0.242  -3.733   0.264  0.00  0.00     0.077 C 
ATOM      8  C7  UNL d   1       0.136  -1.232   0.062  0.00  0.00    -0.001 A 
ENDROOT
TORSDOF 0
ENDMDL
