MODEL 1
REMARK minimizedAffinity -3.73937535
REMARK minimizedRMSD -1
REMARK  0 active torsions:
REMARK  status: ('A' for Active; 'I' for Inactive)
ROOT
ATOM      1  C   UNL d   1       0.569   0.889  -2.451  0.00  0.00     0.077 C 
ATOM      2  C1  UNL d   1       0.096   0.251  -1.179  0.00  0.00    -0.074 A 
ATOM      3  C2  UNL d   1      -0.787   0.919  -0.325  0.00  0.00    -0.005 A 
ATOM      4  C3  UNL d   1      -1.226   0.308   0.850  0.00  0.00     0.006 A 
ATOM      5  C4  UNL d   1      -0.787  -0.974   1.182  0.00  0.00    -0.005 A 
ATOM      6  C5  UNL d   1       0.095  -1.658   0.340  0.00  0.00    -0.074 A 
ATOM      7  C6  UNL d   1       0.569  -3.040   0.677  0.00  0.00     0.077 C 
ATOM      8  C7  UNL d   1       0.526  -1.040  -0.842  0.00  0.00    -0.001 A 
ENDROOT
TORSDOF 0
ENDMDL
