MODEL 1
REMARK minimizedAffinity -3.59136581
REMARK minimizedRMSD -1
REMARK  0 active torsions:
REMARK  status: ('A' for Active; 'I' for Inactive)
ROOT
ATOM      1  C   UNL d   1       0.350   1.263   0.111  0.00  0.00     0.077 C 
ATOM      2  C1  UNL d   1       0.643   2.682   0.497  0.00  0.00    -0.074 A 
ATOM      3  C2  UNL d   1       1.898   3.249   0.251  0.00  0.00    -0.005 A 
ATOM      4  C3  UNL d   1       2.152   4.574   0.607  0.00  0.00     0.006 A 
ATOM      5  C4  UNL d   1       1.157   5.343   1.210  0.00  0.00    -0.005 A 
ATOM      6  C5  UNL d   1      -0.104   4.793   1.463  0.00  0.00    -0.074 A 
ATOM      7  C6  UNL d   1      -1.188   5.609   2.102  0.00  0.00     0.077 C 
ATOM      8  C7  UNL d   1      -0.354   3.464   1.096  0.00  0.00    -0.001 A 
ENDROOT
TORSDOF 0
ENDMDL
