MODEL 1
REMARK minimizedAffinity 3.53907967
REMARK minimizedRMSD -1
REMARK  0 active torsions:
REMARK  status: ('A' for Active; 'I' for Inactive)
ROOT
ATOM      1  C2' OXE d   1       3.721   2.231  -2.948  0.00  0.00     0.078 C 
ATOM      2  C1' OXE d   1       4.503   3.161  -5.479  0.00  0.00     0.078 C 
ATOM      3  C1  OXE d   1       3.044   3.264  -5.112  0.00  0.00    -0.078 A 
ATOM      4  C2  OXE d   1       2.662   2.764  -3.890  0.00  0.00    -0.078 A 
ATOM      5  C3  OXE d   1       1.338   2.884  -3.479  0.00  0.00     0.003 A 
ATOM      6  C4  OXE d   1       0.363   3.369  -4.360  0.00  0.00    -0.002 A 
ATOM      7  C5  OXE d   1       0.724   3.847  -5.625  0.00  0.00    -0.002 A 
ATOM      8  C6  OXE d   1       2.063   3.841  -5.999  0.00  0.00     0.003 A 
ENDROOT
TORSDOF 0
ENDMDL
