MODEL 1
REMARK minimizedAffinity 6.55212259
REMARK minimizedRMSD -1
REMARK  0 active torsions:
REMARK  status: ('A' for Active; 'I' for Inactive)
ROOT
ATOM      1  C2' OXE d   1      -0.544   3.334   1.289  0.00  0.00     0.078 C 
ATOM      2  C1' OXE d   1       1.895   1.956   1.110  0.00  0.00     0.078 C 
ATOM      3  C1  OXE d   1       0.624   1.156   0.973  0.00  0.00    -0.078 A 
ATOM      4  C2  OXE d   1      -0.566   1.831   1.108  0.00  0.00    -0.078 A 
ATOM      5  C3  OXE d   1      -1.768   1.151   0.936  0.00  0.00     0.003 A 
ATOM      6  C4  OXE d   1      -1.779  -0.240   0.779  0.00  0.00    -0.002 A 
ATOM      7  C5  OXE d   1      -0.580  -0.953   0.678  0.00  0.00    -0.002 A 
ATOM      8  C6  OXE d   1       0.628  -0.266   0.730  0.00  0.00     0.003 A 
ENDROOT
TORSDOF 0
ENDMDL
