MODEL 1
REMARK minimizedAffinity 4.30236387
REMARK minimizedRMSD -1
REMARK  0 active torsions:
REMARK  status: ('A' for Active; 'I' for Inactive)
ROOT
ATOM      1  C2' OXE d   1      -1.818   3.547   3.703  0.00  0.00     0.078 C 
ATOM      2  C1' OXE d   1      -2.016   2.327   1.183  0.00  0.00     0.078 C 
ATOM      3  C1  OXE d   1      -0.639   2.502   1.774  0.00  0.00    -0.078 A 
ATOM      4  C2  OXE d   1      -0.548   3.142   2.986  0.00  0.00    -0.078 A 
ATOM      5  C3  OXE d   1       0.692   3.280   3.602  0.00  0.00     0.003 A 
ATOM      6  C4  OXE d   1       1.863   2.911   2.928  0.00  0.00    -0.002 A 
ATOM      7  C5  OXE d   1       1.796   2.293   1.674  0.00  0.00    -0.002 A 
ATOM      8  C6  OXE d   1       0.552   2.043   1.104  0.00  0.00     0.003 A 
ENDROOT
TORSDOF 0
ENDMDL
