MODEL 1
REMARK minimizedAffinity -4.01271963
REMARK minimizedRMSD -1
REMARK  0 active torsions:
REMARK  status: ('A' for Active; 'I' for Inactive)
ROOT
ATOM      1  C2' OXE d   1      -2.025   3.018  -5.588  0.00  0.00     0.078 C 
ATOM      2  C1' OXE d   1      -1.815   5.623  -4.565  0.00  0.00     0.078 C 
ATOM      3  C1  OXE d   1      -3.169   5.163  -5.045  0.00  0.00    -0.078 A 
ATOM      4  C2  OXE d   1      -3.253   3.903  -5.587  0.00  0.00    -0.078 A 
ATOM      5  C3  OXE d   1      -4.488   3.408  -5.995  0.00  0.00     0.003 A 
ATOM      6  C4  OXE d   1      -5.617   4.237  -6.000  0.00  0.00    -0.002 A 
ATOM      7  C5  OXE d   1      -5.545   5.537  -5.488  0.00  0.00    -0.002 A 
ATOM      8  C6  OXE d   1      -4.341   6.000  -4.969  0.00  0.00     0.003 A 
ENDROOT
TORSDOF 0
ENDMDL
