MODEL 1
REMARK minimizedAffinity -1.26691031
REMARK minimizedRMSD -1
REMARK  0 active torsions:
REMARK  status: ('A' for Active; 'I' for Inactive)
ROOT
ATOM      1  C2' OXE d   1       1.593   0.463   0.323  0.00  0.00     0.078 C 
ATOM      2  C1' OXE d   1      -0.668  -1.179   0.590  0.00  0.00     0.078 C 
ATOM      3  C1  OXE d   1      -0.857   0.309   0.746  0.00  0.00    -0.078 A 
ATOM      4  C2  OXE d   1       0.262   1.101   0.660  0.00  0.00    -0.078 A 
ATOM      5  C3  OXE d   1       0.136   2.485   0.742  0.00  0.00     0.003 A 
ATOM      6  C4  OXE d   1      -1.096   3.066   1.064  0.00  0.00    -0.002 A 
ATOM      7  C5  OXE d   1      -2.242   2.274   1.195  0.00  0.00    -0.002 A 
ATOM      8  C6  OXE d   1      -2.148   0.901   0.998  0.00  0.00     0.003 A 
ENDROOT
TORSDOF 0
ENDMDL
