MODEL 1
REMARK minimizedAffinity -0.0757117569
REMARK minimizedRMSD -1
REMARK  0 active torsions:
REMARK  status: ('A' for Active; 'I' for Inactive)
ROOT
ATOM      1  C2' OXE d   1      -2.173   3.192  -5.892  0.00  0.00     0.078 C 
ATOM      2  C1' OXE d   1      -2.188   5.999  -5.908  0.00  0.00     0.078 C 
ATOM      3  C1  OXE d   1      -3.518   5.289  -5.921  0.00  0.00    -0.078 A 
ATOM      4  C2  OXE d   1      -3.501   3.915  -5.961  0.00  0.00    -0.078 A 
ATOM      5  C3  OXE d   1      -4.700   3.210  -5.920  0.00  0.00     0.003 A 
ATOM      6  C4  OXE d   1      -5.924   3.886  -5.993  0.00  0.00    -0.002 A 
ATOM      7  C5  OXE d   1      -5.963   5.285  -5.994  0.00  0.00    -0.002 A 
ATOM      8  C6  OXE d   1      -4.773   6.000  -5.916  0.00  0.00     0.003 A 
ENDROOT
TORSDOF 0
ENDMDL
