MODEL 1
REMARK minimizedAffinity 1.37099254
REMARK minimizedRMSD -1
REMARK  0 active torsions:
REMARK  status: ('A' for Active; 'I' for Inactive)
ROOT
ATOM      1  C2' OXE d   1       1.212   0.863   0.501  0.00  0.00     0.078 C 
ATOM      2  C1' OXE d   1      -0.083   3.250   1.214  0.00  0.00     0.078 C 
ATOM      3  C1  OXE d   1      -0.908   1.988   1.168  0.00  0.00    -0.078 A 
ATOM      4  C2  OXE d   1      -0.276   0.833   0.773  0.00  0.00    -0.078 A 
ATOM      5  C3  OXE d   1      -0.978  -0.369   0.766  0.00  0.00     0.003 A 
ATOM      6  C4  OXE d   1      -2.357  -0.386   1.010  0.00  0.00    -0.002 A 
ATOM      7  C5  OXE d   1      -3.028   0.786   1.375  0.00  0.00    -0.002 A 
ATOM      8  C6  OXE d   1      -2.311   1.971   1.500  0.00  0.00     0.003 A 
ENDROOT
TORSDOF 0
ENDMDL
