MODEL 1
REMARK minimizedAffinity 2.53651333
REMARK minimizedRMSD -1
REMARK  0 active torsions:
REMARK  status: ('A' for Active; 'I' for Inactive)
ROOT
ATOM      1  C2' OXE d   1       0.787  -0.470   0.515  0.00  0.00     0.078 C 
ATOM      2  C1' OXE d   1       1.761  -0.960  -2.072  0.00  0.00     0.078 C 
ATOM      3  C1  OXE d   1       0.477  -1.638  -1.664  0.00  0.00    -0.078 A 
ATOM      4  C2  OXE d   1       0.032  -1.429  -0.380  0.00  0.00    -0.078 A 
ATOM      5  C3  OXE d   1      -1.176  -1.986   0.030  0.00  0.00     0.003 A 
ATOM      6  C4  OXE d   1      -1.862  -2.880  -0.801  0.00  0.00    -0.002 A 
ATOM      7  C5  OXE d   1      -1.406  -3.138  -2.098  0.00  0.00    -0.002 A 
ATOM      8  C6  OXE d   1      -0.263  -2.493  -2.559  0.00  0.00     0.003 A 
ENDROOT
TORSDOF 0
ENDMDL
