MODEL 1
REMARK minimizedAffinity 5.52779245
REMARK minimizedRMSD -1
REMARK  0 active torsions:
REMARK  status: ('A' for Active; 'I' for Inactive)
ROOT
ATOM      1  C2' OXE d   1       1.698   0.185   0.315  0.00  0.00     0.078 C 
ATOM      2  C1' OXE d   1       2.488   2.379   1.877  0.00  0.00     0.078 C 
ATOM      3  C1  OXE d   1       1.024   2.247   1.539  0.00  0.00    -0.078 A 
ATOM      4  C2  OXE d   1       0.653   1.197   0.735  0.00  0.00    -0.078 A 
ATOM      5  C3  OXE d   1      -0.692   0.997   0.438  0.00  0.00     0.003 A 
ATOM      6  C4  OXE d   1      -1.650   1.943   0.823  0.00  0.00    -0.002 A 
ATOM      7  C5  OXE d   1      -1.288   3.042   1.609  0.00  0.00    -0.002 A 
ATOM      8  C6  OXE d   1       0.036   3.185   2.011  0.00  0.00     0.003 A 
ENDROOT
TORSDOF 0
ENDMDL
