MODEL 1
REMARK minimizedAffinity -1.74438131
REMARK minimizedRMSD -1
REMARK  0 active torsions:
REMARK  status: ('A' for Active; 'I' for Inactive)
ROOT
ATOM      1  C2' OXE d   1      -1.893   3.139  -5.951  0.00  0.00     0.078 C 
ATOM      2  C1' OXE d   1      -1.859   5.946  -5.964  0.00  0.00     0.078 C 
ATOM      3  C1  OXE d   1      -3.201   5.259  -5.959  0.00  0.00    -0.078 A 
ATOM      4  C2  OXE d   1      -3.209   3.886  -6.000  0.00  0.00    -0.078 A 
ATOM      5  C3  OXE d   1      -4.420   3.201  -5.942  0.00  0.00     0.003 A 
ATOM      6  C4  OXE d   1      -5.632   3.899  -5.998  0.00  0.00    -0.002 A 
ATOM      7  C5  OXE d   1      -5.647   5.298  -5.997  0.00  0.00    -0.002 A 
ATOM      8  C6  OXE d   1      -4.443   5.992  -5.935  0.00  0.00     0.003 A 
ENDROOT
TORSDOF 0
ENDMDL
