MODEL 1
REMARK minimizedAffinity 2.92499518
REMARK minimizedRMSD -1
REMARK  0 active torsions:
REMARK  status: ('A' for Active; 'I' for Inactive)
ROOT
ATOM      1  C2' OXE d   1       1.358  -0.367   0.218  0.00  0.00     0.078 C 
ATOM      2  C1' OXE d   1       2.132  -1.321  -2.306  0.00  0.00     0.078 C 
ATOM      3  C1  OXE d   1       0.865  -1.873  -1.704  0.00  0.00    -0.078 A 
ATOM      4  C2  OXE d   1       0.518  -1.435  -0.448  0.00  0.00    -0.078 A 
ATOM      5  C3  OXE d   1      -0.670  -1.872   0.131  0.00  0.00     0.003 A 
ATOM      6  C4  OXE d   1      -1.436  -2.867  -0.488  0.00  0.00    -0.002 A 
ATOM      7  C5  OXE d   1      -1.080  -3.356  -1.749  0.00  0.00    -0.002 A 
ATOM      8  C6  OXE d   1       0.042  -2.840  -2.388  0.00  0.00     0.003 A 
ENDROOT
TORSDOF 0
ENDMDL
