MODEL 1
REMARK minimizedAffinity -3.3378365
REMARK minimizedRMSD -1
REMARK  0 active torsions:
REMARK  status: ('A' for Active; 'I' for Inactive)
ROOT
ATOM      1  C2' OXE d   1       0.764   0.813   0.384  0.00  0.00     0.078 C 
ATOM      2  C1' OXE d   1      -0.827  -1.427   0.961  0.00  0.00     0.078 C 
ATOM      3  C1  OXE d   1      -1.524  -0.110   0.730  0.00  0.00    -0.078 A 
ATOM      4  C2  OXE d   1      -0.735   0.990   0.495  0.00  0.00    -0.078 A 
ATOM      5  C3  OXE d   1      -1.329   2.219   0.222  0.00  0.00     0.003 A 
ATOM      6  C4  OXE d   1      -2.716   2.377   0.336  0.00  0.00    -0.002 A 
ATOM      7  C5  OXE d   1      -3.535   1.278   0.614  0.00  0.00    -0.002 A 
ATOM      8  C6  OXE d   1      -2.960   0.022   0.772  0.00  0.00     0.003 A 
ENDROOT
TORSDOF 0
ENDMDL
