MODEL 1
REMARK minimizedAffinity 0.0999339595
REMARK minimizedRMSD -1
REMARK  0 active torsions:
REMARK  status: ('A' for Active; 'I' for Inactive)
ROOT
ATOM      1  C2' OXE d   1      -0.888   2.016   0.636  0.00  0.00     0.078 C 
ATOM      2  C1' OXE d   1       1.349   0.849  -0.595  0.00  0.00     0.078 C 
ATOM      3  C1  OXE d   1       1.590   1.762   0.581  0.00  0.00    -0.078 A 
ATOM      4  C2  OXE d   1       0.493   2.365   1.148  0.00  0.00    -0.078 A 
ATOM      5  C3  OXE d   1       0.654   3.174   2.270  0.00  0.00     0.003 A 
ATOM      6  C4  OXE d   1       1.935   3.500   2.731  0.00  0.00    -0.002 A 
ATOM      7  C5  OXE d   1       3.068   2.927   2.143  0.00  0.00    -0.002 A 
ATOM      8  C6  OXE d   1       2.911   2.025   1.097  0.00  0.00     0.003 A 
ENDROOT
TORSDOF 0
ENDMDL
