MODEL 1
REMARK minimizedAffinity 2.38007236
REMARK minimizedRMSD -1
REMARK  0 active torsions:
REMARK  status: ('A' for Active; 'I' for Inactive)
ROOT
ATOM      1  C2' OXE d   1      -1.541   5.090  -5.856  0.00  0.00     0.078 C 
ATOM      2  C1' OXE d   1      -2.396   2.419  -5.988  0.00  0.00     0.078 C 
ATOM      3  C1  OXE d   1      -3.452   3.495  -5.947  0.00  0.00    -0.078 A 
ATOM      4  C2  OXE d   1      -3.025   4.797  -5.835  0.00  0.00    -0.078 A 
ATOM      5  C3  OXE d   1      -3.957   5.831  -5.848  0.00  0.00     0.003 A 
ATOM      6  C4  OXE d   1      -5.328   5.551  -5.819  0.00  0.00    -0.002 A 
ATOM      7  C5  OXE d   1      -5.785   4.231  -5.892  0.00  0.00    -0.002 A 
ATOM      8  C6  OXE d   1      -4.862   3.196  -5.999  0.00  0.00     0.003 A 
ENDROOT
TORSDOF 0
ENDMDL
