MODEL 1
REMARK minimizedAffinity -1.46298432
REMARK minimizedRMSD -1
REMARK  0 active torsions:
REMARK  status: ('A' for Active; 'I' for Inactive)
ROOT
ATOM      1  C2' OXE d   1      -1.194   3.169  -5.949  0.00  0.00     0.078 C 
ATOM      2  C1' OXE d   1      -1.239   5.976  -5.975  0.00  0.00     0.078 C 
ATOM      3  C1  OXE d   1      -2.562   5.251  -5.963  0.00  0.00    -0.078 A 
ATOM      4  C2  OXE d   1      -2.531   3.878  -5.997  0.00  0.00    -0.078 A 
ATOM      5  C3  OXE d   1      -3.721   3.159  -5.932  0.00  0.00     0.003 A 
ATOM      6  C4  OXE d   1      -4.953   3.822  -5.988  0.00  0.00    -0.002 A 
ATOM      7  C5  OXE d   1      -5.007   5.220  -5.993  0.00  0.00    -0.002 A 
ATOM      8  C6  OXE d   1      -3.824   5.948  -5.938  0.00  0.00     0.003 A 
ENDROOT
TORSDOF 0
ENDMDL
