MODEL 1
REMARK minimizedAffinity 6.80585814
REMARK minimizedRMSD -1
REMARK  0 active torsions:
REMARK  status: ('A' for Active; 'I' for Inactive)
ROOT
ATOM      1  C2' OXE d   1       2.352   2.886   2.254  0.00  0.00     0.078 C 
ATOM      2  C1' OXE d   1       1.780   0.876   0.380  0.00  0.00     0.078 C 
ATOM      3  C1  OXE d   1       0.625   1.679   0.926  0.00  0.00    -0.078 A 
ATOM      4  C2  OXE d   1       0.909   2.629   1.877  0.00  0.00    -0.078 A 
ATOM      5  C3  OXE d   1      -0.112   3.434   2.373  0.00  0.00     0.003 A 
ATOM      6  C4  OXE d   1      -1.445   3.183   2.027  0.00  0.00    -0.002 A 
ATOM      7  C5  OXE d   1      -1.760   2.193   1.090  0.00  0.00    -0.002 A 
ATOM      8  C6  OXE d   1      -0.735   1.462   0.499  0.00  0.00     0.003 A 
ENDROOT
TORSDOF 0
ENDMDL
