MODEL 1
REMARK minimizedAffinity 0.92709738
REMARK minimizedRMSD -1
REMARK  0 active torsions:
REMARK  status: ('A' for Active; 'I' for Inactive)
ROOT
ATOM      1  C2' OXE d   1      -1.450   3.105  -5.942  0.00  0.00     0.078 C 
ATOM      2  C1' OXE d   1      -1.445   5.912  -5.982  0.00  0.00     0.078 C 
ATOM      3  C1  OXE d   1      -2.780   5.211  -5.965  0.00  0.00    -0.078 A 
ATOM      4  C2  OXE d   1      -2.774   3.837  -5.992  0.00  0.00    -0.078 A 
ATOM      5  C3  OXE d   1      -3.977   3.140  -5.922  0.00  0.00     0.003 A 
ATOM      6  C4  OXE d   1      -5.197   3.825  -5.978  0.00  0.00    -0.002 A 
ATOM      7  C5  OXE d   1      -5.226   5.223  -5.991  0.00  0.00    -0.002 A 
ATOM      8  C6  OXE d   1      -4.030   5.930  -5.941  0.00  0.00     0.003 A 
ENDROOT
TORSDOF 0
ENDMDL
