MODEL 1
REMARK minimizedAffinity 8.60971355
REMARK minimizedRMSD -1
REMARK  0 active torsions:
REMARK  status: ('A' for Active; 'I' for Inactive)
ROOT
ATOM      1  C2' OXE d   1       2.742   2.758   2.289  0.00  0.00     0.078 C 
ATOM      2  C1' OXE d   1       0.594   1.839   0.732  0.00  0.00     0.078 C 
ATOM      3  C1  OXE d   1       0.274   2.551   2.023  0.00  0.00    -0.078 A 
ATOM      4  C2  OXE d   1       1.331   2.956   2.801  0.00  0.00    -0.078 A 
ATOM      5  C3  OXE d   1       1.092   3.666   3.974  0.00  0.00     0.003 A 
ATOM      6  C4  OXE d   1      -0.216   3.836   4.445  0.00  0.00    -0.002 A 
ATOM      7  C5  OXE d   1      -1.306   3.396   3.688  0.00  0.00    -0.002 A 
ATOM      8  C6  OXE d   1      -1.081   2.791   2.456  0.00  0.00     0.003 A 
ENDROOT
TORSDOF 0
ENDMDL
