MODEL 1
REMARK minimizedAffinity 4.77584267
REMARK minimizedRMSD -1
REMARK  0 active torsions:
REMARK  status: ('A' for Active; 'I' for Inactive)
ROOT
ATOM      1  C2' OXE d   1       1.544   0.135  -5.997  0.00  0.00     0.078 C 
ATOM      2  C1' OXE d   1       2.046  -1.097  -3.525  0.00  0.00     0.078 C 
ATOM      3  C1  OXE d   1       2.553   0.309  -3.725  0.00  0.00    -0.078 A 
ATOM      4  C2  OXE d   1       2.343   0.887  -4.954  0.00  0.00    -0.078 A 
ATOM      5  C3  OXE d   1       2.741   2.203  -5.174  0.00  0.00     0.003 A 
ATOM      6  C4  OXE d   1       3.489   2.888  -4.208  0.00  0.00    -0.002 A 
ATOM      7  C5  OXE d   1       3.747   2.303  -2.964  0.00  0.00    -0.002 A 
ATOM      8  C6  OXE d   1       3.251   1.033  -2.692  0.00  0.00     0.003 A 
ENDROOT
TORSDOF 0
ENDMDL
