MODEL 1
REMARK minimizedAffinity 3.74093986
REMARK minimizedRMSD -1
REMARK  0 active torsions:
REMARK  status: ('A' for Active; 'I' for Inactive)
ROOT
ATOM      1  C2' OXE d   1       1.712   3.053   2.019  0.00  0.00     0.078 C 
ATOM      2  C1' OXE d   1       1.884   0.844   0.295  0.00  0.00     0.078 C 
ATOM      3  C1  OXE d   1       0.517   1.246   0.789  0.00  0.00    -0.078 A 
ATOM      4  C2  OXE d   1       0.447   2.299   1.669  0.00  0.00    -0.078 A 
ATOM      5  C3  OXE d   1      -0.795   2.745   2.113  0.00  0.00     0.003 A 
ATOM      6  C4  OXE d   1      -1.959   2.035   1.794  0.00  0.00    -0.002 A 
ATOM      7  C5  OXE d   1      -1.905   0.936   0.931  0.00  0.00    -0.002 A 
ATOM      8  C6  OXE d   1      -0.683   0.555   0.387  0.00  0.00     0.003 A 
ENDROOT
TORSDOF 0
ENDMDL
