MODEL 1
REMARK minimizedAffinity -4.17631817
REMARK minimizedRMSD -1
REMARK  0 active torsions:
REMARK  status: ('A' for Active; 'I' for Inactive)
ROOT
ATOM      1  C   UNL d   1      -1.273   0.057   3.159  0.00  0.00    -0.002 A 
ATOM      2  C1  UNL d   1      -2.256  -0.295   2.245  0.00  0.00     0.010 A 
ATOM      3  C2  UNL d   1      -1.975  -0.333   0.878  0.00  0.00     0.041 A 
ATOM      4  C3  UNL d   1      -0.676  -0.009   0.440  0.00  0.00    -0.075 A 
ATOM      5  S   UNL d   1      -0.102   0.012  -1.185  0.00  0.00     0.015 SA
ATOM      6  C4  UNL d   1       1.463   0.489  -0.706  0.00  0.00     0.022 A 
ATOM      7  C5  UNL d   1       1.562   0.634   0.658  0.00  0.00     0.026 A 
ATOM      8  C6  UNL d   1       0.332   0.349   1.341  0.00  0.00    -0.082 A 
ATOM      9  C7  UNL d   1       0.015   0.378   2.720  0.00  0.00     0.045 A 
ENDROOT
TORSDOF 0
ENDMDL
