MODEL 1
REMARK minimizedAffinity -6.41489935
REMARK minimizedRMSD -1
REMARK  0 active torsions:
REMARK  status: ('A' for Active; 'I' for Inactive)
ROOT
ATOM      1  C   UNL d   1      -1.310  -0.276   3.614  0.00  0.00    -0.002 A 
ATOM      2  C1  UNL d   1      -2.435  -0.250   2.802  0.00  0.00     0.010 A 
ATOM      3  C2  UNL d   1      -2.311  -0.086   1.421  0.00  0.00     0.041 A 
ATOM      4  C3  UNL d   1      -1.024   0.050   0.864  0.00  0.00    -0.075 A 
ATOM      5  S   UNL d   1      -0.629   0.261  -0.801  0.00  0.00     0.015 SA
ATOM      6  C4  UNL d   1       1.043   0.320  -0.474  0.00  0.00     0.022 A 
ATOM      7  C5  UNL d   1       1.311   0.185   0.868  0.00  0.00     0.026 A 
ATOM      8  C6  UNL d   1       0.124   0.026   1.661  0.00  0.00    -0.082 A 
ATOM      9  C7  UNL d   1      -0.036  -0.140   3.058  0.00  0.00     0.045 A 
ENDROOT
TORSDOF 0
ENDMDL
