MODEL 1
REMARK minimizedAffinity -4.13022327
REMARK minimizedRMSD -1
REMARK  0 active torsions:
REMARK  status: ('A' for Active; 'I' for Inactive)
ROOT
ATOM      1  C   UNL d   1      -1.153  -0.565   3.298  0.00  0.00    -0.002 A 
ATOM      2  C1  UNL d   1      -2.326  -0.669   2.565  0.00  0.00     0.010 A 
ATOM      3  C2  UNL d   1      -2.311  -0.522   1.177  0.00  0.00     0.041 A 
ATOM      4  C3  UNL d   1      -1.085  -0.267   0.531  0.00  0.00    -0.075 A 
ATOM      5  S   UNL d   1      -0.826  -0.052  -1.160  0.00  0.00     0.015 SA
ATOM      6  C4  UNL d   1       0.849   0.183  -0.948  0.00  0.00     0.022 A 
ATOM      7  C5  UNL d   1       1.218   0.103   0.374  0.00  0.00     0.026 A 
ATOM      8  C6  UNL d   1       0.110  -0.159   1.248  0.00  0.00    -0.082 A 
ATOM      9  C7  UNL d   1       0.062  -0.312   2.655  0.00  0.00     0.045 A 
ENDROOT
TORSDOF 0
ENDMDL
