MODEL 1
REMARK minimizedAffinity -3.78740978
REMARK minimizedRMSD -1
REMARK  0 active torsions:
REMARK  status: ('A' for Active; 'I' for Inactive)
ROOT
ATOM      1  C   UNL d   1      -2.093  -0.128   3.141  0.00  0.00    -0.002 A 
ATOM      2  C1  UNL d   1      -2.987  -0.071   2.081  0.00  0.00     0.010 A 
ATOM      3  C2  UNL d   1      -2.525   0.044   0.769  0.00  0.00     0.041 A 
ATOM      4  C3  UNL d   1      -1.137   0.100   0.537  0.00  0.00    -0.075 A 
ATOM      5  S   UNL d   1      -0.342   0.240  -0.986  0.00  0.00     0.015 SA
ATOM      6  C4  UNL d   1       1.203   0.228  -0.266  0.00  0.00     0.022 A 
ATOM      7  C5  UNL d   1       1.132   0.120   1.103  0.00  0.00     0.026 A 
ATOM      8  C6  UNL d   1      -0.217   0.044   1.588  0.00  0.00    -0.082 A 
ATOM      9  C7  UNL d   1      -0.717  -0.072   2.908  0.00  0.00     0.045 A 
ENDROOT
TORSDOF 0
ENDMDL
