MODEL 1
REMARK minimizedAffinity -5.72342634
REMARK minimizedRMSD -1
REMARK  0 active torsions:
REMARK  status: ('A' for Active; 'I' for Inactive)
ROOT
ATOM      1  C   UNL d   1      -2.708  -0.001   1.985  0.00  0.00    -0.002 A 
ATOM      2  C1  UNL d   1      -1.745  -0.176   2.969  0.00  0.00     0.010 A 
ATOM      3  C2  UNL d   1      -0.392  -0.253   2.633  0.00  0.00     0.041 A 
ATOM      4  C3  UNL d   1      -0.020  -0.148   1.278  0.00  0.00    -0.075 A 
ATOM      5  S   UNL d   1       1.577  -0.214   0.631  0.00  0.00     0.015 SA
ATOM      6  C4  UNL d   1       1.019  -0.009  -0.966  0.00  0.00     0.022 A 
ATOM      7  C5  UNL d   1      -0.350   0.107  -1.023  0.00  0.00     0.026 A 
ATOM      8  C6  UNL d   1      -0.971   0.030   0.270  0.00  0.00    -0.082 A 
ATOM      9  C7  UNL d   1      -2.335   0.103   0.643  0.00  0.00     0.045 A 
ENDROOT
TORSDOF 0
ENDMDL
