MODEL 1
REMARK minimizedAffinity -5.79337978
REMARK minimizedRMSD -1
REMARK  0 active torsions:
REMARK  status: ('A' for Active; 'I' for Inactive)
ROOT
ATOM      1  C   UNL d   1      -0.830  -0.485   3.345  0.00  0.00    -0.002 A 
ATOM      2  C1  UNL d   1      -2.106  -0.179   2.894  0.00  0.00     0.010 A 
ATOM      3  C2  UNL d   1      -2.325   0.155   1.556  0.00  0.00     0.041 A 
ATOM      4  C3  UNL d   1      -1.230   0.174   0.670  0.00  0.00    -0.075 A 
ATOM      5  S   UNL d   1      -1.259   0.552  -1.012  0.00  0.00     0.015 SA
ATOM      6  C4  UNL d   1       0.421   0.315  -1.171  0.00  0.00     0.022 A 
ATOM      7  C5  UNL d   1       1.006  -0.044   0.020  0.00  0.00     0.026 A 
ATOM      8  C6  UNL d   1       0.064  -0.132   1.101  0.00  0.00    -0.082 A 
ATOM      9  C7  UNL d   1       0.254  -0.465   2.464  0.00  0.00     0.045 A 
ENDROOT
TORSDOF 0
ENDMDL
