MODEL 1
REMARK minimizedAffinity 0.695151031
REMARK minimizedRMSD -1
REMARK  0 active torsions:
REMARK  status: ('A' for Active; 'I' for Inactive)
ROOT
ATOM      1  C   UNL d   1       0.186  -1.586  -3.405  0.00  0.00    -0.002 A 
ATOM      2  C1  UNL d   1       1.455  -1.027  -3.453  0.00  0.00     0.010 A 
ATOM      3  C2  UNL d   1       1.936  -0.263  -2.387  0.00  0.00     0.041 A 
ATOM      4  C3  UNL d   1       1.112  -0.070  -1.261  0.00  0.00    -0.075 A 
ATOM      5  S   UNL d   1       1.490   0.828   0.162  0.00  0.00     0.015 SA
ATOM      6  C4  UNL d   1      -0.025   0.490   0.867  0.00  0.00     0.022 A 
ATOM      7  C5  UNL d   1      -0.812  -0.287   0.050  0.00  0.00     0.026 A 
ATOM      8  C6  UNL d   1      -0.170  -0.623  -1.189  0.00  0.00    -0.082 A 
ATOM      9  C7  UNL d   1      -0.629  -1.391  -2.286  0.00  0.00     0.045 A 
ENDROOT
TORSDOF 0
ENDMDL
