MODEL 1
REMARK minimizedAffinity -3.74139094
REMARK minimizedRMSD -1
REMARK  0 active torsions:
REMARK  status: ('A' for Active; 'I' for Inactive)
ROOT
ATOM      1  C   UNL d   1       0.027  -0.690   2.956  0.00  0.00    -0.002 A 
ATOM      2  C1  UNL d   1      -1.343  -0.813   2.773  0.00  0.00     0.010 A 
ATOM      3  C2  UNL d   1      -1.918  -0.561   1.526  0.00  0.00     0.041 A 
ATOM      4  C3  UNL d   1      -1.085  -0.182   0.455  0.00  0.00    -0.075 A 
ATOM      5  S   UNL d   1      -1.568   0.175  -1.161  0.00  0.00     0.015 SA
ATOM      6  C4  UNL d   1       0.033   0.499  -1.647  0.00  0.00     0.022 A 
ATOM      7  C5  UNL d   1       0.927   0.343  -0.614  0.00  0.00     0.026 A 
ATOM      8  C6  UNL d   1       0.297  -0.053   0.614  0.00  0.00    -0.082 A 
ATOM      9  C7  UNL d   1       0.850  -0.314   1.891  0.00  0.00     0.045 A 
ENDROOT
TORSDOF 0
ENDMDL
