MODEL 1
REMARK minimizedAffinity -5.8015008
REMARK minimizedRMSD -1
REMARK  0 active torsions:
REMARK  status: ('A' for Active; 'I' for Inactive)
ROOT
ATOM      1  C   UNL d   1      -1.674  -0.602   3.294  0.00  0.00    -0.002 A 
ATOM      2  C1  UNL d   1      -2.776  -0.449   2.464  0.00  0.00     0.010 A 
ATOM      3  C2  UNL d   1      -2.610  -0.114   1.118  0.00  0.00     0.041 A 
ATOM      4  C3  UNL d   1      -1.306   0.064   0.616  0.00  0.00    -0.075 A 
ATOM      5  S   UNL d   1      -0.862   0.475  -0.999  0.00  0.00     0.015 SA
ATOM      6  C4  UNL d   1       0.801   0.457  -0.625  0.00  0.00     0.022 A 
ATOM      7  C5  UNL d   1       1.029   0.147   0.695  0.00  0.00     0.026 A 
ATOM      8  C6  UNL d   1      -0.181  -0.085   1.432  0.00  0.00    -0.082 A 
ATOM      9  C7  UNL d   1      -0.382  -0.424   2.792  0.00  0.00     0.045 A 
ENDROOT
TORSDOF 0
ENDMDL
