MODEL 1
REMARK minimizedAffinity 0.945235491
REMARK minimizedRMSD -1
REMARK  0 active torsions:
REMARK  status: ('A' for Active; 'I' for Inactive)
ROOT
ATOM      1  C   UNL d   1       0.472   0.897   0.131  0.00  0.00    -0.002 A 
ATOM      2  C1  UNL d   1       0.409  -0.342   0.753  0.00  0.00     0.010 A 
ATOM      3  C2  UNL d   1       0.526  -1.517   0.008  0.00  0.00     0.041 A 
ATOM      4  C3  UNL d   1       0.712  -1.426  -1.386  0.00  0.00    -0.075 A 
ATOM      5  S   UNL d   1       0.881  -2.730  -2.500  0.00  0.00     0.015 SA
ATOM      6  C4  UNL d   1       1.042  -1.674  -3.827  0.00  0.00     0.022 A 
ATOM      7  C5  UNL d   1       0.971  -0.354  -3.448  0.00  0.00     0.026 A 
ATOM      8  C6  UNL d   1       0.779  -0.189  -2.035  0.00  0.00    -0.082 A 
ATOM      9  C7  UNL d   1       0.656   0.984  -1.252  0.00  0.00     0.045 A 
ENDROOT
TORSDOF 0
ENDMDL
