MODEL 1
REMARK minimizedAffinity -4.82741213
REMARK minimizedRMSD -1
REMARK  0 active torsions:
REMARK  status: ('A' for Active; 'I' for Inactive)
ROOT
ATOM      1  C   UNL d   1      -2.690  -0.008   2.375  0.00  0.00    -0.002 A 
ATOM      2  C1  UNL d   1      -1.577  -0.274   3.160  0.00  0.00     0.010 A 
ATOM      3  C2  UNL d   1      -0.320  -0.443   2.577  0.00  0.00     0.041 A 
ATOM      4  C3  UNL d   1      -0.199  -0.338   1.177  0.00  0.00    -0.075 A 
ATOM      5  S   UNL d   1       1.240  -0.507   0.243  0.00  0.00     0.015 SA
ATOM      6  C4  UNL d   1       0.412  -0.229  -1.221  0.00  0.00     0.022 A 
ATOM      7  C5  UNL d   1      -0.931  -0.011  -1.020  0.00  0.00     0.026 A 
ATOM      8  C6  UNL d   1      -1.305  -0.070   0.365  0.00  0.00    -0.082 A 
ATOM      9  C7  UNL d   1      -2.566   0.096   0.987  0.00  0.00     0.045 A 
ENDROOT
TORSDOF 0
ENDMDL
