MODEL 1
REMARK minimizedAffinity -2.39698672
REMARK minimizedRMSD -1
REMARK  0 active torsions:
REMARK  status: ('A' for Active; 'I' for Inactive)
ROOT
ATOM      1  C   UNL d   1      -1.841  -0.336   2.787  0.00  0.00    -0.002 A 
ATOM      2  C1  UNL d   1      -2.927   0.299   2.200  0.00  0.00     0.010 A 
ATOM      3  C2  UNL d   1      -2.866   0.728   0.872  0.00  0.00     0.041 A 
ATOM      4  C3  UNL d   1      -1.686   0.504   0.137  0.00  0.00    -0.075 A 
ATOM      5  S   UNL d   1      -1.384   0.941  -1.503  0.00  0.00     0.015 SA
ATOM      6  C4  UNL d   1       0.192   0.294  -1.464  0.00  0.00     0.022 A 
ATOM      7  C5  UNL d   1       0.498  -0.246  -0.237  0.00  0.00     0.026 A 
ATOM      8  C6  UNL d   1      -0.580  -0.134   0.706  0.00  0.00    -0.082 A 
ATOM      9  C7  UNL d   1      -0.672  -0.556   2.054  0.00  0.00     0.045 A 
ENDROOT
TORSDOF 0
ENDMDL
