MODEL 1
REMARK minimizedAffinity 4.41218472
REMARK minimizedRMSD -1
REMARK  2 active torsions:
REMARK  status: ('A' for Active; 'I' for Inactive)
REMARK    1  A    between atoms: C2'_3  and  C1'_4 
REMARK    2  A    between atoms: C1'_4  and  C1_5 
ROOT
ATOM      1  C1  I4B d   1      -4.588  -5.112  -3.694  0.00  0.00    -0.075 A 
ATOM      2  C2  I4B d   1      -4.641  -5.986  -4.751  0.00  0.00     0.003 A 
ATOM      3  C3  I4B d   1      -5.334  -5.633  -5.935  0.00  0.00     0.002 A 
ATOM      4  C4  I4B d   1      -5.997  -4.424  -5.999  0.00  0.00    -0.004 A 
ATOM      5  C5  I4B d   1      -5.922  -3.530  -4.935  0.00  0.00     0.002 A 
ATOM      6  C6  I4B d   1      -5.203  -3.870  -3.780  0.00  0.00     0.003 A 
ENDROOT
BRANCH   1   7
ATOM      7  C1' I4B d   1      -3.876  -5.532  -2.448  0.00  0.00     0.060 C 
BRANCH   7   8
ATOM      8  C2' I4B d   1      -4.919  -5.808  -1.384  0.00  0.00    -0.013 C 
ATOM      9  C4' I4B d   1      -4.312  -5.786  -0.006  0.00  0.00     0.013 C 
ATOM     10  C3' I4B d   1      -6.000  -4.777  -1.517  0.00  0.00     0.013 C 
ENDBRANCH   7   8
ENDBRANCH   1   7
TORSDOF 2
ENDMDL
