MODEL 1
REMARK minimizedAffinity 10.0606346
REMARK minimizedRMSD -1
REMARK  2 active torsions:
REMARK  status: ('A' for Active; 'I' for Inactive)
REMARK    1  A    between atoms: C2'_3  and  C1'_4 
REMARK    2  A    between atoms: C1'_4  and  C1_5 
ROOT
ATOM      1  C1  I4B d   1      -3.065  -0.380   3.186  0.00  0.00    -0.075 A 
ATOM      2  C2  I4B d   1      -2.272  -1.123   4.024  0.00  0.00     0.003 A 
ATOM      3  C3  I4B d   1      -0.879  -1.217   3.788  0.00  0.00     0.002 A 
ATOM      4  C4  I4B d   1      -0.333  -0.598   2.682  0.00  0.00    -0.004 A 
ATOM      5  C5  I4B d   1      -1.136   0.174   1.847  0.00  0.00     0.002 A 
ATOM      6  C6  I4B d   1      -2.509   0.294   2.107  0.00  0.00     0.003 A 
ENDROOT
BRANCH   1   7
ATOM      7  C1' I4B d   1      -4.538  -0.329   3.446  0.00  0.00     0.060 C 
BRANCH   7   8
ATOM      8  C2' I4B d   1      -5.161  -1.572   2.845  0.00  0.00    -0.013 C 
ATOM      9  C4' I4B d   1      -5.998  -2.307   3.858  0.00  0.00     0.013 C 
ATOM     10  C3' I4B d   1      -5.985  -1.153   1.664  0.00  0.00     0.013 C 
ENDBRANCH   7   8
ENDBRANCH   1   7
TORSDOF 2
ENDMDL
