MODEL 1
REMARK minimizedAffinity 13.1652155
REMARK minimizedRMSD -1
REMARK  2 active torsions:
REMARK  status: ('A' for Active; 'I' for Inactive)
REMARK    1  A    between atoms: C2'_3  and  C1'_4 
REMARK    2  A    between atoms: C1'_4  and  C1_5 
ROOT
ATOM      1  C1  I4B d   1       3.382  -0.614  -0.360  0.00  0.00    -0.075 A 
ATOM      2  C2  I4B d   1       2.263  -1.357  -0.644  0.00  0.00     0.003 A 
ATOM      3  C3  I4B d   1       2.309  -2.770  -0.575  0.00  0.00     0.002 A 
ATOM      4  C4  I4B d   1       3.500  -3.397  -0.268  0.00  0.00    -0.004 A 
ATOM      5  C5  I4B d   1       4.627  -2.643   0.042  0.00  0.00     0.002 A 
ATOM      6  C6  I4B d   1       4.565  -1.242   0.008  0.00  0.00     0.003 A 
ENDROOT
BRANCH   1   7
ATOM      7  C1' I4B d   1       3.307   0.875  -0.475  0.00  0.00     0.060 C 
BRANCH   7   8
ATOM      8  C2' I4B d   1       3.969   1.472   0.751  0.00  0.00    -0.013 C 
ATOM      9  C4' I4B d   1       5.098   2.392   0.368  0.00  0.00     0.013 C 
ATOM     10  C3' I4B d   1       2.918   2.201   1.535  0.00  0.00     0.013 C 
ENDBRANCH   7   8
ENDBRANCH   1   7
TORSDOF 2
ENDMDL
