MODEL 1
REMARK minimizedAffinity 8.48791409
REMARK minimizedRMSD -1
REMARK  2 active torsions:
REMARK  status: ('A' for Active; 'I' for Inactive)
REMARK    1  A    between atoms: C2'_3  and  C1'_4 
REMARK    2  A    between atoms: C1'_4  and  C1_5 
ROOT
ATOM      1  C1  I4B d   1      -4.522  -3.713  -3.490  0.00  0.00    -0.075 A 
ATOM      2  C2  I4B d   1      -4.485  -4.803  -2.657  0.00  0.00     0.003 A 
ATOM      3  C3  I4B d   1      -5.204  -5.977  -2.988  0.00  0.00     0.002 A 
ATOM      4  C4  I4B d   1      -5.982  -6.000  -4.127  0.00  0.00    -0.004 A 
ATOM      5  C5  I4B d   1      -6.000  -4.901  -4.982  0.00  0.00     0.002 A 
ATOM      6  C6  I4B d   1      -5.256  -3.755  -4.669  0.00  0.00     0.003 A 
ENDROOT
BRANCH   1   7
ATOM      7  C1' I4B d   1      -3.777  -2.477  -3.094  0.00  0.00     0.060 C 
BRANCH   7   8
ATOM      8  C2' I4B d   1      -2.685  -2.242  -4.118  0.00  0.00    -0.013 C 
ATOM      9  C4' I4B d   1      -2.678  -0.811  -4.588  0.00  0.00     0.013 C 
ATOM     10  C3' I4B d   1      -1.375  -2.612  -3.490  0.00  0.00     0.013 C 
ENDBRANCH   7   8
ENDBRANCH   1   7
TORSDOF 2
ENDMDL
