MODEL 1
REMARK minimizedAffinity 10.1633244
REMARK minimizedRMSD -1
REMARK  2 active torsions:
REMARK  status: ('A' for Active; 'I' for Inactive)
REMARK    1  A    between atoms: C2'_3  and  C1'_4 
REMARK    2  A    between atoms: C1'_4  and  C1_5 
ROOT
ATOM      1  C1  I4B d   1      -2.416  -0.500   3.067  0.00  0.00    -0.075 A 
ATOM      2  C2  I4B d   1      -2.468  -1.135   4.283  0.00  0.00     0.003 A 
ATOM      3  C3  I4B d   1      -1.282  -1.629   4.880  0.00  0.00     0.002 A 
ATOM      4  C4  I4B d   1      -0.083  -1.512   4.208  0.00  0.00    -0.004 A 
ATOM      5  C5  I4B d   1      -0.029  -0.848   2.986  0.00  0.00     0.002 A 
ATOM      6  C6  I4B d   1      -1.201  -0.328   2.417  0.00  0.00     0.003 A 
ENDROOT
BRANCH   1   7
ATOM      7  C1' I4B d   1      -3.692  -0.021   2.450  0.00  0.00     0.060 C 
BRANCH   7   8
ATOM      8  C2' I4B d   1      -4.838  -0.755   3.116  0.00  0.00    -0.013 C 
ATOM      9  C4' I4B d   1      -6.000   0.167   3.374  0.00  0.00     0.013 C 
ATOM     10  C3' I4B d   1      -5.237  -1.894   2.226  0.00  0.00     0.013 C 
ENDBRANCH   7   8
ENDBRANCH   1   7
TORSDOF 2
ENDMDL
