MODEL 1
REMARK minimizedAffinity 6.43697548
REMARK minimizedRMSD -1
REMARK  2 active torsions:
REMARK  status: ('A' for Active; 'I' for Inactive)
REMARK    1  A    between atoms: C2'_3  and  C1'_4 
REMARK    2  A    between atoms: C1'_4  and  C1_5 
ROOT
ATOM      1  C1  I4B d   1      -3.839   0.015   3.157  0.00  0.00    -0.075 A 
ATOM      2  C2  I4B d   1      -2.872  -0.746   3.765  0.00  0.00     0.003 A 
ATOM      3  C3  I4B d   1      -1.570  -0.818   3.213  0.00  0.00     0.002 A 
ATOM      4  C4  I4B d   1      -1.295  -0.158   2.032  0.00  0.00    -0.004 A 
ATOM      5  C5  I4B d   1      -2.271   0.631   1.430  0.00  0.00     0.002 A 
ATOM      6  C6  I4B d   1      -3.548   0.728   2.002  0.00  0.00     0.003 A 
ENDROOT
BRANCH   1   7
ATOM      7  C1' I4B d   1      -5.213   0.042   3.749  0.00  0.00     0.060 C 
BRANCH   7   8
ATOM      8  C2' I4B d   1      -5.999  -1.110   3.156  0.00  0.00    -0.013 C 
ATOM      9  C4' I4B d   1      -5.414  -1.549   1.840  0.00  0.00     0.013 C 
ATOM     10  C3' I4B d   1      -5.999  -2.232   4.151  0.00  0.00     0.013 C 
ENDBRANCH   7   8
ENDBRANCH   1   7
TORSDOF 2
ENDMDL
