MODEL 1
REMARK minimizedAffinity 4.70906019
REMARK minimizedRMSD -1
REMARK  2 active torsions:
REMARK  status: ('A' for Active; 'I' for Inactive)
REMARK    1  A    between atoms: C2'_3  and  C1'_4 
REMARK    2  A    between atoms: C1'_4  and  C1_5 
ROOT
ATOM      1  C1  I4B d   1      -4.997  -5.087  -3.808  0.00  0.00    -0.075 A 
ATOM      2  C2  I4B d   1      -4.882  -3.719  -3.775  0.00  0.00     0.003 A 
ATOM      3  C3  I4B d   1      -5.342  -2.939  -4.864  0.00  0.00     0.002 A 
ATOM      4  C4  I4B d   1      -5.861  -3.567  -5.978  0.00  0.00    -0.004 A 
ATOM      5  C5  I4B d   1      -5.997  -4.952  -6.000  0.00  0.00     0.002 A 
ATOM      6  C6  I4B d   1      -5.574  -5.716  -4.903  0.00  0.00     0.003 A 
ENDROOT
BRANCH   1   7
ATOM      7  C1' I4B d   1      -4.470  -5.882  -2.655  0.00  0.00     0.060 C 
BRANCH   7   8
ATOM      8  C2' I4B d   1      -3.650  -4.953  -1.783  0.00  0.00    -0.013 C 
ATOM      9  C4' I4B d   1      -4.152  -4.953  -0.363  0.00  0.00     0.013 C 
ATOM     10  C3' I4B d   1      -2.219  -5.396  -1.852  0.00  0.00     0.013 C 
ENDBRANCH   7   8
ENDBRANCH   1   7
TORSDOF 2
ENDMDL
