MODEL 1
REMARK minimizedAffinity 14.842227
REMARK minimizedRMSD -1
REMARK  2 active torsions:
REMARK  status: ('A' for Active; 'I' for Inactive)
REMARK    1  A    between atoms: C2'_3  and  C1'_4 
REMARK    2  A    between atoms: C1'_4  and  C1_5 
ROOT
ATOM      1  C1  I4B d   1      -2.396  -2.503  -4.229  0.00  0.00    -0.075 A 
ATOM      2  C2  I4B d   1      -1.192  -3.160  -4.275  0.00  0.00     0.003 A 
ATOM      3  C3  I4B d   1      -0.060  -2.621  -3.617  0.00  0.00     0.002 A 
ATOM      4  C4  I4B d   1      -0.163  -1.404  -2.974  0.00  0.00    -0.004 A 
ATOM      5  C5  I4B d   1      -1.390  -0.750  -2.910  0.00  0.00     0.002 A 
ATOM      6  C6  I4B d   1      -2.517  -1.308  -3.531  0.00  0.00     0.003 A 
ENDROOT
BRANCH   1   7
ATOM      7  C1' I4B d   1      -3.563  -3.084  -4.962  0.00  0.00     0.060 C 
BRANCH   7   8
ATOM      8  C2' I4B d   1      -4.622  -3.446  -3.941  0.00  0.00    -0.013 C 
ATOM      9  C4' I4B d   1      -6.000  -3.093  -4.436  0.00  0.00     0.013 C 
ATOM     10  C3' I4B d   1      -4.509  -4.915  -3.657  0.00  0.00     0.013 C 
ENDBRANCH   7   8
ENDBRANCH   1   7
TORSDOF 2
ENDMDL
