MODEL 1
REMARK minimizedAffinity 10.6435337
REMARK minimizedRMSD -1
REMARK  2 active torsions:
REMARK  status: ('A' for Active; 'I' for Inactive)
REMARK    1  A    between atoms: C2'_3  and  C1'_4 
REMARK    2  A    between atoms: C1'_4  and  C1_5 
ROOT
ATOM      1  C1  I4B d   1       1.838  -3.036  -2.256  0.00  0.00    -0.075 A 
ATOM      2  C2  I4B d   1       2.387  -2.731  -1.036  0.00  0.00     0.003 A 
ATOM      3  C3  I4B d   1       2.756  -1.398  -0.732  0.00  0.00     0.002 A 
ATOM      4  C4  I4B d   1       2.606  -0.417  -1.691  0.00  0.00    -0.004 A 
ATOM      5  C5  I4B d   1       2.028  -0.723  -2.920  0.00  0.00     0.002 A 
ATOM      6  C6  I4B d   1       1.630  -2.038  -3.200  0.00  0.00     0.003 A 
ENDROOT
BRANCH   1   7
ATOM      7  C1' I4B d   1       1.491  -4.460  -2.555  0.00  0.00     0.060 C 
BRANCH   7   8
ATOM      8  C2' I4B d   1      -0.015  -4.552  -2.702  0.00  0.00    -0.013 C 
ATOM      9  C4' I4B d   1      -0.474  -3.945  -4.001  0.00  0.00     0.013 C 
ATOM     10  C3' I4B d   1      -0.401  -5.998  -2.613  0.00  0.00     0.013 C 
ENDBRANCH   7   8
ENDBRANCH   1   7
TORSDOF 2
ENDMDL
