MODEL 1
REMARK minimizedAffinity 13.563839
REMARK minimizedRMSD -1
REMARK  2 active torsions:
REMARK  status: ('A' for Active; 'I' for Inactive)
REMARK    1  A    between atoms: C2'_3  and  C1'_4 
REMARK    2  A    between atoms: C1'_4  and  C1_5 
ROOT
ATOM      1  C1  I4B d   1       3.096  -0.915  -0.663  0.00  0.00    -0.075 A 
ATOM      2  C2  I4B d   1       4.290  -1.528  -0.376  0.00  0.00     0.003 A 
ATOM      3  C3  I4B d   1       4.379  -2.941  -0.356  0.00  0.00     0.002 A 
ATOM      4  C4  I4B d   1       3.246  -3.697  -0.576  0.00  0.00    -0.004 A 
ATOM      5  C5  I4B d   1       2.041  -3.074  -0.889  0.00  0.00     0.002 A 
ATOM      6  C6  I4B d   1       1.968  -1.674  -0.945  0.00  0.00     0.003 A 
ENDROOT
BRANCH   1   7
ATOM      7  C1' I4B d   1       3.030   0.579  -0.643  0.00  0.00     0.060 C 
BRANCH   7   8
ATOM      8  C2' I4B d   1       3.829   1.067   0.548  0.00  0.00    -0.013 C 
ATOM      9  C4' I4B d   1       4.891   2.048   0.128  0.00  0.00     0.013 C 
ATOM     10  C3' I4B d   1       2.874   1.687   1.524  0.00  0.00     0.013 C 
ENDBRANCH   7   8
ENDBRANCH   1   7
TORSDOF 2
ENDMDL
