MODEL 1
REMARK minimizedAffinity 6.9913764
REMARK minimizedRMSD -1
REMARK  2 active torsions:
REMARK  status: ('A' for Active; 'I' for Inactive)
REMARK    1  A    between atoms: C2'_3  and  C1'_4 
REMARK    2  A    between atoms: C1'_4  and  C1_5 
ROOT
ATOM      1  C1  I4B d   1       2.612  -0.602  -1.342  0.00  0.00    -0.075 A 
ATOM      2  C2  I4B d   1       1.971  -1.012  -2.484  0.00  0.00     0.003 A 
ATOM      3  C3  I4B d   1       1.931  -2.385  -2.826  0.00  0.00     0.002 A 
ATOM      4  C4  I4B d   1       2.585  -3.303  -2.029  0.00  0.00    -0.004 A 
ATOM      5  C5  I4B d   1       3.215  -2.889  -0.859  0.00  0.00     0.002 A 
ATOM      6  C6  I4B d   1       3.218  -1.531  -0.506  0.00  0.00     0.003 A 
ENDROOT
BRANCH   1   7
ATOM      7  C1' I4B d   1       2.662   0.860  -1.028  0.00  0.00     0.060 C 
BRANCH   7   8
ATOM      8  C2' I4B d   1       3.557   1.047   0.180  0.00  0.00    -0.013 C 
ATOM      9  C4' I4B d   1       4.719   1.952  -0.138  0.00  0.00     0.013 C 
ATOM     10  C3' I4B d   1       2.722   1.608   1.292  0.00  0.00     0.013 C 
ENDBRANCH   7   8
ENDBRANCH   1   7
TORSDOF 2
ENDMDL
