MODEL 1
REMARK minimizedAffinity 13.5475321
REMARK minimizedRMSD -1
REMARK  2 active torsions:
REMARK  status: ('A' for Active; 'I' for Inactive)
REMARK    1  A    between atoms: C2'_3  and  C1'_4 
REMARK    2  A    between atoms: C1'_4  and  C1_5 
ROOT
ATOM      1  C1  I4B d   1      -5.195  -5.037  -3.524  0.00  0.00    -0.075 A 
ATOM      2  C2  I4B d   1      -5.578  -5.531  -4.746  0.00  0.00     0.003 A 
ATOM      3  C3  I4B d   1      -5.953  -4.647  -5.786  0.00  0.00     0.002 A 
ATOM      4  C4  I4B d   1      -5.979  -3.288  -5.548  0.00  0.00    -0.004 A 
ATOM      5  C5  I4B d   1      -5.568  -2.788  -4.316  0.00  0.00     0.002 A 
ATOM      6  C6  I4B d   1      -5.161  -3.666  -3.301  0.00  0.00     0.003 A 
ENDROOT
BRANCH   1   7
ATOM      7  C1' I4B d   1      -4.836  -6.000  -2.437  0.00  0.00     0.060 C 
BRANCH   7   8
ATOM      8  C2' I4B d   1      -3.904  -5.292  -1.475  0.00  0.00    -0.013 C 
ATOM      9  C4' I4B d   1      -4.444  -5.324  -0.069  0.00  0.00     0.013 C 
ATOM     10  C3' I4B d   1      -2.563  -5.958  -1.555  0.00  0.00     0.013 C 
ENDBRANCH   7   8
ENDBRANCH   1   7
TORSDOF 2
ENDMDL
