MODEL 1
REMARK minimizedAffinity -2.80519509
REMARK minimizedRMSD -1
REMARK  0 active torsions:
REMARK  status: ('A' for Active; 'I' for Inactive)
ROOT
ATOM      1  C   UNL d   1       1.804   0.369  -2.245  0.00  0.00     0.172 C 
ATOM      2  N   UNL d   1       0.898   0.098  -1.153  0.00  0.00    -0.070 N 
ATOM      3  C1  UNL d   1       0.664   0.925  -0.087  0.00  0.00    -0.004 A 
ATOM      4  C2  UNL d   1      -0.260   0.310   0.730  0.00  0.00    -0.047 A 
ATOM      5  C3  UNL d   1      -0.591  -0.930   0.134  0.00  0.00    -0.047 A 
ATOM      6  C4  UNL d   1       0.140  -1.036  -1.030  0.00  0.00    -0.004 A 
ENDROOT
TORSDOF 0
ENDMDL
