MODEL 1
REMARK minimizedAffinity -3.24113703
REMARK minimizedRMSD -1
REMARK  0 active torsions:
REMARK  status: ('A' for Active; 'I' for Inactive)
ROOT
ATOM      1  C   UNL d   1       0.125  -0.259   1.067  0.00  0.00     0.172 C 
ATOM      2  N   UNL d   1       0.628   0.049  -0.251  0.00  0.00    -0.070 N 
ATOM      3  C1  UNL d   1       1.627   0.941  -0.536  0.00  0.00    -0.004 A 
ATOM      4  C2  UNL d   1       1.811   0.946  -1.902  0.00  0.00    -0.047 A 
ATOM      5  C3  UNL d   1       0.890   0.026  -2.457  0.00  0.00    -0.047 A 
ATOM      6  C4  UNL d   1       0.171  -0.516  -1.412  0.00  0.00    -0.004 A 
ENDROOT
TORSDOF 0
ENDMDL
