MODEL 1
REMARK minimizedAffinity -3.13024187
REMARK minimizedRMSD -1
REMARK  0 active torsions:
REMARK  status: ('A' for Active; 'I' for Inactive)
ROOT
ATOM      1  C   UNL d   1       0.748  -2.666  -0.106  0.00  0.00     0.172 C 
ATOM      2  N   UNL d   1       0.968  -1.578  -1.030  0.00  0.00    -0.070 N 
ATOM      3  C1  UNL d   1       2.039  -1.452  -1.874  0.00  0.00    -0.004 A 
ATOM      4  C2  UNL d   1       1.879  -0.284  -2.587  0.00  0.00    -0.047 A 
ATOM      5  C3  UNL d   1       0.671   0.313  -2.156  0.00  0.00    -0.047 A 
ATOM      6  C4  UNL d   1       0.127  -0.509  -1.191  0.00  0.00    -0.004 A 
ENDROOT
TORSDOF 0
ENDMDL
