MODEL 1
REMARK minimizedAffinity -3.18774199
REMARK minimizedRMSD -1
REMARK  0 active torsions:
REMARK  status: ('A' for Active; 'I' for Inactive)
ROOT
ATOM      1  C   UNL d   1      -0.277   0.052   0.991  0.00  0.00     0.172 C 
ATOM      2  N   UNL d   1       0.607   0.039  -0.150  0.00  0.00    -0.070 N 
ATOM      3  C1  UNL d   1       1.758   0.770  -0.277  0.00  0.00    -0.004 A 
ATOM      4  C2  UNL d   1       2.310   0.478  -1.506  0.00  0.00    -0.047 A 
ATOM      5  C3  UNL d   1       1.462  -0.461  -2.139  0.00  0.00    -0.047 A 
ATOM      6  C4  UNL d   1       0.415  -0.715  -1.278  0.00  0.00    -0.004 A 
ENDROOT
TORSDOF 0
ENDMDL
