MODEL 1
REMARK minimizedAffinity -4.14007092
REMARK minimizedRMSD -1
REMARK  0 active torsions:
REMARK  status: ('A' for Active; 'I' for Inactive)
ROOT
ATOM      1  C   UNL d   1       0.587  -1.132   0.759  0.00  0.00     0.172 C 
ATOM      2  N   UNL d   1       1.088  -1.005  -0.589  0.00  0.00    -0.070 N 
ATOM      3  C1  UNL d   1       1.060   0.135  -1.347  0.00  0.00    -0.004 A 
ATOM      4  C2  UNL d   1       1.632  -0.155  -2.567  0.00  0.00    -0.047 A 
ATOM      5  C3  UNL d   1       2.015  -1.517  -2.542  0.00  0.00    -0.047 A 
ATOM      6  C4  UNL d   1       1.667  -2.019  -1.306  0.00  0.00    -0.004 A 
ENDROOT
TORSDOF 0
ENDMDL
