MODEL 1
REMARK minimizedAffinity -3.23936152
REMARK minimizedRMSD -1
REMARK  0 active torsions:
REMARK  status: ('A' for Active; 'I' for Inactive)
ROOT
ATOM      1  C   UNL d   1      -0.344  -0.256   0.703  0.00  0.00     0.172 C 
ATOM      2  N   UNL d   1       0.490   0.002  -0.448  0.00  0.00    -0.070 N 
ATOM      3  C1  UNL d   1       0.423  -0.658  -1.646  0.00  0.00    -0.004 A 
ATOM      4  C2  UNL d   1       1.381  -0.120  -2.478  0.00  0.00    -0.047 A 
ATOM      5  C3  UNL d   1       2.047   0.898  -1.755  0.00  0.00    -0.047 A 
ATOM      6  C4  UNL d   1       1.475   0.952  -0.501  0.00  0.00    -0.004 A 
ENDROOT
TORSDOF 0
ENDMDL
