MODEL 1
REMARK minimizedAffinity -2.53884268
REMARK minimizedRMSD -1
REMARK  0 active torsions:
REMARK  status: ('A' for Active; 'I' for Inactive)
ROOT
ATOM      1  C   UNL d   1      -0.310  -0.520   2.059  0.00  0.00     0.172 C 
ATOM      2  N   UNL d   1       0.037  -0.745   0.675  0.00  0.00    -0.070 N 
ATOM      3  C1  UNL d   1       0.188   0.227  -0.278  0.00  0.00    -0.004 A 
ATOM      4  C2  UNL d   1       0.519  -0.393  -1.464  0.00  0.00    -0.047 A 
ATOM      5  C3  UNL d   1       0.567  -1.785  -1.215  0.00  0.00    -0.047 A 
ATOM      6  C4  UNL d   1       0.265  -1.975   0.117  0.00  0.00    -0.004 A 
ENDROOT
TORSDOF 0
ENDMDL
