MODEL 1
REMARK minimizedAffinity -3.43911648
REMARK minimizedRMSD -1
REMARK  0 active torsions:
REMARK  status: ('A' for Active; 'I' for Inactive)
ROOT
ATOM      1  C   UNL d   1      -1.171   0.283   1.199  0.00  0.00     0.172 C 
ATOM      2  N   UNL d   1      -0.560  -0.362   0.061  0.00  0.00    -0.070 N 
ATOM      3  C1  UNL d   1      -0.218  -1.686  -0.018  0.00  0.00    -0.004 A 
ATOM      4  C2  UNL d   1       0.335  -1.906  -1.261  0.00  0.00    -0.047 A 
ATOM      5  C3  UNL d   1       0.325  -0.672  -1.953  0.00  0.00    -0.047 A 
ATOM      6  C4  UNL d   1      -0.234   0.267  -1.112  0.00  0.00    -0.004 A 
ENDROOT
TORSDOF 0
ENDMDL
