MODEL 1
REMARK minimizedAffinity -2.3839438
REMARK minimizedRMSD -1
REMARK  0 active torsions:
REMARK  status: ('A' for Active; 'I' for Inactive)
ROOT
ATOM      1  C   UNL d   1      -4.603   2.430  -5.996  0.00  0.00     0.172 C 
ATOM      2  N   UNL d   1      -4.793   3.842  -5.765  0.00  0.00    -0.070 N 
ATOM      3  C1  UNL d   1      -6.000   4.471  -5.609  0.00  0.00    -0.004 A 
ATOM      4  C2  UNL d   1      -5.754   5.812  -5.410  0.00  0.00    -0.047 A 
ATOM      5  C3  UNL d   1      -4.352   5.997  -5.449  0.00  0.00    -0.047 A 
ATOM      6  C4  UNL d   1      -3.781   4.761  -5.670  0.00  0.00    -0.004 A 
ENDROOT
TORSDOF 0
ENDMDL
