MODEL 1
REMARK minimizedAffinity -2.56760359
REMARK minimizedRMSD -1
REMARK  0 active torsions:
REMARK  status: ('A' for Active; 'I' for Inactive)
ROOT
ATOM      1  C   UNL d   1      -0.539  -0.279   0.556  0.00  0.00     0.172 C 
ATOM      2  N   UNL d   1      -1.738   0.184   1.215  0.00  0.00    -0.070 N 
ATOM      3  C1  UNL d   1      -3.020  -0.149   0.867  0.00  0.00    -0.004 A 
ATOM      4  C2  UNL d   1      -3.874   0.496   1.735  0.00  0.00    -0.047 A 
ATOM      5  C3  UNL d   1      -3.078   1.243   2.636  0.00  0.00    -0.047 A 
ATOM      6  C4  UNL d   1      -1.760   1.032   2.291  0.00  0.00    -0.004 A 
ENDROOT
TORSDOF 0
ENDMDL
