MODEL 1
REMARK minimizedAffinity -1.83233213
REMARK minimizedRMSD -1
REMARK  0 active torsions:
REMARK  status: ('A' for Active; 'I' for Inactive)
ROOT
ATOM      1  C   UNL d   1      -3.392   5.999  -5.471  0.00  0.00     0.172 C 
ATOM      2  N   UNL d   1      -4.216   4.823  -5.616  0.00  0.00    -0.070 N 
ATOM      3  C1  UNL d   1      -3.774   3.577  -5.974  0.00  0.00    -0.004 A 
ATOM      4  C2  UNL d   1      -4.863   2.733  -5.999  0.00  0.00    -0.047 A 
ATOM      5  C3  UNL d   1      -6.000   3.499  -5.646  0.00  0.00    -0.047 A 
ATOM      6  C4  UNL d   1      -5.571   4.788  -5.414  0.00  0.00    -0.004 A 
ENDROOT
TORSDOF 0
ENDMDL
