MODEL 1
REMARK minimizedAffinity -3.69798446
REMARK minimizedRMSD -1
REMARK  0 active torsions:
REMARK  status: ('A' for Active; 'I' for Inactive)
ROOT
ATOM      1  C   UNL d   1       1.124  -0.209  -2.663  0.00  0.00     0.172 C 
ATOM      2  N   UNL d   1       0.780  -0.457  -1.283  0.00  0.00    -0.070 N 
ATOM      3  C1  UNL d   1       0.801   0.471  -0.276  0.00  0.00    -0.004 A 
ATOM      4  C2  UNL d   1       0.408  -0.158   0.886  0.00  0.00    -0.047 A 
ATOM      5  C3  UNL d   1       0.142  -1.510   0.566  0.00  0.00    -0.047 A 
ATOM      6  C4  UNL d   1       0.380  -1.668  -0.782  0.00  0.00    -0.004 A 
ENDROOT
TORSDOF 0
ENDMDL
