MODEL 1
REMARK minimizedAffinity -0.97140789
REMARK minimizedRMSD -1
REMARK  0 active torsions:
REMARK  status: ('A' for Active; 'I' for Inactive)
ROOT
ATOM      1  C   UNL d   1       1.914   1.113  -1.098  0.00  0.00     0.172 C 
ATOM      2  N   UNL d   1       0.778   0.511  -0.438  0.00  0.00    -0.070 N 
ATOM      3  C1  UNL d   1      -0.489   1.028  -0.400  0.00  0.00    -0.004 A 
ATOM      4  C2  UNL d   1      -1.278   0.159   0.322  0.00  0.00    -0.047 A 
ATOM      5  C3  UNL d   1      -0.456  -0.917   0.733  0.00  0.00    -0.047 A 
ATOM      6  C4  UNL d   1       0.812  -0.674   0.248  0.00  0.00    -0.004 A 
ENDROOT
TORSDOF 0
ENDMDL
