MODEL 1
REMARK minimizedAffinity -3.06045556
REMARK minimizedRMSD -1
REMARK  0 active torsions:
REMARK  status: ('A' for Active; 'I' for Inactive)
ROOT
ATOM      1  C   UNL d   1      -0.172   0.082   0.899  0.00  0.00     0.172 C 
ATOM      2  N   UNL d   1       0.616   0.355  -0.280  0.00  0.00    -0.070 N 
ATOM      3  C1  UNL d   1       1.155   1.568  -0.617  0.00  0.00    -0.004 A 
ATOM      4  C2  UNL d   1       1.833   1.413  -1.807  0.00  0.00    -0.047 A 
ATOM      5  C3  UNL d   1       1.696   0.060  -2.199  0.00  0.00    -0.047 A 
ATOM      6  C4  UNL d   1       0.939  -0.572  -1.236  0.00  0.00    -0.004 A 
ENDROOT
TORSDOF 0
ENDMDL
