MODEL 1
REMARK minimizedAffinity 18.0725021
REMARK minimizedRMSD -1
REMARK  0 active torsions:
REMARK  status: ('A' for Active; 'I' for Inactive)
ROOT
ATOM      1  C   UNL d   1      -2.982   6.000   1.575  0.00  0.00    -0.002 A 
ATOM      2  C1  UNL d   1      -4.362   5.865   1.513  0.00  0.00     0.010 A 
ATOM      3  C2  UNL d   1      -4.984   5.464   0.329  0.00  0.00     0.041 A 
ATOM      4  C3  UNL d   1      -4.188   5.195  -0.802  0.00  0.00    -0.075 A 
ATOM      5  S   UNL d   1      -4.730   4.690  -2.358  0.00  0.00     0.015 SA
ATOM      6  C4  UNL d   1      -3.143   4.640  -2.977  0.00  0.00     0.022 A 
ATOM      7  C5  UNL d   1      -2.210   4.998  -2.033  0.00  0.00     0.026 A 
ATOM      8  C6  UNL d   1      -2.796   5.323  -0.764  0.00  0.00    -0.082 A 
ATOM      9  C7  UNL d   1      -2.196   5.733   0.451  0.00  0.00     0.045 A 
ENDROOT
TORSDOF 0
ENDMDL
