MODEL 1
REMARK minimizedAffinity 25.5781403
REMARK minimizedRMSD -1
REMARK  0 active torsions:
REMARK  status: ('A' for Active; 'I' for Inactive)
ROOT
ATOM      1  C   UNL d   1       5.280  -5.998  -1.819  0.00  0.00    -0.002 A 
ATOM      2  C1  UNL d   1       5.824  -5.249  -0.786  0.00  0.00     0.010 A 
ATOM      3  C2  UNL d   1       5.021  -4.391  -0.032  0.00  0.00     0.041 A 
ATOM      4  C3  UNL d   1       3.649  -4.299  -0.336  0.00  0.00    -0.075 A 
ATOM      5  S   UNL d   1       2.473  -3.315   0.453  0.00  0.00     0.015 SA
ATOM      6  C4  UNL d   1       1.221  -3.868  -0.563  0.00  0.00     0.022 A 
ATOM      7  C5  UNL d   1       1.671  -4.780  -1.487  0.00  0.00     0.026 A 
ATOM      8  C6  UNL d   1       3.078  -5.044  -1.371  0.00  0.00    -0.082 A 
ATOM      9  C7  UNL d   1       3.918  -5.905  -2.118  0.00  0.00     0.045 A 
ENDROOT
TORSDOF 0
ENDMDL
