MODEL 1
REMARK minimizedAffinity 16.4439201
REMARK minimizedRMSD -1
REMARK  0 active torsions:
REMARK  status: ('A' for Active; 'I' for Inactive)
ROOT
ATOM      1  C   UNL d   1       1.566   3.437  -1.420  0.00  0.00    -0.002 A 
ATOM      2  C1  UNL d   1       0.374   2.800  -1.105  0.00  0.00     0.010 A 
ATOM      3  C2  UNL d   1       0.201   2.192   0.140  0.00  0.00     0.041 A 
ATOM      4  C3  UNL d   1       1.256   2.237   1.073  0.00  0.00    -0.075 A 
ATOM      5  S   UNL d   1       1.270   1.562   2.659  0.00  0.00     0.015 SA
ATOM      6  C4  UNL d   1       2.858   2.104   2.957  0.00  0.00     0.022 A 
ATOM      7  C5  UNL d   1       3.380   2.785   1.882  0.00  0.00     0.026 A 
ATOM      8  C6  UNL d   1       2.465   2.873   0.779  0.00  0.00    -0.082 A 
ATOM      9  C7  UNL d   1       2.610   3.479  -0.492  0.00  0.00     0.045 A 
ENDROOT
TORSDOF 0
ENDMDL
