MODEL 1
REMARK minimizedAffinity 10.2894258
REMARK minimizedRMSD -1
REMARK  0 active torsions:
REMARK  status: ('A' for Active; 'I' for Inactive)
ROOT
ATOM      1  C   UNL d   1       3.505  -0.755   0.050  0.00  0.00    -0.002 A 
ATOM      2  C1  UNL d   1       4.325  -1.819   0.400  0.00  0.00     0.010 A 
ATOM      3  C2  UNL d   1       3.918  -3.135   0.170  0.00  0.00     0.041 A 
ATOM      4  C3  UNL d   1       2.662  -3.366  -0.425  0.00  0.00    -0.075 A 
ATOM      5  S   UNL d   1       1.956  -4.893  -0.803  0.00  0.00     0.015 SA
ATOM      6  C4  UNL d   1       0.550  -4.169  -1.438  0.00  0.00     0.022 A 
ATOM      7  C5  UNL d   1       0.601  -2.797  -1.371  0.00  0.00     0.026 A 
ATOM      8  C6  UNL d   1       1.819  -2.311  -0.787  0.00  0.00    -0.082 A 
ATOM      9  C7  UNL d   1       2.260  -0.989  -0.540  0.00  0.00     0.045 A 
ENDROOT
TORSDOF 0
ENDMDL
