MODEL 1
REMARK minimizedAffinity 13.9886684
REMARK minimizedRMSD -1
REMARK  0 active torsions:
REMARK  status: ('A' for Active; 'I' for Inactive)
ROOT
ATOM      1  C   UNL d   1       0.412  -4.632  -1.119  0.00  0.00    -0.002 A 
ATOM      2  C1  UNL d   1       1.518  -5.462  -1.008  0.00  0.00     0.010 A 
ATOM      3  C2  UNL d   1       2.323  -5.726  -2.119  0.00  0.00     0.041 A 
ATOM      4  C3  UNL d   1       1.994  -5.134  -3.354  0.00  0.00    -0.075 A 
ATOM      5  S   UNL d   1       2.835  -5.313  -4.849  0.00  0.00     0.015 SA
ATOM      6  C4  UNL d   1       1.746  -4.290  -5.669  0.00  0.00     0.022 A 
ATOM      7  C5  UNL d   1       0.759  -3.815  -4.839  0.00  0.00     0.026 A 
ATOM      8  C6  UNL d   1       0.886  -4.293  -3.491  0.00  0.00    -0.082 A 
ATOM      9  C7  UNL d   1       0.090  -4.046  -2.346  0.00  0.00     0.045 A 
ENDROOT
TORSDOF 0
ENDMDL
