MODEL 1
REMARK minimizedAffinity 3.41419315
REMARK minimizedRMSD -1
REMARK  0 active torsions:
REMARK  status: ('A' for Active; 'I' for Inactive)
ROOT
ATOM      1  C   UNL d   1       3.038  -5.990   2.852  0.00  0.00     0.172 C 
ATOM      2  N   UNL d   1       3.985  -5.992   3.942  0.00  0.00    -0.070 N 
ATOM      3  C1  UNL d   1       3.669  -5.998   5.275  0.00  0.00    -0.004 A 
ATOM      4  C2  UNL d   1       4.848  -5.999   5.988  0.00  0.00    -0.047 A 
ATOM      5  C3  UNL d   1       5.910  -5.992   5.053  0.00  0.00    -0.047 A 
ATOM      6  C4  UNL d   1       5.347  -5.988   3.794  0.00  0.00    -0.004 A 
ENDROOT
TORSDOF 0
ENDMDL
