MODEL 1
REMARK minimizedAffinity 0.695602536
REMARK minimizedRMSD -1
REMARK  0 active torsions:
REMARK  status: ('A' for Active; 'I' for Inactive)
ROOT
ATOM      1  C   UNL d   1       2.713   0.128   2.318  0.00  0.00     0.172 C 
ATOM      2  N   UNL d   1       1.338  -0.294   2.199  0.00  0.00    -0.070 N 
ATOM      3  C1  UNL d   1       0.426  -0.342   3.219  0.00  0.00    -0.004 A 
ATOM      4  C2  UNL d   1      -0.767  -0.795   2.698  0.00  0.00    -0.047 A 
ATOM      5  C3  UNL d   1      -0.565  -1.028   1.317  0.00  0.00    -0.047 A 
ATOM      6  C4  UNL d   1       0.747  -0.710   1.035  0.00  0.00    -0.004 A 
ENDROOT
TORSDOF 0
ENDMDL
