MODEL 1
REMARK minimizedAffinity 2.23733711
REMARK minimizedRMSD -1
REMARK  0 active torsions:
REMARK  status: ('A' for Active; 'I' for Inactive)
ROOT
ATOM      1  C   UNL d   1       2.638  -0.797   1.434  0.00  0.00     0.172 C 
ATOM      2  N   UNL d   1       1.210  -1.012   1.477  0.00  0.00    -0.070 N 
ATOM      3  C1  UNL d   1       0.587  -2.230   1.522  0.00  0.00    -0.004 A 
ATOM      4  C2  UNL d   1      -0.772  -2.008   1.554  0.00  0.00    -0.047 A 
ATOM      5  C3  UNL d   1      -0.974  -0.608   1.527  0.00  0.00    -0.047 A 
ATOM      6  C4  UNL d   1       0.271  -0.015   1.479  0.00  0.00    -0.004 A 
ENDROOT
TORSDOF 0
ENDMDL
