MODEL 1
REMARK minimizedAffinity 3.13911128
REMARK minimizedRMSD -1
REMARK  0 active torsions:
REMARK  status: ('A' for Active; 'I' for Inactive)
ROOT
ATOM      1  C   UNL d   1       4.745  -2.407   5.954  0.00  0.00     0.172 C 
ATOM      2  N   UNL d   1       4.874  -3.826   5.722  0.00  0.00    -0.070 N 
ATOM      3  C1  UNL d   1       3.903  -4.764   5.953  0.00  0.00    -0.004 A 
ATOM      4  C2  UNL d   1       4.415  -5.996   5.605  0.00  0.00    -0.047 A 
ATOM      5  C3  UNL d   1       5.740  -5.791   5.150  0.00  0.00    -0.047 A 
ATOM      6  C4  UNL d   1       5.998  -4.439   5.233  0.00  0.00    -0.004 A 
ENDROOT
TORSDOF 0
ENDMDL
