MODEL 1
REMARK minimizedAffinity 4.00794411
REMARK minimizedRMSD -1
REMARK  0 active torsions:
REMARK  status: ('A' for Active; 'I' for Inactive)
ROOT
ATOM      1  C   UNL d   1       2.250  -0.378   0.480  0.00  0.00     0.172 C 
ATOM      2  N   UNL d   1       0.972  -0.765   1.030  0.00  0.00    -0.070 N 
ATOM      3  C1  UNL d   1       0.240  -1.860   0.653  0.00  0.00    -0.004 A 
ATOM      4  C2  UNL d   1      -0.911  -1.879   1.411  0.00  0.00    -0.047 A 
ATOM      5  C3  UNL d   1      -0.869  -0.756   2.272  0.00  0.00    -0.047 A 
ATOM      6  C4  UNL d   1       0.307  -0.085   2.015  0.00  0.00    -0.004 A 
ENDROOT
TORSDOF 0
ENDMDL
