MODEL 1
REMARK minimizedAffinity 8.42467499
REMARK minimizedRMSD -1
REMARK  0 active torsions:
REMARK  status: ('A' for Active; 'I' for Inactive)
ROOT
ATOM      1  C   UNL d   1      -0.816   4.818  -2.914  0.00  0.00     0.172 C 
ATOM      2  N   UNL d   1      -0.798   3.690  -3.815  0.00  0.00    -0.070 N 
ATOM      3  C1  UNL d   1       0.320   3.132  -4.374  0.00  0.00    -0.004 A 
ATOM      4  C2  UNL d   1      -0.084   2.082  -5.170  0.00  0.00    -0.047 A 
ATOM      5  C3  UNL d   1      -1.495   2.007  -5.087  0.00  0.00    -0.047 A 
ATOM      6  C4  UNL d   1      -1.911   3.014  -4.242  0.00  0.00    -0.004 A 
ENDROOT
TORSDOF 0
ENDMDL
