MODEL 1
REMARK minimizedAffinity 4.86481142
REMARK minimizedRMSD -1
REMARK  0 active torsions:
REMARK  status: ('A' for Active; 'I' for Inactive)
ROOT
ATOM      1  C   UNL d   1      -0.856   5.331  -2.374  0.00  0.00     0.172 C 
ATOM      2  N   UNL d   1      -0.855   4.171  -3.233  0.00  0.00    -0.070 N 
ATOM      3  C1  UNL d   1       0.253   3.589  -3.788  0.00  0.00    -0.004 A 
ATOM      4  C2  UNL d   1      -0.167   2.511  -4.537  0.00  0.00    -0.047 A 
ATOM      5  C3  UNL d   1      -1.576   2.443  -4.429  0.00  0.00    -0.047 A 
ATOM      6  C4  UNL d   1      -1.976   3.482  -3.616  0.00  0.00    -0.004 A 
ENDROOT
TORSDOF 0
ENDMDL
