MODEL 1
REMARK minimizedAffinity 4.06029892
REMARK minimizedRMSD -1
REMARK  0 active torsions:
REMARK  status: ('A' for Active; 'I' for Inactive)
ROOT
ATOM      1  C   UNL d   1       1.991  -0.460   0.165  0.00  0.00     0.172 C 
ATOM      2  N   UNL d   1       0.775  -0.817   0.857  0.00  0.00    -0.070 N 
ATOM      3  C1  UNL d   1      -0.024  -1.889   0.564  0.00  0.00    -0.004 A 
ATOM      4  C2  UNL d   1      -1.081  -1.883   1.449  0.00  0.00    -0.047 A 
ATOM      5  C3  UNL d   1      -0.911  -0.767   2.303  0.00  0.00    -0.047 A 
ATOM      6  C4  UNL d   1       0.246  -0.125   1.915  0.00  0.00    -0.004 A 
ENDROOT
TORSDOF 0
ENDMDL
