MODEL 1
REMARK minimizedAffinity 9.15485668
REMARK minimizedRMSD -1
REMARK  0 active torsions:
REMARK  status: ('A' for Active; 'I' for Inactive)
ROOT
ATOM      1  C   UNL d   1      -0.840  -1.454   4.691  0.00  0.00     0.172 C 
ATOM      2  N   UNL d   1      -0.591  -1.134   3.305  0.00  0.00    -0.070 N 
ATOM      3  C1  UNL d   1       0.527  -0.511   2.818  0.00  0.00    -0.004 A 
ATOM      4  C2  UNL d   1       0.382  -0.390   1.453  0.00  0.00    -0.047 A 
ATOM      5  C3  UNL d   1      -0.867  -0.958   1.108  0.00  0.00    -0.047 A 
ATOM      6  C4  UNL d   1      -1.448  -1.411   2.273  0.00  0.00    -0.004 A 
ENDROOT
TORSDOF 0
ENDMDL
