MODEL 1
REMARK minimizedAffinity 7.50549984
REMARK minimizedRMSD -1
REMARK  0 active torsions:
REMARK  status: ('A' for Active; 'I' for Inactive)
ROOT
ATOM      1  C   UNL d   1      -3.640  -2.242   1.056  0.00  0.00     0.172 C 
ATOM      2  N   UNL d   1      -2.283  -1.752   1.013  0.00  0.00    -0.070 N 
ATOM      3  C1  UNL d   1      -1.236  -2.356   0.368  0.00  0.00    -0.004 A 
ATOM      4  C2  UNL d   1      -0.115  -1.579   0.564  0.00  0.00    -0.047 A 
ATOM      5  C3  UNL d   1      -0.501  -0.470   1.354  0.00  0.00    -0.047 A 
ATOM      6  C4  UNL d   1      -1.848  -0.603   1.618  0.00  0.00    -0.004 A 
ENDROOT
TORSDOF 0
ENDMDL
