MODEL 1
REMARK minimizedAffinity 2.06626749
REMARK minimizedRMSD -1
REMARK  0 active torsions:
REMARK  status: ('A' for Active; 'I' for Inactive)
ROOT
ATOM      1  C   UNL d   1      -1.361  -1.652   3.965  0.00  0.00     0.172 C 
ATOM      2  N   UNL d   1      -0.858  -1.548   2.615  0.00  0.00    -0.070 N 
ATOM      3  C1  UNL d   1      -1.169  -2.390   1.580  0.00  0.00    -0.004 A 
ATOM      4  C2  UNL d   1      -0.489  -1.954   0.463  0.00  0.00    -0.047 A 
ATOM      5  C3  UNL d   1       0.257  -0.812   0.840  0.00  0.00    -0.047 A 
ATOM      6  C4  UNL d   1       0.010  -0.583   2.177  0.00  0.00    -0.004 A 
ENDROOT
TORSDOF 0
ENDMDL
