MODEL 1
REMARK minimizedAffinity 4.17741537
REMARK minimizedRMSD -1
REMARK  0 active torsions:
REMARK  status: ('A' for Active; 'I' for Inactive)
ROOT
ATOM      1  C   UNL d   1      -1.126  -5.994  -6.000  0.00  0.00     0.172 C 
ATOM      2  N   UNL d   1      -0.726  -5.824  -4.623  0.00  0.00    -0.070 N 
ATOM      3  C1  UNL d   1      -1.551  -5.466  -3.590  0.00  0.00    -0.004 A 
ATOM      4  C2  UNL d   1      -0.791  -5.413  -2.442  0.00  0.00    -0.047 A 
ATOM      5  C3  UNL d   1       0.537  -5.749  -2.797  0.00  0.00    -0.047 A 
ATOM      6  C4  UNL d   1       0.549  -5.999  -4.153  0.00  0.00    -0.004 A 
ENDROOT
TORSDOF 0
ENDMDL
