MODEL 1
REMARK minimizedAffinity 6.12196255
REMARK minimizedRMSD -1
REMARK  0 active torsions:
REMARK  status: ('A' for Active; 'I' for Inactive)
ROOT
ATOM      1  C   UNL d   1      -2.954  -4.708   3.975  0.00  0.00     0.172 C 
ATOM      2  N   UNL d   1      -4.159  -4.820   4.764  0.00  0.00    -0.070 N 
ATOM      3  C1  UNL d   1      -4.701  -5.987   5.232  0.00  0.00    -0.004 A 
ATOM      4  C2  UNL d   1      -5.842  -5.669   5.937  0.00  0.00    -0.047 A 
ATOM      5  C3  UNL d   1      -5.991  -4.263   5.890  0.00  0.00    -0.047 A 
ATOM      6  C4  UNL d   1      -4.935  -3.762   5.158  0.00  0.00    -0.004 A 
ENDROOT
TORSDOF 0
ENDMDL
