MODEL 1
REMARK minimizedAffinity -1.99127388
REMARK minimizedRMSD -1
REMARK  0 active torsions:
REMARK  status: ('A' for Active; 'I' for Inactive)
ROOT
ATOM      1  C   UNL d   1       5.998  -2.023  -4.885  0.00  0.00     0.172 C 
ATOM      2  N   UNL d   1       5.565  -3.395  -5.009  0.00  0.00    -0.070 N 
ATOM      3  C1  UNL d   1       4.666  -3.869  -5.927  0.00  0.00    -0.004 A 
ATOM      4  C2  UNL d   1       4.524  -5.224  -5.718  0.00  0.00    -0.047 A 
ATOM      5  C3  UNL d   1       5.366  -5.576  -4.636  0.00  0.00    -0.047 A 
ATOM      6  C4  UNL d   1       5.999  -4.425  -4.217  0.00  0.00    -0.004 A 
ENDROOT
TORSDOF 0
ENDMDL
