MODEL 1
REMARK minimizedAffinity 2.81302619
REMARK minimizedRMSD -1
REMARK  0 active torsions:
REMARK  status: ('A' for Active; 'I' for Inactive)
ROOT
ATOM      1  C   UNL d   1      -0.856   5.997  -2.911  0.00  0.00     0.172 C 
ATOM      2  N   UNL d   1      -0.817   4.646  -3.420  0.00  0.00    -0.070 N 
ATOM      3  C1  UNL d   1       0.292   3.845  -3.472  0.00  0.00    -0.004 A 
ATOM      4  C2  UNL d   1      -0.084   2.638  -4.021  0.00  0.00    -0.047 A 
ATOM      5  C3  UNL d   1      -1.467   2.718  -4.310  0.00  0.00    -0.047 A 
ATOM      6  C4  UNL d   1      -1.895   3.972  -3.928  0.00  0.00    -0.004 A 
ENDROOT
TORSDOF 0
ENDMDL
