MODEL 1
REMARK minimizedAffinity 3.39804196
REMARK minimizedRMSD -1
REMARK  0 active torsions:
REMARK  status: ('A' for Active; 'I' for Inactive)
ROOT
ATOM      1  C   UNL d   1      -1.863   5.459  -2.275  0.00  0.00     0.172 C 
ATOM      2  N   UNL d   1      -1.667   4.264  -3.061  0.00  0.00    -0.070 N 
ATOM      3  C1  UNL d   1      -0.456   3.718  -3.396  0.00  0.00    -0.004 A 
ATOM      4  C2  UNL d   1      -0.696   2.588  -4.147  0.00  0.00    -0.047 A 
ATOM      5  C3  UNL d   1      -2.100   2.449  -4.267  0.00  0.00    -0.047 A 
ATOM      6  C4  UNL d   1      -2.676   3.500  -3.586  0.00  0.00    -0.004 A 
ENDROOT
TORSDOF 0
ENDMDL
