MODEL 1
REMARK minimizedAffinity 3.06684327
REMARK minimizedRMSD -1
REMARK  0 active torsions:
REMARK  status: ('A' for Active; 'I' for Inactive)
ROOT
ATOM      1  C   UNL d   1       1.781   0.327   0.147  0.00  0.00     0.172 C 
ATOM      2  N   UNL d   1       0.718  -0.365   0.837  0.00  0.00    -0.070 N 
ATOM      3  C1  UNL d   1       0.091  -1.502   0.401  0.00  0.00    -0.004 A 
ATOM      4  C2  UNL d   1      -0.859  -1.846   1.338  0.00  0.00    -0.047 A 
ATOM      5  C3  UNL d   1      -0.802  -0.882   2.372  0.00  0.00    -0.047 A 
ATOM      6  C4  UNL d   1       0.182   0.023   2.036  0.00  0.00    -0.004 A 
ENDROOT
TORSDOF 0
ENDMDL
