MODEL 1
REMARK minimizedAffinity 1.01311469
REMARK minimizedRMSD -1
REMARK  0 active torsions:
REMARK  status: ('A' for Active; 'I' for Inactive)
ROOT
ATOM      1  C   UNL d   1       2.472  -0.198   2.761  0.00  0.00     0.172 C 
ATOM      2  N   UNL d   1       1.097  -0.577   2.538  0.00  0.00    -0.070 N 
ATOM      3  C1  UNL d   1       0.401  -0.407   1.371  0.00  0.00    -0.004 A 
ATOM      4  C2  UNL d   1      -0.873  -0.897   1.565  0.00  0.00    -0.047 A 
ATOM      5  C3  UNL d   1      -0.945  -1.377   2.894  0.00  0.00    -0.047 A 
ATOM      6  C4  UNL d   1       0.288  -1.166   3.474  0.00  0.00    -0.004 A 
ENDROOT
TORSDOF 0
ENDMDL
