MODEL 1
REMARK minimizedAffinity 2.72886729
REMARK minimizedRMSD -1
REMARK  0 active torsions:
REMARK  status: ('A' for Active; 'I' for Inactive)
ROOT
ATOM      1  C   UNL d   1       5.273  -0.361  -2.732  0.00  0.00     0.172 C 
ATOM      2  N   UNL d   1       4.161   0.108  -1.939  0.00  0.00    -0.070 N 
ATOM      3  C1  UNL d   1       3.832   1.420  -1.724  0.00  0.00    -0.004 A 
ATOM      4  C2  UNL d   1       2.714   1.448  -0.919  0.00  0.00    -0.047 A 
ATOM      5  C3  UNL d   1       2.359   0.106  -0.640  0.00  0.00    -0.047 A 
ATOM      6  C4  UNL d   1       3.272  -0.702  -1.284  0.00  0.00    -0.004 A 
ENDROOT
TORSDOF 0
ENDMDL
