MODEL 1
REMARK minimizedAffinity 0.533019543
REMARK minimizedRMSD -1
REMARK  0 active torsions:
REMARK  status: ('A' for Active; 'I' for Inactive)
ROOT
ATOM      1  C   UNL d   1       5.277  -0.091  -2.647  0.00  0.00     0.172 C 
ATOM      2  N   UNL d   1       4.117   0.133  -1.816  0.00  0.00    -0.070 N 
ATOM      3  C1  UNL d   1       3.425  -0.832  -1.135  0.00  0.00    -0.004 A 
ATOM      4  C2  UNL d   1       2.391  -0.216  -0.463  0.00  0.00    -0.047 A 
ATOM      5  C3  UNL d   1       2.465   1.168  -0.752  0.00  0.00    -0.047 A 
ATOM      6  C4  UNL d   1       3.542   1.356  -1.591  0.00  0.00    -0.004 A 
ENDROOT
TORSDOF 0
ENDMDL
