MODEL 1
REMARK minimizedAffinity 6.42169285
REMARK minimizedRMSD -1
REMARK  0 active torsions:
REMARK  status: ('A' for Active; 'I' for Inactive)
ROOT
ATOM      1  N1  IND d   1      -0.325  -5.998  -2.746  0.00  0.00    -0.196 N 
ATOM      2  C2  IND d   1       0.797  -5.228  -2.618  0.00  0.00     0.054 A 
ATOM      3  C3  IND d   1       0.843  -4.298  -3.598  0.00  0.00    -0.031 A 
ATOM      4  C4  IND d   1      -0.866  -3.793  -5.456  0.00  0.00     0.051 A 
ATOM      5  C5  IND d   1      -2.033  -4.253  -6.000  0.00  0.00    -0.031 A 
ATOM      6  C6  IND d   1      -2.704  -5.338  -5.475  0.00  0.00     0.015 A 
ATOM      7  C7  IND d   1      -2.239  -6.000  -4.374  0.00  0.00    -0.016 A 
ATOM      8  C8  IND d   1      -1.051  -5.540  -3.823  0.00  0.00    -0.047 A 
ATOM      9  C9  IND d   1      -0.342  -4.466  -4.377  0.00  0.00    -0.096 A 
ATOM     10  HN1 IND d   1      -0.541  -6.658  -2.238  0.00  0.00     0.298 HD
ENDROOT
TORSDOF 0
ENDMDL
