MODEL 1
REMARK minimizedAffinity 13.1985159
REMARK minimizedRMSD -1
REMARK  0 active torsions:
REMARK  status: ('A' for Active; 'I' for Inactive)
ROOT
ATOM      1  N1  IND d   1       0.361   3.412  -1.276  0.00  0.00    -0.196 N 
ATOM      2  C2  IND d   1      -0.749   2.708  -1.650  0.00  0.00     0.054 A 
ATOM      3  C3  IND d   1      -1.130   1.870  -0.659  0.00  0.00    -0.031 A 
ATOM      4  C4  IND d   1      -0.139   1.567   1.698  0.00  0.00     0.051 A 
ATOM      5  C5  IND d   1       0.903   1.964   2.487  0.00  0.00    -0.031 A 
ATOM      6  C6  IND d   1       1.835   2.885   2.055  0.00  0.00     0.015 A 
ATOM      7  C7  IND d   1       1.753   3.454   0.816  0.00  0.00    -0.016 A 
ATOM      8  C8  IND d   1       0.700   3.048   0.009  0.00  0.00    -0.047 A 
ATOM      9  C9  IND d   1      -0.225   2.082   0.426  0.00  0.00    -0.096 A 
ATOM     10  HN1 IND d   1       0.778   3.987  -1.762  0.00  0.00     0.298 HD
ENDROOT
TORSDOF 0
ENDMDL
