MODEL 1
REMARK minimizedAffinity 9.0224514
REMARK minimizedRMSD -1
REMARK  0 active torsions:
REMARK  status: ('A' for Active; 'I' for Inactive)
ROOT
ATOM      1  N1  IND d   1       0.383   2.081  -0.780  0.00  0.00    -0.196 N 
ATOM      2  C2  IND d   1       0.302   2.015   0.583  0.00  0.00     0.054 A 
ATOM      3  C3  IND d   1      -0.006   3.228   1.095  0.00  0.00    -0.031 A 
ATOM      4  C4  IND d   1      -0.523   5.435  -0.125  0.00  0.00     0.051 A 
ATOM      5  C5  IND d   1      -0.539   6.000  -1.369  0.00  0.00    -0.031 A 
ATOM      6  C6  IND d   1      -0.246   5.272  -2.504  0.00  0.00     0.015 A 
ATOM      7  C7  IND d   1       0.065   3.943  -2.438  0.00  0.00    -0.016 A 
ATOM      8  C8  IND d   1       0.090   3.368  -1.175  0.00  0.00    -0.047 A 
ATOM      9  C9  IND d   1      -0.165   4.112  -0.016  0.00  0.00    -0.096 A 
ATOM     10  HN1 IND d   1       0.584   1.429  -1.303  0.00  0.00     0.298 HD
ENDROOT
TORSDOF 0
ENDMDL
