MODEL 1
REMARK minimizedAffinity 7.00794983
REMARK minimizedRMSD -1
REMARK  0 active torsions:
REMARK  status: ('A' for Active; 'I' for Inactive)
ROOT
ATOM      1  N1  IND d   1      -4.182  -4.500  -5.974  0.00  0.00    -0.196 N 
ATOM      2  C2  IND d   1      -3.780  -5.807  -5.968  0.00  0.00     0.054 A 
ATOM      3  C3  IND d   1      -2.430  -5.883  -5.985  0.00  0.00    -0.031 A 
ATOM      4  C4  IND d   1      -0.684  -3.992  -5.921  0.00  0.00     0.051 A 
ATOM      5  C5  IND d   1      -0.568  -2.631  -5.956  0.00  0.00    -0.031 A 
ATOM      6  C6  IND d   1      -1.674  -1.806  -5.997  0.00  0.00     0.015 A 
ATOM      7  C7  IND d   1      -2.942  -2.315  -5.993  0.00  0.00    -0.016 A 
ATOM      8  C8  IND d   1      -3.063  -3.697  -5.965  0.00  0.00    -0.047 A 
ATOM      9  C9  IND d   1      -1.944  -4.540  -5.966  0.00  0.00    -0.096 A 
ATOM     10  HN1 IND d   1      -4.997  -4.226  -5.982  0.00  0.00     0.298 HD
ENDROOT
TORSDOF 0
ENDMDL
