MODEL 1
REMARK minimizedAffinity 3.06225705
REMARK minimizedRMSD -1
REMARK  0 active torsions:
REMARK  status: ('A' for Active; 'I' for Inactive)
ROOT
ATOM      1  N1  IND d   1      -2.562  -3.222   4.939  0.00  0.00    -0.196 N 
ATOM      2  C2  IND d   1      -3.074  -3.966   5.965  0.00  0.00     0.054 A 
ATOM      3  C3  IND d   1      -4.421  -3.855   6.000  0.00  0.00    -0.031 A 
ATOM      4  C4  IND d   1      -6.000  -2.590   4.408  0.00  0.00     0.051 A 
ATOM      5  C5  IND d   1      -5.996  -1.736   3.341  0.00  0.00    -0.031 A 
ATOM      6  C6  IND d   1      -4.824  -1.327   2.739  0.00  0.00     0.015 A 
ATOM      7  C7  IND d   1      -3.607  -1.768   3.176  0.00  0.00    -0.016 A 
ATOM      8  C8  IND d   1      -3.607  -2.630   4.263  0.00  0.00    -0.047 A 
ATOM      9  C9  IND d   1      -4.791  -3.015   4.905  0.00  0.00    -0.096 A 
ATOM     10  HN1 IND d   1      -1.728  -3.137   4.748  0.00  0.00     0.298 HD
ENDROOT
TORSDOF 0
ENDMDL
