MODEL 1
REMARK minimizedAffinity 8.24052238
REMARK minimizedRMSD -1
REMARK  0 active torsions:
REMARK  status: ('A' for Active; 'I' for Inactive)
ROOT
ATOM      1  N1  IND d   1      -3.832  -1.075   0.849  0.00  0.00    -0.196 N 
ATOM      2  C2  IND d   1      -4.203   0.020   0.120  0.00  0.00     0.054 A 
ATOM      3  C3  IND d   1      -5.091   0.768   0.813  0.00  0.00    -0.031 A 
ATOM      4  C4  IND d   1      -5.997   0.437   3.200  0.00  0.00     0.051 A 
ATOM      5  C5  IND d   1      -5.977  -0.440   4.248  0.00  0.00    -0.031 A 
ATOM      6  C6  IND d   1      -5.223  -1.596   4.217  0.00  0.00     0.015 A 
ATOM      7  C7  IND d   1      -4.449  -1.913   3.136  0.00  0.00    -0.016 A 
ATOM      8  C8  IND d   1      -4.473  -1.028   2.067  0.00  0.00    -0.047 A 
ATOM      9  C9  IND d   1      -5.269   0.125   2.076  0.00  0.00    -0.096 A 
ATOM     10  HN1 IND d   1      -3.290  -1.690   0.590  0.00  0.00     0.298 HD
ENDROOT
TORSDOF 0
ENDMDL
