MODEL 1
REMARK minimizedAffinity 7.24611664
REMARK minimizedRMSD -1
REMARK  0 active torsions:
REMARK  status: ('A' for Active; 'I' for Inactive)
ROOT
ATOM      1  N1  IND d   1      -1.507  -3.096  -2.214  0.00  0.00    -0.196 N 
ATOM      2  C2  IND d   1      -0.685  -4.108  -1.804  0.00  0.00     0.054 A 
ATOM      3  C3  IND d   1       0.156  -4.464  -2.801  0.00  0.00    -0.031 A 
ATOM      4  C4  IND d   1       0.426  -3.452  -5.152  0.00  0.00     0.051 A 
ATOM      5  C5  IND d   1      -0.126  -2.531  -5.999  0.00  0.00    -0.031 A 
ATOM      6  C6  IND d   1      -1.186  -1.734  -5.618  0.00  0.00     0.015 A 
ATOM      7  C7  IND d   1      -1.729  -1.820  -4.367  0.00  0.00    -0.016 A 
ATOM      8  C8  IND d   1      -1.176  -2.759  -3.508  0.00  0.00    -0.047 A 
ATOM      9  C9  IND d   1      -0.127  -3.600  -3.902  0.00  0.00    -0.096 A 
ATOM     10  HN1 IND d   1      -2.127  -2.732  -1.743  0.00  0.00     0.298 HD
ENDROOT
TORSDOF 0
ENDMDL
