MODEL 1
REMARK minimizedAffinity 8.68651009
REMARK minimizedRMSD -1
REMARK  0 active torsions:
REMARK  status: ('A' for Active; 'I' for Inactive)
ROOT
ATOM      1  N1  IND d   1      -4.728  -4.872  -2.782  0.00  0.00    -0.196 N 
ATOM      2  C2  IND d   1      -5.812  -5.545  -3.274  0.00  0.00     0.054 A 
ATOM      3  C3  IND d   1      -5.558  -5.996  -4.523  0.00  0.00    -0.031 A 
ATOM      4  C4  IND d   1      -3.398  -5.830  -5.914  0.00  0.00     0.051 A 
ATOM      5  C5  IND d   1      -2.149  -5.276  -5.902  0.00  0.00    -0.031 A 
ATOM      6  C6  IND d   1      -1.685  -4.546  -4.826  0.00  0.00     0.015 A 
ATOM      7  C7  IND d   1      -2.453  -4.352  -3.713  0.00  0.00    -0.016 A 
ATOM      8  C8  IND d   1      -3.725  -4.908  -3.724  0.00  0.00    -0.047 A 
ATOM      9  C9  IND d   1      -4.216  -5.613  -4.830  0.00  0.00    -0.096 A 
ATOM     10  HN1 IND d   1      -4.682  -4.490  -2.012  0.00  0.00     0.298 HD
ENDROOT
TORSDOF 0
ENDMDL
