MODEL 1
REMARK minimizedAffinity -1.75483584
REMARK minimizedRMSD -1
REMARK  0 active torsions:
REMARK  status: ('A' for Active; 'I' for Inactive)
ROOT
ATOM      1  C4' PXY d   1       0.025  -1.667   1.374  0.00  0.00     0.077 C 
ATOM      2  C1' PXY d   1       0.444   3.848  -0.306  0.00  0.00     0.077 C 
ATOM      3  C1  PXY d   1       0.326   2.405   0.144  0.00  0.00    -0.082 A 
ATOM      4  C2  PXY d   1       1.320   1.564  -0.089  0.00  0.00     0.003 A 
ATOM      5  C3  PXY d   1       1.216   0.248   0.283  0.00  0.00     0.003 A 
ATOM      6  C4  PXY d   1       0.105  -0.199   0.946  0.00  0.00    -0.082 A 
ATOM      7  C5  PXY d   1      -0.910   0.656   1.196  0.00  0.00     0.003 A 
ATOM      8  C6  PXY d   1      -0.802   1.978   0.774  0.00  0.00     0.003 A 
ENDROOT
TORSDOF 0
ENDMDL
