MODEL 1
REMARK minimizedAffinity -3.07845092
REMARK minimizedRMSD -1
REMARK  0 active torsions:
REMARK  status: ('A' for Active; 'I' for Inactive)
ROOT
ATOM      1  C4' PXY d   1       3.756   2.088  -0.991  0.00  0.00     0.077 C 
ATOM      2  C1' PXY d   1      -1.403  -0.087   0.445  0.00  0.00     0.077 C 
ATOM      3  C1  PXY d   1      -0.056   0.492   0.060  0.00  0.00    -0.082 A 
ATOM      4  C2  PXY d   1       1.040  -0.230   0.234  0.00  0.00     0.003 A 
ATOM      5  C3  PXY d   1       2.269   0.290  -0.079  0.00  0.00     0.003 A 
ATOM      6  C4  PXY d   1       2.374   1.541  -0.626  0.00  0.00    -0.082 A 
ATOM      7  C5  PXY d   1       1.260   2.279  -0.816  0.00  0.00     0.003 A 
ATOM      8  C6  PXY d   1       0.025   1.749  -0.454  0.00  0.00     0.003 A 
ENDROOT
TORSDOF 0
ENDMDL
