MODEL 1
REMARK minimizedAffinity 2.1405921
REMARK minimizedRMSD -1
REMARK  0 active torsions:
REMARK  status: ('A' for Active; 'I' for Inactive)
ROOT
ATOM      1  C4' PXY d   1      -2.445  -1.249   3.052  0.00  0.00     0.077 C 
ATOM      2  C1' PXY d   1       1.058   2.320   0.151  0.00  0.00     0.077 C 
ATOM      3  C1  PXY d   1       0.142   1.375   0.903  0.00  0.00    -0.082 A 
ATOM      4  C2  PXY d   1      -0.817   1.866   1.671  0.00  0.00     0.003 A 
ATOM      5  C3  PXY d   1      -1.634   1.026   2.383  0.00  0.00     0.003 A 
ATOM      6  C4  PXY d   1      -1.502  -0.332   2.267  0.00  0.00    -0.082 A 
ATOM      7  C5  PXY d   1      -0.533  -0.841   1.477  0.00  0.00     0.003 A 
ATOM      8  C6  PXY d   1       0.312   0.029   0.794  0.00  0.00     0.003 A 
ENDROOT
TORSDOF 0
ENDMDL
