MODEL 1
REMARK minimizedAffinity 3.21553111
REMARK minimizedRMSD -1
REMARK  0 active torsions:
REMARK  status: ('A' for Active; 'I' for Inactive)
ROOT
ATOM      1  C4' PXY d   1       4.526   1.692   0.797  0.00  0.00     0.077 C 
ATOM      2  C1' PXY d   1      -1.109   2.707   0.004  0.00  0.00     0.077 C 
ATOM      3  C1  PXY d   1       0.371   2.454   0.210  0.00  0.00    -0.082 A 
ATOM      4  C2  PXY d   1       0.870   1.253  -0.035  0.00  0.00     0.003 A 
ATOM      5  C3  PXY d   1       2.200   0.998   0.177  0.00  0.00     0.003 A 
ATOM      6  C4  PXY d   1       3.039   1.996   0.594  0.00  0.00    -0.082 A 
ATOM      7  C5  PXY d   1       2.540   3.227   0.836  0.00  0.00     0.003 A 
ATOM      8  C6  PXY d   1       1.179   3.455   0.654  0.00  0.00     0.003 A 
ENDROOT
TORSDOF 0
ENDMDL
