MODEL 1
REMARK minimizedAffinity 7.10625172
REMARK minimizedRMSD -1
REMARK  0 active torsions:
REMARK  status: ('A' for Active; 'I' for Inactive)
ROOT
ATOM      1  C4' PXY d   1      -2.818  -0.755   2.728  0.00  0.00     0.077 C 
ATOM      2  C1' PXY d   1       1.793  -1.943  -0.550  0.00  0.00     0.077 C 
ATOM      3  C1  PXY d   1       0.589  -1.620   0.314  0.00  0.00    -0.082 A 
ATOM      4  C2  PXY d   1      -0.192  -2.600   0.740  0.00  0.00     0.003 A 
ATOM      5  C3  PXY d   1      -1.303  -2.323   1.495  0.00  0.00     0.003 A 
ATOM      6  C4  PXY d   1      -1.587  -1.035   1.862  0.00  0.00    -0.082 A 
ATOM      7  C5  PXY d   1      -0.789  -0.031   1.440  0.00  0.00     0.003 A 
ATOM      8  C6  PXY d   1       0.310  -0.329   0.640  0.00  0.00     0.003 A 
ENDROOT
TORSDOF 0
ENDMDL
