MODEL 1
REMARK minimizedAffinity 1.59851122
REMARK minimizedRMSD -1
REMARK  0 active torsions:
REMARK  status: ('A' for Active; 'I' for Inactive)
ROOT
ATOM      1  C4' PXY d   1       3.969   1.020   0.864  0.00  0.00     0.077 C 
ATOM      2  C1' PXY d   1      -1.208   3.463   0.058  0.00  0.00     0.077 C 
ATOM      3  C1  PXY d   1       0.155   2.832   0.263  0.00  0.00    -0.082 A 
ATOM      4  C2  PXY d   1       0.249   1.528   0.466  0.00  0.00     0.003 A 
ATOM      5  C3  PXY d   1       1.471   0.946   0.685  0.00  0.00     0.003 A 
ATOM      6  C4  PXY d   1       2.614   1.699   0.643  0.00  0.00    -0.082 A 
ATOM      7  C5  PXY d   1       2.528   3.028   0.426  0.00  0.00     0.003 A 
ATOM      8  C6  PXY d   1       1.274   3.606   0.247  0.00  0.00     0.003 A 
ENDROOT
TORSDOF 0
ENDMDL
