MODEL 1
REMARK minimizedAffinity 3.79811883
REMARK minimizedRMSD -1
REMARK  0 active torsions:
REMARK  status: ('A' for Active; 'I' for Inactive)
ROOT
ATOM      1  C4' PXY d   1      -1.612   3.124  -0.030  0.00  0.00     0.077 C 
ATOM      2  C1' PXY d   1       3.680   1.933   1.966  0.00  0.00     0.077 C 
ATOM      3  C1  PXY d   1       2.287   2.239   1.453  0.00  0.00    -0.082 A 
ATOM      4  C2  PXY d   1       2.095   2.436   0.159  0.00  0.00     0.003 A 
ATOM      5  C3  PXY d   1       0.848   2.746  -0.318  0.00  0.00     0.003 A 
ATOM      6  C4  PXY d   1      -0.224   2.803   0.532  0.00  0.00    -0.082 A 
ATOM      7  C5  PXY d   1      -0.039   2.593   1.852  0.00  0.00     0.003 A 
ATOM      8  C6  PXY d   1       1.243   2.320   2.322  0.00  0.00     0.003 A 
ENDROOT
TORSDOF 0
ENDMDL
