MODEL 1
REMARK minimizedAffinity 5.74809742
REMARK minimizedRMSD -1
REMARK  0 active torsions:
REMARK  status: ('A' for Active; 'I' for Inactive)
ROOT
ATOM      1  C4' PXY d   1      -0.055   3.964  -2.132  0.00  0.00     0.077 C 
ATOM      2  C1' PXY d   1      -1.348   1.448   2.909  0.00  0.00     0.077 C 
ATOM      3  C1  PXY d   1      -0.997   2.108   1.590  0.00  0.00    -0.082 A 
ATOM      4  C2  PXY d   1      -1.915   2.808   0.944  0.00  0.00     0.003 A 
ATOM      5  C3  PXY d   1      -1.623   3.385  -0.265  0.00  0.00     0.003 A 
ATOM      6  C4  PXY d   1      -0.363   3.288  -0.793  0.00  0.00    -0.082 A 
ATOM      7  C5  PXY d   1       0.582   2.584  -0.135  0.00  0.00     0.003 A 
ATOM      8  C6  PXY d   1       0.254   1.972   1.072  0.00  0.00     0.003 A 
ENDROOT
TORSDOF 0
ENDMDL
