MODEL 1
REMARK minimizedAffinity 14.698844
REMARK minimizedRMSD -1
REMARK  0 active torsions:
REMARK  status: ('A' for Active; 'I' for Inactive)
ROOT
ATOM      1  C4' PXY d   1      -0.095  -2.356   1.680  0.00  0.00     0.077 C 
ATOM      2  C1' PXY d   1      -5.397  -0.063   1.464  0.00  0.00     0.077 C 
ATOM      3  C1  PXY d   1      -4.002  -0.654   1.527  0.00  0.00    -0.082 A 
ATOM      4  C2  PXY d   1      -3.643  -1.578   0.651  0.00  0.00     0.003 A 
ATOM      5  C3  PXY d   1      -2.397  -2.146   0.713  0.00  0.00     0.003 A 
ATOM      6  C4  PXY d   1      -1.490  -1.725   1.648  0.00  0.00    -0.082 A 
ATOM      7  C5  PXY d   1      -1.844  -0.774   2.538  0.00  0.00     0.003 A 
ATOM      8  C6  PXY d   1      -3.129  -0.240   2.484  0.00  0.00     0.003 A 
ENDROOT
TORSDOF 0
ENDMDL
