MODEL 1
REMARK minimizedAffinity 8.33932209
REMARK minimizedRMSD -1
REMARK  0 active torsions:
REMARK  status: ('A' for Active; 'I' for Inactive)
ROOT
ATOM      1  C4' PXY d   1      -2.283  -0.465   2.962  0.00  0.00     0.077 C 
ATOM      2  C1' PXY d   1       1.581  -2.391  -0.882  0.00  0.00     0.077 C 
ATOM      3  C1  PXY d   1       0.575  -1.875   0.128  0.00  0.00    -0.082 A 
ATOM      4  C2  PXY d   1      -0.201  -2.731   0.773  0.00  0.00     0.003 A 
ATOM      5  C3  PXY d   1      -1.139  -2.279   1.666  0.00  0.00     0.003 A 
ATOM      6  C4  PXY d   1      -1.247  -0.942   1.940  0.00  0.00    -0.082 A 
ATOM      7  C5  PXY d   1      -0.451  -0.064   1.294  0.00  0.00     0.003 A 
ATOM      8  C6  PXY d   1       0.466  -0.539   0.361  0.00  0.00     0.003 A 
ENDROOT
TORSDOF 0
ENDMDL
