MODEL 1
REMARK minimizedAffinity 0.606341004
REMARK minimizedRMSD -1
REMARK  0 active torsions:
REMARK  status: ('A' for Active; 'I' for Inactive)
ROOT
ATOM      1  C4' PXY d   1       3.749  -5.999  -5.909  0.00  0.00     0.077 C 
ATOM      2  C1' PXY d   1       0.238  -4.914  -1.447  0.00  0.00     0.077 C 
ATOM      3  C1  PXY d   1       1.168  -5.189  -2.613  0.00  0.00    -0.082 A 
ATOM      4  C2  PXY d   1       0.682  -5.714  -3.726  0.00  0.00     0.003 A 
ATOM      5  C3  PXY d   1       1.514  -6.000  -4.779  0.00  0.00     0.003 A 
ATOM      6  C4  PXY d   1       2.847  -5.695  -4.710  0.00  0.00    -0.082 A 
ATOM      7  C5  PXY d   1       3.348  -5.150  -3.582  0.00  0.00     0.003 A 
ATOM      8  C6  PXY d   1       2.494  -4.906  -2.510  0.00  0.00     0.003 A 
ENDROOT
TORSDOF 0
ENDMDL
