MODEL 1
REMARK minimizedAffinity 4.47249603
REMARK minimizedRMSD -1
REMARK  0 active torsions:
REMARK  status: ('A' for Active; 'I' for Inactive)
ROOT
ATOM      1  C4' PXY d   1       0.144   3.856  -0.308  0.00  0.00     0.077 C 
ATOM      2  C1' PXY d   1       2.075  -1.425   1.033  0.00  0.00     0.077 C 
ATOM      3  C1  PXY d   1       1.560  -0.041   0.691  0.00  0.00    -0.082 A 
ATOM      4  C2  PXY d   1       1.742   0.442  -0.527  0.00  0.00     0.003 A 
ATOM      5  C3  PXY d   1       1.311   1.704  -0.844  0.00  0.00     0.003 A 
ATOM      6  C4  PXY d   1       0.639   2.460   0.079  0.00  0.00    -0.082 A 
ATOM      7  C5  PXY d   1       0.440   1.969   1.321  0.00  0.00     0.003 A 
ATOM      8  C6  PXY d   1       0.921   0.702   1.635  0.00  0.00     0.003 A 
ENDROOT
TORSDOF 0
ENDMDL
