MODEL 1
REMARK minimizedAffinity 9.94717693
REMARK minimizedRMSD -1
REMARK  0 active torsions:
REMARK  status: ('A' for Active; 'I' for Inactive)
ROOT
ATOM      1  C4' PXY d   1       3.176   0.636  -4.515  0.00  0.00     0.077 C 
ATOM      2  C1' PXY d   1       6.000   5.634  -5.188  0.00  0.00     0.077 C 
ATOM      3  C1  PXY d   1       5.268   4.320  -5.002  0.00  0.00    -0.082 A 
ATOM      4  C2  PXY d   1       4.552   3.823  -5.998  0.00  0.00     0.003 A 
ATOM      5  C3  PXY d   1       3.858   2.652  -5.837  0.00  0.00     0.003 A 
ATOM      6  C4  PXY d   1       3.939   1.955  -4.661  0.00  0.00    -0.082 A 
ATOM      7  C5  PXY d   1       4.676   2.450  -3.644  0.00  0.00     0.003 A 
ATOM      8  C6  PXY d   1       5.340   3.661  -3.814  0.00  0.00     0.003 A 
ENDROOT
TORSDOF 0
ENDMDL
