MODEL 1
REMARK minimizedAffinity 6.5658412
REMARK minimizedRMSD -1
REMARK  0 active torsions:
REMARK  status: ('A' for Active; 'I' for Inactive)
ROOT
ATOM      1  C4' PXY d   1       2.975   1.393   3.063  0.00  0.00     0.077 C 
ATOM      2  C1' PXY d   1       2.584   1.804  -2.690  0.00  0.00     0.077 C 
ATOM      3  C1  PXY d   1       2.675   1.703  -1.180  0.00  0.00    -0.082 A 
ATOM      4  C2  PXY d   1       3.858   1.560  -0.604  0.00  0.00     0.003 A 
ATOM      5  C3  PXY d   1       3.956   1.434   0.758  0.00  0.00     0.003 A 
ATOM      6  C4  PXY d   1       2.836   1.509   1.542  0.00  0.00    -0.082 A 
ATOM      7  C5  PXY d   1       1.627   1.666   0.963  0.00  0.00     0.003 A 
ATOM      8  C6  PXY d   1       1.545   1.750  -0.424  0.00  0.00     0.003 A 
ENDROOT
TORSDOF 0
ENDMDL
