MODEL 1
REMARK minimizedAffinity -1.39117861
REMARK minimizedRMSD -1
REMARK  0 active torsions:
REMARK  status: ('A' for Active; 'I' for Inactive)
ROOT
ATOM      1  C4' PXY d   1      -1.880   3.442   0.356  0.00  0.00     0.077 C 
ATOM      2  C1' PXY d   1       3.443   2.398   2.354  0.00  0.00     0.077 C 
ATOM      3  C1  PXY d   1       2.050   2.684   1.829  0.00  0.00    -0.082 A 
ATOM      4  C2  PXY d   1       1.059   1.856   2.117  0.00  0.00     0.003 A 
ATOM      5  C3  PXY d   1      -0.200   2.083   1.623  0.00  0.00     0.003 A 
ATOM      6  C4  PXY d   1      -0.460   3.198   0.872  0.00  0.00    -0.082 A 
ATOM      7  C5  PXY d   1       0.544   4.053   0.583  0.00  0.00     0.003 A 
ATOM      8  C6  PXY d   1       1.823   3.783   1.059  0.00  0.00     0.003 A 
ENDROOT
TORSDOF 0
ENDMDL
