MODEL 1
REMARK minimizedAffinity 2.73318386
REMARK minimizedRMSD -1
REMARK  0 active torsions:
REMARK  status: ('A' for Active; 'I' for Inactive)
ROOT
ATOM      1  C4' PXY d   1       5.713   3.625   2.228  0.00  0.00     0.077 C 
ATOM      2  C1' PXY d   1       0.473   1.197   1.973  0.00  0.00     0.077 C 
ATOM      3  C1  PXY d   1       1.848   1.833   2.027  0.00  0.00    -0.082 A 
ATOM      4  C2  PXY d   1       2.574   1.730   3.129  0.00  0.00     0.003 A 
ATOM      5  C3  PXY d   1       3.806   2.326   3.206  0.00  0.00     0.003 A 
ATOM      6  C4  PXY d   1       4.323   2.990   2.125  0.00  0.00    -0.082 A 
ATOM      7  C5  PXY d   1       3.593   3.091   0.994  0.00  0.00     0.003 A 
ATOM      8  C6  PXY d   1       2.327   2.513   0.951  0.00  0.00     0.003 A 
ENDROOT
TORSDOF 0
ENDMDL
