MODEL 1
REMARK minimizedAffinity 1.23298693
REMARK minimizedRMSD -1
REMARK  0 active torsions:
REMARK  status: ('A' for Active; 'I' for Inactive)
ROOT
ATOM      1  C4' PXY d   1       2.251   1.110   1.072  0.00  0.00     0.077 C 
ATOM      2  C1' PXY d   1       4.499   5.999   3.182  0.00  0.00     0.077 C 
ATOM      3  C1  PXY d   1       3.919   4.716   2.620  0.00  0.00    -0.082 A 
ATOM      4  C2  PXY d   1       2.621   4.485   2.724  0.00  0.00     0.003 A 
ATOM      5  C3  PXY d   1       2.085   3.315   2.250  0.00  0.00     0.003 A 
ATOM      6  C4  PXY d   1       2.878   2.396   1.616  0.00  0.00    -0.082 A 
ATOM      7  C5  PXY d   1       4.202   2.630   1.497  0.00  0.00     0.003 A 
ATOM      8  C6  PXY d   1       4.733   3.805   2.021  0.00  0.00     0.003 A 
ENDROOT
TORSDOF 0
ENDMDL
