MODEL 1
REMARK minimizedAffinity 2.04849124
REMARK minimizedRMSD -1
REMARK  0 active torsions:
REMARK  status: ('A' for Active; 'I' for Inactive)
ROOT
ATOM      1  C4' PXY d   1      -3.774   1.587   0.079  0.00  0.00     0.077 C 
ATOM      2  C1' PXY d   1       1.773   2.892   1.051  0.00  0.00     0.077 C 
ATOM      3  C1  PXY d   1       0.320   2.538   0.802  0.00  0.00    -0.082 A 
ATOM      4  C2  PXY d   1      -0.333   3.117  -0.193  0.00  0.00     0.003 A 
ATOM      5  C3  PXY d   1      -1.656   2.832  -0.413  0.00  0.00     0.003 A 
ATOM      6  C4  PXY d   1      -2.303   1.907   0.361  0.00  0.00    -0.082 A 
ATOM      7  C5  PXY d   1      -1.641   1.304   1.372  0.00  0.00     0.003 A 
ATOM      8  C6  PXY d   1      -0.310   1.638   1.604  0.00  0.00     0.003 A 
ENDROOT
TORSDOF 0
ENDMDL
