MODEL 1
REMARK minimizedAffinity 3.87428355
REMARK minimizedRMSD -1
REMARK  0 active torsions:
REMARK  status: ('A' for Active; 'I' for Inactive)
ROOT
ATOM      1  C4' PXY d   1      -1.915   2.195   0.431  0.00  0.00     0.077 C 
ATOM      2  C1' PXY d   1       3.850   2.621   0.405  0.00  0.00     0.077 C 
ATOM      3  C1  PXY d   1       2.337   2.521   0.419  0.00  0.00    -0.082 A 
ATOM      4  C2  PXY d   1       1.759   1.338   0.287  0.00  0.00     0.003 A 
ATOM      5  C3  PXY d   1       0.392   1.232   0.265  0.00  0.00     0.003 A 
ATOM      6  C4  PXY d   1      -0.391   2.343   0.432  0.00  0.00    -0.082 A 
ATOM      7  C5  PXY d   1       0.191   3.552   0.577  0.00  0.00     0.003 A 
ATOM      8  C6  PXY d   1       1.580   3.643   0.556  0.00  0.00     0.003 A 
ENDROOT
TORSDOF 0
ENDMDL
