MODEL 1
REMARK minimizedAffinity 3.65415716
REMARK minimizedRMSD -1
REMARK  0 active torsions:
REMARK  status: ('A' for Active; 'I' for Inactive)
ROOT
ATOM      1  C4' PXY d   1       4.122   1.896   1.120  0.00  0.00     0.077 C 
ATOM      2  C1' PXY d   1      -1.594   2.373   0.405  0.00  0.00     0.077 C 
ATOM      3  C1  PXY d   1      -0.096   2.235   0.594  0.00  0.00    -0.082 A 
ATOM      4  C2  PXY d   1       0.608   3.274   1.013  0.00  0.00     0.003 A 
ATOM      5  C3  PXY d   1       1.968   3.176   1.159  0.00  0.00     0.003 A 
ATOM      6  C4  PXY d   1       2.606   1.987   0.924  0.00  0.00    -0.082 A 
ATOM      7  C5  PXY d   1       1.893   0.920   0.507  0.00  0.00     0.003 A 
ATOM      8  C6  PXY d   1       0.519   1.052   0.326  0.00  0.00     0.003 A 
ENDROOT
TORSDOF 0
ENDMDL
