MODEL 1
REMARK minimizedAffinity -1.63727677
REMARK minimizedRMSD -1
REMARK  1 active torsions:
REMARK  status: ('A' for Active; 'I' for Inactive)
REMARK    1  A    between atoms: N_2  and  C1_3 
ROOT
ATOM      1  C1  UNL d   1       5.650  -1.426   4.713  0.00  0.00     0.143 A 
ATOM      2  C2  UNL d   1       5.705  -0.750   5.937  0.00  0.00    -0.057 A 
ATOM      3  C3  UNL d   1       5.863   0.640   5.993  0.00  0.00     0.033 A 
ATOM      4  C4  UNL d   1       5.999   1.378   4.822  0.00  0.00    -0.042 A 
ATOM      5  C5  UNL d   1       5.972   0.724   3.595  0.00  0.00     0.033 A 
ATOM      6  C6  UNL d   1       5.807  -0.663   3.546  0.00  0.00    -0.057 A 
ENDROOT
BRANCH   1   7
ATOM      7  N   UNL d   1       5.593  -2.817   4.595  0.00  0.00    -0.732 N 
ATOM      8  C   UNL d   1       5.975  -3.667   5.701  0.00  0.00     0.284 C 
ATOM      9  H3  UNL d   1       4.763  -3.130   4.096  0.00  0.00     0.395 HD
ENDBRANCH   1   7
TORSDOF 1
ENDMDL
