MODEL 1
REMARK minimizedAffinity -1.00968564
REMARK minimizedRMSD -1
REMARK  1 active torsions:
REMARK  status: ('A' for Active; 'I' for Inactive)
REMARK    1  A    between atoms: N_2  and  C1_3 
ROOT
ATOM      1  C1  UNL d   1       6.000   0.501   4.688  0.00  0.00     0.143 A 
ATOM      2  C2  UNL d   1       5.982   0.200   3.322  0.00  0.00    -0.057 A 
ATOM      3  C3  UNL d   1       5.997   1.213   2.355  0.00  0.00     0.033 A 
ATOM      4  C4  UNL d   1       6.000   2.550   2.740  0.00  0.00    -0.042 A 
ATOM      5  C5  UNL d   1       5.992   2.872   4.093  0.00  0.00     0.033 A 
ATOM      6  C6  UNL d   1       5.984   1.856   5.053  0.00  0.00    -0.057 A 
ENDROOT
BRANCH   1   7
ATOM      7  N   UNL d   1       5.887  -0.459   5.697  0.00  0.00    -0.732 N 
ATOM      8  C   UNL d   1       5.999  -1.869   5.389  0.00  0.00     0.284 C 
ATOM      9  H3  UNL d   1       6.363  -0.181   6.552  0.00  0.00     0.395 HD
ENDBRANCH   1   7
TORSDOF 1
ENDMDL
