MODEL 1
REMARK minimizedAffinity 2.6153183
REMARK minimizedRMSD -1
REMARK  1 active torsions:
REMARK  status: ('A' for Active; 'I' for Inactive)
REMARK    1  A    between atoms: N_2  and  C1_3 
ROOT
ATOM      1  C1  UNL d   1       5.736   0.545   4.565  0.00  0.00     0.143 A 
ATOM      2  C2  UNL d   1       5.685  -0.318   3.465  0.00  0.00    -0.057 A 
ATOM      3  C3  UNL d   1       5.763  -1.707   3.627  0.00  0.00     0.033 A 
ATOM      4  C4  UNL d   1       5.922  -2.257   4.894  0.00  0.00    -0.042 A 
ATOM      5  C5  UNL d   1       6.000  -1.417   6.000  0.00  0.00     0.033 A 
ATOM      6  C6  UNL d   1       5.915  -0.032   5.832  0.00  0.00    -0.057 A 
ENDROOT
BRANCH   1   7
ATOM      7  N   UNL d   1       5.763   1.937   4.460  0.00  0.00    -0.732 N 
ATOM      8  C   UNL d   1       4.984   2.616   3.446  0.00  0.00     0.284 C 
ATOM      9  H3  UNL d   1       5.752   2.396   5.368  0.00  0.00     0.395 HD
ENDBRANCH   1   7
TORSDOF 1
ENDMDL
