MODEL 1
REMARK minimizedAffinity -2.09761524
REMARK minimizedRMSD -1
REMARK  1 active torsions:
REMARK  status: ('A' for Active; 'I' for Inactive)
REMARK    1  A    between atoms: N_2  and  C1_3 
ROOT
ATOM      1  C1  UNL d   1       5.811   2.006   4.395  0.00  0.00     0.143 A 
ATOM      2  C2  UNL d   1       5.586   1.060   3.389  0.00  0.00    -0.057 A 
ATOM      3  C3  UNL d   1       5.506  -0.306   3.682  0.00  0.00     0.033 A 
ATOM      4  C4  UNL d   1       5.677  -0.755   4.987  0.00  0.00    -0.042 A 
ATOM      5  C5  UNL d   1       5.927   0.165   6.000  0.00  0.00     0.033 A 
ATOM      6  C6  UNL d   1       6.000   1.529   5.701  0.00  0.00    -0.057 A 
ENDROOT
BRANCH   1   7
ATOM      7  N   UNL d   1       6.000   3.369   4.153  0.00  0.00    -0.732 N 
ATOM      8  C   UNL d   1       5.025   4.125   3.396  0.00  0.00     0.284 C 
ATOM      9  H3  UNL d   1       6.368   3.860   4.964  0.00  0.00     0.395 HD
ENDBRANCH   1   7
TORSDOF 1
ENDMDL
