MODEL 1
REMARK minimizedAffinity -3.5661521
REMARK minimizedRMSD -1
REMARK  1 active torsions:
REMARK  status: ('A' for Active; 'I' for Inactive)
REMARK    1  A    between atoms: N_2  and  C1_3 
ROOT
ATOM      1  C1  UNL d   1       5.331   1.981   4.202  0.00  0.00     0.143 A 
ATOM      2  C2  UNL d   1       5.833   1.147   3.197  0.00  0.00    -0.057 A 
ATOM      3  C3  UNL d   1       5.994  -0.228   3.408  0.00  0.00     0.033 A 
ATOM      4  C4  UNL d   1       5.682  -0.790   4.641  0.00  0.00    -0.042 A 
ATOM      5  C5  UNL d   1       5.205   0.024   5.663  0.00  0.00     0.033 A 
ATOM      6  C6  UNL d   1       5.040   1.395   5.444  0.00  0.00    -0.057 A 
ENDROOT
BRANCH   1   7
ATOM      7  N   UNL d   1       5.240   3.370   4.087  0.00  0.00    -0.732 N 
ATOM      8  C   UNL d   1       5.947   4.070   3.036  0.00  0.00     0.284 C 
ATOM      9  H3  UNL d   1       4.297   3.713   4.253  0.00  0.00     0.395 HD
ENDBRANCH   1   7
TORSDOF 1
ENDMDL
