MODEL 1
REMARK minimizedAffinity -2.59222817
REMARK minimizedRMSD -1
REMARK  1 active torsions:
REMARK  status: ('A' for Active; 'I' for Inactive)
REMARK    1  A    between atoms: N_2  and  C1_3 
ROOT
ATOM      1  C1  UNL d   1       5.819   0.044   3.829  0.00  0.00     0.143 A 
ATOM      2  C2  UNL d   1       5.612  -0.033   5.210  0.00  0.00    -0.057 A 
ATOM      3  C3  UNL d   1       5.541   1.121   6.000  0.00  0.00     0.033 A 
ATOM      4  C4  UNL d   1       5.705   2.376   5.424  0.00  0.00    -0.042 A 
ATOM      5  C5  UNL d   1       5.937   2.476   4.056  0.00  0.00     0.033 A 
ATOM      6  C6  UNL d   1       6.000   1.320   3.272  0.00  0.00    -0.057 A 
ENDROOT
BRANCH   1   7
ATOM      7  N   UNL d   1       5.997  -1.070   3.005  0.00  0.00    -0.732 N 
ATOM      8  C   UNL d   1       4.882  -1.632   2.273  0.00  0.00     0.284 C 
ATOM      9  H3  UNL d   1       6.863  -1.025   2.473  0.00  0.00     0.395 HD
ENDBRANCH   1   7
TORSDOF 1
ENDMDL
