MODEL 1
REMARK minimizedAffinity -0.695417285
REMARK minimizedRMSD -1
REMARK  1 active torsions:
REMARK  status: ('A' for Active; 'I' for Inactive)
REMARK    1  A    between atoms: N_2  and  C1_3 
ROOT
ATOM      1  C1  UNL d   1       6.000   1.996   3.587  0.00  0.00     0.143 A 
ATOM      2  C2  UNL d   1       5.987   2.288   4.955  0.00  0.00    -0.057 A 
ATOM      3  C3  UNL d   1       6.000   1.269   5.916  0.00  0.00     0.033 A 
ATOM      4  C4  UNL d   1       5.996  -0.065   5.523  0.00  0.00    -0.042 A 
ATOM      5  C5  UNL d   1       5.984  -0.379   4.168  0.00  0.00     0.033 A 
ATOM      6  C6  UNL d   1       5.978   0.643   3.214  0.00  0.00    -0.057 A 
ENDROOT
BRANCH   1   7
ATOM      7  N   UNL d   1       5.889   2.962   2.584  0.00  0.00    -0.732 N 
ATOM      8  C   UNL d   1       5.935   4.371   2.910  0.00  0.00     0.284 C 
ATOM      9  H3  UNL d   1       6.406   2.712   1.745  0.00  0.00     0.395 HD
ENDBRANCH   1   7
TORSDOF 1
ENDMDL
