MODEL 1
REMARK minimizedAffinity -1.75667775
REMARK minimizedRMSD -1
REMARK  1 active torsions:
REMARK  status: ('A' for Active; 'I' for Inactive)
REMARK    1  A    between atoms: N_2  and  C1_3 
ROOT
ATOM      1  C1  UNL d   1       5.851   1.512   4.472  0.00  0.00     0.143 A 
ATOM      2  C2  UNL d   1       5.712   0.607   3.413  0.00  0.00    -0.057 A 
ATOM      3  C3  UNL d   1       5.669  -0.774   3.639  0.00  0.00     0.033 A 
ATOM      4  C4  UNL d   1       5.794  -1.278   4.930  0.00  0.00    -0.042 A 
ATOM      5  C5  UNL d   1       5.958  -0.399   5.994  0.00  0.00     0.033 A 
ATOM      6  C6  UNL d   1       5.994   0.980   5.763  0.00  0.00    -0.057 A 
ENDROOT
BRANCH   1   7
ATOM      7  N   UNL d   1       6.000   2.890   4.303  0.00  0.00    -0.732 N 
ATOM      8  C   UNL d   1       5.907   3.486   2.987  0.00  0.00     0.284 C 
ATOM      9  H3  UNL d   1       5.535   3.424   5.034  0.00  0.00     0.395 HD
ENDBRANCH   1   7
TORSDOF 1
ENDMDL
