MODEL 1
REMARK minimizedAffinity -3.36903572
REMARK minimizedRMSD -1
REMARK  1 active torsions:
REMARK  status: ('A' for Active; 'I' for Inactive)
REMARK    1  A    between atoms: N_2  and  C1_3 
ROOT
ATOM      1  C1  UNL d   1       5.747  -1.468   5.128  0.00  0.00     0.143 A 
ATOM      2  C2  UNL d   1       5.850  -2.598   5.948  0.00  0.00    -0.057 A 
ATOM      3  C3  UNL d   1       5.987  -3.880   5.403  0.00  0.00     0.033 A 
ATOM      4  C4  UNL d   1       5.995  -4.059   4.024  0.00  0.00    -0.042 A 
ATOM      5  C5  UNL d   1       5.869  -2.954   3.190  0.00  0.00     0.033 A 
ATOM      6  C6  UNL d   1       5.739  -1.675   3.740  0.00  0.00    -0.057 A 
ENDROOT
BRANCH   1   7
ATOM      7  N   UNL d   1       5.510  -0.178   5.608  0.00  0.00    -0.732 N 
ATOM      8  C   UNL d   1       5.989   0.978   4.882  0.00  0.00     0.284 C 
ATOM      9  H3  UNL d   1       4.572  -0.071   5.988  0.00  0.00     0.395 HD
ENDBRANCH   1   7
TORSDOF 1
ENDMDL
