MODEL 1
REMARK minimizedAffinity -0.446563482
REMARK minimizedRMSD -1
REMARK  1 active torsions:
REMARK  status: ('A' for Active; 'I' for Inactive)
REMARK    1  A    between atoms: N_2  and  C1_3 
ROOT
ATOM      1  C1  UNL d   1       5.892   0.623   4.767  0.00  0.00     0.143 A 
ATOM      2  C2  UNL d   1       5.981  -0.119   3.584  0.00  0.00    -0.057 A 
ATOM      3  C3  UNL d   1       5.967  -1.519   3.602  0.00  0.00     0.033 A 
ATOM      4  C4  UNL d   1       5.892  -2.204   4.810  0.00  0.00    -0.042 A 
ATOM      5  C5  UNL d   1       5.828  -1.488   6.000  0.00  0.00     0.033 A 
ATOM      6  C6  UNL d   1       5.836  -0.090   5.975  0.00  0.00    -0.057 A 
ENDROOT
BRANCH   1   7
ATOM      7  N   UNL d   1       6.000   2.014   4.822  0.00  0.00    -0.732 N 
ATOM      8  C   UNL d   1       5.998   2.803   3.608  0.00  0.00     0.284 C 
ATOM      9  H3  UNL d   1       5.453   2.417   5.580  0.00  0.00     0.395 HD
ENDBRANCH   1   7
TORSDOF 1
ENDMDL
