MODEL 1
REMARK minimizedAffinity 3.87946033
REMARK minimizedRMSD -1
REMARK  1 active torsions:
REMARK  status: ('A' for Active; 'I' for Inactive)
REMARK    1  A    between atoms: N_2  and  C1_3 
ROOT
ATOM      1  C1  UNL d   1       5.924   3.345   4.596  0.00  0.00     0.143 A 
ATOM      2  C2  UNL d   1       5.955   3.418   3.199  0.00  0.00    -0.057 A 
ATOM      3  C3  UNL d   1       5.978   2.260   2.412  0.00  0.00     0.033 A 
ATOM      4  C4  UNL d   1       6.000   1.005   3.011  0.00  0.00    -0.042 A 
ATOM      5  C5  UNL d   1       5.994   0.909   4.399  0.00  0.00     0.033 A 
ATOM      6  C6  UNL d   1       5.965   2.069   5.179  0.00  0.00    -0.057 A 
ENDROOT
BRANCH   1   7
ATOM      7  N   UNL d   1       6.000   4.460   5.435  0.00  0.00    -0.732 N 
ATOM      8  C   UNL d   1       6.000   5.798   4.884  0.00  0.00     0.284 C 
ATOM      9  H3  UNL d   1       5.432   4.355   6.272  0.00  0.00     0.395 HD
ENDBRANCH   1   7
TORSDOF 1
ENDMDL
