MODEL 1
REMARK minimizedAffinity -1.73651445
REMARK minimizedRMSD -1
REMARK  1 active torsions:
REMARK  status: ('A' for Active; 'I' for Inactive)
REMARK    1  A    between atoms: N_2  and  C1_3 
ROOT
ATOM      1  C1  UNL d   1       5.573   2.104   3.433  0.00  0.00     0.143 A 
ATOM      2  C2  UNL d   1       5.774   1.799   4.783  0.00  0.00    -0.057 A 
ATOM      3  C3  UNL d   1       5.999   0.482   5.204  0.00  0.00     0.033 A 
ATOM      4  C4  UNL d   1       5.998  -0.559   4.282  0.00  0.00    -0.042 A 
ATOM      5  C5  UNL d   1       5.776  -0.282   2.938  0.00  0.00     0.033 A 
ATOM      6  C6  UNL d   1       5.558   1.035   2.523  0.00  0.00    -0.057 A 
ENDROOT
BRANCH   1   7
ATOM      7  N   UNL d   1       5.246   3.379   2.964  0.00  0.00    -0.732 N 
ATOM      8  C   UNL d   1       6.000   4.537   3.393  0.00  0.00     0.284 C 
ATOM      9  H3  UNL d   1       5.009   3.380   1.974  0.00  0.00     0.395 HD
ENDBRANCH   1   7
TORSDOF 1
ENDMDL
