MODEL 1
REMARK minimizedAffinity 2.35906935
REMARK minimizedRMSD -1
REMARK  1 active torsions:
REMARK  status: ('A' for Active; 'I' for Inactive)
REMARK    1  A    between atoms: N_2  and  C1_3 
ROOT
ATOM      1  C1  UNL d   1       5.889   3.386   3.164  0.00  0.00     0.143 A 
ATOM      2  C2  UNL d   1       5.822   4.589   3.874  0.00  0.00    -0.057 A 
ATOM      3  C3  UNL d   1       5.816   5.823   3.213  0.00  0.00     0.033 A 
ATOM      4  C4  UNL d   1       5.907   5.877   1.826  0.00  0.00    -0.042 A 
ATOM      5  C5  UNL d   1       5.999   4.694   1.101  0.00  0.00     0.033 A 
ATOM      6  C6  UNL d   1       5.998   3.465   1.766  0.00  0.00    -0.057 A 
ENDROOT
BRANCH   1   7
ATOM      7  N   UNL d   1       5.997   2.131   3.767  0.00  0.00    -0.732 N 
ATOM      8  C   UNL d   1       5.991   0.925   2.968  0.00  0.00     0.284 C 
ATOM      9  H3  UNL d   1       6.675   2.122   4.527  0.00  0.00     0.395 HD
ENDBRANCH   1   7
TORSDOF 1
ENDMDL
