MODEL 1
REMARK minimizedAffinity 3.3241477
REMARK minimizedRMSD -1
REMARK  1 active torsions:
REMARK  status: ('A' for Active; 'I' for Inactive)
REMARK    1  A    between atoms: C1_2  and  C2_3 
ROOT
ATOM      1  C2  UNL d   1       2.484  -0.749   0.500  0.00  0.00    -0.076 A 
ATOM      2  C3  UNL d   1       1.225  -0.560  -0.094  0.00  0.00     0.004 A 
ATOM      3  C4  UNL d   1       1.015  -0.854  -1.441  0.00  0.00    -0.003 A 
ATOM      4  C5  UNL d   1       2.063  -1.343  -2.214  0.00  0.00     0.000 A 
ATOM      5  C6  UNL d   1       3.314  -1.553  -1.636  0.00  0.00     0.000 A 
ATOM      6  C7  UNL d   1       3.537  -1.278  -0.276  0.00  0.00    -0.073 A 
ATOM      7  C8  UNL d   1       4.908  -1.518   0.293  0.00  0.00     0.078 C 
ENDROOT
BRANCH   1   8
ATOM      8  C1  UNL d   1       2.658  -0.388   1.958  0.00  0.00     0.053 C 
ATOM      9  C   UNL d   1       1.454  -0.774   2.803  0.00  0.00     0.018 C 
ENDBRANCH   1   8
TORSDOF 1
ENDMDL
