MODEL 1
REMARK minimizedAffinity -2.54200125
REMARK minimizedRMSD -1
REMARK  1 active torsions:
REMARK  status: ('A' for Active; 'I' for Inactive)
REMARK    1  A    between atoms: C1_2  and  C2_3 
ROOT
ATOM      1  C2  UNL d   1      -0.481   1.562  -0.756  0.00  0.00    -0.076 A 
ATOM      2  C3  UNL d   1      -0.614   2.962  -0.762  0.00  0.00     0.004 A 
ATOM      3  C4  UNL d   1      -1.025   3.639  -1.909  0.00  0.00    -0.003 A 
ATOM      4  C5  UNL d   1      -1.310   2.927  -3.069  0.00  0.00     0.000 A 
ATOM      5  C6  UNL d   1      -1.201   1.537  -3.076  0.00  0.00     0.000 A 
ATOM      6  C7  UNL d   1      -0.804   0.838  -1.923  0.00  0.00    -0.073 A 
ATOM      7  C8  UNL d   1      -0.698  -0.661  -1.989  0.00  0.00     0.078 C 
ENDROOT
BRANCH   1   8
ATOM      8  C1  UNL d   1      -0.006   0.885   0.509  0.00  0.00     0.053 C 
ATOM      9  C   UNL d   1      -1.148   0.552   1.457  0.00  0.00     0.018 C 
ENDBRANCH   1   8
TORSDOF 1
ENDMDL
