MODEL 1
REMARK minimizedAffinity -3.47074723
REMARK minimizedRMSD -1
REMARK  1 active torsions:
REMARK  status: ('A' for Active; 'I' for Inactive)
REMARK    1  A    between atoms: C1_2  and  C2_3 
ROOT
ATOM      1  C2  UNL d   1       0.074  -0.794   0.097  0.00  0.00    -0.076 A 
ATOM      2  C3  UNL d   1      -0.916  -0.176   0.881  0.00  0.00     0.004 A 
ATOM      3  C4  UNL d   1      -0.957  -0.361   2.261  0.00  0.00    -0.003 A 
ATOM      4  C5  UNL d   1      -0.009  -1.167   2.881  0.00  0.00     0.000 A 
ATOM      5  C6  UNL d   1       0.991  -1.773   2.122  0.00  0.00     0.000 A 
ATOM      6  C7  UNL d   1       1.057  -1.584   0.731  0.00  0.00    -0.073 A 
ATOM      7  C8  UNL d   1       2.153  -2.267  -0.039  0.00  0.00     0.078 C 
ENDROOT
BRANCH   1   8
ATOM      8  C1  UNL d   1       0.053  -0.578  -1.399  0.00  0.00     0.053 C 
ATOM      9  C   UNL d   1      -0.632   0.722  -1.791  0.00  0.00     0.018 C 
ENDBRANCH   1   8
TORSDOF 1
ENDMDL
