MODEL 1
REMARK minimizedAffinity -2.89598942
REMARK minimizedRMSD -1
REMARK  1 active torsions:
REMARK  status: ('A' for Active; 'I' for Inactive)
REMARK    1  A    between atoms: C1_2  and  C2_3 
ROOT
ATOM      1  C2  UNL d   1       0.328  -0.575   0.287  0.00  0.00    -0.076 A 
ATOM      2  C3  UNL d   1      -0.547  -0.154   1.303  0.00  0.00     0.004 A 
ATOM      3  C4  UNL d   1      -0.520  -0.747   2.565  0.00  0.00    -0.003 A 
ATOM      4  C5  UNL d   1       0.384  -1.770   2.830  0.00  0.00     0.000 A 
ATOM      5  C6  UNL d   1       1.271  -2.187   1.840  0.00  0.00     0.000 A 
ATOM      6  C7  UNL d   1       1.268  -1.589   0.568  0.00  0.00    -0.073 A 
ATOM      7  C8  UNL d   1       2.244  -2.084  -0.465  0.00  0.00     0.078 C 
ENDROOT
BRANCH   1   8
ATOM      8  C1  UNL d   1       0.234   0.087  -1.069  0.00  0.00     0.053 C 
ATOM      9  C   UNL d   1      -0.722   1.269  -1.076  0.00  0.00     0.018 C 
ENDBRANCH   1   8
TORSDOF 1
ENDMDL
