MODEL 1
REMARK minimizedAffinity 5.70264769
REMARK minimizedRMSD -1
REMARK  0 active torsions:
REMARK  status: ('A' for Active; 'I' for Inactive)
ROOT
ATOM      1  C1  DEN d   1      -2.572   3.023   1.991  0.00  0.00     0.130 A 
ATOM      2  C2  DEN d   1      -2.989   1.626   1.905  0.00  0.00    -0.031 A 
ATOM      3  C3  DEN d   1      -1.919   0.871   1.224  0.00  0.00     0.027 A 
ATOM      4  C4  DEN d   1       0.335   1.723   0.304  0.00  0.00     0.027 A 
ATOM      5  C5  DEN d   1       1.130   2.835   0.133  0.00  0.00    -0.003 A 
ATOM      6  C6  DEN d   1       0.735   4.083   0.536  0.00  0.00     0.001 A 
ATOM      7  C7  DEN d   1      -0.468   4.242   1.171  0.00  0.00     0.017 A 
ATOM      8  C8  DEN d   1      -1.278   3.127   1.340  0.00  0.00    -0.094 A 
ATOM      9  C9  DEN d   1      -0.856   1.871   0.936  0.00  0.00    -0.072 A 
ENDROOT
TORSDOF 0
ENDMDL
