MODEL 1
REMARK minimizedAffinity 12.1793747
REMARK minimizedRMSD -1
REMARK  0 active torsions:
REMARK  status: ('A' for Active; 'I' for Inactive)
ROOT
ATOM      1  C1  DEN d   1      -1.631   3.157   0.564  0.00  0.00     0.130 A 
ATOM      2  C2  DEN d   1      -2.439   2.479   1.573  0.00  0.00    -0.031 A 
ATOM      3  C3  DEN d   1      -1.523   1.804   2.514  0.00  0.00     0.027 A 
ATOM      4  C4  DEN d   1       1.056   1.747   2.509  0.00  0.00     0.027 A 
ATOM      5  C5  DEN d   1       2.186   2.166   1.843  0.00  0.00    -0.003 A 
ATOM      6  C6  DEN d   1       2.124   2.909   0.694  0.00  0.00     0.001 A 
ATOM      7  C7  DEN d   1       0.906   3.295   0.201  0.00  0.00     0.017 A 
ATOM      8  C8  DEN d   1      -0.239   2.871   0.863  0.00  0.00    -0.094 A 
ATOM      9  C9  DEN d   1      -0.155   2.130   2.030  0.00  0.00    -0.072 A 
ENDROOT
TORSDOF 0
ENDMDL
