MODEL 1
REMARK minimizedAffinity 7.5220952
REMARK minimizedRMSD -1
REMARK  0 active torsions:
REMARK  status: ('A' for Active; 'I' for Inactive)
ROOT
ATOM      1  C1  DEN d   1       0.874  -0.403  -1.193  0.00  0.00     0.130 A 
ATOM      2  C2  DEN d   1       2.161   0.061  -0.681  0.00  0.00    -0.031 A 
ATOM      3  C3  DEN d   1       2.749  -1.027   0.125  0.00  0.00     0.027 A 
ATOM      4  C4  DEN d   1       1.801  -3.374   0.623  0.00  0.00     0.027 A 
ATOM      5  C5  DEN d   1       0.735  -4.221   0.416  0.00  0.00    -0.003 A 
ATOM      6  C6  DEN d   1      -0.366  -3.846  -0.308  0.00  0.00     0.001 A 
ATOM      7  C7  DEN d   1      -0.405  -2.606  -0.889  0.00  0.00     0.017 A 
ATOM      8  C8  DEN d   1       0.663  -1.743  -0.678  0.00  0.00    -0.094 A 
ATOM      9  C9  DEN d   1       1.771  -2.146   0.046  0.00  0.00    -0.072 A 
ENDROOT
TORSDOF 0
ENDMDL
