MODEL 1
REMARK minimizedAffinity 8.09323883
REMARK minimizedRMSD -1
REMARK  0 active torsions:
REMARK  status: ('A' for Active; 'I' for Inactive)
ROOT
ATOM      1  C1  DEN d   1       2.284   1.450   0.189  0.00  0.00     0.130 A 
ATOM      2  C2  DEN d   1       1.128   2.315  -0.031  0.00  0.00    -0.031 A 
ATOM      3  C3  DEN d   1       0.024   1.481  -0.546  0.00  0.00     0.027 A 
ATOM      4  C4  DEN d   1      -0.009  -1.055  -1.016  0.00  0.00     0.027 A 
ATOM      5  C5  DEN d   1       0.739  -2.211  -0.994  0.00  0.00    -0.003 A 
ATOM      6  C6  DEN d   1       2.055  -2.222  -0.611  0.00  0.00     0.001 A 
ATOM      7  C7  DEN d   1       2.649  -1.061  -0.192  0.00  0.00     0.017 A 
ATOM      8  C8  DEN d   1       1.903   0.110  -0.218  0.00  0.00    -0.094 A 
ATOM      9  C9  DEN d   1       0.571   0.098  -0.597  0.00  0.00    -0.072 A 
ENDROOT
TORSDOF 0
ENDMDL
