MODEL 1
REMARK minimizedAffinity 7.32553673
REMARK minimizedRMSD -1
REMARK  0 active torsions:
REMARK  status: ('A' for Active; 'I' for Inactive)
ROOT
ATOM      1  C1  DEN d   1       0.477   3.223   0.029  0.00  0.00     0.130 A 
ATOM      2  C2  DEN d   1       1.677   2.472   0.389  0.00  0.00    -0.031 A 
ATOM      3  C3  DEN d   1       1.379   1.692   1.607  0.00  0.00     0.027 A 
ATOM      4  C4  DEN d   1      -0.813   1.573   2.962  0.00  0.00     0.027 A 
ATOM      5  C5  DEN d   1      -2.104   2.044   3.051  0.00  0.00    -0.003 A 
ATOM      6  C6  DEN d   1      -2.610   2.959   2.167  0.00  0.00     0.001 A 
ATOM      7  C7  DEN d   1      -1.835   3.398   1.126  0.00  0.00     0.017 A 
ATOM      8  C8  DEN d   1      -0.530   2.934   1.034  0.00  0.00    -0.094 A 
ATOM      9  C9  DEN d   1      -0.040   2.000   1.931  0.00  0.00    -0.072 A 
ENDROOT
TORSDOF 0
ENDMDL
