MODEL 1
REMARK minimizedAffinity 4.17772484
REMARK minimizedRMSD -1
REMARK  0 active torsions:
REMARK  status: ('A' for Active; 'I' for Inactive)
ROOT
ATOM      1  C1  DEN d   1       1.658   1.077   1.158  0.00  0.00     0.130 A 
ATOM      2  C2  DEN d   1       1.512   1.579  -0.205  0.00  0.00    -0.031 A 
ATOM      3  C3  DEN d   1       0.143   2.113  -0.352  0.00  0.00     0.027 A 
ATOM      4  C4  DEN d   1      -1.754   2.214   1.393  0.00  0.00     0.027 A 
ATOM      5  C5  DEN d   1      -2.107   1.899   2.686  0.00  0.00    -0.003 A 
ATOM      6  C6  DEN d   1      -1.249   1.262   3.543  0.00  0.00     0.001 A 
ATOM      7  C7  DEN d   1       0.022   0.961   3.131  0.00  0.00     0.017 A 
ATOM      8  C8  DEN d   1       0.383   1.268   1.826  0.00  0.00    -0.094 A 
ATOM      9  C9  DEN d   1      -0.495   1.923   0.979  0.00  0.00    -0.072 A 
ENDROOT
TORSDOF 0
ENDMDL
