MODEL 1
REMARK minimizedAffinity 9.76520252
REMARK minimizedRMSD -1
REMARK  0 active torsions:
REMARK  status: ('A' for Active; 'I' for Inactive)
ROOT
ATOM      1  C1  DEN d   1      -3.017   0.772   2.179  0.00  0.00     0.130 A 
ATOM      2  C2  DEN d   1      -3.664   1.310   0.986  0.00  0.00    -0.031 A 
ATOM      3  C3  DEN d   1      -2.724   2.247   0.339  0.00  0.00     0.027 A 
ATOM      4  C4  DEN d   1      -0.339   2.910   1.063  0.00  0.00     0.027 A 
ATOM      5  C5  DEN d   1       0.637   2.723   2.017  0.00  0.00    -0.003 A 
ATOM      6  C6  DEN d   1       0.453   1.907   3.101  0.00  0.00     0.001 A 
ATOM      7  C7  DEN d   1      -0.719   1.210   3.234  0.00  0.00     0.017 A 
ATOM      8  C8  DEN d   1      -1.711   1.398   2.280  0.00  0.00    -0.094 A 
ATOM      9  C9  DEN d   1      -1.500   2.219   1.185  0.00  0.00    -0.072 A 
ENDROOT
TORSDOF 0
ENDMDL
