MODEL 1
REMARK minimizedAffinity 5.99393511
REMARK minimizedRMSD -1
REMARK  0 active torsions:
REMARK  status: ('A' for Active; 'I' for Inactive)
ROOT
ATOM      1  C1  DEN d   1      -3.653   1.903  -0.086  0.00  0.00     0.130 A 
ATOM      2  C2  DEN d   1      -4.632   2.373   0.890  0.00  0.00    -0.031 A 
ATOM      3  C3  DEN d   1      -3.896   2.937   2.040  0.00  0.00     0.027 A 
ATOM      4  C4  DEN d   1      -1.349   3.131   2.398  0.00  0.00     0.027 A 
ATOM      5  C5  DEN d   1      -0.115   2.860   1.851  0.00  0.00    -0.003 A 
ATOM      6  C6  DEN d   1       0.026   2.225   0.646  0.00  0.00     0.001 A 
ATOM      7  C7  DEN d   1      -1.087   1.880  -0.074  0.00  0.00     0.017 A 
ATOM      8  C8  DEN d   1      -2.336   2.144   0.474  0.00  0.00    -0.094 A 
ATOM      9  C9  DEN d   1      -2.457   2.798   1.689  0.00  0.00    -0.072 A 
ENDROOT
TORSDOF 0
ENDMDL
