MODEL 1
REMARK minimizedAffinity 6.02429533
REMARK minimizedRMSD -1
REMARK  0 active torsions:
REMARK  status: ('A' for Active; 'I' for Inactive)
ROOT
ATOM      1  C1  DEN d   1       2.222  -1.066   0.986  0.00  0.00     0.130 A 
ATOM      2  C2  DEN d   1       2.724  -0.958  -0.381  0.00  0.00    -0.031 A 
ATOM      3  C3  DEN d   1       2.082   0.214  -1.011  0.00  0.00     0.027 A 
ATOM      4  C4  DEN d   1       0.375   1.865  -0.005  0.00  0.00     0.027 A 
ATOM      5  C5  DEN d   1      -0.361   2.173   1.117  0.00  0.00    -0.003 A 
ATOM      6  C6  DEN d   1      -0.314   1.411   2.254  0.00  0.00     0.001 A 
ATOM      7  C7  DEN d   1       0.521   0.326   2.309  0.00  0.00     0.017 A 
ATOM      8  C8  DEN d   1       1.261   0.004   1.179  0.00  0.00    -0.094 A 
ATOM      9  C9  DEN d   1       1.208   0.795   0.043  0.00  0.00    -0.072 A 
ENDROOT
TORSDOF 0
ENDMDL
