MODEL 1
REMARK minimizedAffinity 4.47023869
REMARK minimizedRMSD -1
REMARK  0 active torsions:
REMARK  status: ('A' for Active; 'I' for Inactive)
ROOT
ATOM      1  C1  DEN d   1       3.050  -0.330  -1.951  0.00  0.00     0.130 A 
ATOM      2  C2  DEN d   1       2.626  -1.095  -0.782  0.00  0.00    -0.031 A 
ATOM      3  C3  DEN d   1       3.432  -0.649   0.372  0.00  0.00     0.027 A 
ATOM      4  C4  DEN d   1       5.282   1.146   0.462  0.00  0.00     0.027 A 
ATOM      5  C5  DEN d   1       6.000   2.056  -0.281  0.00  0.00    -0.003 A 
ATOM      6  C6  DEN d   1       5.810   2.210  -1.629  0.00  0.00     0.001 A 
ATOM      7  C7  DEN d   1       4.848   1.473  -2.267  0.00  0.00     0.017 A 
ATOM      8  C8  DEN d   1       4.125   0.548  -1.526  0.00  0.00    -0.094 A 
ATOM      9  C9  DEN d   1       4.324   0.416  -0.162  0.00  0.00    -0.072 A 
ENDROOT
TORSDOF 0
ENDMDL
