MODEL 1
REMARK minimizedAffinity 11.4368572
REMARK minimizedRMSD -1
REMARK  2 active torsions:
REMARK  status: ('A' for Active; 'I' for Inactive)
REMARK    1  A    between atoms: C2'_3  and  C1'_4 
REMARK    2  A    between atoms: C1'_4  and  C1_5 
ROOT
ATOM      1  C1  I4B d   1      -4.849  -0.464   1.495  0.00  0.00    -0.075 A 
ATOM      2  C2  I4B d   1      -6.000   0.211   1.171  0.00  0.00     0.003 A 
ATOM      3  C3  I4B d   1      -5.980   1.618   1.011  0.00  0.00     0.002 A 
ATOM      4  C4  I4B d   1      -4.808   2.311   1.233  0.00  0.00    -0.004 A 
ATOM      5  C5  I4B d   1      -3.637   1.623   1.540  0.00  0.00     0.002 A 
ATOM      6  C6  I4B d   1      -3.655   0.226   1.660  0.00  0.00     0.003 A 
ENDROOT
BRANCH   1   7
ATOM      7  C1' I4B d   1      -4.913  -1.946   1.688  0.00  0.00     0.060 C 
BRANCH   7   8
ATOM      8  C2' I4B d   1      -5.580  -2.214   3.022  0.00  0.00    -0.013 C 
ATOM      9  C4' I4B d   1      -5.870  -3.681   3.201  0.00  0.00     0.013 C 
ATOM     10  C3' I4B d   1      -4.675  -1.705   4.104  0.00  0.00     0.013 C 
ENDBRANCH   7   8
ENDBRANCH   1   7
TORSDOF 2
ENDMDL
