MODEL 1
REMARK minimizedAffinity 2.2643528
REMARK minimizedRMSD -1
REMARK  2 active torsions:
REMARK  status: ('A' for Active; 'I' for Inactive)
REMARK    1  A    between atoms: C2'_3  and  C1'_4 
REMARK    2  A    between atoms: C1'_4  and  C1_5 
ROOT
ATOM      1  C1  I4B d   1       3.577  -5.995   2.526  0.00  0.00    -0.075 A 
ATOM      2  C2  I4B d   1       4.797  -5.975   1.897  0.00  0.00     0.003 A 
ATOM      3  C3  I4B d   1       5.991  -5.945   2.657  0.00  0.00     0.002 A 
ATOM      4  C4  I4B d   1       5.918  -5.885   4.034  0.00  0.00    -0.004 A 
ATOM      5  C5  I4B d   1       4.681  -5.929   4.671  0.00  0.00     0.002 A 
ATOM      6  C6  I4B d   1       3.503  -5.996   3.913  0.00  0.00     0.003 A 
ENDROOT
BRANCH   1   7
ATOM      7  C1' I4B d   1       2.335  -5.993   1.691  0.00  0.00     0.060 C 
BRANCH   7   8
ATOM      8  C2' I4B d   1       1.308  -5.123   2.386  0.00  0.00    -0.013 C 
ATOM      9  C4' I4B d   1       0.433  -4.411   1.388  0.00  0.00     0.013 C 
ATOM     10  C3' I4B d   1       0.494  -5.999   3.290  0.00  0.00     0.013 C 
ENDBRANCH   7   8
ENDBRANCH   1   7
TORSDOF 2
ENDMDL
