MODEL 1
REMARK minimizedAffinity 10.1010151
REMARK minimizedRMSD -1
REMARK  2 active torsions:
REMARK  status: ('A' for Active; 'I' for Inactive)
REMARK    1  A    between atoms: C2'_3  and  C1'_4 
REMARK    2  A    between atoms: C1'_4  and  C1_5 
ROOT
ATOM      1  C1  I4B d   1      -1.789   0.809   1.692  0.00  0.00    -0.075 A 
ATOM      2  C2  I4B d   1      -0.561   0.548   2.247  0.00  0.00     0.003 A 
ATOM      3  C3  I4B d   1       0.037   1.481   3.127  0.00  0.00     0.002 A 
ATOM      4  C4  I4B d   1      -0.600   2.678   3.384  0.00  0.00    -0.004 A 
ATOM      5  C5  I4B d   1      -1.856   2.932   2.840  0.00  0.00     0.002 A 
ATOM      6  C6  I4B d   1      -2.460   1.986   1.998  0.00  0.00     0.003 A 
ENDROOT
BRANCH   1   7
ATOM      7  C1' I4B d   1      -2.377  -0.184   0.741  0.00  0.00     0.060 C 
BRANCH   7   8
ATOM      8  C2' I4B d   1      -3.885  -0.126   0.878  0.00  0.00    -0.013 C 
ATOM      9  C4' I4B d   1      -4.429   1.180   0.361  0.00  0.00     0.013 C 
ATOM     10  C3' I4B d   1      -4.463  -1.288   0.127  0.00  0.00     0.013 C 
ENDBRANCH   7   8
ENDBRANCH   1   7
TORSDOF 2
ENDMDL
