MODEL 1
REMARK minimizedAffinity 6.02993727
REMARK minimizedRMSD -1
REMARK  2 active torsions:
REMARK  status: ('A' for Active; 'I' for Inactive)
REMARK    1  A    between atoms: C2'_3  and  C1'_4 
REMARK    2  A    between atoms: C1'_4  and  C1_5 
ROOT
ATOM      1  C1  I4B d   1       5.929  -2.765   4.284  0.00  0.00    -0.075 A 
ATOM      2  C2  I4B d   1       5.913  -3.711   3.290  0.00  0.00     0.003 A 
ATOM      3  C3  I4B d   1       5.923  -5.088   3.616  0.00  0.00     0.002 A 
ATOM      4  C4  I4B d   1       6.000  -5.473   4.939  0.00  0.00    -0.004 A 
ATOM      5  C5  I4B d   1       5.993  -4.513   5.947  0.00  0.00     0.002 A 
ATOM      6  C6  I4B d   1       5.945  -3.150   5.619  0.00  0.00     0.003 A 
ENDROOT
BRANCH   1   7
ATOM      7  C1' I4B d   1       5.951  -1.318   3.903  0.00  0.00     0.060 C 
BRANCH   7   8
ATOM      8  C2' I4B d   1       4.978  -1.123   2.758  0.00  0.00    -0.013 C 
ATOM      9  C4' I4B d   1       3.622  -0.704   3.261  0.00  0.00     0.013 C 
ATOM     10  C3' I4B d   1       5.554  -0.093   1.832  0.00  0.00     0.013 C 
ENDBRANCH   7   8
ENDBRANCH   1   7
TORSDOF 2
ENDMDL
