MODEL 1
REMARK minimizedAffinity 8.72956944
REMARK minimizedRMSD -1
REMARK  2 active torsions:
REMARK  status: ('A' for Active; 'I' for Inactive)
REMARK    1  A    between atoms: C2'_3  and  C1'_4 
REMARK    2  A    between atoms: C1'_4  and  C1_5 
ROOT
ATOM      1  C1  I4B d   1      -3.232   0.215   2.774  0.00  0.00    -0.075 A 
ATOM      2  C2  I4B d   1      -2.150  -0.464   3.278  0.00  0.00     0.003 A 
ATOM      3  C3  I4B d   1      -0.870  -0.297   2.697  0.00  0.00     0.002 A 
ATOM      4  C4  I4B d   1      -0.727   0.514   1.589  0.00  0.00    -0.004 A 
ATOM      5  C5  I4B d   1      -1.820   1.219   1.094  0.00  0.00     0.002 A 
ATOM      6  C6  I4B d   1      -3.078   1.079   1.698  0.00  0.00     0.003 A 
ENDROOT
BRANCH   1   7
ATOM      7  C1' I4B d   1      -4.575  -0.010   3.391  0.00  0.00     0.060 C 
BRANCH   7   8
ATOM      8  C2' I4B d   1      -4.520   0.483   4.823  0.00  0.00    -0.013 C 
ATOM      9  C4' I4B d   1      -5.570   1.532   5.080  0.00  0.00     0.013 C 
ATOM     10  C3' I4B d   1      -4.703  -0.699   5.727  0.00  0.00     0.013 C 
ENDBRANCH   7   8
ENDBRANCH   1   7
TORSDOF 2
ENDMDL
