MODEL 1
REMARK minimizedAffinity 2.62311888
REMARK minimizedRMSD -1
REMARK  2 active torsions:
REMARK  status: ('A' for Active; 'I' for Inactive)
REMARK    1  A    between atoms: C2'_3  and  C1'_4 
REMARK    2  A    between atoms: C1'_4  and  C1_5 
ROOT
ATOM      1  C1  I4B d   1      -0.779  -0.897  -5.793  0.00  0.00    -0.075 A 
ATOM      2  C2  I4B d   1      -0.617  -2.258  -5.864  0.00  0.00     0.003 A 
ATOM      3  C3  I4B d   1      -1.744  -3.104  -5.995  0.00  0.00     0.002 A 
ATOM      4  C4  I4B d   1      -3.010  -2.555  -6.000  0.00  0.00    -0.004 A 
ATOM      5  C5  I4B d   1      -3.171  -1.173  -5.951  0.00  0.00     0.002 A 
ATOM      6  C6  I4B d   1      -2.048  -0.338  -5.860  0.00  0.00     0.003 A 
ENDROOT
BRANCH   1   7
ATOM      7  C1' I4B d   1       0.431  -0.035  -5.623  0.00  0.00     0.060 C 
BRANCH   7   8
ATOM      8  C2' I4B d   1       1.322  -0.681  -4.581  0.00  0.00    -0.013 C 
ATOM      9  C4' I4B d   1       2.738  -0.806  -5.076  0.00  0.00     0.013 C 
ATOM     10  C3' I4B d   1       1.255   0.151  -3.335  0.00  0.00     0.013 C 
ENDBRANCH   7   8
ENDBRANCH   1   7
TORSDOF 2
ENDMDL
