MODEL 1
REMARK minimizedAffinity 5.36478662
REMARK minimizedRMSD -1
REMARK  2 active torsions:
REMARK  status: ('A' for Active; 'I' for Inactive)
REMARK    1  A    between atoms: C2'_3  and  C1'_4 
REMARK    2  A    between atoms: C1'_4  and  C1_5 
ROOT
ATOM      1  C1  I4B d   1      -2.056  -1.995  -5.986  0.00  0.00    -0.075 A 
ATOM      2  C2  I4B d   1      -2.159  -3.364  -5.990  0.00  0.00     0.003 A 
ATOM      3  C3  I4B d   1      -3.432  -3.983  -5.996  0.00  0.00     0.002 A 
ATOM      4  C4  I4B d   1      -4.568  -3.202  -5.947  0.00  0.00    -0.004 A 
ATOM      5  C5  I4B d   1      -4.462  -1.814  -5.967  0.00  0.00     0.002 A 
ATOM      6  C6  I4B d   1      -3.199  -1.206  -5.999  0.00  0.00     0.003 A 
ENDROOT
BRANCH   1   7
ATOM      7  C1' I4B d   1      -0.696  -1.374  -5.946  0.00  0.00     0.060 C 
BRANCH   7   8
ATOM      8  C2' I4B d   1      -0.521  -0.719  -4.591  0.00  0.00    -0.013 C 
ATOM      9  C4' I4B d   1       0.887  -0.884  -4.083  0.00  0.00     0.013 C 
ATOM     10  C3' I4B d   1      -0.880   0.731  -4.729  0.00  0.00     0.013 C 
ENDBRANCH   7   8
ENDBRANCH   1   7
TORSDOF 2
ENDMDL
