MODEL 1
REMARK minimizedAffinity 10.8024178
REMARK minimizedRMSD -1
REMARK  2 active torsions:
REMARK  status: ('A' for Active; 'I' for Inactive)
REMARK    1  A    between atoms: C2'_3  and  C1'_4 
REMARK    2  A    between atoms: C1'_4  and  C1_5 
ROOT
ATOM      1  C1  I4B d   1      -3.894   0.455   3.742  0.00  0.00    -0.075 A 
ATOM      2  C2  I4B d   1      -4.783   1.252   3.063  0.00  0.00     0.003 A 
ATOM      3  C3  I4B d   1      -4.447   1.768   1.788  0.00  0.00     0.002 A 
ATOM      4  C4  I4B d   1      -3.201   1.506   1.256  0.00  0.00    -0.004 A 
ATOM      5  C5  I4B d   1      -2.311   0.680   1.935  0.00  0.00     0.002 A 
ATOM      6  C6  I4B d   1      -2.664   0.140   3.181  0.00  0.00     0.003 A 
ENDROOT
BRANCH   1   7
ATOM      7  C1' I4B d   1      -4.268  -0.046   5.101  0.00  0.00     0.060 C 
BRANCH   7   8
ATOM      8  C2' I4B d   1      -3.682  -1.434   5.264  0.00  0.00    -0.013 C 
ATOM      9  C4' I4B d   1      -2.368  -1.387   5.998  0.00  0.00     0.013 C 
ATOM     10  C3' I4B d   1      -4.683  -2.276   5.998  0.00  0.00     0.013 C 
ENDBRANCH   7   8
ENDBRANCH   1   7
TORSDOF 2
ENDMDL
