MODEL 1
REMARK minimizedAffinity 6.74777365
REMARK minimizedRMSD -1
REMARK  2 active torsions:
REMARK  status: ('A' for Active; 'I' for Inactive)
REMARK    1  A    between atoms: C2'_3  and  C1'_4 
REMARK    2  A    between atoms: C1'_4  and  C1_5 
ROOT
ATOM      1  C1  I4B d   1      -3.921   0.400   3.303  0.00  0.00    -0.075 A 
ATOM      2  C2  I4B d   1      -4.618   1.456   3.834  0.00  0.00     0.003 A 
ATOM      3  C3  I4B d   1      -4.960   1.467   5.208  0.00  0.00     0.002 A 
ATOM      4  C4  I4B d   1      -4.631   0.384   5.998  0.00  0.00    -0.004 A 
ATOM      5  C5  I4B d   1      -3.904  -0.676   5.464  0.00  0.00     0.002 A 
ATOM      6  C6  I4B d   1      -3.536  -0.663   4.111  0.00  0.00     0.003 A 
ENDROOT
BRANCH   1   7
ATOM      7  C1' I4B d   1      -3.606   0.406   1.841  0.00  0.00     0.060 C 
BRANCH   7   8
ATOM      8  C2' I4B d   1      -2.231   1.017   1.663  0.00  0.00    -0.013 C 
ATOM      9  C4' I4B d   1      -2.185   2.422   2.204  0.00  0.00     0.013 C 
ATOM     10  C3' I4B d   1      -1.238   0.135   2.359  0.00  0.00     0.013 C 
ENDBRANCH   7   8
ENDBRANCH   1   7
TORSDOF 2
ENDMDL
