MODEL 1
REMARK minimizedAffinity 10.6149015
REMARK minimizedRMSD -1
REMARK  2 active torsions:
REMARK  status: ('A' for Active; 'I' for Inactive)
REMARK    1  A    between atoms: C2'_3  and  C1'_4 
REMARK    2  A    between atoms: C1'_4  and  C1_5 
ROOT
ATOM      1  C1  I4B d   1      -3.808   0.381   2.490  0.00  0.00    -0.075 A 
ATOM      2  C2  I4B d   1      -4.323   0.224   3.752  0.00  0.00     0.003 A 
ATOM      3  C3  I4B d   1      -5.285   1.137   4.248  0.00  0.00     0.002 A 
ATOM      4  C4  I4B d   1      -5.661   2.215   3.474  0.00  0.00    -0.004 A 
ATOM      5  C5  I4B d   1      -5.154   2.361   2.185  0.00  0.00     0.002 A 
ATOM      6  C6  I4B d   1      -4.231   1.431   1.685  0.00  0.00     0.003 A 
ENDROOT
BRANCH   1   7
ATOM      7  C1' I4B d   1      -2.770  -0.583   2.009  0.00  0.00     0.060 C 
BRANCH   7   8
ATOM      8  C2' I4B d   1      -1.423  -0.110   2.517  0.00  0.00    -0.013 C 
ATOM      9  C4' I4B d   1      -0.510  -1.273   2.805  0.00  0.00     0.013 C 
ATOM     10  C3' I4B d   1      -0.831   0.800   1.482  0.00  0.00     0.013 C 
ENDBRANCH   7   8
ENDBRANCH   1   7
TORSDOF 2
ENDMDL
