MODEL 1
REMARK minimizedAffinity 6.77984238
REMARK minimizedRMSD -1
REMARK  2 active torsions:
REMARK  status: ('A' for Active; 'I' for Inactive)
REMARK    1  A    between atoms: C2'_3  and  C1'_4 
REMARK    2  A    between atoms: C1'_4  and  C1_5 
ROOT
ATOM      1  C1  I4B d   1      -1.339  -0.800  -5.360  0.00  0.00    -0.075 A 
ATOM      2  C2  I4B d   1      -2.643  -0.370  -5.348  0.00  0.00     0.003 A 
ATOM      3  C3  I4B d   1      -3.693  -1.272  -5.645  0.00  0.00     0.002 A 
ATOM      4  C4  I4B d   1      -3.394  -2.572  -5.996  0.00  0.00    -0.004 A 
ATOM      5  C5  I4B d   1      -2.074  -3.012  -5.986  0.00  0.00     0.002 A 
ATOM      6  C6  I4B d   1      -1.040  -2.124  -5.654  0.00  0.00     0.003 A 
ENDROOT
BRANCH   1   7
ATOM      7  C1' I4B d   1      -0.252   0.187  -5.074  0.00  0.00     0.060 C 
BRANCH   7   8
ATOM      8  C2' I4B d   1       0.828  -0.524  -4.284  0.00  0.00    -0.013 C 
ATOM      9  C4' I4B d   1       2.174  -0.374  -4.943  0.00  0.00     0.013 C 
ATOM     10  C3' I4B d   1       0.838   0.045  -2.897  0.00  0.00     0.013 C 
ENDBRANCH   7   8
ENDBRANCH   1   7
TORSDOF 2
ENDMDL
