MODEL 1
REMARK minimizedAffinity 10.9553337
REMARK minimizedRMSD -1
REMARK  0 active torsions:
REMARK  status: ('A' for Active; 'I' for Inactive)
ROOT
ATOM      1  C4' PXY d   1      -3.909  -3.787   5.589  0.00  0.00     0.077 C 
ATOM      2  C1' PXY d   1      -3.475   1.427   3.131  0.00  0.00     0.077 C 
ATOM      3  C1  PXY d   1      -3.582   0.064   3.786  0.00  0.00    -0.082 A 
ATOM      4  C2  PXY d   1      -3.767  -1.010   3.035  0.00  0.00     0.003 A 
ATOM      5  C3  PXY d   1      -3.898  -2.246   3.614  0.00  0.00     0.003 A 
ATOM      6  C4  PXY d   1      -3.785  -2.392   4.971  0.00  0.00    -0.082 A 
ATOM      7  C5  PXY d   1      -3.586  -1.302   5.742  0.00  0.00     0.003 A 
ATOM      8  C6  PXY d   1      -3.497  -0.051   5.139  0.00  0.00     0.003 A 
ENDROOT
TORSDOF 0
ENDMDL
