MODEL 1
REMARK minimizedAffinity 11.4803343
REMARK minimizedRMSD -1
REMARK  0 active torsions:
REMARK  status: ('A' for Active; 'I' for Inactive)
ROOT
ATOM      1  C4' PXY d   1      -3.801  -3.173   5.088  0.00  0.00     0.077 C 
ATOM      2  C1' PXY d   1      -3.552   2.344   3.379  0.00  0.00     0.077 C 
ATOM      3  C1  PXY d   1      -3.611   0.900   3.838  0.00  0.00    -0.082 A 
ATOM      4  C2  PXY d   1      -3.808  -0.061   2.950  0.00  0.00     0.003 A 
ATOM      5  C3  PXY d   1      -3.896  -1.369   3.352  0.00  0.00     0.003 A 
ATOM      6  C4  PXY d   1      -3.726  -1.702   4.669  0.00  0.00    -0.082 A 
ATOM      7  C5  PXY d   1      -3.513  -0.728   5.579  0.00  0.00     0.003 A 
ATOM      8  C6  PXY d   1      -3.469   0.597   5.157  0.00  0.00     0.003 A 
ENDROOT
TORSDOF 0
ENDMDL
