MODEL 1
REMARK minimizedAffinity 9.36088848
REMARK minimizedRMSD -1
REMARK  0 active torsions:
REMARK  status: ('A' for Active; 'I' for Inactive)
ROOT
ATOM      1  C4' PXY d   1       3.382   1.803  -0.397  0.00  0.00     0.077 C 
ATOM      2  C1' PXY d   1       2.613  -3.926  -0.443  0.00  0.00     0.077 C 
ATOM      3  C1  PXY d   1       2.808  -2.423  -0.442  0.00  0.00    -0.082 A 
ATOM      4  C2  PXY d   1       3.844  -1.898   0.192  0.00  0.00     0.003 A 
ATOM      5  C3  PXY d   1       4.018  -0.538   0.230  0.00  0.00     0.003 A 
ATOM      6  C4  PXY d   1       3.151   0.290  -0.433  0.00  0.00    -0.082 A 
ATOM      7  C5  PXY d   1       2.098  -0.239  -1.091  0.00  0.00     0.003 A 
ATOM      8  C6  PXY d   1       1.916  -1.619  -1.083  0.00  0.00     0.003 A 
ENDROOT
TORSDOF 0
ENDMDL
