MODEL 1
REMARK minimizedAffinity 5.58228922
REMARK minimizedRMSD -1
REMARK  0 active torsions:
REMARK  status: ('A' for Active; 'I' for Inactive)
ROOT
ATOM      1  C4' PXY d   1       2.966  -3.658  -0.168  0.00  0.00     0.077 C 
ATOM      2  C1' PXY d   1       3.797   2.054   0.147  0.00  0.00     0.077 C 
ATOM      3  C1  PXY d   1       3.566   0.558   0.062  0.00  0.00    -0.082 A 
ATOM      4  C2  PXY d   1       4.408  -0.269   0.661  0.00  0.00     0.003 A 
ATOM      5  C3  PXY d   1       4.233  -1.625   0.568  0.00  0.00     0.003 A 
ATOM      6  C4  PXY d   1       3.154  -2.140  -0.101  0.00  0.00    -0.082 A 
ATOM      7  C5  PXY d   1       2.285  -1.303  -0.706  0.00  0.00     0.003 A 
ATOM      8  C6  PXY d   1       2.504   0.070  -0.634  0.00  0.00     0.003 A 
ENDROOT
TORSDOF 0
ENDMDL
