MODEL 1
REMARK minimizedAffinity 10.1824713
REMARK minimizedRMSD -1
REMARK  0 active torsions:
REMARK  status: ('A' for Active; 'I' for Inactive)
ROOT
ATOM      1  C4' PXY d   1      -0.915   1.567  -3.727  0.00  0.00     0.077 C 
ATOM      2  C1' PXY d   1      -3.851   5.997  -6.000  0.00  0.00     0.077 C 
ATOM      3  C1  PXY d   1      -3.073   4.844  -5.398  0.00  0.00    -0.082 A 
ATOM      4  C2  PXY d   1      -3.086   3.663  -5.995  0.00  0.00     0.003 A 
ATOM      5  C3  PXY d   1      -2.414   2.601  -5.448  0.00  0.00     0.003 A 
ATOM      6  C4  PXY d   1      -1.678   2.762  -4.304  0.00  0.00    -0.082 A 
ATOM      7  C5  PXY d   1      -1.651   3.966  -3.694  0.00  0.00     0.003 A 
ATOM      8  C6  PXY d   1      -2.373   5.021  -4.244  0.00  0.00     0.003 A 
ENDROOT
TORSDOF 0
ENDMDL
