MODEL 1
REMARK minimizedAffinity 25.3924046
REMARK minimizedRMSD -1
REMARK  0 active torsions:
REMARK  status: ('A' for Active; 'I' for Inactive)
ROOT
ATOM      1  C4' PXY d   1       2.033  -3.203  -0.358  0.00  0.00     0.077 C 
ATOM      2  C1' PXY d   1       4.373   2.024   0.430  0.00  0.00     0.077 C 
ATOM      3  C1  PXY d   1       3.748   0.659   0.224  0.00  0.00    -0.082 A 
ATOM      4  C2  PXY d   1       4.414  -0.427   0.582  0.00  0.00     0.003 A 
ATOM      5  C3  PXY d   1       3.877  -1.671   0.373  0.00  0.00     0.003 A 
ATOM      6  C4  PXY d   1       2.622  -1.803  -0.159  0.00  0.00    -0.082 A 
ATOM      7  C5  PXY d   1       1.931  -0.700  -0.517  0.00  0.00     0.003 A 
ATOM      8  C6  PXY d   1       2.511   0.552  -0.335  0.00  0.00     0.003 A 
ENDROOT
TORSDOF 0
ENDMDL
