MODEL 1
REMARK minimizedAffinity 13.0516129
REMARK minimizedRMSD -1
REMARK  0 active torsions:
REMARK  status: ('A' for Active; 'I' for Inactive)
ROOT
ATOM      1  C4' PXY d   1       1.839  -2.466  -1.129  0.00  0.00     0.077 C 
ATOM      2  C1' PXY d   1       4.988   2.244   0.016  0.00  0.00     0.077 C 
ATOM      3  C1  PXY d   1       4.151   1.017  -0.285  0.00  0.00    -0.082 A 
ATOM      4  C2  PXY d   1       4.551  -0.169   0.144  0.00  0.00     0.003 A 
ATOM      5  C3  PXY d   1       3.824  -1.294  -0.147  0.00  0.00     0.003 A 
ATOM      6  C4  PXY d   1       2.646  -1.198  -0.840  0.00  0.00    -0.082 A 
ATOM      7  C5  PXY d   1       2.226   0.010  -1.272  0.00  0.00     0.003 A 
ATOM      8  C6  PXY d   1       3.000   1.134  -1.001  0.00  0.00     0.003 A 
ENDROOT
TORSDOF 0
ENDMDL
