MODEL 1
REMARK minimizedAffinity 18.8026886
REMARK minimizedRMSD -1
REMARK  0 active torsions:
REMARK  status: ('A' for Active; 'I' for Inactive)
ROOT
ATOM      1  C4' PXY d   1       1.876   1.755   1.768  0.00  0.00     0.077 C 
ATOM      2  C1' PXY d   1      -3.574   0.516   3.244  0.00  0.00     0.077 C 
ATOM      3  C1  PXY d   1      -2.149   0.845   2.845  0.00  0.00    -0.082 A 
ATOM      4  C2  PXY d   1      -1.145   0.194   3.409  0.00  0.00     0.003 A 
ATOM      5  C3  PXY d   1       0.151   0.501   3.084  0.00  0.00     0.003 A 
ATOM      6  C4  PXY d   1       0.421   1.449   2.133  0.00  0.00    -0.082 A 
ATOM      7  C5  PXY d   1      -0.599   2.110   1.545  0.00  0.00     0.003 A 
ATOM      8  C6  PXY d   1      -1.906   1.812   1.919  0.00  0.00     0.003 A 
ENDROOT
TORSDOF 0
ENDMDL
