MODEL 1
REMARK minimizedAffinity 4.58091974
REMARK minimizedRMSD -1
REMARK  0 active torsions:
REMARK  status: ('A' for Active; 'I' for Inactive)
ROOT
ATOM      1  C4' PXY d   1       4.174   1.842   0.028  0.00  0.00     0.077 C 
ATOM      2  C1' PXY d   1       2.656  -3.735  -0.062  0.00  0.00     0.077 C 
ATOM      3  C1  PXY d   1       3.048  -2.271  -0.050  0.00  0.00    -0.082 A 
ATOM      4  C2  PXY d   1       4.107  -1.883   0.642  0.00  0.00     0.003 A 
ATOM      5  C3  PXY d   1       4.457  -0.558   0.690  0.00  0.00     0.003 A 
ATOM      6  C4  PXY d   1       3.746   0.372  -0.021  0.00  0.00    -0.082 A 
ATOM      7  C5  PXY d   1       2.671  -0.017  -0.737  0.00  0.00     0.003 A 
ATOM      8  C6  PXY d   1       2.308  -1.361  -0.740  0.00  0.00     0.003 A 
ENDROOT
TORSDOF 0
ENDMDL
