MODEL 1
REMARK minimizedAffinity 12.3920174
REMARK minimizedRMSD -1
REMARK  0 active torsions:
REMARK  status: ('A' for Active; 'I' for Inactive)
ROOT
ATOM      1  C4' PXY d   1      -0.147  -3.107  -2.876  0.00  0.00     0.077 C 
ATOM      2  C1' PXY d   1       4.556  -1.748   0.197  0.00  0.00     0.077 C 
ATOM      3  C1  PXY d   1       3.321  -2.092  -0.612  0.00  0.00    -0.082 A 
ATOM      4  C2  PXY d   1       2.649  -3.199  -0.340  0.00  0.00     0.003 A 
ATOM      5  C3  PXY d   1       1.548  -3.541  -1.083  0.00  0.00     0.003 A 
ATOM      6  C4  PXY d   1       1.100  -2.715  -2.079  0.00  0.00    -0.082 A 
ATOM      7  C5  PXY d   1       1.775  -1.579  -2.355  0.00  0.00     0.003 A 
ATOM      8  C6  PXY d   1       2.913  -1.270  -1.616  0.00  0.00     0.003 A 
ENDROOT
TORSDOF 0
ENDMDL
