MODEL 1
REMARK minimizedAffinity 16.736599
REMARK minimizedRMSD -1
REMARK  0 active torsions:
REMARK  status: ('A' for Active; 'I' for Inactive)
ROOT
ATOM      1  C4' PXY d   1       2.715  -0.678  -1.065  0.00  0.00     0.077 C 
ATOM      2  C1' PXY d   1       3.947  -5.999   0.827  0.00  0.00     0.077 C 
ATOM      3  C1  PXY d   1       3.635  -4.599   0.335  0.00  0.00    -0.082 A 
ATOM      4  C2  PXY d   1       2.376  -4.232   0.161  0.00  0.00     0.003 A 
ATOM      5  C3  PXY d   1       2.078  -2.981  -0.313  0.00  0.00     0.003 A 
ATOM      6  C4  PXY d   1       3.076  -2.078  -0.561  0.00  0.00    -0.082 A 
ATOM      7  C5  PXY d   1       4.363  -2.441  -0.376  0.00  0.00     0.003 A 
ATOM      8  C6  PXY d   1       4.647  -3.730   0.067  0.00  0.00     0.003 A 
ENDROOT
TORSDOF 0
ENDMDL
