MODEL 1
REMARK minimizedAffinity 4.64936972
REMARK minimizedRMSD -1
REMARK  0 active torsions:
REMARK  status: ('A' for Active; 'I' for Inactive)
ROOT
ATOM      1  C4' PXY d   1       4.094   1.505   0.087  0.00  0.00     0.077 C 
ATOM      2  C1' PXY d   1       3.373  -4.227  -0.085  0.00  0.00     0.077 C 
ATOM      3  C1  PXY d   1       3.555  -2.723  -0.051  0.00  0.00    -0.082 A 
ATOM      4  C2  PXY d   1       4.598  -2.204   0.576  0.00  0.00     0.003 A 
ATOM      5  C3  PXY d   1       4.761  -0.844   0.644  0.00  0.00     0.003 A 
ATOM      6  C4  PXY d   1       3.875  -0.008   0.019  0.00  0.00    -0.082 A 
ATOM      7  C5  PXY d   1       2.814  -0.530  -0.632  0.00  0.00     0.003 A 
ATOM      8  C6  PXY d   1       2.645  -1.911  -0.655  0.00  0.00     0.003 A 
ENDROOT
TORSDOF 0
ENDMDL
