MODEL 1
REMARK minimizedAffinity 18.8886089
REMARK minimizedRMSD -1
REMARK  0 active torsions:
REMARK  status: ('A' for Active; 'I' for Inactive)
ROOT
ATOM      1  C4' PXY d   1       1.966   1.201   4.754  0.00  0.00     0.077 C 
ATOM      2  C1' PXY d   1      -2.605   0.152   1.375  0.00  0.00     0.077 C 
ATOM      3  C1  PXY d   1      -1.407   0.440   2.258  0.00  0.00    -0.082 A 
ATOM      4  C2  PXY d   1      -0.566  -0.537   2.558  0.00  0.00     0.003 A 
ATOM      5  C3  PXY d   1       0.505  -0.301   3.381  0.00  0.00     0.003 A 
ATOM      6  C4  PXY d   1       0.748   0.959   3.859  0.00  0.00    -0.082 A 
ATOM      7  C5  PXY d   1      -0.100   1.963   3.548  0.00  0.00     0.003 A 
ATOM      8  C6  PXY d   1      -1.204   1.694   2.745  0.00  0.00     0.003 A 
ENDROOT
TORSDOF 0
ENDMDL
