MODEL 1
REMARK minimizedAffinity 15.8856401
REMARK minimizedRMSD -1
REMARK  0 active torsions:
REMARK  status: ('A' for Active; 'I' for Inactive)
ROOT
ATOM      1  C4' PXY d   1       1.019  -4.038  -3.128  0.00  0.00     0.077 C 
ATOM      2  C1' PXY d   1       2.980   0.296   0.156  0.00  0.00     0.077 C 
ATOM      3  C1  PXY d   1       2.474  -0.849  -0.700  0.00  0.00    -0.082 A 
ATOM      4  C2  PXY d   1       1.855  -0.589  -1.840  0.00  0.00     0.003 A 
ATOM      5  C3  PXY d   1       1.363  -1.611  -2.610  0.00  0.00     0.003 A 
ATOM      6  C4  PXY d   1       1.554  -2.915  -2.236  0.00  0.00    -0.082 A 
ATOM      7  C5  PXY d   1       2.194  -3.188  -1.080  0.00  0.00     0.003 A 
ATOM      8  C6  PXY d   1       2.650  -2.135  -0.292  0.00  0.00     0.003 A 
ENDROOT
TORSDOF 0
ENDMDL
