MODEL 1
REMARK minimizedAffinity 15.8349533
REMARK minimizedRMSD -1
REMARK  0 active torsions:
REMARK  status: ('A' for Active; 'I' for Inactive)
ROOT
ATOM      1  C4' PXY d   1      -4.455  -1.907   2.074  0.00  0.00     0.077 C 
ATOM      2  C1' PXY d   1      -0.689   2.361   3.086  0.00  0.00     0.077 C 
ATOM      3  C1  PXY d   1      -1.683   1.245   2.831  0.00  0.00    -0.082 A 
ATOM      4  C2  PXY d   1      -1.328   0.209   2.089  0.00  0.00     0.003 A 
ATOM      5  C3  PXY d   1      -2.224  -0.793   1.822  0.00  0.00     0.003 A 
ATOM      6  C4  PXY d   1      -3.481  -0.761   2.365  0.00  0.00    -0.082 A 
ATOM      7  C5  PXY d   1      -3.847   0.287   3.133  0.00  0.00     0.003 A 
ATOM      8  C6  PXY d   1      -2.936   1.314   3.358  0.00  0.00     0.003 A 
ENDROOT
TORSDOF 0
ENDMDL
