MODEL 1
REMARK minimizedAffinity 14.3789291
REMARK minimizedRMSD -1
REMARK  0 active torsions:
REMARK  status: ('A' for Active; 'I' for Inactive)
ROOT
ATOM      1  C4' PXY d   1      -5.999  -3.067   1.840  0.00  0.00     0.077 C 
ATOM      2  C1' PXY d   1      -2.907   1.537   3.471  0.00  0.00     0.077 C 
ATOM      3  C1  PXY d   1      -3.711   0.322   3.050  0.00  0.00    -0.082 A 
ATOM      4  C2  PXY d   1      -4.382   0.344   1.911  0.00  0.00     0.003 A 
ATOM      5  C3  PXY d   1      -5.139  -0.734   1.531  0.00  0.00     0.003 A 
ATOM      6  C4  PXY d   1      -5.167  -1.867   2.300  0.00  0.00    -0.082 A 
ATOM      7  C5  PXY d   1      -4.476  -1.901   3.459  0.00  0.00     0.003 A 
ATOM      8  C6  PXY d   1      -3.746  -0.781   3.847  0.00  0.00     0.003 A 
ENDROOT
TORSDOF 0
ENDMDL
