MODEL 1
REMARK minimizedAffinity 14.0225229
REMARK minimizedRMSD -1
REMARK  0 active torsions:
REMARK  status: ('A' for Active; 'I' for Inactive)
ROOT
ATOM      1  C4' PXY d   1       0.746   0.823   5.998  0.00  0.00     0.077 C 
ATOM      2  C1' PXY d   1      -2.706   0.814   1.362  0.00  0.00     0.077 C 
ATOM      3  C1  PXY d   1      -1.793   0.807   2.572  0.00  0.00    -0.082 A 
ATOM      4  C2  PXY d   1      -2.233   1.285   3.725  0.00  0.00     0.003 A 
ATOM      5  C3  PXY d   1      -1.410   1.315   4.822  0.00  0.00     0.003 A 
ATOM      6  C4  PXY d   1      -0.143   0.802   4.752  0.00  0.00    -0.082 A 
ATOM      7  C5  PXY d   1       0.309   0.302   3.582  0.00  0.00     0.003 A 
ATOM      8  C6  PXY d   1      -0.527   0.318   2.470  0.00  0.00     0.003 A 
ENDROOT
TORSDOF 0
ENDMDL
