MODEL 1
REMARK minimizedAffinity 12.2128391
REMARK minimizedRMSD -1
REMARK  0 active torsions:
REMARK  status: ('A' for Active; 'I' for Inactive)
ROOT
ATOM      1  C4' PXY d   1      -4.604   4.216   5.997  0.00  0.00     0.077 C 
ATOM      2  C1' PXY d   1      -3.893  -0.438   2.642  0.00  0.00     0.077 C 
ATOM      3  C1  PXY d   1      -4.074   0.776   3.532  0.00  0.00    -0.082 A 
ATOM      4  C2  PXY d   1      -5.039   1.642   3.269  0.00  0.00     0.003 A 
ATOM      5  C3  PXY d   1      -5.196   2.762   4.045  0.00  0.00     0.003 A 
ATOM      6  C4  PXY d   1      -4.390   2.971   5.132  0.00  0.00    -0.082 A 
ATOM      7  C5  PXY d   1      -3.410   2.087   5.413  0.00  0.00     0.003 A 
ATOM      8  C6  PXY d   1      -3.241   0.978   4.589  0.00  0.00     0.003 A 
ENDROOT
TORSDOF 0
ENDMDL
