MODEL 1
REMARK minimizedAffinity 4.18520117
REMARK minimizedRMSD -1
REMARK  0 active torsions:
REMARK  status: ('A' for Active; 'I' for Inactive)
ROOT
ATOM      1  C4' PXY d   1      -4.086  -3.318  -5.994  0.00  0.00     0.077 C 
ATOM      2  C1' PXY d   1       0.352  -4.831  -2.614  0.00  0.00     0.077 C 
ATOM      3  C1  PXY d   1      -0.820  -4.440  -3.492  0.00  0.00    -0.082 A 
ATOM      4  C2  PXY d   1      -0.622  -4.198  -4.777  0.00  0.00     0.003 A 
ATOM      5  C3  PXY d   1      -1.665  -3.812  -5.579  0.00  0.00     0.003 A 
ATOM      6  C4  PXY d   1      -2.934  -3.725  -5.071  0.00  0.00    -0.082 A 
ATOM      7  C5  PXY d   1      -3.146  -3.981  -3.763  0.00  0.00     0.003 A 
ATOM      8  C6  PXY d   1      -2.066  -4.331  -2.957  0.00  0.00     0.003 A 
ENDROOT
TORSDOF 0
ENDMDL
