MODEL 1
REMARK minimizedAffinity 9.34622955
REMARK minimizedRMSD -1
REMARK  0 active torsions:
REMARK  status: ('A' for Active; 'I' for Inactive)
ROOT
ATOM      1  C4' PXY d   1      -3.704   0.354   2.364  0.00  0.00     0.077 C 
ATOM      2  C1' PXY d   1       1.776   1.341   3.917  0.00  0.00     0.077 C 
ATOM      3  C1  PXY d   1       0.335   1.093   3.515  0.00  0.00    -0.082 A 
ATOM      4  C2  PXY d   1      -0.077  -0.143   3.288  0.00  0.00     0.003 A 
ATOM      5  C3  PXY d   1      -1.368  -0.382   2.893  0.00  0.00     0.003 A 
ATOM      6  C4  PXY d   1      -2.260   0.650   2.780  0.00  0.00    -0.082 A 
ATOM      7  C5  PXY d   1      -1.850   1.913   3.021  0.00  0.00     0.003 A 
ATOM      8  C6  PXY d   1      -0.525   2.139   3.381  0.00  0.00     0.003 A 
ENDROOT
TORSDOF 0
ENDMDL
