MODEL 1
REMARK minimizedAffinity -4.1784277
REMARK minimizedRMSD -1
REMARK  0 active torsions:
REMARK  status: ('A' for Active; 'I' for Inactive)
ROOT
ATOM      1  C1  BNZ d   1      -0.220   0.386  -0.894  0.00  0.00     0.000 A 
ATOM      2  C2  BNZ d   1       0.013   1.326  -1.862  0.00  0.00     0.000 A 
ATOM      3  C3  BNZ d   1       0.087   2.654  -1.544  0.00  0.00     0.000 A 
ATOM      4  C4  BNZ d   1      -0.113   3.043  -0.269  0.00  0.00     0.000 A 
ATOM      5  C5  BNZ d   1      -0.358   2.107   0.717  0.00  0.00     0.000 A 
ATOM      6  C6  BNZ d   1      -0.393   0.769   0.400  0.00  0.00     0.000 A 
ENDROOT
TORSDOF 0
ENDMDL
