MODEL 1
REMARK minimizedAffinity -4.58453941
REMARK minimizedRMSD -1
REMARK  0 active torsions:
REMARK  status: ('A' for Active; 'I' for Inactive)
ROOT
ATOM      1  C1  BNZ d   1       0.022   0.346   0.065  0.00  0.00     0.000 A 
ATOM      2  C2  BNZ d   1       1.240   0.960  -0.048  0.00  0.00     0.000 A 
ATOM      3  C3  BNZ d   1       1.356   2.315   0.085  0.00  0.00     0.000 A 
ATOM      4  C4  BNZ d   1       0.249   3.058   0.290  0.00  0.00     0.000 A 
ATOM      5  C5  BNZ d   1      -0.988   2.455   0.396  0.00  0.00     0.000 A 
ATOM      6  C6  BNZ d   1      -1.095   1.086   0.301  0.00  0.00     0.000 A 
ENDROOT
TORSDOF 0
ENDMDL
