MODEL 1
REMARK minimizedAffinity -3.39018869
REMARK minimizedRMSD -1
REMARK  0 active torsions:
REMARK  status: ('A' for Active; 'I' for Inactive)
ROOT
ATOM      1  C1  BNZ d   1      -1.674   0.979   1.025  0.00  0.00     0.000 A 
ATOM      2  C2  BNZ d   1      -1.089  -0.199   0.645  0.00  0.00     0.000 A 
ATOM      3  C3  BNZ d   1      -0.003  -0.206  -0.185  0.00  0.00     0.000 A 
ATOM      4  C4  BNZ d   1       0.471   0.961  -0.666  0.00  0.00     0.000 A 
ATOM      5  C5  BNZ d   1      -0.114   2.157  -0.301  0.00  0.00     0.000 A 
ATOM      6  C6  BNZ d   1      -1.183   2.163   0.566  0.00  0.00     0.000 A 
ENDROOT
TORSDOF 0
ENDMDL
