MODEL 1
REMARK minimizedAffinity -4.81605291
REMARK minimizedRMSD -1
REMARK  0 active torsions:
REMARK  status: ('A' for Active; 'I' for Inactive)
ROOT
ATOM      1  C1  BNZ d   1       1.033   2.056  -0.167  0.00  0.00     0.000 A 
ATOM      2  C2  BNZ d   1       0.861   0.701  -0.066  0.00  0.00     0.000 A 
ATOM      3  C3  BNZ d   1      -0.325   0.176   0.367  0.00  0.00     0.000 A 
ATOM      4  C4  BNZ d   1      -1.322   1.006   0.736  0.00  0.00     0.000 A 
ATOM      5  C5  BNZ d   1      -1.160   2.375   0.649  0.00  0.00     0.000 A 
ATOM      6  C6  BNZ d   1       0.021   2.899   0.176  0.00  0.00     0.000 A 
ENDROOT
TORSDOF 0
ENDMDL
