MODEL 1
REMARK minimizedAffinity -4.06435633
REMARK minimizedRMSD -1
REMARK  0 active torsions:
REMARK  status: ('A' for Active; 'I' for Inactive)
ROOT
ATOM      1  C1  BNZ d   1      -0.735   1.067   0.659  0.00  0.00     0.000 A 
ATOM      2  C2  BNZ d   1      -0.605   2.430   0.698  0.00  0.00     0.000 A 
ATOM      3  C3  BNZ d   1       0.374   3.060  -0.018  0.00  0.00     0.000 A 
ATOM      4  C4  BNZ d   1       1.245   2.326  -0.739  0.00  0.00     0.000 A 
ATOM      5  C5  BNZ d   1       1.133   0.950  -0.782  0.00  0.00     0.000 A 
ATOM      6  C6  BNZ d   1       0.122   0.322  -0.091  0.00  0.00     0.000 A 
ENDROOT
TORSDOF 0
ENDMDL
