MODEL 1
REMARK minimizedAffinity -3.10418367
REMARK minimizedRMSD -1
REMARK  0 active torsions:
REMARK  status: ('A' for Active; 'I' for Inactive)
ROOT
ATOM      1  C1  BNZ d   1      -0.883   0.798  -0.970  0.00  0.00     0.000 A 
ATOM      2  C2  BNZ d   1      -0.269  -0.376  -1.316  0.00  0.00     0.000 A 
ATOM      3  C3  BNZ d   1       0.087  -1.288  -0.362  0.00  0.00     0.000 A 
ATOM      4  C4  BNZ d   1      -0.136  -1.008   0.938  0.00  0.00     0.000 A 
ATOM      5  C5  BNZ d   1      -0.746   0.175   1.304  0.00  0.00     0.000 A 
ATOM      6  C6  BNZ d   1      -1.137   1.073   0.338  0.00  0.00     0.000 A 
ENDROOT
TORSDOF 0
ENDMDL
