MODEL 1
REMARK minimizedAffinity -3.20652604
REMARK minimizedRMSD -1
REMARK  0 active torsions:
REMARK  status: ('A' for Active; 'I' for Inactive)
ROOT
ATOM      1  C1  BNZ d   1      -0.551   0.043   0.623  0.00  0.00     0.000 A 
ATOM      2  C2  BNZ d   1      -1.611   0.903   0.504  0.00  0.00     0.000 A 
ATOM      3  C3  BNZ d   1      -1.413   2.255   0.459  0.00  0.00     0.000 A 
ATOM      4  C4  BNZ d   1      -0.162   2.746   0.572  0.00  0.00     0.000 A 
ATOM      5  C5  BNZ d   1       0.915   1.893   0.701  0.00  0.00     0.000 A 
ATOM      6  C6  BNZ d   1       0.716   0.531   0.707  0.00  0.00     0.000 A 
ENDROOT
TORSDOF 0
ENDMDL
