MODEL 1
REMARK minimizedAffinity -4.18327141
REMARK minimizedRMSD -1
REMARK  0 active torsions:
REMARK  status: ('A' for Active; 'I' for Inactive)
ROOT
ATOM      1  C1  BNZ d   1      -1.428   1.338   0.390  0.00  0.00     0.000 A 
ATOM      2  C2  BNZ d   1      -0.588   0.536  -0.336  0.00  0.00     0.000 A 
ATOM      3  C3  BNZ d   1       0.636   0.990  -0.741  0.00  0.00     0.000 A 
ATOM      4  C4  BNZ d   1       1.002   2.257  -0.455  0.00  0.00     0.000 A 
ATOM      5  C5  BNZ d   1       0.162   3.080   0.268  0.00  0.00     0.000 A 
ATOM      6  C6  BNZ d   1      -1.053   2.607   0.707  0.00  0.00     0.000 A 
ENDROOT
TORSDOF 0
ENDMDL
