MODEL 1
REMARK minimizedAffinity -4.41558695
REMARK minimizedRMSD -1
REMARK  0 active torsions:
REMARK  status: ('A' for Active; 'I' for Inactive)
ROOT
ATOM      1  C1  BNZ d   1      -0.945   0.860   0.548  0.00  0.00     0.000 A 
ATOM      2  C2  BNZ d   1       0.101   0.092   0.111  0.00  0.00     0.000 A 
ATOM      3  C3  BNZ d   1       1.172   0.663  -0.518  0.00  0.00     0.000 A 
ATOM      4  C4  BNZ d   1       1.178   1.992  -0.744  0.00  0.00     0.000 A 
ATOM      5  C5  BNZ d   1       0.126   2.778  -0.318  0.00  0.00     0.000 A 
ATOM      6  C6  BNZ d   1      -0.933   2.206   0.350  0.00  0.00     0.000 A 
ENDROOT
TORSDOF 0
ENDMDL
