MODEL 1
REMARK minimizedAffinity -3.66224837
REMARK minimizedRMSD -1
REMARK  0 active torsions:
REMARK  status: ('A' for Active; 'I' for Inactive)
ROOT
ATOM      1  C1  BNZ d   1       1.328   0.626  -0.058  0.00  0.00     0.000 A 
ATOM      2  C2  BNZ d   1       0.887  -0.662   0.085  0.00  0.00     0.000 A 
ATOM      3  C3  BNZ d   1      -0.416  -0.925   0.402  0.00  0.00     0.000 A 
ATOM      4  C4  BNZ d   1      -1.267   0.101   0.614  0.00  0.00     0.000 A 
ATOM      5  C5  BNZ d   1      -0.835   1.405   0.483  0.00  0.00     0.000 A 
ATOM      6  C6  BNZ d   1       0.468   1.665   0.126  0.00  0.00     0.000 A 
ENDROOT
TORSDOF 0
ENDMDL
