MODEL 1
REMARK minimizedAffinity -3.62232852
REMARK minimizedRMSD -1
REMARK  0 active torsions:
REMARK  status: ('A' for Active; 'I' for Inactive)
ROOT
ATOM      1  C1  BNZ d   1      -0.153  -1.476  -3.044  0.00  0.00     0.000 A 
ATOM      2  C2  BNZ d   1      -0.648  -2.591  -3.667  0.00  0.00     0.000 A 
ATOM      3  C3  BNZ d   1      -1.096  -3.658  -2.939  0.00  0.00     0.000 A 
ATOM      4  C4  BNZ d   1      -1.013  -3.624  -1.593  0.00  0.00     0.000 A 
ATOM      5  C5  BNZ d   1      -0.508  -2.511  -0.952  0.00  0.00     0.000 A 
ATOM      6  C6  BNZ d   1      -0.094  -1.424  -1.686  0.00  0.00     0.000 A 
ENDROOT
TORSDOF 0
ENDMDL
