MODEL 1
REMARK minimizedAffinity -5.33938551
REMARK minimizedRMSD -1
REMARK  0 active torsions:
REMARK  status: ('A' for Active; 'I' for Inactive)
ROOT
ATOM      1  C1  BNZ d   1       0.968   0.531  -0.487  0.00  0.00     0.000 A 
ATOM      2  C2  BNZ d   1       1.330   1.832  -0.258  0.00  0.00     0.000 A 
ATOM      3  C3  BNZ d   1       0.454   2.713   0.311  0.00  0.00     0.000 A 
ATOM      4  C4  BNZ d   1      -0.795   2.303   0.615  0.00  0.00     0.000 A 
ATOM      5  C5  BNZ d   1      -1.178   0.998   0.382  0.00  0.00     0.000 A 
ATOM      6  C6  BNZ d   1      -0.281   0.104  -0.156  0.00  0.00     0.000 A 
ENDROOT
TORSDOF 0
ENDMDL
