MODEL 1
REMARK minimizedAffinity -0.0999114439
REMARK minimizedRMSD -1
REMARK  0 active torsions:
REMARK  status: ('A' for Active; 'I' for Inactive)
ROOT
ATOM      1  C1  BNZ d   1      -1.613  -0.413   0.903  0.00  0.00     0.000 A 
ATOM      2  C2  BNZ d   1      -1.954   0.911   0.976  0.00  0.00     0.000 A 
ATOM      3  C3  BNZ d   1      -1.102   1.879   0.523  0.00  0.00     0.000 A 
ATOM      4  C4  BNZ d   1       0.105   1.525   0.035  0.00  0.00     0.000 A 
ATOM      5  C5  BNZ d   1       0.467   0.195  -0.036  0.00  0.00     0.000 A 
ATOM      6  C6  BNZ d   1      -0.409  -0.779   0.385  0.00  0.00     0.000 A 
ENDROOT
TORSDOF 0
ENDMDL
