MODEL 1
REMARK minimizedAffinity -4.83910036
REMARK minimizedRMSD -1
REMARK  0 active torsions:
REMARK  status: ('A' for Active; 'I' for Inactive)
ROOT
ATOM      1  C1  BNZ d   1      -1.486   1.019   0.073  0.00  0.00     0.000 A 
ATOM      2  C2  BNZ d   1      -0.957   1.931   0.946  0.00  0.00     0.000 A 
ATOM      3  C3  BNZ d   1      -0.143   2.935   0.501  0.00  0.00     0.000 A 
ATOM      4  C4  BNZ d   1       0.173   3.001  -0.809  0.00  0.00     0.000 A 
ATOM      5  C5  BNZ d   1      -0.345   2.082  -1.700  0.00  0.00     0.000 A 
ATOM      6  C6  BNZ d   1      -1.196   1.097  -1.254  0.00  0.00     0.000 A 
ENDROOT
TORSDOF 0
ENDMDL
