MODEL 1
REMARK minimizedAffinity -5.17952919
REMARK minimizedRMSD -1
REMARK  0 active torsions:
REMARK  status: ('A' for Active; 'I' for Inactive)
ROOT
ATOM      1  C1  BNZ d   1       1.711   3.876   0.420  0.00  0.00     0.000 A 
ATOM      2  C2  BNZ d   1       0.486   3.608  -0.132  0.00  0.00     0.000 A 
ATOM      3  C3  BNZ d   1       0.212   2.378  -0.662  0.00  0.00     0.000 A 
ATOM      4  C4  BNZ d   1       1.173   1.433  -0.677  0.00  0.00     0.000 A 
ATOM      5  C5  BNZ d   1       2.415   1.690  -0.133  0.00  0.00     0.000 A 
ATOM      6  C6  BNZ d   1       2.676   2.916   0.436  0.00  0.00     0.000 A 
ENDROOT
TORSDOF 0
ENDMDL
