MODEL 1
REMARK minimizedAffinity -3.71973014
REMARK minimizedRMSD -1
REMARK  0 active torsions:
REMARK  status: ('A' for Active; 'I' for Inactive)
ROOT
ATOM      1  C1  BNZ d   1      -0.752  -0.485   0.418  0.00  0.00     0.000 A 
ATOM      2  C2  BNZ d   1      -1.539   0.630   0.528  0.00  0.00     0.000 A 
ATOM      3  C3  BNZ d   1      -0.981   1.868   0.684  0.00  0.00     0.000 A 
ATOM      4  C4  BNZ d   1       0.359   1.984   0.772  0.00  0.00     0.000 A 
ATOM      5  C5  BNZ d   1       1.166   0.868   0.673  0.00  0.00     0.000 A 
ATOM      6  C6  BNZ d   1       0.603  -0.371   0.476  0.00  0.00     0.000 A 
ENDROOT
TORSDOF 0
ENDMDL
