MODEL 1
REMARK minimizedAffinity -5.08113003
REMARK minimizedRMSD -1
REMARK  0 active torsions:
REMARK  status: ('A' for Active; 'I' for Inactive)
ROOT
ATOM      1  O1  BZF d   1       2.294  -4.365   0.452  0.00  0.00    -0.204 OA
ATOM      2  C2  BZF d   1       2.011  -5.489   1.205  0.00  0.00     0.174 A 
ATOM      3  C3  BZF d   1       0.807  -5.997   0.873  0.00  0.00    -0.012 A 
ATOM      4  C3A BZF d   1       0.346  -5.191  -0.216  0.00  0.00    -0.107 A 
ATOM      5  C4  BZF d   1      -0.781  -5.211  -0.988  0.00  0.00     0.055 A 
ATOM      6  C5  BZF d   1      -0.959  -4.240  -1.921  0.00  0.00    -0.016 A 
ATOM      7  C6  BZF d   1      -0.036  -3.232  -2.106  0.00  0.00     0.022 A 
ATOM      8  C7  BZF d   1       1.100  -3.173  -1.368  0.00  0.00     0.029 A 
ATOM      9  C7A BZF d   1       1.299  -4.172  -0.446  0.00  0.00     0.058 A 
ENDROOT
TORSDOF 0
ENDMDL
