MODEL 1
REMARK minimizedAffinity -2.69034791
REMARK minimizedRMSD -1
REMARK  0 active torsions:
REMARK  status: ('A' for Active; 'I' for Inactive)
ROOT
ATOM      1  O1  BZF d   1      -1.239  -0.222  -1.006  0.00  0.00    -0.204 OA
ATOM      2  C2  BZF d   1      -0.090  -0.931  -1.299  0.00  0.00     0.174 A 
ATOM      3  C3  BZF d   1       0.921  -0.559  -0.488  0.00  0.00    -0.012 A 
ATOM      4  C3A BZF d   1       0.345   0.379   0.426  0.00  0.00    -0.107 A 
ATOM      5  C4  BZF d   1       0.844   1.090   1.480  0.00  0.00     0.055 A 
ATOM      6  C5  BZF d   1       0.036   1.976   2.120  0.00  0.00    -0.016 A 
ATOM      7  C6  BZF d   1      -1.271   2.179   1.731  0.00  0.00     0.022 A 
ATOM      8  C7  BZF d   1      -1.812   1.493   0.694  0.00  0.00     0.029 A 
ATOM      9  C7A BZF d   1      -1.008   0.574   0.066  0.00  0.00     0.058 A 
ENDROOT
TORSDOF 0
ENDMDL
