MODEL 1
REMARK minimizedAffinity -4.85344219
REMARK minimizedRMSD -1
REMARK  0 active torsions:
REMARK  status: ('A' for Active; 'I' for Inactive)
ROOT
ATOM      1  O1  BZF d   1      -1.467   2.840   0.047  0.00  0.00    -0.204 OA
ATOM      2  C2  BZF d   1      -1.537   3.177   1.385  0.00  0.00     0.174 A 
ATOM      3  C3  BZF d   1      -0.990   2.211   2.151  0.00  0.00    -0.012 A 
ATOM      4  C3A BZF d   1      -0.468   1.250   1.229  0.00  0.00    -0.107 A 
ATOM      5  C4  BZF d   1       0.205   0.072   1.381  0.00  0.00     0.055 A 
ATOM      6  C5  BZF d   1       0.508  -0.663   0.279  0.00  0.00    -0.016 A 
ATOM      7  C6  BZF d   1       0.149  -0.254  -0.988  0.00  0.00     0.022 A 
ATOM      8  C7  BZF d   1      -0.516   0.910  -1.190  0.00  0.00     0.029 A 
ATOM      9  C7A BZF d   1      -0.794   1.671  -0.081  0.00  0.00     0.058 A 
ENDROOT
TORSDOF 0
ENDMDL
