MODEL 1
REMARK minimizedAffinity 2.68862915
REMARK minimizedRMSD -1
REMARK  0 active torsions:
REMARK  status: ('A' for Active; 'I' for Inactive)
ROOT
ATOM      1  O1  BZF d   1       1.679  -3.150  -0.072  0.00  0.00    -0.204 OA
ATOM      2  C2  BZF d   1       0.757  -4.179  -0.060  0.00  0.00     0.174 A 
ATOM      3  C3  BZF d   1      -0.497  -3.697   0.059  0.00  0.00    -0.012 A 
ATOM      4  C3A BZF d   1      -0.357  -2.273   0.034  0.00  0.00    -0.107 A 
ATOM      5  C4  BZF d   1      -1.249  -1.241   0.098  0.00  0.00     0.055 A 
ATOM      6  C5  BZF d   1      -0.781   0.035   0.122  0.00  0.00    -0.016 A 
ATOM      7  C6  BZF d   1       0.569   0.314   0.087  0.00  0.00     0.022 A 
ATOM      8  C7  BZF d   1       1.492  -0.676   0.018  0.00  0.00     0.029 A 
ATOM      9  C7A BZF d   1       1.021  -1.966  -0.039  0.00  0.00     0.058 A 
ENDROOT
TORSDOF 0
ENDMDL
