MODEL 1
REMARK minimizedAffinity 1.48455465
REMARK minimizedRMSD -1
REMARK  1 active torsions:
REMARK  status: ('A' for Active; 'I' for Inactive)
REMARK    1  A    between atoms: C3_4  and  O_7 
ROOT
ATOM      1  C   UNL d   1      -3.645   0.417  -0.128  0.00  0.00    -0.033 A 
ATOM      2  C1  UNL d   1      -2.880  -0.742  -0.274  0.00  0.00     0.039 A 
ATOM      3  C2  UNL d   1      -1.982  -1.119   0.726  0.00  0.00    -0.080 A 
ATOM      4  C3  UNL d   1      -1.859  -0.330   1.867  0.00  0.00     0.150 A 
ATOM      5  C4  UNL d   1      -2.621   0.824   2.021  0.00  0.00    -0.007 A 
ATOM      6  C5  UNL d   1      -3.517   1.199   1.021  0.00  0.00     0.039 A 
ENDROOT
BRANCH   4   7
ATOM      7  O   UNL d   1      -0.992  -0.654   2.868  0.00  0.00    -0.526 OA
ATOM      8  H5  UNL d   1      -0.513  -1.459   2.611  0.00  0.00     0.418 HD
ENDBRANCH   4   7
TORSDOF 1
ENDMDL
