MODEL 1
REMARK minimizedAffinity 4.81981039
REMARK minimizedRMSD -1
REMARK  1 active torsions:
REMARK  status: ('A' for Active; 'I' for Inactive)
REMARK    1  A    between atoms: C3_4  and  O_7 
ROOT
ATOM      1  C   UNL d   1      -1.819  -1.439  -4.432  0.00  0.00    -0.033 A 
ATOM      2  C1  UNL d   1      -1.870  -0.329  -5.277  0.00  0.00     0.039 A 
ATOM      3  C2  UNL d   1      -0.694   0.195  -5.816  0.00  0.00    -0.080 A 
ATOM      4  C3  UNL d   1       0.526  -0.400  -5.502  0.00  0.00     0.150 A 
ATOM      5  C4  UNL d   1       0.583  -1.508  -4.664  0.00  0.00    -0.007 A 
ATOM      6  C5  UNL d   1      -0.593  -2.029  -4.126  0.00  0.00     0.039 A 
ENDROOT
BRANCH   4   7
ATOM      7  O   UNL d   1       1.701   0.079  -6.000  0.00  0.00    -0.526 OA
ATOM      8  H5  UNL d   1       1.509   0.864  -6.540  0.00  0.00     0.418 HD
ENDBRANCH   4   7
TORSDOF 1
ENDMDL
