MODEL 1
REMARK minimizedAffinity -0.535959065
REMARK minimizedRMSD -1
REMARK  1 active torsions:
REMARK  status: ('A' for Active; 'I' for Inactive)
REMARK    1  A    between atoms: C3_4  and  O_7 
ROOT
ATOM      1  C   UNL d   1      -1.967  -1.045   2.105  0.00  0.00    -0.033 A 
ATOM      2  C1  UNL d   1      -1.612  -2.281   2.648  0.00  0.00     0.039 A 
ATOM      3  C2  UNL d   1      -0.305  -2.505   3.086  0.00  0.00    -0.080 A 
ATOM      4  C3  UNL d   1       0.636  -1.484   2.976  0.00  0.00     0.150 A 
ATOM      5  C4  UNL d   1       0.289  -0.249   2.440  0.00  0.00    -0.007 A 
ATOM      6  C5  UNL d   1      -1.017  -0.028   2.002  0.00  0.00     0.039 A 
ENDROOT
BRANCH   4   7
ATOM      7  O   UNL d   1       1.925  -1.657   3.386  0.00  0.00    -0.526 OA
ATOM      8  H5  UNL d   1       2.026  -2.568   3.708  0.00  0.00     0.418 HD
ENDBRANCH   4   7
TORSDOF 1
ENDMDL
