MODEL 1
REMARK minimizedAffinity 1.97517419
REMARK minimizedRMSD -1
REMARK  1 active torsions:
REMARK  status: ('A' for Active; 'I' for Inactive)
REMARK    1  A    between atoms: C3_4  and  O_7 
ROOT
ATOM      1  C   UNL d   1       2.482  -0.699   4.358  0.00  0.00    -0.033 A 
ATOM      2  C1  UNL d   1       2.200  -0.542   2.999  0.00  0.00     0.039 A 
ATOM      3  C2  UNL d   1       1.026  -1.073   2.462  0.00  0.00    -0.080 A 
ATOM      4  C3  UNL d   1       0.143  -1.758   3.293  0.00  0.00     0.150 A 
ATOM      5  C4  UNL d   1       0.416  -1.915   4.648  0.00  0.00    -0.007 A 
ATOM      6  C5  UNL d   1       1.590  -1.385   5.182  0.00  0.00     0.039 A 
ENDROOT
BRANCH   4   7
ATOM      7  O   UNL d   1      -1.013  -2.299   2.814  0.00  0.00    -0.526 OA
ATOM      8  H5  UNL d   1      -1.055  -2.137   1.857  0.00  0.00     0.418 HD
ENDBRANCH   4   7
TORSDOF 1
ENDMDL
