MODEL 1
REMARK minimizedAffinity 2.15920711
REMARK minimizedRMSD -1
REMARK  1 active torsions:
REMARK  status: ('A' for Active; 'I' for Inactive)
REMARK    1  A    between atoms: C3_4  and  O_7 
ROOT
ATOM      1  C   UNL d   1      -1.949  -0.824  -4.873  0.00  0.00    -0.033 A 
ATOM      2  C1  UNL d   1      -1.238  -1.767  -5.618  0.00  0.00     0.039 A 
ATOM      3  C2  UNL d   1       0.080  -1.508  -5.999  0.00  0.00    -0.080 A 
ATOM      4  C3  UNL d   1       0.675  -0.305  -5.629  0.00  0.00     0.150 A 
ATOM      5  C4  UNL d   1      -0.027   0.637  -4.883  0.00  0.00    -0.007 A 
ATOM      6  C5  UNL d   1      -1.343   0.377  -4.504  0.00  0.00     0.039 A 
ENDROOT
BRANCH   4   7
ATOM      7  O   UNL d   1       1.957  -0.006  -5.982  0.00  0.00    -0.526 OA
ATOM      8  H5  UNL d   1       2.307  -0.736  -6.518  0.00  0.00     0.418 HD
ENDBRANCH   4   7
TORSDOF 1
ENDMDL
