MODEL 1
REMARK minimizedAffinity -4.32811642
REMARK minimizedRMSD -1
REMARK  1 active torsions:
REMARK  status: ('A' for Active; 'I' for Inactive)
REMARK    1  A    between atoms: C3_4  and  O_7 
ROOT
ATOM      1  C   UNL d   1      -3.135  -0.223   1.983  0.00  0.00    -0.033 A 
ATOM      2  C1  UNL d   1      -1.853  -0.664   2.317  0.00  0.00     0.039 A 
ATOM      3  C2  UNL d   1      -0.921  -0.932   1.313  0.00  0.00    -0.080 A 
ATOM      4  C3  UNL d   1      -1.283  -0.755  -0.020  0.00  0.00     0.150 A 
ATOM      5  C4  UNL d   1      -2.557  -0.312  -0.360  0.00  0.00    -0.007 A 
ATOM      6  C5  UNL d   1      -3.486  -0.046   0.645  0.00  0.00     0.039 A 
ENDROOT
BRANCH   4   7
ATOM      7  O   UNL d   1      -0.409  -1.008  -1.035  0.00  0.00    -0.526 OA
ATOM      8  H5  UNL d   1       0.422  -1.334  -0.652  0.00  0.00     0.418 HD
ENDBRANCH   4   7
TORSDOF 1
ENDMDL
