MODEL 1
REMARK minimizedAffinity -6.435709
REMARK minimizedRMSD -1
REMARK  2 active torsions:
REMARK  status: ('A' for Active; 'I' for Inactive)
REMARK    1  A    between atoms: C2'_3  and  C1'_4 
REMARK    2  A    between atoms: C1'_4  and  C1_5 
ROOT
ATOM      1  C1  I4B d   1       0.386   0.365   0.571  0.00  0.00    -0.075 A 
ATOM      2  C2  I4B d   1       1.298  -0.403  -0.109  0.00  0.00     0.003 A 
ATOM      3  C3  I4B d   1       1.983  -1.451   0.553  0.00  0.00     0.002 A 
ATOM      4  C4  I4B d   1       1.764  -1.661   1.899  0.00  0.00    -0.004 A 
ATOM      5  C5  I4B d   1       0.822  -0.896   2.582  0.00  0.00     0.002 A 
ATOM      6  C6  I4B d   1       0.120   0.116   1.911  0.00  0.00     0.003 A 
ENDROOT
BRANCH   1   7
ATOM      7  C1' I4B d   1      -0.295   1.484  -0.151  0.00  0.00     0.060 C 
BRANCH   7   8
ATOM      8  C2' I4B d   1      -0.147   1.238  -1.639  0.00  0.00    -0.013 C 
ATOM      9  C4' I4B d   1      -1.407   0.655  -2.223  0.00  0.00     0.013 C 
ATOM     10  C3' I4B d   1       0.200   2.542  -2.292  0.00  0.00     0.013 C 
ENDBRANCH   7   8
ENDBRANCH   1   7
TORSDOF 2
ENDMDL
