MODEL 1
REMARK minimizedAffinity -4.31784487
REMARK minimizedRMSD -1
REMARK  2 active torsions:
REMARK  status: ('A' for Active; 'I' for Inactive)
REMARK    1  A    between atoms: C2'_3  and  C1'_4 
REMARK    2  A    between atoms: C1'_4  and  C1_5 
ROOT
ATOM      1  C1  I4B d   1      -0.677   1.275  -1.346  0.00  0.00    -0.075 A 
ATOM      2  C2  I4B d   1      -0.259   2.134  -0.361  0.00  0.00     0.003 A 
ATOM      3  C3  I4B d   1      -0.012   3.496  -0.660  0.00  0.00     0.002 A 
ATOM      4  C4  I4B d   1      -0.145   3.941  -1.960  0.00  0.00    -0.004 A 
ATOM      5  C5  I4B d   1      -0.591   3.074  -2.953  0.00  0.00     0.002 A 
ATOM      6  C6  I4B d   1      -0.870   1.735  -2.642  0.00  0.00     0.003 A 
ENDROOT
BRANCH   1   7
ATOM      7  C1' I4B d   1      -0.897  -0.164  -1.001  0.00  0.00     0.060 C 
BRANCH   7   8
ATOM      8  C2' I4B d   1      -1.562  -0.222   0.358  0.00  0.00    -0.013 C 
ATOM      9  C4' I4B d   1      -2.879  -0.949   0.290  0.00  0.00     0.013 C 
ATOM     10  C3' I4B d   1      -0.619  -0.899   1.307  0.00  0.00     0.013 C 
ENDBRANCH   7   8
ENDBRANCH   1   7
TORSDOF 2
ENDMDL
