MODEL 1
REMARK minimizedAffinity -0.0347574204
REMARK minimizedRMSD -1
REMARK  2 active torsions:
REMARK  status: ('A' for Active; 'I' for Inactive)
REMARK    1  A    between atoms: C2'_3  and  C1'_4 
REMARK    2  A    between atoms: C1'_4  and  C1_5 
ROOT
ATOM      1  C1  I4B d   1      -0.161   1.389  -2.223  0.00  0.00    -0.075 A 
ATOM      2  C2  I4B d   1       0.856   2.006  -2.909  0.00  0.00     0.003 A 
ATOM      3  C3  I4B d   1       0.625   3.234  -3.574  0.00  0.00     0.002 A 
ATOM      4  C4  I4B d   1      -0.642   3.782  -3.569  0.00  0.00    -0.004 A 
ATOM      5  C5  I4B d   1      -1.666   3.168  -2.854  0.00  0.00     0.002 A 
ATOM      6  C6  I4B d   1      -1.421   1.970  -2.166  0.00  0.00     0.003 A 
ENDROOT
BRANCH   1   7
ATOM      7  C1' I4B d   1       0.109   0.076  -1.560  0.00  0.00     0.060 C 
BRANCH   7   8
ATOM      8  C2' I4B d   1      -0.021   0.273  -0.063  0.00  0.00    -0.013 C 
ATOM      9  C4' I4B d   1      -1.127  -0.578   0.504  0.00  0.00     0.013 C 
ATOM     10  C3' I4B d   1       1.298  -0.064   0.565  0.00  0.00     0.013 C 
ENDBRANCH   7   8
ENDBRANCH   1   7
TORSDOF 2
ENDMDL
