MODEL 1
REMARK minimizedAffinity -2.32921076
REMARK minimizedRMSD -1
REMARK  2 active torsions:
REMARK  status: ('A' for Active; 'I' for Inactive)
REMARK    1  A    between atoms: C2'_3  and  C1'_4 
REMARK    2  A    between atoms: C1'_4  and  C1_5 
ROOT
ATOM      1  C1  I4B d   1      -0.395   0.155  -0.441  0.00  0.00    -0.075 A 
ATOM      2  C2  I4B d   1       0.578  -0.588   0.181  0.00  0.00     0.003 A 
ATOM      3  C3  I4B d   1       0.512  -0.823   1.575  0.00  0.00     0.002 A 
ATOM      4  C4  I4B d   1      -0.510  -0.259   2.313  0.00  0.00    -0.004 A 
ATOM      5  C5  I4B d   1      -1.507   0.474   1.677  0.00  0.00     0.002 A 
ATOM      6  C6  I4B d   1      -1.457   0.672   0.289  0.00  0.00     0.003 A 
ENDROOT
BRANCH   1   7
ATOM      7  C1' I4B d   1      -0.277   0.412  -1.910  0.00  0.00     0.060 C 
BRANCH   7   8
ATOM      8  C2' I4B d   1      -0.884   1.770  -2.197  0.00  0.00    -0.013 C 
ATOM      9  C4' I4B d   1       0.086   2.656  -2.934  0.00  0.00     0.013 C 
ATOM     10  C3' I4B d   1      -2.137   1.559  -2.993  0.00  0.00     0.013 C 
ENDBRANCH   7   8
ENDBRANCH   1   7
TORSDOF 2
ENDMDL
