MODEL 1
REMARK minimizedAffinity -4.53094625
REMARK minimizedRMSD -1
REMARK  2 active torsions:
REMARK  status: ('A' for Active; 'I' for Inactive)
REMARK    1  A    between atoms: C2'_3  and  C1'_4 
REMARK    2  A    between atoms: C1'_4  and  C1_5 
ROOT
ATOM      1  C1  I4B d   1      -0.467   0.424  -0.124  0.00  0.00    -0.075 A 
ATOM      2  C2  I4B d   1      -0.194   1.694   0.320  0.00  0.00     0.003 A 
ATOM      3  C3  I4B d   1      -0.302   2.796  -0.563  0.00  0.00     0.002 A 
ATOM      4  C4  I4B d   1      -0.634   2.578  -1.885  0.00  0.00    -0.004 A 
ATOM      5  C5  I4B d   1      -0.932   1.293  -2.327  0.00  0.00     0.002 A 
ATOM      6  C6  I4B d   1      -0.860   0.210  -1.439  0.00  0.00     0.003 A 
ENDROOT
BRANCH   1   7
ATOM      7  C1' I4B d   1      -0.311  -0.720   0.826  0.00  0.00     0.060 C 
BRANCH   7   8
ATOM      8  C2' I4B d   1       1.168  -0.899   1.104  0.00  0.00    -0.013 C 
ATOM      9  C4' I4B d   1       1.395  -1.670   2.377  0.00  0.00     0.013 C 
ATOM     10  C3' I4B d   1       1.778  -1.602  -0.072  0.00  0.00     0.013 C 
ENDBRANCH   7   8
ENDBRANCH   1   7
TORSDOF 2
ENDMDL
