MODEL 1
REMARK minimizedAffinity -1.41028905
REMARK minimizedRMSD -1
REMARK  2 active torsions:
REMARK  status: ('A' for Active; 'I' for Inactive)
REMARK    1  A    between atoms: C1_2  and  C2_3 
REMARK    2  A    between atoms: C2_3  and  C3_4 
ROOT
ATOM      1  C3  UNL d   1      -1.049   0.513   0.409  0.00  0.00    -0.075 A 
ATOM      2  C4  UNL d   1       0.165   0.324   1.085  0.00  0.00     0.002 A 
ATOM      3  C5  UNL d   1       0.470   1.079   2.218  0.00  0.00     0.002 A 
ATOM      4  C6  UNL d   1      -0.429   2.038   2.682  0.00  0.00    -0.004 A 
ATOM      5  C7  UNL d   1      -1.630   2.245   2.009  0.00  0.00     0.002 A 
ATOM      6  C8  UNL d   1      -1.940   1.487   0.877  0.00  0.00     0.002 A 
ENDROOT
BRANCH   1   7
ATOM      7  C2  UNL d   1      -1.397  -0.322  -0.800  0.00  0.00     0.056 C 
BRANCH   7   8
ATOM      8  C1  UNL d   1      -0.964  -1.788  -0.692  0.00  0.00     0.007 C 
ATOM      9  C   UNL d   1      -1.858  -2.737  -1.479  0.00  0.00     0.009 C 
ENDBRANCH   7   8
ENDBRANCH   1   7
TORSDOF 2
ENDMDL
