MODEL 1
REMARK minimizedAffinity -2.50893545
REMARK minimizedRMSD -1
REMARK  2 active torsions:
REMARK  status: ('A' for Active; 'I' for Inactive)
REMARK    1  A    between atoms: C1_2  and  C2_3 
REMARK    2  A    between atoms: C2_3  and  C3_4 
ROOT
ATOM      1  C3  UNL d   1       0.243   0.260  -0.063  0.00  0.00    -0.075 A 
ATOM      2  C4  UNL d   1       0.345   0.079   1.324  0.00  0.00     0.002 A 
ATOM      3  C5  UNL d   1      -0.472   0.800   2.195  0.00  0.00     0.002 A 
ATOM      4  C6  UNL d   1      -1.392   1.717   1.692  0.00  0.00    -0.004 A 
ATOM      5  C7  UNL d   1      -1.491   1.917   0.317  0.00  0.00     0.002 A 
ATOM      6  C8  UNL d   1      -0.678   1.194  -0.557  0.00  0.00     0.002 A 
ENDROOT
BRANCH   1   7
ATOM      7  C2  UNL d   1       1.104  -0.539  -1.012  0.00  0.00     0.056 C 
BRANCH   7   8
ATOM      8  C1  UNL d   1       0.919  -2.056  -0.895  0.00  0.00     0.007 C 
ATOM      9  C   UNL d   1      -0.503  -2.512  -1.190  0.00  0.00     0.009 C 
ENDBRANCH   7   8
ENDBRANCH   1   7
TORSDOF 2
ENDMDL
