MODEL 1
REMARK minimizedAffinity -3.91894102
REMARK minimizedRMSD -1
REMARK  2 active torsions:
REMARK  status: ('A' for Active; 'I' for Inactive)
REMARK    1  A    between atoms: C1_2  and  C2_3 
REMARK    2  A    between atoms: C2_3  and  C3_4 
ROOT
ATOM      1  C3  UNL d   1      -0.011  -0.173  -0.516  0.00  0.00    -0.075 A 
ATOM      2  C4  UNL d   1      -0.507   0.994  -1.115  0.00  0.00     0.002 A 
ATOM      3  C5  UNL d   1      -1.066   2.008  -0.337  0.00  0.00     0.002 A 
ATOM      4  C6  UNL d   1      -1.146   1.865   1.046  0.00  0.00    -0.004 A 
ATOM      5  C7  UNL d   1      -0.671   0.703   1.651  0.00  0.00     0.002 A 
ATOM      6  C8  UNL d   1      -0.108  -0.311   0.875  0.00  0.00     0.002 A 
ENDROOT
BRANCH   1   7
ATOM      7  C2  UNL d   1       0.621  -1.261  -1.349  0.00  0.00     0.056 C 
BRANCH   7   8
ATOM      8  C1  UNL d   1       0.128  -2.672  -1.011  0.00  0.00     0.007 C 
ATOM      9  C   UNL d   1      -0.783  -3.262  -2.079  0.00  0.00     0.009 C 
ENDBRANCH   7   8
ENDBRANCH   1   7
TORSDOF 2
ENDMDL
