MODEL 1
REMARK minimizedAffinity -3.90419793
REMARK minimizedRMSD -1
REMARK  2 active torsions:
REMARK  status: ('A' for Active; 'I' for Inactive)
REMARK    1  A    between atoms: C1_2  and  C2_3 
REMARK    2  A    between atoms: C2_3  and  C3_4 
ROOT
ATOM      1  C3  UNL d   1      -0.919   0.477   1.295  0.00  0.00    -0.075 A 
ATOM      2  C4  UNL d   1       0.249   0.004   1.910  0.00  0.00     0.002 A 
ATOM      3  C5  UNL d   1       1.148  -0.796   1.204  0.00  0.00     0.002 A 
ATOM      4  C6  UNL d   1       0.887  -1.140  -0.121  0.00  0.00    -0.004 A 
ATOM      5  C7  UNL d   1      -0.279  -0.690  -0.737  0.00  0.00     0.002 A 
ATOM      6  C8  UNL d   1      -1.178   0.114  -0.034  0.00  0.00     0.002 A 
ENDROOT
BRANCH   1   7
ATOM      7  C2  UNL d   1      -1.882   1.366   2.044  0.00  0.00     0.056 C 
BRANCH   7   8
ATOM      8  C1  UNL d   1      -1.434   2.829   2.139  0.00  0.00     0.007 C 
ATOM      9  C   UNL d   1       0.079   2.996   2.125  0.00  0.00     0.009 C 
ENDBRANCH   7   8
ENDBRANCH   1   7
TORSDOF 2
ENDMDL
