MODEL 1
REMARK minimizedAffinity -5.22548008
REMARK minimizedRMSD -1
REMARK  2 active torsions:
REMARK  status: ('A' for Active; 'I' for Inactive)
REMARK    1  A    between atoms: C1_2  and  C2_3 
REMARK    2  A    between atoms: C2_3  and  C3_4 
ROOT
ATOM      1  C3  UNL d   1       0.084  -0.074  -0.110  0.00  0.00    -0.075 A 
ATOM      2  C4  UNL d   1      -1.058   0.677  -0.423  0.00  0.00     0.002 A 
ATOM      3  C5  UNL d   1      -1.483   1.705   0.418  0.00  0.00     0.002 A 
ATOM      4  C6  UNL d   1      -0.779   1.988   1.587  0.00  0.00    -0.004 A 
ATOM      5  C7  UNL d   1       0.347   1.238   1.917  0.00  0.00     0.002 A 
ATOM      6  C8  UNL d   1       0.777   0.211   1.074  0.00  0.00     0.002 A 
ENDROOT
BRANCH   1   7
ATOM      7  C2  UNL d   1       0.566  -1.169  -1.032  0.00  0.00     0.056 C 
BRANCH   7   8
ATOM      8  C1  UNL d   1      -0.561  -1.981  -1.678  0.00  0.00     0.007 C 
ATOM      9  C   UNL d   1      -0.331  -3.485  -1.615  0.00  0.00     0.009 C 
ENDBRANCH   7   8
ENDBRANCH   1   7
TORSDOF 2
ENDMDL
