MODEL 1
REMARK minimizedAffinity -2.56421828
REMARK minimizedRMSD -1
REMARK  2 active torsions:
REMARK  status: ('A' for Active; 'I' for Inactive)
REMARK    1  A    between atoms: C1_2  and  C2_3 
REMARK    2  A    between atoms: C2_3  and  C3_4 
ROOT
ATOM      1  C3  UNL d   1      -0.059  -2.302  -1.085  0.00  0.00    -0.075 A 
ATOM      2  C4  UNL d   1      -1.082  -2.338  -2.043  0.00  0.00     0.002 A 
ATOM      3  C5  UNL d   1      -1.816  -3.506  -2.252  0.00  0.00     0.002 A 
ATOM      4  C6  UNL d   1      -1.530  -4.653  -1.516  0.00  0.00    -0.004 A 
ATOM      5  C7  UNL d   1      -0.504  -4.634  -0.573  0.00  0.00     0.002 A 
ATOM      6  C8  UNL d   1       0.229  -3.465  -0.359  0.00  0.00     0.002 A 
ENDROOT
BRANCH   1   7
ATOM      7  C2  UNL d   1       0.719  -1.032  -0.833  0.00  0.00     0.056 C 
BRANCH   7   8
ATOM      8  C1  UNL d   1       0.098  -0.121   0.231  0.00  0.00     0.007 C 
ATOM      9  C   UNL d   1       0.780  -0.232   1.589  0.00  0.00     0.009 C 
ENDBRANCH   7   8
ENDBRANCH   1   7
TORSDOF 2
ENDMDL
