MODEL 1
REMARK minimizedAffinity -2.72238779
REMARK minimizedRMSD -1
REMARK  2 active torsions:
REMARK  status: ('A' for Active; 'I' for Inactive)
REMARK    1  A    between atoms: C1_2  and  C2_3 
REMARK    2  A    between atoms: C2_3  and  C3_4 
ROOT
ATOM      1  C3  UNL d   1       0.628  -0.556  -0.621  0.00  0.00    -0.075 A 
ATOM      2  C4  UNL d   1      -0.155  -0.015   0.409  0.00  0.00     0.002 A 
ATOM      3  C5  UNL d   1      -0.772   1.226   0.252  0.00  0.00     0.002 A 
ATOM      4  C6  UNL d   1      -0.606   1.946  -0.929  0.00  0.00    -0.004 A 
ATOM      5  C7  UNL d   1       0.184   1.426  -1.952  0.00  0.00     0.002 A 
ATOM      6  C8  UNL d   1       0.799   0.182  -1.800  0.00  0.00     0.002 A 
ENDROOT
BRANCH   1   7
ATOM      7  C2  UNL d   1       1.274  -1.913  -0.470  0.00  0.00     0.056 C 
BRANCH   7   8
ATOM      8  C1  UNL d   1       0.416  -3.073  -0.985  0.00  0.00     0.007 C 
ATOM      9  C   UNL d   1       0.330  -4.236  -0.005  0.00  0.00     0.009 C 
ENDBRANCH   7   8
ENDBRANCH   1   7
TORSDOF 2
ENDMDL
