MODEL 1
REMARK minimizedAffinity 5.59720564
REMARK minimizedRMSD -1
REMARK  2 active torsions:
REMARK  status: ('A' for Active; 'I' for Inactive)
REMARK    1  A    between atoms: C2'_3  and  C1'_4 
REMARK    2  A    between atoms: C1'_4  and  C1_5 
ROOT
ATOM      1  C1  I4B d   1      -1.852   3.468  -4.492  0.00  0.00    -0.075 A 
ATOM      2  C2  I4B d   1      -1.096   2.373  -4.157  0.00  0.00     0.003 A 
ATOM      3  C3  I4B d   1       0.183   2.185  -4.736  0.00  0.00     0.002 A 
ATOM      4  C4  I4B d   1       0.642   3.084  -5.676  0.00  0.00    -0.004 A 
ATOM      5  C5  I4B d   1      -0.116   4.207  -5.997  0.00  0.00     0.002 A 
ATOM      6  C6  I4B d   1      -1.365   4.407  -5.393  0.00  0.00     0.003 A 
ENDROOT
BRANCH   1   7
ATOM      7  C1' I4B d   1      -3.212   3.618  -3.887  0.00  0.00     0.060 C 
BRANCH   7   8
ATOM      8  C2' I4B d   1      -3.555   2.321  -3.183  0.00  0.00    -0.013 C 
ATOM      9  C4' I4B d   1      -4.063   2.576  -1.788  0.00  0.00     0.013 C 
ATOM     10  C3' I4B d   1      -4.579   1.602  -4.009  0.00  0.00     0.013 C 
ENDBRANCH   7   8
ENDBRANCH   1   7
TORSDOF 2
ENDMDL
