MODEL 1
REMARK minimizedAffinity -2.27336216
REMARK minimizedRMSD -1
REMARK  2 active torsions:
REMARK  status: ('A' for Active; 'I' for Inactive)
REMARK    1  A    between atoms: C2'_3  and  C1'_4 
REMARK    2  A    between atoms: C1'_4  and  C1_5 
ROOT
ATOM      1  C1  I4B d   1       0.784  -1.394   0.712  0.00  0.00    -0.075 A 
ATOM      2  C2  I4B d   1       1.211  -0.240   1.321  0.00  0.00     0.003 A 
ATOM      3  C3  I4B d   1       0.299   0.557   2.055  0.00  0.00     0.002 A 
ATOM      4  C4  I4B d   1      -1.030   0.192   2.111  0.00  0.00    -0.004 A 
ATOM      5  C5  I4B d   1      -1.456  -0.990   1.513  0.00  0.00     0.002 A 
ATOM      6  C6  I4B d   1      -0.541  -1.795   0.819  0.00  0.00     0.003 A 
ENDROOT
BRANCH   1   7
ATOM      7  C1' I4B d   1       1.767  -2.195  -0.083  0.00  0.00     0.060 C 
BRANCH   7   8
ATOM      8  C2' I4B d   1       2.201  -3.374   0.764  0.00  0.00    -0.013 C 
ATOM      9  C4' I4B d   1       1.337  -4.579   0.505  0.00  0.00     0.013 C 
ATOM     10  C3' I4B d   1       3.640  -3.662   0.452  0.00  0.00     0.013 C 
ENDBRANCH   7   8
ENDBRANCH   1   7
TORSDOF 2
ENDMDL
