MODEL 1
REMARK minimizedAffinity 11.7123089
REMARK minimizedRMSD -1
REMARK  2 active torsions:
REMARK  status: ('A' for Active; 'I' for Inactive)
REMARK    1  A    between atoms: C2'_3  and  C1'_4 
REMARK    2  A    between atoms: C1'_4  and  C1_5 
ROOT
ATOM      1  C1  I4B d   1       3.214  -3.837   0.405  0.00  0.00    -0.075 A 
ATOM      2  C2  I4B d   1       3.915  -4.967   0.742  0.00  0.00     0.003 A 
ATOM      3  C3  I4B d   1       5.331  -4.958   0.732  0.00  0.00     0.002 A 
ATOM      4  C4  I4B d   1       6.000  -3.819   0.332  0.00  0.00    -0.004 A 
ATOM      5  C5  I4B d   1       5.288  -2.667   0.012  0.00  0.00     0.002 A 
ATOM      6  C6  I4B d   1       3.886  -2.671   0.060  0.00  0.00     0.003 A 
ENDROOT
BRANCH   1   7
ATOM      7  C1' I4B d   1       1.719  -3.891   0.394  0.00  0.00     0.060 C 
BRANCH   7   8
ATOM      8  C2' I4B d   1       1.199  -2.474   0.519  0.00  0.00    -0.013 C 
ATOM      9  C4' I4B d   1       1.095  -1.811  -0.830  0.00  0.00     0.013 C 
ATOM     10  C3' I4B d   1      -0.136  -2.529   1.199  0.00  0.00     0.013 C 
ENDBRANCH   7   8
ENDBRANCH   1   7
TORSDOF 2
ENDMDL
