MODEL 1
REMARK minimizedAffinity -0.102393471
REMARK minimizedRMSD -1
REMARK  2 active torsions:
REMARK  status: ('A' for Active; 'I' for Inactive)
REMARK    1  A    between atoms: C2'_3  and  C1'_4 
REMARK    2  A    between atoms: C1'_4  and  C1_5 
ROOT
ATOM      1  C1  I4B d   1      -1.906   3.387  -3.597  0.00  0.00    -0.075 A 
ATOM      2  C2  I4B d   1      -2.174   4.401  -4.481  0.00  0.00     0.003 A 
ATOM      3  C3  I4B d   1      -1.483   4.473  -5.715  0.00  0.00     0.002 A 
ATOM      4  C4  I4B d   1      -0.502   3.545  -5.999  0.00  0.00    -0.004 A 
ATOM      5  C5  I4B d   1      -0.247   2.504  -5.112  0.00  0.00     0.002 A 
ATOM      6  C6  I4B d   1      -0.962   2.417  -3.908  0.00  0.00     0.003 A 
ENDROOT
BRANCH   1   7
ATOM      7  C1' I4B d   1      -2.631   3.360  -2.289  0.00  0.00     0.060 C 
BRANCH   7   8
ATOM      8  C2' I4B d   1      -3.743   2.335  -2.393  0.00  0.00    -0.013 C 
ATOM      9  C4' I4B d   1      -4.086   1.764  -1.042  0.00  0.00     0.013 C 
ATOM     10  C3' I4B d   1      -4.932   3.004  -3.016  0.00  0.00     0.013 C 
ENDBRANCH   7   8
ENDBRANCH   1   7
TORSDOF 2
ENDMDL
