MODEL 1
REMARK minimizedAffinity 3.92957807
REMARK minimizedRMSD -1
REMARK  2 active torsions:
REMARK  status: ('A' for Active; 'I' for Inactive)
REMARK    1  A    between atoms: C2'_3  and  C1'_4 
REMARK    2  A    between atoms: C1'_4  and  C1_5 
ROOT
ATOM      1  C1  I4B d   1       1.124  -2.396   0.725  0.00  0.00    -0.075 A 
ATOM      2  C2  I4B d   1       0.854  -1.280   1.476  0.00  0.00     0.003 A 
ATOM      3  C3  I4B d   1      -0.366  -1.177   2.187  0.00  0.00     0.002 A 
ATOM      4  C4  I4B d   1      -1.303  -2.185   2.078  0.00  0.00    -0.004 A 
ATOM      5  C5  I4B d   1      -1.017  -3.326   1.334  0.00  0.00     0.002 A 
ATOM      6  C6  I4B d   1       0.209  -3.438   0.663  0.00  0.00     0.003 A 
ENDROOT
BRANCH   1   7
ATOM      7  C1' I4B d   1       2.409  -2.456  -0.040  0.00  0.00     0.060 C 
BRANCH   7   8
ATOM      8  C2' I4B d   1       3.007  -3.834   0.162  0.00  0.00    -0.013 C 
ATOM      9  C4' I4B d   1       4.228  -4.029  -0.699  0.00  0.00     0.013 C 
ATOM     10  C3' I4B d   1       3.340  -3.986   1.616  0.00  0.00     0.013 C 
ENDBRANCH   7   8
ENDBRANCH   1   7
TORSDOF 2
ENDMDL
