MODEL 1
REMARK minimizedAffinity 10.490797
REMARK minimizedRMSD -1
REMARK  2 active torsions:
REMARK  status: ('A' for Active; 'I' for Inactive)
REMARK    1  A    between atoms: C2'_3  and  C1'_4 
REMARK    2  A    between atoms: C1'_4  and  C1_5 
ROOT
ATOM      1  C1  I4B d   1       3.987  -3.893   2.446  0.00  0.00    -0.075 A 
ATOM      2  C2  I4B d   1       2.988  -3.006   2.761  0.00  0.00     0.003 A 
ATOM      3  C3  I4B d   1       2.156  -2.478   1.743  0.00  0.00     0.002 A 
ATOM      4  C4  I4B d   1       2.389  -2.825   0.428  0.00  0.00    -0.004 A 
ATOM      5  C5  I4B d   1       3.387  -3.742   0.113  0.00  0.00     0.002 A 
ATOM      6  C6  I4B d   1       4.183  -4.290   1.129  0.00  0.00     0.003 A 
ENDROOT
BRANCH   1   7
ATOM      7  C1' I4B d   1       4.868  -4.405   3.541  0.00  0.00     0.060 C 
BRANCH   7   8
ATOM      8  C2' I4B d   1       4.708  -3.487   4.736  0.00  0.00    -0.013 C 
ATOM      9  C4' I4B d   1       4.481  -4.273   6.000  0.00  0.00     0.013 C 
ATOM     10  C3' I4B d   1       5.943  -2.642   4.838  0.00  0.00     0.013 C 
ENDBRANCH   7   8
ENDBRANCH   1   7
TORSDOF 2
ENDMDL
