MODEL 1
REMARK minimizedAffinity 1.16701448
REMARK minimizedRMSD -1
REMARK  2 active torsions:
REMARK  status: ('A' for Active; 'I' for Inactive)
REMARK    1  A    between atoms: C2'_3  and  C1'_4 
REMARK    2  A    between atoms: C1'_4  and  C1_5 
ROOT
ATOM      1  C1  I4B d   1      -1.761   1.566  -4.085  0.00  0.00    -0.075 A 
ATOM      2  C2  I4B d   1      -0.758   2.159  -4.812  0.00  0.00     0.003 A 
ATOM      3  C3  I4B d   1      -0.842   3.530  -5.155  0.00  0.00     0.002 A 
ATOM      4  C4  I4B d   1      -1.961   4.253  -4.798  0.00  0.00    -0.004 A 
ATOM      5  C5  I4B d   1      -2.966   3.657  -4.042  0.00  0.00     0.002 A 
ATOM      6  C6  I4B d   1      -2.860   2.308  -3.673  0.00  0.00     0.003 A 
ENDROOT
BRANCH   1   7
ATOM      7  C1' I4B d   1      -1.656   0.108  -3.768  0.00  0.00     0.060 C 
BRANCH   7   8
ATOM      8  C2' I4B d   1      -0.266  -0.355  -4.154  0.00  0.00    -0.013 C 
ATOM      9  C4' I4B d   1       0.530  -0.763  -2.943  0.00  0.00     0.013 C 
ATOM     10  C3' I4B d   1      -0.409  -1.495  -5.117  0.00  0.00     0.013 C 
ENDBRANCH   7   8
ENDBRANCH   1   7
TORSDOF 2
ENDMDL
