MODEL 1
REMARK minimizedAffinity 8.69880199
REMARK minimizedRMSD -1
REMARK  2 active torsions:
REMARK  status: ('A' for Active; 'I' for Inactive)
REMARK    1  A    between atoms: C2'_3  and  C1'_4 
REMARK    2  A    between atoms: C1'_4  and  C1_5 
ROOT
ATOM      1  C1  I4B d   1       1.136  -2.566   0.845  0.00  0.00    -0.075 A 
ATOM      2  C2  I4B d   1       0.664  -1.659   1.761  0.00  0.00     0.003 A 
ATOM      3  C3  I4B d   1      -0.664  -1.755   2.241  0.00  0.00     0.002 A 
ATOM      4  C4  I4B d   1      -1.497  -2.737   1.744  0.00  0.00    -0.004 A 
ATOM      5  C5  I4B d   1      -1.011  -3.669   0.832  0.00  0.00     0.002 A 
ATOM      6  C6  I4B d   1       0.318  -3.592   0.389  0.00  0.00     0.003 A 
ENDROOT
BRANCH   1   7
ATOM      7  C1' I4B d   1       2.534  -2.415   0.335  0.00  0.00     0.060 C 
BRANCH   7   8
ATOM      8  C2' I4B d   1       3.113  -3.802   0.144  0.00  0.00    -0.013 C 
ATOM      9  C4' I4B d   1       4.178  -3.806  -0.921  0.00  0.00     0.013 C 
ATOM     10  C3' I4B d   1       3.663  -4.259   1.462  0.00  0.00     0.013 C 
ENDBRANCH   7   8
ENDBRANCH   1   7
TORSDOF 2
ENDMDL
