MODEL 1
REMARK minimizedAffinity -2.02013302
REMARK minimizedRMSD -1
REMARK  0 active torsions:
REMARK  status: ('A' for Active; 'I' for Inactive)
ROOT
ATOM      1  C   UNL d   1       2.533  -1.584  -0.944  0.00  0.00     0.077 C 
ATOM      2  C1  UNL d   1       1.260  -1.025  -0.383  0.00  0.00    -0.074 A 
ATOM      3  C2  UNL d   1       0.341  -0.364  -1.205  0.00  0.00    -0.005 A 
ATOM      4  C3  UNL d   1      -0.843   0.142  -0.671  0.00  0.00     0.006 A 
ATOM      5  C4  UNL d   1      -1.121  -0.008   0.688  0.00  0.00    -0.005 A 
ATOM      6  C5  UNL d   1      -0.216  -0.667   1.525  0.00  0.00    -0.074 A 
ATOM      7  C6  UNL d   1      -0.504  -0.845   2.987  0.00  0.00     0.077 C 
ATOM      8  C7  UNL d   1       0.970  -1.179   0.980  0.00  0.00    -0.001 A 
ENDROOT
TORSDOF 0
ENDMDL
