MODEL 1
REMARK minimizedAffinity -4.87936592
REMARK minimizedRMSD -1
REMARK  0 active torsions:
REMARK  status: ('A' for Active; 'I' for Inactive)
ROOT
ATOM      1  C   UNL d   1       0.581  -1.575   3.155  0.00  0.00     0.077 C 
ATOM      2  C1  UNL d   1       0.407  -1.030   1.769  0.00  0.00    -0.074 A 
ATOM      3  C2  UNL d   1      -0.598  -0.101   1.483  0.00  0.00    -0.005 A 
ATOM      4  C3  UNL d   1      -0.742   0.405   0.191  0.00  0.00     0.006 A 
ATOM      5  C4  UNL d   1       0.116  -0.013  -0.827  0.00  0.00    -0.005 A 
ATOM      6  C5  UNL d   1       1.128  -0.941  -0.559  0.00  0.00    -0.074 A 
ATOM      7  C6  UNL d   1       2.066  -1.393  -1.639  0.00  0.00     0.077 C 
ATOM      8  C7  UNL d   1       1.271  -1.439   0.743  0.00  0.00    -0.001 A 
ENDROOT
TORSDOF 0
ENDMDL
