MODEL 1
REMARK minimizedAffinity -3.35436225
REMARK minimizedRMSD -1
REMARK  0 active torsions:
REMARK  status: ('A' for Active; 'I' for Inactive)
ROOT
ATOM      1  C   UNL d   1      -0.336   0.703  -1.064  0.00  0.00     0.077 C 
ATOM      2  C1  UNL d   1      -0.064  -0.181   0.117  0.00  0.00    -0.074 A 
ATOM      3  C2  UNL d   1      -0.800  -0.049   1.299  0.00  0.00    -0.005 A 
ATOM      4  C3  UNL d   1      -0.541  -0.884   2.386  0.00  0.00     0.006 A 
ATOM      5  C4  UNL d   1       0.454  -1.858   2.302  0.00  0.00    -0.005 A 
ATOM      6  C5  UNL d   1       1.200  -2.006   1.128  0.00  0.00    -0.074 A 
ATOM      7  C6  UNL d   1       2.267  -3.055   1.017  0.00  0.00     0.077 C 
ATOM      8  C7  UNL d   1       0.930  -1.167   0.038  0.00  0.00    -0.001 A 
ENDROOT
TORSDOF 0
ENDMDL
