MODEL 1
REMARK minimizedAffinity -3.6519382
REMARK minimizedRMSD -1
REMARK  0 active torsions:
REMARK  status: ('A' for Active; 'I' for Inactive)
ROOT
ATOM      1  C   UNL d   1      -1.529   0.417   1.513  0.00  0.00     0.077 C 
ATOM      2  C1  UNL d   1      -0.379  -0.500   1.221  0.00  0.00    -0.074 A 
ATOM      3  C2  UNL d   1       0.192  -1.282   2.230  0.00  0.00    -0.005 A 
ATOM      4  C3  UNL d   1       1.255  -2.137   1.941  0.00  0.00     0.006 A 
ATOM      5  C4  UNL d   1       1.757  -2.220   0.642  0.00  0.00    -0.005 A 
ATOM      6  C5  UNL d   1       1.198  -1.447  -0.381  0.00  0.00    -0.074 A 
ATOM      7  C6  UNL d   1       1.719  -1.531  -1.785  0.00  0.00     0.077 C 
ATOM      8  C7  UNL d   1       0.126  -0.595  -0.084  0.00  0.00    -0.001 A 
ENDROOT
TORSDOF 0
ENDMDL
