MODEL 1
REMARK minimizedAffinity -4.44847298
REMARK minimizedRMSD -1
REMARK  0 active torsions:
REMARK  status: ('A' for Active; 'I' for Inactive)
ROOT
ATOM      1  C   UNL d   1      -0.253  -0.203   1.471  0.00  0.00     0.077 C 
ATOM      2  C1  UNL d   1      -0.256   0.190   0.024  0.00  0.00    -0.074 A 
ATOM      3  C2  UNL d   1      -0.061  -0.764  -0.980  0.00  0.00    -0.005 A 
ATOM      4  C3  UNL d   1      -0.076  -0.386  -2.323  0.00  0.00     0.006 A 
ATOM      5  C4  UNL d   1      -0.286   0.948  -2.674  0.00  0.00    -0.005 A 
ATOM      6  C5  UNL d   1      -0.484   1.916  -1.684  0.00  0.00    -0.074 A 
ATOM      7  C6  UNL d   1      -0.722   3.352  -2.045  0.00  0.00     0.077 C 
ATOM      8  C7  UNL d   1      -0.475   1.527  -0.338  0.00  0.00    -0.001 A 
ENDROOT
TORSDOF 0
ENDMDL
