MODEL 1
REMARK minimizedAffinity -1.00670648
REMARK minimizedRMSD -1
REMARK  0 active torsions:
REMARK  status: ('A' for Active; 'I' for Inactive)
ROOT
ATOM      1  C   UNL d   1       2.645  -2.770   0.624  0.00  0.00     0.077 C 
ATOM      2  C1  UNL d   1       1.481  -1.877   0.936  0.00  0.00    -0.074 A 
ATOM      3  C2  UNL d   1       0.919  -1.850   2.217  0.00  0.00    -0.005 A 
ATOM      4  C3  UNL d   1      -0.158  -1.008   2.494  0.00  0.00     0.006 A 
ATOM      5  C4  UNL d   1      -0.682  -0.186   1.496  0.00  0.00    -0.005 A 
ATOM      6  C5  UNL d   1      -0.133  -0.199   0.210  0.00  0.00    -0.074 A 
ATOM      7  C6  UNL d   1      -0.678   0.686  -0.871  0.00  0.00     0.077 C 
ATOM      8  C7  UNL d   1       0.953  -1.043  -0.059  0.00  0.00    -0.001 A 
ENDROOT
TORSDOF 0
ENDMDL
