MODEL 1
REMARK minimizedAffinity -2.16515946
REMARK minimizedRMSD -1
REMARK  0 active torsions:
REMARK  status: ('A' for Active; 'I' for Inactive)
ROOT
ATOM      1  C   UNL d   1       1.689  -1.730  -0.193  0.00  0.00     0.077 C 
ATOM      2  C1  UNL d   1       0.487  -0.848  -0.029  0.00  0.00    -0.074 A 
ATOM      3  C2  UNL d   1      -0.256  -0.859   1.156  0.00  0.00    -0.005 A 
ATOM      4  C3  UNL d   1      -1.366  -0.026   1.297  0.00  0.00     0.006 A 
ATOM      5  C4  UNL d   1      -1.743   0.825   0.258  0.00  0.00    -0.005 A 
ATOM      6  C5  UNL d   1      -1.011   0.851  -0.934  0.00  0.00    -0.074 A 
ATOM      7  C6  UNL d   1      -1.397   1.767  -2.057  0.00  0.00     0.077 C 
ATOM      8  C7  UNL d   1       0.107   0.016  -1.066  0.00  0.00    -0.001 A 
ENDROOT
TORSDOF 0
ENDMDL
