MODEL 1
REMARK minimizedAffinity -1.49541879
REMARK minimizedRMSD -1
REMARK  0 active torsions:
REMARK  status: ('A' for Active; 'I' for Inactive)
ROOT
ATOM      1  C   UNL d   1       2.434  -1.979  -0.871  0.00  0.00     0.077 C 
ATOM      2  C1  UNL d   1       1.278  -1.122  -0.447  0.00  0.00    -0.074 A 
ATOM      3  C2  UNL d   1       0.671  -1.301   0.801  0.00  0.00    -0.005 A 
ATOM      4  C3  UNL d   1      -0.397  -0.491   1.185  0.00  0.00     0.006 A 
ATOM      5  C4  UNL d   1      -0.869   0.505   0.328  0.00  0.00    -0.005 A 
ATOM      6  C5  UNL d   1      -0.273   0.698  -0.923  0.00  0.00    -0.074 A 
ATOM      7  C6  UNL d   1      -0.761   1.770  -1.852  0.00  0.00     0.077 C 
ATOM      8  C7  UNL d   1       0.804  -0.115  -1.299  0.00  0.00    -0.001 A 
ENDROOT
TORSDOF 0
ENDMDL
