MODEL 1
REMARK minimizedAffinity -0.378656209
REMARK minimizedRMSD -1
REMARK  0 active torsions:
REMARK  status: ('A' for Active; 'I' for Inactive)
ROOT
ATOM      1  C   UNL d   1      -0.602   0.630  -1.116  0.00  0.00     0.077 C 
ATOM      2  C1  UNL d   1      -0.114  -0.261  -0.013  0.00  0.00    -0.074 A 
ATOM      3  C2  UNL d   1      -0.767  -0.297   1.224  0.00  0.00    -0.005 A 
ATOM      4  C3  UNL d   1      -0.307  -1.139   2.237  0.00  0.00     0.006 A 
ATOM      5  C4  UNL d   1       0.807  -1.951   2.025  0.00  0.00    -0.005 A 
ATOM      6  C5  UNL d   1       1.472  -1.929   0.794  0.00  0.00    -0.074 A 
ATOM      7  C6  UNL d   1       2.666  -2.802   0.546  0.00  0.00     0.077 C 
ATOM      8  C7  UNL d   1       1.000  -1.086  -0.221  0.00  0.00    -0.001 A 
ENDROOT
TORSDOF 0
ENDMDL
