MODEL 1
REMARK minimizedAffinity 12.0336733
REMARK minimizedRMSD -1
REMARK  0 active torsions:
REMARK  status: ('A' for Active; 'I' for Inactive)
ROOT
ATOM      1  C   UNL d   1       3.161   1.985   3.353  0.00  0.00     0.077 C 
ATOM      2  C1  UNL d   1       1.781   2.289   2.849  0.00  0.00    -0.074 A 
ATOM      3  C2  UNL d   1       0.650   1.912   3.579  0.00  0.00    -0.005 A 
ATOM      4  C3  UNL d   1      -0.627   2.211   3.102  0.00  0.00     0.006 A 
ATOM      5  C4  UNL d   1      -0.784   2.888   1.892  0.00  0.00    -0.005 A 
ATOM      6  C5  UNL d   1       0.336   3.274   1.149  0.00  0.00    -0.074 A 
ATOM      7  C6  UNL d   1       0.185   4.011  -0.149  0.00  0.00     0.077 C 
ATOM      8  C7  UNL d   1       1.615   2.976   1.638  0.00  0.00    -0.001 A 
ENDROOT
TORSDOF 0
ENDMDL
