MODEL 1
REMARK minimizedAffinity 5.57929754
REMARK minimizedRMSD -1
REMARK  0 active torsions:
REMARK  status: ('A' for Active; 'I' for Inactive)
ROOT
ATOM      1  C   UNL d   1       3.749  -5.249  -3.891  0.00  0.00     0.077 C 
ATOM      2  C1  UNL d   1       2.991  -5.241  -2.597  0.00  0.00    -0.074 A 
ATOM      3  C2  UNL d   1       1.822  -5.993  -2.445  0.00  0.00    -0.005 A 
ATOM      4  C3  UNL d   1       1.133  -5.983  -1.232  0.00  0.00     0.006 A 
ATOM      5  C4  UNL d   1       1.605  -5.223  -0.161  0.00  0.00    -0.005 A 
ATOM      6  C5  UNL d   1       2.773  -4.466  -0.295  0.00  0.00    -0.074 A 
ATOM      7  C6  UNL d   1       3.300  -3.651   0.849  0.00  0.00     0.077 C 
ATOM      8  C7  UNL d   1       3.464  -4.486  -1.515  0.00  0.00    -0.001 A 
ENDROOT
TORSDOF 0
ENDMDL
