MODEL 1
REMARK minimizedAffinity 4.12693024
REMARK minimizedRMSD -1
REMARK  0 active torsions:
REMARK  status: ('A' for Active; 'I' for Inactive)
ROOT
ATOM      1  C   UNL d   1       1.123  -6.000  -0.568  0.00  0.00     0.077 C 
ATOM      2  C1  UNL d   1       2.294  -5.292  -1.181  0.00  0.00    -0.074 A 
ATOM      3  C2  UNL d   1       2.673  -5.542  -2.504  0.00  0.00    -0.005 A 
ATOM      4  C3  UNL d   1       3.759  -4.869  -3.064  0.00  0.00     0.006 A 
ATOM      5  C4  UNL d   1       4.476  -3.941  -2.308  0.00  0.00    -0.005 A 
ATOM      6  C5  UNL d   1       4.111  -3.677  -0.984  0.00  0.00    -0.074 A 
ATOM      7  C6  UNL d   1       4.865  -2.675  -0.160  0.00  0.00     0.077 C 
ATOM      8  C7  UNL d   1       3.014  -4.352  -0.431  0.00  0.00    -0.001 A 
ENDROOT
TORSDOF 0
ENDMDL
