MODEL 1
REMARK minimizedAffinity 9.47575665
REMARK minimizedRMSD -1
REMARK  0 active torsions:
REMARK  status: ('A' for Active; 'I' for Inactive)
ROOT
ATOM      1  C   UNL d   1       4.376  -5.811  -4.224  0.00  0.00     0.077 C 
ATOM      2  C1  UNL d   1       3.122  -5.884  -3.405  0.00  0.00    -0.074 A 
ATOM      3  C2  UNL d   1       3.176  -5.909  -2.008  0.00  0.00    -0.005 A 
ATOM      4  C3  UNL d   1       2.000  -5.967  -1.260  0.00  0.00     0.006 A 
ATOM      5  C4  UNL d   1       0.760  -6.000  -1.900  0.00  0.00    -0.005 A 
ATOM      6  C5  UNL d   1       0.687  -5.974  -3.297  0.00  0.00    -0.074 A 
ATOM      7  C6  UNL d   1      -0.637  -5.999  -4.000  0.00  0.00     0.077 C 
ATOM      8  C7  UNL d   1       1.873  -5.909  -4.041  0.00  0.00    -0.001 A 
ENDROOT
TORSDOF 0
ENDMDL
