MODEL 1
REMARK minimizedAffinity 5.30768204
REMARK minimizedRMSD -1
REMARK  0 active torsions:
REMARK  status: ('A' for Active; 'I' for Inactive)
ROOT
ATOM      1  C   UNL d   1       0.522   3.918  -0.111  0.00  0.00     0.077 C 
ATOM      2  C1  UNL d   1       0.312   3.091   1.122  0.00  0.00    -0.074 A 
ATOM      3  C2  UNL d   1       1.398   2.644   1.882  0.00  0.00    -0.005 A 
ATOM      4  C3  UNL d   1       1.186   1.884   3.032  0.00  0.00     0.006 A 
ATOM      5  C4  UNL d   1      -0.111   1.564   3.434  0.00  0.00    -0.005 A 
ATOM      6  C5  UNL d   1      -1.210   2.003   2.688  0.00  0.00    -0.074 A 
ATOM      7  C6  UNL d   1      -2.611   1.677   3.111  0.00  0.00     0.077 C 
ATOM      8  C7  UNL d   1      -0.989   2.772   1.537  0.00  0.00    -0.001 A 
ENDROOT
TORSDOF 0
ENDMDL
