MODEL 1
REMARK minimizedAffinity 9.19423866
REMARK minimizedRMSD -1
REMARK  0 active torsions:
REMARK  status: ('A' for Active; 'I' for Inactive)
ROOT
ATOM      1  C   UNL d   1      -2.146   6.000   2.291  0.00  0.00     0.077 C 
ATOM      2  C1  UNL d   1      -1.162   5.347   1.367  0.00  0.00    -0.074 A 
ATOM      3  C2  UNL d   1      -0.716   6.000   0.213  0.00  0.00    -0.005 A 
ATOM      4  C3  UNL d   1       0.208   5.384  -0.631  0.00  0.00     0.006 A 
ATOM      5  C4  UNL d   1       0.694   4.111  -0.332  0.00  0.00    -0.005 A 
ATOM      6  C5  UNL d   1       0.260   3.443   0.818  0.00  0.00    -0.074 A 
ATOM      7  C6  UNL d   1       0.780   2.078   1.160  0.00  0.00     0.077 C 
ATOM      8  C7  UNL d   1      -0.663   4.071   1.665  0.00  0.00    -0.001 A 
ENDROOT
TORSDOF 0
ENDMDL
