MODEL 1
REMARK minimizedAffinity 16.6257858
REMARK minimizedRMSD -1
REMARK  0 active torsions:
REMARK  status: ('A' for Active; 'I' for Inactive)
ROOT
ATOM      1  C   UNL d   1       0.807   2.827   0.367  0.00  0.00     0.077 C 
ATOM      2  C1  UNL d   1       0.023   3.933  -0.276  0.00  0.00    -0.074 A 
ATOM      3  C2  UNL d   1      -0.718   4.832   0.497  0.00  0.00    -0.005 A 
ATOM      4  C3  UNL d   1      -1.435   5.861  -0.114  0.00  0.00     0.006 A 
ATOM      5  C4  UNL d   1      -1.418   6.000  -1.502  0.00  0.00    -0.005 A 
ATOM      6  C5  UNL d   1      -0.682   5.111  -2.292  0.00  0.00    -0.074 A 
ATOM      7  C6  UNL d   1      -0.644   5.252  -3.784  0.00  0.00     0.077 C 
ATOM      8  C7  UNL d   1       0.042   4.084  -1.669  0.00  0.00    -0.001 A 
ENDROOT
TORSDOF 0
ENDMDL
