MODEL 1
REMARK minimizedAffinity 12.6363611
REMARK minimizedRMSD -1
REMARK  0 active torsions:
REMARK  status: ('A' for Active; 'I' for Inactive)
ROOT
ATOM      1  C   UNL d   1       0.296   4.721   0.041  0.00  0.00     0.077 C 
ATOM      2  C1  UNL d   1       0.232   3.672   1.111  0.00  0.00    -0.074 A 
ATOM      3  C2  UNL d   1       1.349   3.384   1.902  0.00  0.00    -0.005 A 
ATOM      4  C3  UNL d   1       1.272   2.412   2.900  0.00  0.00     0.006 A 
ATOM      5  C4  UNL d   1       0.080   1.719   3.116  0.00  0.00    -0.005 A 
ATOM      6  C5  UNL d   1      -1.047   1.995   2.335  0.00  0.00    -0.074 A 
ATOM      7  C6  UNL d   1      -2.339   1.267   2.561  0.00  0.00     0.077 C 
ATOM      8  C7  UNL d   1      -0.964   2.977   1.339  0.00  0.00    -0.001 A 
ENDROOT
TORSDOF 0
ENDMDL
