MODEL 1
REMARK minimizedAffinity 15.2439356
REMARK minimizedRMSD -1
REMARK  0 active torsions:
REMARK  status: ('A' for Active; 'I' for Inactive)
ROOT
ATOM      1  C   UNL d   1       0.316   4.682  -1.380  0.00  0.00     0.077 C 
ATOM      2  C1  UNL d   1      -0.366   4.301  -0.100  0.00  0.00    -0.074 A 
ATOM      3  C2  UNL d   1      -0.181   3.035   0.464  0.00  0.00    -0.005 A 
ATOM      4  C3  UNL d   1      -0.814   2.698   1.660  0.00  0.00     0.006 A 
ATOM      5  C4  UNL d   1      -1.638   3.623   2.303  0.00  0.00    -0.005 A 
ATOM      6  C5  UNL d   1      -1.835   4.894   1.755  0.00  0.00    -0.074 A 
ATOM      7  C6  UNL d   1      -2.709   5.903   2.438  0.00  0.00     0.077 C 
ATOM      8  C7  UNL d   1      -1.189   5.227   0.556  0.00  0.00    -0.001 A 
ENDROOT
TORSDOF 0
ENDMDL
