MODEL 1
REMARK minimizedAffinity 6.31926107
REMARK minimizedRMSD -1
REMARK  0 active torsions:
REMARK  status: ('A' for Active; 'I' for Inactive)
ROOT
ATOM      1  C   UNL d   1       4.889  -3.119  -3.696  0.00  0.00     0.077 C 
ATOM      2  C1  UNL d   1       4.773  -2.535  -2.319  0.00  0.00    -0.074 A 
ATOM      3  C2  UNL d   1       5.895  -2.415  -1.493  0.00  0.00    -0.005 A 
ATOM      4  C3  UNL d   1       5.773  -1.862  -0.218  0.00  0.00     0.006 A 
ATOM      5  C4  UNL d   1       4.531  -1.424   0.242  0.00  0.00    -0.005 A 
ATOM      6  C5  UNL d   1       3.398  -1.536  -0.570  0.00  0.00    -0.074 A 
ATOM      7  C6  UNL d   1       2.057  -1.061  -0.095  0.00  0.00     0.077 C 
ATOM      8  C7  UNL d   1       3.530  -2.086  -1.852  0.00  0.00    -0.001 A 
ENDROOT
TORSDOF 0
ENDMDL
