MODEL 1
REMARK minimizedAffinity 8.13084888
REMARK minimizedRMSD -1
REMARK  0 active torsions:
REMARK  status: ('A' for Active; 'I' for Inactive)
ROOT
ATOM      1  C   UNL d   1      -0.134   1.554   3.112  0.00  0.00     0.077 C 
ATOM      2  C1  UNL d   1      -0.312   2.667   2.122  0.00  0.00    -0.074 A 
ATOM      3  C2  UNL d   1       0.291   2.611   0.861  0.00  0.00    -0.005 A 
ATOM      4  C3  UNL d   1       0.108   3.650  -0.052  0.00  0.00     0.006 A 
ATOM      5  C4  UNL d   1      -0.677   4.752   0.285  0.00  0.00    -0.005 A 
ATOM      6  C5  UNL d   1      -1.289   4.825   1.541  0.00  0.00    -0.074 A 
ATOM      7  C6  UNL d   1      -2.145   5.998   1.916  0.00  0.00     0.077 C 
ATOM      8  C7  UNL d   1      -1.107   3.774   2.451  0.00  0.00    -0.001 A 
ENDROOT
TORSDOF 0
ENDMDL
