MODEL 1
REMARK minimizedAffinity -5.03149319
REMARK minimizedRMSD -1
REMARK  1 active torsions:
REMARK  status: ('A' for Active; 'I' for Inactive)
REMARK    1  A    between atoms: C1_2  and  C2_3 
ROOT
ATOM      1  C2  UNL d   1       0.357  -1.248  -0.487  0.00  0.00    -0.081 A 
ATOM      2  C3  UNL d   1       0.180  -1.500   0.879  0.00  0.00     0.006 A 
ATOM      3  C4  UNL d   1      -0.450  -0.558   1.697  0.00  0.00     0.002 A 
ATOM      4  C5  UNL d   1      -0.919   0.646   1.162  0.00  0.00    -0.080 A 
ATOM      5  C6  UNL d   1      -1.623   1.652   2.022  0.00  0.00     0.076 C 
ATOM      6  C7  UNL d   1      -0.726   0.905  -0.200  0.00  0.00     0.002 A 
ATOM      7  C8  UNL d   1      -0.097  -0.036  -1.017  0.00  0.00     0.006 A 
ENDROOT
BRANCH   1   8
ATOM      8  C1  UNL d   1       0.977  -2.289  -1.383  0.00  0.00     0.054 C 
ATOM      9  C   UNL d   1       0.297  -2.323  -2.744  0.00  0.00     0.018 C 
ENDBRANCH   1   8
TORSDOF 1
ENDMDL
