MODEL 1
REMARK minimizedAffinity -2.39879799
REMARK minimizedRMSD -1
REMARK  1 active torsions:
REMARK  status: ('A' for Active; 'I' for Inactive)
REMARK    1  A    between atoms: C1_2  and  C2_3 
ROOT
ATOM      1  C2  UNL d   1       0.310  -0.318  -0.467  0.00  0.00    -0.081 A 
ATOM      2  C3  UNL d   1       0.053   0.863  -1.174  0.00  0.00     0.006 A 
ATOM      3  C4  UNL d   1      -0.699   1.887  -0.594  0.00  0.00     0.002 A 
ATOM      4  C5  UNL d   1      -1.201   1.750   0.704  0.00  0.00    -0.080 A 
ATOM      5  C6  UNL d   1      -1.985   2.854   1.350  0.00  0.00     0.076 C 
ATOM      6  C7  UNL d   1      -0.960   0.563   1.405  0.00  0.00     0.002 A 
ATOM      7  C8  UNL d   1      -0.208  -0.461   0.825  0.00  0.00     0.006 A 
ENDROOT
BRANCH   1   8
ATOM      8  C1  UNL d   1       1.176  -1.397  -1.065  0.00  0.00     0.054 C 
ATOM      9  C   UNL d   1       0.478  -2.084  -2.231  0.00  0.00     0.018 C 
ENDBRANCH   1   8
TORSDOF 1
ENDMDL
