MODEL 1
REMARK minimizedAffinity -5.71299934
REMARK minimizedRMSD -1
REMARK  1 active torsions:
REMARK  status: ('A' for Active; 'I' for Inactive)
REMARK    1  A    between atoms: C1_2  and  C2_3 
ROOT
ATOM      1  C2  UNL d   1       0.325  -0.394  -0.423  0.00  0.00    -0.081 A 
ATOM      2  C3  UNL d   1      -0.356  -0.723   0.754  0.00  0.00     0.006 A 
ATOM      3  C4  UNL d   1      -1.188   0.211   1.376  0.00  0.00     0.002 A 
ATOM      4  C5  UNL d   1      -1.358   1.487   0.826  0.00  0.00    -0.080 A 
ATOM      5  C6  UNL d   1      -2.272   2.489   1.467  0.00  0.00     0.076 C 
ATOM      6  C7  UNL d   1      -0.664   1.821  -0.341  0.00  0.00     0.002 A 
ATOM      7  C8  UNL d   1       0.169   0.888  -0.962  0.00  0.00     0.006 A 
ENDROOT
BRANCH   1   8
ATOM      8  C1  UNL d   1       1.172  -1.421  -1.131  0.00  0.00     0.054 C 
ATOM      9  C   UNL d   1       0.320  -2.345  -1.989  0.00  0.00     0.018 C 
ENDBRANCH   1   8
TORSDOF 1
ENDMDL
