MODEL 1
REMARK minimizedAffinity -1.02508974
REMARK minimizedRMSD -1
REMARK  1 active torsions:
REMARK  status: ('A' for Active; 'I' for Inactive)
REMARK    1  A    between atoms: C1_2  and  C2_3 
ROOT
ATOM      1  C2  UNL d   1       0.414  -1.719  -0.747  0.00  0.00    -0.081 A 
ATOM      2  C3  UNL d   1       0.985  -1.588   0.524  0.00  0.00     0.006 A 
ATOM      3  C4  UNL d   1       0.629  -0.522   1.354  0.00  0.00     0.002 A 
ATOM      4  C5  UNL d   1      -0.309   0.425   0.929  0.00  0.00    -0.080 A 
ATOM      5  C6  UNL d   1      -0.722   1.558   1.822  0.00  0.00     0.076 C 
ATOM      6  C7  UNL d   1      -0.867   0.304  -0.348  0.00  0.00     0.002 A 
ATOM      7  C8  UNL d   1      -0.511  -0.761  -1.178  0.00  0.00     0.006 A 
ENDROOT
BRANCH   1   8
ATOM      8  C1  UNL d   1       0.747  -2.904  -1.619  0.00  0.00     0.054 C 
ATOM      9  C   UNL d   1      -0.494  -3.444  -2.315  0.00  0.00     0.018 C 
ENDBRANCH   1   8
TORSDOF 1
ENDMDL
