MODEL 1
REMARK minimizedAffinity -5.01355076
REMARK minimizedRMSD -1
REMARK  1 active torsions:
REMARK  status: ('A' for Active; 'I' for Inactive)
REMARK    1  A    between atoms: C1_2  and  C2_3 
ROOT
ATOM      1  C2  UNL d   1       0.667  -0.577  -0.330  0.00  0.00    -0.081 A 
ATOM      2  C3  UNL d   1      -0.162   0.209  -1.141  0.00  0.00     0.006 A 
ATOM      3  C4  UNL d   1      -1.160   1.005  -0.572  0.00  0.00     0.002 A 
ATOM      4  C5  UNL d   1      -1.340   1.035   0.815  0.00  0.00    -0.080 A 
ATOM      5  C6  UNL d   1      -2.387   1.908   1.439  0.00  0.00     0.076 C 
ATOM      6  C7  UNL d   1      -0.523   0.237   1.623  0.00  0.00     0.002 A 
ATOM      7  C8  UNL d   1       0.474  -0.560   1.055  0.00  0.00     0.006 A 
ENDROOT
BRANCH   1   8
ATOM      8  C1  UNL d   1       1.785  -1.386  -0.935  0.00  0.00     0.054 C 
ATOM      9  C   UNL d   1       1.262  -2.671  -1.561  0.00  0.00     0.018 C 
ENDBRANCH   1   8
TORSDOF 1
ENDMDL
