MODEL 1
REMARK minimizedAffinity -4.8465991
REMARK minimizedRMSD -1
REMARK  1 active torsions:
REMARK  status: ('A' for Active; 'I' for Inactive)
REMARK    1  A    between atoms: C1_2  and  C2_3 
ROOT
ATOM      1  C2  UNL d   1       0.496  -1.180   0.023  0.00  0.00    -0.081 A 
ATOM      2  C3  UNL d   1       0.145  -1.337   1.370  0.00  0.00     0.006 A 
ATOM      3  C4  UNL d   1      -0.563  -0.336   2.038  0.00  0.00     0.002 A 
ATOM      4  C5  UNL d   1      -0.939   0.835   1.370  0.00  0.00    -0.080 A 
ATOM      5  C6  UNL d   1      -1.725   1.904   2.068  0.00  0.00     0.076 C 
ATOM      6  C7  UNL d   1      -0.573   0.999   0.030  0.00  0.00     0.002 A 
ATOM      7  C8  UNL d   1       0.135  -0.001  -0.639  0.00  0.00     0.006 A 
ENDROOT
BRANCH   1   8
ATOM      8  C1  UNL d   1       1.203  -2.285  -0.719  0.00  0.00     0.054 C 
ATOM      9  C   UNL d   1       0.453  -2.670  -1.986  0.00  0.00     0.018 C 
ENDBRANCH   1   8
TORSDOF 1
ENDMDL
