MODEL 1
REMARK minimizedAffinity -3.90683818
REMARK minimizedRMSD -1
REMARK  1 active torsions:
REMARK  status: ('A' for Active; 'I' for Inactive)
REMARK    1  A    between atoms: C1_2  and  C2_3 
ROOT
ATOM      1  C2  UNL d   1       0.510  -0.619  -0.567  0.00  0.00    -0.081 A 
ATOM      2  C3  UNL d   1      -0.462  -0.833   0.417  0.00  0.00     0.006 A 
ATOM      3  C4  UNL d   1      -1.092   0.248   1.038  0.00  0.00     0.002 A 
ATOM      4  C5  UNL d   1      -0.766   1.560   0.681  0.00  0.00    -0.080 A 
ATOM      5  C6  UNL d   1      -1.456   2.729   1.318  0.00  0.00     0.076 C 
ATOM      6  C7  UNL d   1       0.218   1.775  -0.290  0.00  0.00     0.002 A 
ATOM      7  C8  UNL d   1       0.849   0.695  -0.911  0.00  0.00     0.006 A 
ENDROOT
BRANCH   1   8
ATOM      8  C1  UNL d   1       1.145  -1.782  -1.285  0.00  0.00     0.054 C 
ATOM      9  C   UNL d   1       0.158  -2.457  -2.227  0.00  0.00     0.018 C 
ENDBRANCH   1   8
TORSDOF 1
ENDMDL
