MODEL 1
REMARK minimizedAffinity -5.74023819
REMARK minimizedRMSD -1
REMARK  1 active torsions:
REMARK  status: ('A' for Active; 'I' for Inactive)
REMARK    1  A    between atoms: C1_2  and  C2_3 
ROOT
ATOM      1  C2  UNL d   1      -0.686   1.881  -0.069  0.00  0.00    -0.081 A 
ATOM      2  C3  UNL d   1       0.194   1.803  -1.155  0.00  0.00     0.006 A 
ATOM      3  C4  UNL d   1       0.906   0.628  -1.407  0.00  0.00     0.002 A 
ATOM      4  C5  UNL d   1       0.745  -0.490  -0.582  0.00  0.00    -0.080 A 
ATOM      5  C6  UNL d   1       1.481  -1.767  -0.859  0.00  0.00     0.076 C 
ATOM      6  C7  UNL d   1      -0.121  -0.407   0.514  0.00  0.00     0.002 A 
ATOM      7  C8  UNL d   1      -0.833   0.768   0.766  0.00  0.00     0.006 A 
ENDROOT
BRANCH   1   8
ATOM      8  C1  UNL d   1      -1.504   3.125   0.168  0.00  0.00     0.054 C 
ATOM      9  C   UNL d   1      -2.451   2.949   1.346  0.00  0.00     0.018 C 
ENDBRANCH   1   8
TORSDOF 1
ENDMDL
