MODEL 1
REMARK minimizedAffinity -3.6153996
REMARK minimizedRMSD -1
REMARK  1 active torsions:
REMARK  status: ('A' for Active; 'I' for Inactive)
REMARK    1  A    between atoms: C1_2  and  C2_3 
ROOT
ATOM      1  C2  UNL d   1      -0.767   2.469   0.226  0.00  0.00    -0.081 A 
ATOM      2  C3  UNL d   1      -1.241   2.255   1.526  0.00  0.00     0.006 A 
ATOM      3  C4  UNL d   1      -1.115   1.002   2.130  0.00  0.00     0.002 A 
ATOM      4  C5  UNL d   1      -0.505  -0.056   1.447  0.00  0.00    -0.080 A 
ATOM      5  C6  UNL d   1      -0.336  -1.398   2.094  0.00  0.00     0.076 C 
ATOM      6  C7  UNL d   1      -0.047   0.152   0.141  0.00  0.00     0.002 A 
ATOM      7  C8  UNL d   1      -0.174   1.405  -0.463  0.00  0.00     0.006 A 
ENDROOT
BRANCH   1   8
ATOM      8  C1  UNL d   1      -0.844   3.836  -0.403  0.00  0.00     0.054 C 
ATOM      9  C   UNL d   1      -0.007   3.909  -1.673  0.00  0.00     0.018 C 
ENDBRANCH   1   8
TORSDOF 1
ENDMDL
