MODEL 1
REMARK minimizedAffinity -4.71614218
REMARK minimizedRMSD -1
REMARK  1 active torsions:
REMARK  status: ('A' for Active; 'I' for Inactive)
REMARK    1  A    between atoms: C1_2  and  C2_3 
ROOT
ATOM      1  C2  UNL d   1       0.643  -0.421  -0.526  0.00  0.00    -0.081 A 
ATOM      2  C3  UNL d   1       0.152  -0.735   0.747  0.00  0.00     0.006 A 
ATOM      3  C4  UNL d   1      -0.850   0.045   1.331  0.00  0.00     0.002 A 
ATOM      4  C5  UNL d   1      -1.381   1.145   0.650  0.00  0.00    -0.080 A 
ATOM      5  C6  UNL d   1      -2.477   1.972   1.253  0.00  0.00     0.076 C 
ATOM      6  C7  UNL d   1      -0.877   1.469  -0.614  0.00  0.00     0.002 A 
ATOM      7  C8  UNL d   1       0.124   0.691  -1.199  0.00  0.00     0.006 A 
ENDROOT
BRANCH   1   8
ATOM      8  C1  UNL d   1       1.677  -1.298  -1.186  0.00  0.00     0.054 C 
ATOM      9  C   UNL d   1       1.025  -2.374  -2.041  0.00  0.00     0.018 C 
ENDBRANCH   1   8
TORSDOF 1
ENDMDL
