MODEL 1
REMARK minimizedAffinity -2.64803457
REMARK minimizedRMSD -1
REMARK  1 active torsions:
REMARK  status: ('A' for Active; 'I' for Inactive)
REMARK    1  A    between atoms: C1_2  and  C2_3 
ROOT
ATOM      1  C2  UNL d   1       0.396  -0.503  -0.077  0.00  0.00    -0.081 A 
ATOM      2  C3  UNL d   1       0.323  -0.324   1.310  0.00  0.00     0.006 A 
ATOM      3  C4  UNL d   1      -0.468   0.692   1.852  0.00  0.00     0.002 A 
ATOM      4  C5  UNL d   1      -1.204   1.540   1.018  0.00  0.00    -0.080 A 
ATOM      5  C6  UNL d   1      -2.080   2.615   1.588  0.00  0.00     0.076 C 
ATOM      6  C7  UNL d   1      -1.117   1.372  -0.369  0.00  0.00     0.002 A 
ATOM      7  C8  UNL d   1      -0.326   0.357  -0.911  0.00  0.00     0.006 A 
ENDROOT
BRANCH   1   8
ATOM      8  C1  UNL d   1       1.197  -1.639  -0.662  0.00  0.00     0.054 C 
ATOM      9  C   UNL d   1       0.547  -2.179  -1.928  0.00  0.00     0.018 C 
ENDBRANCH   1   8
TORSDOF 1
ENDMDL
