MODEL 1
REMARK minimizedAffinity -0.192630216
REMARK minimizedRMSD -1
REMARK  0 active torsions:
REMARK  status: ('A' for Active; 'I' for Inactive)
ROOT
ATOM      1  C   UNL d   1      -1.940  -1.033   1.093  0.00  0.00     0.077 C 
ATOM      2  C1  UNL d   1      -2.265  -1.236  -0.357  0.00  0.00    -0.074 A 
ATOM      3  C2  UNL d   1      -2.042  -2.469  -0.978  0.00  0.00    -0.005 A 
ATOM      4  C3  UNL d   1      -2.359  -2.646  -2.325  0.00  0.00     0.006 A 
ATOM      5  C4  UNL d   1      -2.900  -1.593  -3.064  0.00  0.00    -0.005 A 
ATOM      6  C5  UNL d   1      -3.131  -0.353  -2.460  0.00  0.00    -0.074 A 
ATOM      7  C6  UNL d   1      -3.721   0.786  -3.236  0.00  0.00     0.077 C 
ATOM      8  C7  UNL d   1      -2.817  -0.185  -1.104  0.00  0.00    -0.001 A 
ENDROOT
TORSDOF 0
ENDMDL
