MODEL 1
REMARK minimizedAffinity 4.50931692
REMARK minimizedRMSD -1
REMARK  0 active torsions:
REMARK  status: ('A' for Active; 'I' for Inactive)
ROOT
ATOM      1  C   UNL d   1       2.535  -2.547  -0.036  0.00  0.00     0.077 C 
ATOM      2  C1  UNL d   1       1.885  -1.632   0.959  0.00  0.00    -0.074 A 
ATOM      3  C2  UNL d   1       2.055  -1.828   2.333  0.00  0.00    -0.005 A 
ATOM      4  C3  UNL d   1       1.451  -0.964   3.246  0.00  0.00     0.006 A 
ATOM      5  C4  UNL d   1       0.673   0.104   2.796  0.00  0.00    -0.005 A 
ATOM      6  C5  UNL d   1       0.493   0.315   1.425  0.00  0.00    -0.074 A 
ATOM      7  C6  UNL d   1      -0.332   1.463   0.923  0.00  0.00     0.077 C 
ATOM      8  C7  UNL d   1       1.108  -0.553   0.513  0.00  0.00    -0.001 A 
ENDROOT
TORSDOF 0
ENDMDL
