MODEL 1
REMARK minimizedAffinity 6.39505625
REMARK minimizedRMSD -1
REMARK  0 active torsions:
REMARK  status: ('A' for Active; 'I' for Inactive)
ROOT
ATOM      1  C   UNL d   1       4.103  -2.040   1.734  0.00  0.00     0.077 C 
ATOM      2  C1  UNL d   1       2.990  -1.549   2.612  0.00  0.00    -0.074 A 
ATOM      3  C2  UNL d   1       2.173  -0.488   2.211  0.00  0.00    -0.005 A 
ATOM      4  C3  UNL d   1       1.136  -0.049   3.035  0.00  0.00     0.006 A 
ATOM      5  C4  UNL d   1       0.906  -0.666   4.265  0.00  0.00    -0.005 A 
ATOM      6  C5  UNL d   1       1.713  -1.729   4.682  0.00  0.00    -0.074 A 
ATOM      7  C6  UNL d   1       1.474  -2.410   5.998  0.00  0.00     0.077 C 
ATOM      8  C7  UNL d   1       2.748  -2.169   3.847  0.00  0.00    -0.001 A 
ENDROOT
TORSDOF 0
ENDMDL
