MODEL 1
REMARK minimizedAffinity -1.97608531
REMARK minimizedRMSD -1
REMARK  0 active torsions:
REMARK  status: ('A' for Active; 'I' for Inactive)
ROOT
ATOM      1  C   UNL d   1      -2.018  -4.765  -2.532  0.00  0.00     0.077 C 
ATOM      2  C1  UNL d   1      -2.433  -3.481  -1.879  0.00  0.00    -0.074 A 
ATOM      3  C2  UNL d   1      -2.729  -3.432  -0.513  0.00  0.00    -0.005 A 
ATOM      4  C3  UNL d   1      -3.105  -2.228   0.083  0.00  0.00     0.006 A 
ATOM      5  C4  UNL d   1      -3.189  -1.063  -0.680  0.00  0.00    -0.005 A 
ATOM      6  C5  UNL d   1      -2.897  -1.092  -2.047  0.00  0.00    -0.074 A 
ATOM      7  C6  UNL d   1      -2.973   0.153  -2.880  0.00  0.00     0.077 C 
ATOM      8  C7  UNL d   1      -2.513  -2.304  -2.637  0.00  0.00    -0.001 A 
ENDROOT
TORSDOF 0
ENDMDL
