MODEL 1
REMARK minimizedAffinity 7.99356127
REMARK minimizedRMSD -1
REMARK  0 active torsions:
REMARK  status: ('A' for Active; 'I' for Inactive)
ROOT
ATOM      1  C   UNL d   1      -3.019  -2.266   0.303  0.00  0.00     0.077 C 
ATOM      2  C1  UNL d   1      -2.097  -1.089   0.416  0.00  0.00    -0.074 A 
ATOM      3  C2  UNL d   1      -2.364   0.102  -0.267  0.00  0.00    -0.005 A 
ATOM      4  C3  UNL d   1      -1.502   1.192  -0.145  0.00  0.00     0.006 A 
ATOM      5  C4  UNL d   1      -0.366   1.102   0.660  0.00  0.00    -0.005 A 
ATOM      6  C5  UNL d   1      -0.082  -0.081   1.351  0.00  0.00    -0.074 A 
ATOM      7  C6  UNL d   1       1.129  -0.191   2.228  0.00  0.00     0.077 C 
ATOM      8  C7  UNL d   1      -0.957  -1.169   1.229  0.00  0.00    -0.001 A 
ENDROOT
TORSDOF 0
ENDMDL
