MODEL 1
REMARK minimizedAffinity -0.283398241
REMARK minimizedRMSD -1
REMARK  0 active torsions:
REMARK  status: ('A' for Active; 'I' for Inactive)
ROOT
ATOM      1  C   UNL d   1      -6.000  -2.824  -1.872  0.00  0.00     0.077 C 
ATOM      2  C1  UNL d   1      -4.580  -2.745  -1.396  0.00  0.00    -0.074 A 
ATOM      3  C2  UNL d   1      -3.735  -3.857  -1.464  0.00  0.00    -0.005 A 
ATOM      4  C3  UNL d   1      -2.414  -3.765  -1.026  0.00  0.00     0.006 A 
ATOM      5  C4  UNL d   1      -1.925  -2.562  -0.515  0.00  0.00    -0.005 A 
ATOM      6  C5  UNL d   1      -2.755  -1.439  -0.440  0.00  0.00    -0.074 A 
ATOM      7  C6  UNL d   1      -2.243  -0.136   0.097  0.00  0.00     0.077 C 
ATOM      8  C7  UNL d   1      -4.079  -1.537  -0.889  0.00  0.00    -0.001 A 
ENDROOT
TORSDOF 0
ENDMDL
