MODEL 1
REMARK minimizedAffinity 6.61357355
REMARK minimizedRMSD -1
REMARK  0 active torsions:
REMARK  status: ('A' for Active; 'I' for Inactive)
ROOT
ATOM      1  C   UNL d   1      -3.824   6.000  -3.375  0.00  0.00     0.077 C 
ATOM      2  C1  UNL d   1      -3.809   4.608  -3.933  0.00  0.00    -0.074 A 
ATOM      3  C2  UNL d   1      -3.788   4.386  -5.314  0.00  0.00    -0.005 A 
ATOM      4  C3  UNL d   1      -3.764   3.086  -5.817  0.00  0.00     0.006 A 
ATOM      5  C4  UNL d   1      -3.761   1.995  -4.947  0.00  0.00    -0.005 A 
ATOM      6  C5  UNL d   1      -3.781   2.197  -3.563  0.00  0.00    -0.074 A 
ATOM      7  C6  UNL d   1      -3.768   1.036  -2.614  0.00  0.00     0.077 C 
ATOM      8  C7  UNL d   1      -3.798   3.507  -3.065  0.00  0.00    -0.001 A 
ENDROOT
TORSDOF 0
ENDMDL
