MODEL 1
REMARK minimizedAffinity -3.36569881
REMARK minimizedRMSD -1
REMARK  0 active torsions:
REMARK  status: ('A' for Active; 'I' for Inactive)
ROOT
ATOM      1  C2' OXE d   1      -1.038  -1.705   2.839  0.00  0.00     0.078 C 
ATOM      2  C1' OXE d   1       1.574  -0.676   2.842  0.00  0.00     0.078 C 
ATOM      3  C1  OXE d   1       0.727  -0.443   1.616  0.00  0.00    -0.078 A 
ATOM      4  C2  OXE d   1      -0.533  -0.990   1.604  0.00  0.00    -0.078 A 
ATOM      5  C3  OXE d   1      -1.376  -0.758   0.520  0.00  0.00     0.003 A 
ATOM      6  C4  OXE d   1      -0.898  -0.104  -0.622  0.00  0.00    -0.002 A 
ATOM      7  C5  OXE d   1       0.396   0.427  -0.646  0.00  0.00    -0.002 A 
ATOM      8  C6  OXE d   1       1.205   0.303   0.478  0.00  0.00     0.003 A 
ENDROOT
TORSDOF 0
ENDMDL
