MODEL 1
REMARK minimizedAffinity -2.04948497
REMARK minimizedRMSD -1
REMARK  0 active torsions:
REMARK  status: ('A' for Active; 'I' for Inactive)
ROOT
ATOM      1  C2' OXE d   1       1.383  -1.326   3.688  0.00  0.00     0.078 C 
ATOM      2  C1' OXE d   1      -0.432  -3.371   3.053  0.00  0.00     0.078 C 
ATOM      3  C1  OXE d   1      -0.543  -2.071   2.295  0.00  0.00    -0.078 A 
ATOM      4  C2  OXE d   1       0.319  -1.060   2.645  0.00  0.00    -0.078 A 
ATOM      5  C3  OXE d   1       0.296   0.140   1.941  0.00  0.00     0.003 A 
ATOM      6  C4  OXE d   1      -0.698   0.382   0.984  0.00  0.00    -0.002 A 
ATOM      7  C5  OXE d   1      -1.611  -0.621   0.641  0.00  0.00    -0.002 A 
ATOM      8  C6  OXE d   1      -1.521  -1.865   1.255  0.00  0.00     0.003 A 
ENDROOT
TORSDOF 0
ENDMDL
