MODEL 1
REMARK minimizedAffinity 1.61349154
REMARK minimizedRMSD -1
REMARK  0 active torsions:
REMARK  status: ('A' for Active; 'I' for Inactive)
ROOT
ATOM      1  C2' OXE d   1       1.273  -0.423   0.472  0.00  0.00     0.078 C 
ATOM      2  C1' OXE d   1      -1.458  -1.065   0.388  0.00  0.00     0.078 C 
ATOM      3  C1  OXE d   1      -0.992   0.130  -0.405  0.00  0.00    -0.078 A 
ATOM      4  C2  OXE d   1       0.338   0.465  -0.321  0.00  0.00    -0.078 A 
ATOM      5  C3  OXE d   1       0.831   1.526  -1.076  0.00  0.00     0.003 A 
ATOM      6  C4  OXE d   1      -0.042   2.348  -1.798  0.00  0.00    -0.002 A 
ATOM      7  C5  OXE d   1      -1.407   2.048  -1.865  0.00  0.00    -0.002 A 
ATOM      8  C6  OXE d   1      -1.890   0.921  -1.210  0.00  0.00     0.003 A 
ENDROOT
TORSDOF 0
ENDMDL
