MODEL 1
REMARK minimizedAffinity -4.36706924
REMARK minimizedRMSD -1
REMARK  0 active torsions:
REMARK  status: ('A' for Active; 'I' for Inactive)
ROOT
ATOM      1  C2' OXE d   1      -1.349   0.022   1.277  0.00  0.00     0.078 C 
ATOM      2  C1' OXE d   1       0.330   0.035  -0.972  0.00  0.00     0.078 C 
ATOM      3  C1  OXE d   1       0.855  -0.595   0.294  0.00  0.00    -0.078 A 
ATOM      4  C2  OXE d   1       0.044  -0.556   1.403  0.00  0.00    -0.078 A 
ATOM      5  C3  OXE d   1       0.458  -1.171   2.581  0.00  0.00     0.003 A 
ATOM      6  C4  OXE d   1       1.752  -1.694   2.691  0.00  0.00    -0.002 A 
ATOM      7  C5  OXE d   1       2.608  -1.709   1.585  0.00  0.00    -0.002 A 
ATOM      8  C6  OXE d   1       2.160  -1.203   0.370  0.00  0.00     0.003 A 
ENDROOT
TORSDOF 0
ENDMDL
