MODEL 1
REMARK minimizedAffinity -5.2159338
REMARK minimizedRMSD -1
REMARK  0 active torsions:
REMARK  status: ('A' for Active; 'I' for Inactive)
ROOT
ATOM      1  C2' OXE d   1       3.050  -1.867  -0.198  0.00  0.00     0.078 C 
ATOM      2  C1' OXE d   1       0.867  -0.243  -0.887  0.00  0.00     0.078 C 
ATOM      3  C1  OXE d   1       1.023  -0.634   0.561  0.00  0.00    -0.078 A 
ATOM      4  C2  OXE d   1       2.068  -1.468   0.882  0.00  0.00    -0.078 A 
ATOM      5  C3  OXE d   1       2.289  -1.815   2.211  0.00  0.00     0.003 A 
ATOM      6  C4  OXE d   1       1.370  -1.449   3.202  0.00  0.00    -0.002 A 
ATOM      7  C5  OXE d   1       0.277  -0.634   2.890  0.00  0.00    -0.002 A 
ATOM      8  C6  OXE d   1       0.113  -0.183   1.585  0.00  0.00     0.003 A 
ENDROOT
TORSDOF 0
ENDMDL
