MODEL 1
REMARK minimizedAffinity 0.187417269
REMARK minimizedRMSD -1
REMARK  0 active torsions:
REMARK  status: ('A' for Active; 'I' for Inactive)
ROOT
ATOM      1  C2' OXE d   1      -0.329   1.535  -1.661  0.00  0.00     0.078 C 
ATOM      2  C1' OXE d   1       0.882  -0.993  -1.507  0.00  0.00     0.078 C 
ATOM      3  C1  OXE d   1       0.182  -0.472  -0.276  0.00  0.00    -0.078 A 
ATOM      4  C2  OXE d   1      -0.367   0.786  -0.347  0.00  0.00    -0.078 A 
ATOM      5  C3  OXE d   1      -1.071   1.292   0.742  0.00  0.00     0.003 A 
ATOM      6  C4  OXE d   1      -1.093   0.597   1.958  0.00  0.00    -0.002 A 
ATOM      7  C5  OXE d   1      -0.505  -0.668   2.062  0.00  0.00    -0.002 A 
ATOM      8  C6  OXE d   1       0.098  -1.234   0.945  0.00  0.00     0.003 A 
ENDROOT
TORSDOF 0
ENDMDL
