MODEL 1
REMARK minimizedAffinity -4.73969173
REMARK minimizedRMSD -1
REMARK  0 active torsions:
REMARK  status: ('A' for Active; 'I' for Inactive)
ROOT
ATOM      1  C2' OXE d   1       0.327  -0.842  -1.512  0.00  0.00     0.078 C 
ATOM      2  C1' OXE d   1       2.438  -2.269  -0.335  0.00  0.00     0.078 C 
ATOM      3  C1  OXE d   1       1.516  -1.498   0.576  0.00  0.00    -0.078 A 
ATOM      4  C2  OXE d   1       0.514  -0.765  -0.012  0.00  0.00    -0.078 A 
ATOM      5  C3  OXE d   1      -0.398  -0.079   0.785  0.00  0.00     0.003 A 
ATOM      6  C4  OXE d   1      -0.212  -0.004   2.171  0.00  0.00    -0.002 A 
ATOM      7  C5  OXE d   1       0.826  -0.711   2.787  0.00  0.00    -0.002 A 
ATOM      8  C6  OXE d   1       1.671  -1.495   2.010  0.00  0.00     0.003 A 
ENDROOT
TORSDOF 0
ENDMDL
