MODEL 1
REMARK minimizedAffinity -3.86686778
REMARK minimizedRMSD -1
REMARK  0 active torsions:
REMARK  status: ('A' for Active; 'I' for Inactive)
ROOT
ATOM      1  C2' OXE d   1       1.806  -1.468  -0.216  0.00  0.00     0.078 C 
ATOM      2  C1' OXE d   1       0.695  -1.256   2.354  0.00  0.00     0.078 C 
ATOM      3  C1  OXE d   1      -0.022  -0.569   1.218  0.00  0.00    -0.078 A 
ATOM      4  C2  OXE d   1       0.554  -0.639  -0.027  0.00  0.00    -0.078 A 
ATOM      5  C3  OXE d   1      -0.095  -0.069  -1.119  0.00  0.00     0.003 A 
ATOM      6  C4  OXE d   1      -1.247   0.704  -0.935  0.00  0.00    -0.002 A 
ATOM      7  C5  OXE d   1      -1.829   0.821   0.332  0.00  0.00    -0.002 A 
ATOM      8  C6  OXE d   1      -1.253   0.157   1.410  0.00  0.00     0.003 A 
ENDROOT
TORSDOF 0
ENDMDL
