MODEL 1
REMARK minimizedAffinity -2.61425924
REMARK minimizedRMSD -1
REMARK  0 active torsions:
REMARK  status: ('A' for Active; 'I' for Inactive)
ROOT
ATOM      1  C2' OXE d   1      -1.267  -0.013   1.900  0.00  0.00     0.078 C 
ATOM      2  C1' OXE d   1      -0.535   0.493  -0.762  0.00  0.00     0.078 C 
ATOM      3  C1  OXE d   1       0.292  -0.498   0.019  0.00  0.00    -0.078 A 
ATOM      4  C2  OXE d   1      -0.045  -0.705   1.335  0.00  0.00    -0.078 A 
ATOM      5  C3  OXE d   1       0.650  -1.649   2.084  0.00  0.00     0.003 A 
ATOM      6  C4  OXE d   1       1.785  -2.277   1.557  0.00  0.00    -0.002 A 
ATOM      7  C5  OXE d   1       2.169  -2.051   0.231  0.00  0.00    -0.002 A 
ATOM      8  C6  OXE d   1       1.410  -1.199  -0.563  0.00  0.00     0.003 A 
ENDROOT
TORSDOF 0
ENDMDL
