MODEL 1
REMARK minimizedAffinity 0.581388295
REMARK minimizedRMSD -1
REMARK  0 active torsions:
REMARK  status: ('A' for Active; 'I' for Inactive)
ROOT
ATOM      1  C2' OXE d   1      -0.805   0.811  -0.791  0.00  0.00     0.078 C 
ATOM      2  C1' OXE d   1       0.727  -1.541  -0.798  0.00  0.00     0.078 C 
ATOM      3  C1  OXE d   1       0.069  -1.134   0.497  0.00  0.00    -0.078 A 
ATOM      4  C2  OXE d   1      -0.640   0.043   0.503  0.00  0.00    -0.078 A 
ATOM      5  C3  OXE d   1      -1.312   0.437   1.656  0.00  0.00     0.003 A 
ATOM      6  C4  OXE d   1      -1.146  -0.273   2.851  0.00  0.00    -0.002 A 
ATOM      7  C5  OXE d   1      -0.395  -1.453   2.877  0.00  0.00    -0.002 A 
ATOM      8  C6  OXE d   1       0.183  -1.919   1.701  0.00  0.00     0.003 A 
ENDROOT
TORSDOF 0
ENDMDL
