MODEL 1
REMARK minimizedAffinity -3.10878658
REMARK minimizedRMSD -1
REMARK  1 active torsions:
REMARK  status: ('A' for Active; 'I' for Inactive)
REMARK    1  A    between atoms: C1_2  and  C2_3 
ROOT
ATOM      1  C2  UNL d   1       1.716   0.613   0.191  0.00  0.00    -0.081 A 
ATOM      2  C3  UNL d   1       2.127  -0.557   0.841  0.00  0.00     0.006 A 
ATOM      3  C4  UNL d   1       1.196  -1.539   1.187  0.00  0.00     0.002 A 
ATOM      4  C5  UNL d   1      -0.159  -1.371   0.884  0.00  0.00    -0.080 A 
ATOM      5  C6  UNL d   1      -1.165  -2.431   1.223  0.00  0.00     0.076 C 
ATOM      6  C7  UNL d   1      -0.573  -0.194   0.250  0.00  0.00     0.002 A 
ATOM      7  C8  UNL d   1       0.358   0.788  -0.096  0.00  0.00     0.006 A 
ENDROOT
BRANCH   1   8
ATOM      8  C1  UNL d   1       2.726   1.645  -0.241  0.00  0.00     0.054 C 
ATOM      9  C   UNL d   1       2.661   2.886   0.637  0.00  0.00     0.018 C 
ENDBRANCH   1   8
TORSDOF 1
ENDMDL
