MODEL 1
REMARK minimizedAffinity -3.7934885
REMARK minimizedRMSD -1
REMARK  1 active torsions:
REMARK  status: ('A' for Active; 'I' for Inactive)
REMARK    1  A    between atoms: C1_2  and  C2_3 
ROOT
ATOM      1  C2  UNL d   1       1.736   1.498   0.624  0.00  0.00    -0.081 A 
ATOM      2  C3  UNL d   1       0.529   1.937   1.181  0.00  0.00     0.006 A 
ATOM      3  C4  UNL d   1      -0.596   1.108   1.177  0.00  0.00     0.002 A 
ATOM      4  C5  UNL d   1      -0.529  -0.175   0.623  0.00  0.00    -0.080 A 
ATOM      5  C6  UNL d   1      -1.720  -1.086   0.639  0.00  0.00     0.076 C 
ATOM      6  C7  UNL d   1       0.672  -0.607   0.051  0.00  0.00     0.002 A 
ATOM      7  C8  UNL d   1       1.797   0.222   0.055  0.00  0.00     0.006 A 
ENDROOT
BRANCH   1   8
ATOM      8  C1  UNL d   1       2.968   2.365   0.686  0.00  0.00     0.054 C 
ATOM      9  C   UNL d   1       3.156   2.962   2.073  0.00  0.00     0.018 C 
ENDBRANCH   1   8
TORSDOF 1
ENDMDL
