MODEL 1
REMARK minimizedAffinity -4.89888668
REMARK minimizedRMSD -1
REMARK  1 active torsions:
REMARK  status: ('A' for Active; 'I' for Inactive)
REMARK    1  A    between atoms: C1_2  and  C2_3 
ROOT
ATOM      1  C2  UNL d   1      -1.789  -1.881   0.253  0.00  0.00    -0.081 A 
ATOM      2  C3  UNL d   1      -2.687  -1.518  -0.758  0.00  0.00     0.006 A 
ATOM      3  C4  UNL d   1      -2.402  -0.446  -1.607  0.00  0.00     0.002 A 
ATOM      4  C5  UNL d   1      -1.212   0.276  -1.464  0.00  0.00    -0.080 A 
ATOM      5  C6  UNL d   1      -0.880   1.409  -2.388  0.00  0.00     0.076 C 
ATOM      6  C7  UNL d   1      -0.323  -0.075  -0.442  0.00  0.00     0.002 A 
ATOM      7  C8  UNL d   1      -0.608  -1.147   0.407  0.00  0.00     0.006 A 
ENDROOT
BRANCH   1   8
ATOM      8  C1  UNL d   1      -2.063  -3.077   1.129  0.00  0.00     0.054 C 
ATOM      9  C   UNL d   1      -1.109  -3.125   2.314  0.00  0.00     0.018 C 
ENDBRANCH   1   8
TORSDOF 1
ENDMDL
