MODEL 1
REMARK minimizedAffinity -5.12600136
REMARK minimizedRMSD -1
REMARK  1 active torsions:
REMARK  status: ('A' for Active; 'I' for Inactive)
REMARK    1  A    between atoms: C1_2  and  C2_3 
ROOT
ATOM      1  C2  UNL d   1      -1.472  -0.455  -0.191  0.00  0.00    -0.081 A 
ATOM      2  C3  UNL d   1      -1.458   0.204   1.044  0.00  0.00     0.006 A 
ATOM      3  C4  UNL d   1      -0.435   1.103   1.356  0.00  0.00     0.002 A 
ATOM      4  C5  UNL d   1       0.586   1.363   0.435  0.00  0.00    -0.080 A 
ATOM      5  C6  UNL d   1       1.674   2.348   0.745  0.00  0.00     0.076 C 
ATOM      6  C7  UNL d   1       0.582   0.691  -0.792  0.00  0.00     0.002 A 
ATOM      7  C8  UNL d   1      -0.440  -0.208  -1.104  0.00  0.00     0.006 A 
ENDROOT
BRANCH   1   8
ATOM      8  C1  UNL d   1      -2.608  -1.376  -0.556  0.00  0.00     0.054 C 
ATOM      9  C   UNL d   1      -3.100  -2.155   0.656  0.00  0.00     0.018 C 
ENDBRANCH   1   8
TORSDOF 1
ENDMDL
