MODEL 1
REMARK minimizedAffinity -3.71569276
REMARK minimizedRMSD -1
REMARK  1 active torsions:
REMARK  status: ('A' for Active; 'I' for Inactive)
REMARK    1  A    between atoms: C1_2  and  C2_3 
ROOT
ATOM      1  C2  UNL d   1       0.823   0.390   0.195  0.00  0.00    -0.081 A 
ATOM      2  C3  UNL d   1       0.388  -0.864   0.641  0.00  0.00     0.006 A 
ATOM      3  C4  UNL d   1      -0.836  -1.384   0.211  0.00  0.00     0.002 A 
ATOM      4  C5  UNL d   1      -1.641  -0.662  -0.677  0.00  0.00    -0.080 A 
ATOM      5  C6  UNL d   1      -2.943  -1.221  -1.169  0.00  0.00     0.076 C 
ATOM      6  C7  UNL d   1      -1.215   0.599  -1.109  0.00  0.00     0.002 A 
ATOM      7  C8  UNL d   1       0.008   1.119  -0.679  0.00  0.00     0.006 A 
ENDROOT
BRANCH   1   8
ATOM      8  C1  UNL d   1       2.171   0.924   0.605  0.00  0.00     0.054 C 
ATOM      9  C   UNL d   1       2.033   2.095   1.567  0.00  0.00     0.018 C 
ENDBRANCH   1   8
TORSDOF 1
ENDMDL
