MODEL 1
REMARK minimizedAffinity -3.52156377
REMARK minimizedRMSD -1
REMARK  1 active torsions:
REMARK  status: ('A' for Active; 'I' for Inactive)
REMARK    1  A    between atoms: C1_2  and  C2_3 
ROOT
ATOM      1  C2  UNL d   1       0.776   0.311   0.003  0.00  0.00    -0.081 A 
ATOM      2  C3  UNL d   1       0.168  -0.260   1.127  0.00  0.00     0.006 A 
ATOM      3  C4  UNL d   1      -1.202  -0.528   1.132  0.00  0.00     0.002 A 
ATOM      4  C5  UNL d   1      -1.986  -0.238   0.010  0.00  0.00    -0.080 A 
ATOM      5  C6  UNL d   1      -3.453  -0.550  -0.010  0.00  0.00     0.076 C 
ATOM      6  C7  UNL d   1      -1.382   0.348  -1.108  0.00  0.00     0.002 A 
ATOM      7  C8  UNL d   1      -0.011   0.618  -1.112  0.00  0.00     0.006 A 
ENDROOT
BRANCH   1   8
ATOM      8  C1  UNL d   1       2.266   0.542  -0.029  0.00  0.00     0.054 C 
ATOM      9  C   UNL d   1       2.610   1.983   0.322  0.00  0.00     0.018 C 
ENDBRANCH   1   8
TORSDOF 1
ENDMDL
