MODEL 1
REMARK minimizedAffinity -4.91045475
REMARK minimizedRMSD -1
REMARK  1 active torsions:
REMARK  status: ('A' for Active; 'I' for Inactive)
REMARK    1  A    between atoms: C1_2  and  C2_3 
ROOT
ATOM      1  C2  UNL d   1       0.702   0.168   0.814  0.00  0.00    -0.081 A 
ATOM      2  C3  UNL d   1       0.331  -1.149   1.111  0.00  0.00     0.006 A 
ATOM      3  C4  UNL d   1      -0.972  -1.590   0.867  0.00  0.00     0.002 A 
ATOM      4  C5  UNL d   1      -1.922  -0.724   0.316  0.00  0.00    -0.080 A 
ATOM      5  C6  UNL d   1      -3.316  -1.193   0.021  0.00  0.00     0.076 C 
ATOM      6  C7  UNL d   1      -1.556   0.597   0.035  0.00  0.00     0.002 A 
ATOM      7  C8  UNL d   1      -0.254   1.038   0.280  0.00  0.00     0.006 A 
ENDROOT
BRANCH   1   8
ATOM      8  C1  UNL d   1       2.124   0.627   1.016  0.00  0.00     0.054 C 
ATOM      9  C   UNL d   1       2.174   2.012   1.646  0.00  0.00     0.018 C 
ENDBRANCH   1   8
TORSDOF 1
ENDMDL
