MODEL 1
REMARK minimizedAffinity -4.49051666
REMARK minimizedRMSD -1
REMARK  1 active torsions:
REMARK  status: ('A' for Active; 'I' for Inactive)
REMARK    1  A    between atoms: C1_2  and  C2_3 
ROOT
ATOM      1  C2  UNL d   1       1.225   0.508  -0.002  0.00  0.00    -0.081 A 
ATOM      2  C3  UNL d   1       0.547   0.962  -1.139  0.00  0.00     0.006 A 
ATOM      3  C4  UNL d   1      -0.738   0.497  -1.431  0.00  0.00     0.002 A 
ATOM      4  C5  UNL d   1      -1.368  -0.423  -0.586  0.00  0.00    -0.080 A 
ATOM      5  C6  UNL d   1      -2.759  -0.907  -0.871  0.00  0.00     0.076 C 
ATOM      6  C7  UNL d   1      -0.684  -0.890   0.541  0.00  0.00     0.002 A 
ATOM      7  C8  UNL d   1       0.601  -0.426   0.832  0.00  0.00     0.006 A 
ENDROOT
BRANCH   1   8
ATOM      8  C1  UNL d   1       2.584   1.056   0.350  0.00  0.00     0.054 C 
ATOM      9  C   UNL d   1       2.520   1.947   1.583  0.00  0.00     0.018 C 
ENDBRANCH   1   8
TORSDOF 1
ENDMDL
