MODEL 1
REMARK minimizedAffinity -1.99995685
REMARK minimizedRMSD -1
REMARK  1 active torsions:
REMARK  status: ('A' for Active; 'I' for Inactive)
REMARK    1  A    between atoms: C1_2  and  C2_3 
ROOT
ATOM      1  C2  UNL d   1       0.874   0.498   0.671  0.00  0.00    -0.081 A 
ATOM      2  C3  UNL d   1       0.510   0.958  -0.600  0.00  0.00     0.006 A 
ATOM      3  C4  UNL d   1      -0.579   0.397  -1.272  0.00  0.00     0.002 A 
ATOM      4  C5  UNL d   1      -1.326  -0.627  -0.680  0.00  0.00    -0.080 A 
ATOM      5  C6  UNL d   1      -2.516  -1.218  -1.377  0.00  0.00     0.076 C 
ATOM      6  C7  UNL d   1      -0.952  -1.099   0.583  0.00  0.00     0.002 A 
ATOM      7  C8  UNL d   1       0.137  -0.538   1.254  0.00  0.00     0.006 A 
ENDROOT
BRANCH   1   8
ATOM      8  C1  UNL d   1       2.008   1.146   1.425  0.00  0.00     0.054 C 
ATOM      9  C   UNL d   1       2.666   2.243   0.600  0.00  0.00     0.018 C 
ENDBRANCH   1   8
TORSDOF 1
ENDMDL
