MODEL 1
REMARK minimizedAffinity -3.84422112
REMARK minimizedRMSD -1
REMARK  1 active torsions:
REMARK  status: ('A' for Active; 'I' for Inactive)
REMARK    1  A    between atoms: C1_2  and  C2_3 
ROOT
ATOM      1  C2  UNL d   1      -0.340  -0.017   0.357  0.00  0.00    -0.081 A 
ATOM      2  C3  UNL d   1      -1.518   0.252  -0.351  0.00  0.00     0.006 A 
ATOM      3  C4  UNL d   1      -2.579  -0.657  -0.330  0.00  0.00     0.002 A 
ATOM      4  C5  UNL d   1      -2.483  -1.843   0.404  0.00  0.00    -0.080 A 
ATOM      5  C6  UNL d   1      -3.627  -2.813   0.460  0.00  0.00     0.076 C 
ATOM      6  C7  UNL d   1      -1.300  -2.120   1.097  0.00  0.00     0.002 A 
ATOM      7  C8  UNL d   1      -0.238  -1.213   1.076  0.00  0.00     0.006 A 
ENDROOT
BRANCH   1   8
ATOM      8  C1  UNL d   1       0.782   0.990   0.389  0.00  0.00     0.054 C 
ATOM      9  C   UNL d   1       2.137   0.313   0.245  0.00  0.00     0.018 C 
ENDBRANCH   1   8
TORSDOF 1
ENDMDL
