MODEL 1
REMARK minimizedAffinity -5.10842752
REMARK minimizedRMSD -1
REMARK  1 active torsions:
REMARK  status: ('A' for Active; 'I' for Inactive)
REMARK    1  A    between atoms: C1_2  and  C2_3 
ROOT
ATOM      1  C2  UNL d   1      -1.278  -1.114   0.685  0.00  0.00    -0.081 A 
ATOM      2  C3  UNL d   1      -2.194  -1.067  -0.373  0.00  0.00     0.006 A 
ATOM      3  C4  UNL d   1      -1.921  -0.305  -1.511  0.00  0.00     0.002 A 
ATOM      4  C5  UNL d   1      -0.727   0.417  -1.614  0.00  0.00    -0.080 A 
ATOM      5  C6  UNL d   1      -0.409   1.215  -2.843  0.00  0.00     0.076 C 
ATOM      6  C7  UNL d   1       0.180   0.384  -0.549  0.00  0.00     0.002 A 
ATOM      7  C8  UNL d   1      -0.092  -0.378   0.590  0.00  0.00     0.006 A 
ENDROOT
BRANCH   1   8
ATOM      8  C1  UNL d   1      -1.539  -1.987   1.886  0.00  0.00     0.054 C 
ATOM      9  C   UNL d   1      -2.318  -3.237   1.503  0.00  0.00     0.018 C 
ENDBRANCH   1   8
TORSDOF 1
ENDMDL
