MODEL 1
REMARK minimizedAffinity -3.44240427
REMARK minimizedRMSD -1
REMARK  0 active torsions:
REMARK  status: ('A' for Active; 'I' for Inactive)
ROOT
ATOM      1  C2' OXE d   1       2.129   0.672   0.385  0.00  0.00     0.078 C 
ATOM      2  C1' OXE d   1      -0.567   0.559  -0.387  0.00  0.00     0.078 C 
ATOM      3  C1  OXE d   1       0.071  -0.707   0.128  0.00  0.00    -0.078 A 
ATOM      4  C2  OXE d   1       1.404  -0.654   0.460  0.00  0.00    -0.078 A 
ATOM      5  C3  OXE d   1       2.027  -1.779   0.991  0.00  0.00     0.003 A 
ATOM      6  C4  OXE d   1       1.351  -3.004   1.047  0.00  0.00    -0.002 A 
ATOM      7  C5  OXE d   1       0.005  -3.089   0.677  0.00  0.00    -0.002 A 
ATOM      8  C6  OXE d   1      -0.660  -1.943   0.256  0.00  0.00     0.003 A 
ENDROOT
TORSDOF 0
ENDMDL
