MODEL 1
REMARK minimizedAffinity -4.28776121
REMARK minimizedRMSD -1
REMARK  0 active torsions:
REMARK  status: ('A' for Active; 'I' for Inactive)
ROOT
ATOM      1  C2' OXE d   1       0.194  -1.167   0.756  0.00  0.00     0.078 C 
ATOM      2  C1' OXE d   1       1.628   0.554  -0.936  0.00  0.00     0.078 C 
ATOM      3  C1  OXE d   1       0.121   0.608  -0.990  0.00  0.00    -0.078 A 
ATOM      4  C2  OXE d   1      -0.572  -0.271  -0.192  0.00  0.00    -0.078 A 
ATOM      5  C3  OXE d   1      -1.963  -0.225  -0.163  0.00  0.00     0.003 A 
ATOM      6  C4  OXE d   1      -2.664   0.601  -1.050  0.00  0.00    -0.002 A 
ATOM      7  C5  OXE d   1      -1.977   1.475  -1.900  0.00  0.00    -0.002 A 
ATOM      8  C6  OXE d   1      -0.588   1.521  -1.851  0.00  0.00     0.003 A 
ENDROOT
TORSDOF 0
ENDMDL
