MODEL 1
REMARK minimizedAffinity -3.50716496
REMARK minimizedRMSD -1
REMARK  0 active torsions:
REMARK  status: ('A' for Active; 'I' for Inactive)
ROOT
ATOM      1  C2' OXE d   1      -0.294   0.674  -0.830  0.00  0.00     0.078 C 
ATOM      2  C1' OXE d   1       2.470   0.317  -1.162  0.00  0.00     0.078 C 
ATOM      3  C1  OXE d   1       1.740  -0.646  -0.260  0.00  0.00    -0.078 A 
ATOM      4  C2  OXE d   1       0.396  -0.436  -0.067  0.00  0.00    -0.078 A 
ATOM      5  C3  OXE d   1      -0.336  -1.328   0.712  0.00  0.00     0.003 A 
ATOM      6  C4  OXE d   1       0.311  -2.346   1.422  0.00  0.00    -0.002 A 
ATOM      7  C5  OXE d   1       1.686  -2.553   1.271  0.00  0.00    -0.002 A 
ATOM      8  C6  OXE d   1       2.406  -1.740   0.402  0.00  0.00     0.003 A 
ENDROOT
TORSDOF 0
ENDMDL
