MODEL 1
REMARK minimizedAffinity -4.35089636
REMARK minimizedRMSD -1
REMARK  0 active torsions:
REMARK  status: ('A' for Active; 'I' for Inactive)
ROOT
ATOM      1  C2' OXE d   1       2.905  -0.930  -0.608  0.00  0.00     0.078 C 
ATOM      2  C1' OXE d   1       1.008   1.036   0.038  0.00  0.00     0.078 C 
ATOM      3  C1  OXE d   1       0.718  -0.385   0.452  0.00  0.00    -0.078 A 
ATOM      4  C2  OXE d   1       1.630  -1.348   0.091  0.00  0.00    -0.078 A 
ATOM      5  C3  OXE d   1       1.437  -2.666   0.496  0.00  0.00     0.003 A 
ATOM      6  C4  OXE d   1       0.250  -3.045   1.134  0.00  0.00    -0.002 A 
ATOM      7  C5  OXE d   1      -0.710  -2.086   1.476  0.00  0.00    -0.002 A 
ATOM      8  C6  OXE d   1      -0.472  -0.749   1.181  0.00  0.00     0.003 A 
ENDROOT
TORSDOF 0
ENDMDL
