MODEL 1
REMARK minimizedAffinity -2.54340577
REMARK minimizedRMSD -1
REMARK  0 active torsions:
REMARK  status: ('A' for Active; 'I' for Inactive)
ROOT
ATOM      1  C2' OXE d   1      -0.577  -0.784  -0.360  0.00  0.00     0.078 C 
ATOM      2  C1' OXE d   1      -0.338   1.945   0.253  0.00  0.00     0.078 C 
ATOM      3  C1  OXE d   1      -1.022   1.571  -1.038  0.00  0.00    -0.078 A 
ATOM      4  C2  OXE d   1      -1.093   0.236  -1.353  0.00  0.00    -0.078 A 
ATOM      5  C3  OXE d   1      -1.762  -0.166  -2.505  0.00  0.00     0.003 A 
ATOM      6  C4  OXE d   1      -2.227   0.783  -3.423  0.00  0.00    -0.002 A 
ATOM      7  C5  OXE d   1      -2.129   2.150  -3.141  0.00  0.00    -0.002 A 
ATOM      8  C6  OXE d   1      -1.569   2.559  -1.936  0.00  0.00     0.003 A 
ENDROOT
TORSDOF 0
ENDMDL
