MODEL 1
REMARK minimizedAffinity -3.3954227
REMARK minimizedRMSD -1
REMARK  0 active torsions:
REMARK  status: ('A' for Active; 'I' for Inactive)
ROOT
ATOM      1  C2' OXE d   1      -1.445  -2.007   1.388  0.00  0.00     0.078 C 
ATOM      2  C1' OXE d   1       1.073  -2.900   0.526  0.00  0.00     0.078 C 
ATOM      3  C1  OXE d   1       0.768  -1.428   0.402  0.00  0.00    -0.078 A 
ATOM      4  C2  OXE d   1      -0.483  -1.007   0.783  0.00  0.00    -0.078 A 
ATOM      5  C3  OXE d   1      -0.797   0.349   0.741  0.00  0.00     0.003 A 
ATOM      6  C4  OXE d   1       0.095   1.265   0.171  0.00  0.00    -0.002 A 
ATOM      7  C5  OXE d   1       1.360   0.852  -0.260  0.00  0.00    -0.002 A 
ATOM      8  C6  OXE d   1       1.727  -0.481  -0.112  0.00  0.00     0.003 A 
ENDROOT
TORSDOF 0
ENDMDL
