MODEL 1
REMARK minimizedAffinity -4.24071312
REMARK minimizedRMSD -1
REMARK  0 active torsions:
REMARK  status: ('A' for Active; 'I' for Inactive)
ROOT
ATOM      1  C2' OXE d   1      -1.400  -1.880   1.832  0.00  0.00     0.078 C 
ATOM      2  C1' OXE d   1       1.090  -2.988   1.161  0.00  0.00     0.078 C 
ATOM      3  C1  OXE d   1       0.735  -1.647   0.569  0.00  0.00    -0.078 A 
ATOM      4  C2  OXE d   1      -0.505  -1.134   0.866  0.00  0.00    -0.078 A 
ATOM      5  C3  OXE d   1      -0.862   0.125   0.390  0.00  0.00     0.003 A 
ATOM      6  C4  OXE d   1      -0.033   0.803  -0.511  0.00  0.00    -0.002 A 
ATOM      7  C5  OXE d   1       1.218   0.280  -0.857  0.00  0.00    -0.002 A 
ATOM      8  C6  OXE d   1       1.633  -0.921  -0.294  0.00  0.00     0.003 A 
ENDROOT
TORSDOF 0
ENDMDL
