MODEL 1
REMARK minimizedAffinity -5.87904549
REMARK minimizedRMSD -1
REMARK  0 active torsions:
REMARK  status: ('A' for Active; 'I' for Inactive)
ROOT
ATOM      1  C2' OXE d   1       1.954   0.785  -0.944  0.00  0.00     0.078 C 
ATOM      2  C1' OXE d   1      -0.780   1.098  -0.389  0.00  0.00     0.078 C 
ATOM      3  C1  OXE d   1      -0.081  -0.111   0.180  0.00  0.00    -0.078 A 
ATOM      4  C2  OXE d   1       1.246  -0.281  -0.136  0.00  0.00    -0.078 A 
ATOM      5  C3  OXE d   1       1.952  -1.350   0.407  0.00  0.00     0.003 A 
ATOM      6  C4  OXE d   1       1.288  -2.337   1.145  0.00  0.00    -0.002 A 
ATOM      7  C5  OXE d   1      -0.072  -2.204   1.445  0.00  0.00    -0.002 A 
ATOM      8  C6  OXE d   1      -0.760  -1.078   1.006  0.00  0.00     0.003 A 
ENDROOT
TORSDOF 0
ENDMDL
