MODEL 1
REMARK minimizedAffinity -5.35215998
REMARK minimizedRMSD -1
REMARK  0 active torsions:
REMARK  status: ('A' for Active; 'I' for Inactive)
ROOT
ATOM      1  C2' OXE d   1      -0.551   1.210  -0.302  0.00  0.00     0.078 C 
ATOM      2  C1' OXE d   1       2.256   1.255  -0.285  0.00  0.00     0.078 C 
ATOM      3  C1  OXE d   1       1.572  -0.066  -0.039  0.00  0.00    -0.078 A 
ATOM      4  C2  OXE d   1       0.198  -0.070  -0.002  0.00  0.00    -0.078 A 
ATOM      5  C3  OXE d   1      -0.484  -1.272   0.167  0.00  0.00     0.003 A 
ATOM      6  C4  OXE d   1       0.216  -2.450   0.454  0.00  0.00    -0.002 A 
ATOM      7  C5  OXE d   1       1.615  -2.460   0.461  0.00  0.00    -0.002 A 
ATOM      8  C6  OXE d   1       2.307  -1.288   0.175  0.00  0.00     0.003 A 
ENDROOT
TORSDOF 0
ENDMDL
