MODEL 1
REMARK minimizedAffinity -4.18208599
REMARK minimizedRMSD -1
REMARK  0 active torsions:
REMARK  status: ('A' for Active; 'I' for Inactive)
ROOT
ATOM      1  C2' OXE d   1      -0.346   0.986   0.032  0.00  0.00     0.078 C 
ATOM      2  C1' OXE d   1      -1.607  -1.016   1.542  0.00  0.00     0.078 C 
ATOM      3  C1  OXE d   1      -0.186  -1.259   1.099  0.00  0.00    -0.078 A 
ATOM      4  C2  OXE d   1       0.407  -0.295   0.321  0.00  0.00    -0.078 A 
ATOM      5  C3  OXE d   1       1.735  -0.444  -0.069  0.00  0.00     0.003 A 
ATOM      6  C4  OXE d   1       2.421  -1.636   0.193  0.00  0.00    -0.002 A 
ATOM      7  C5  OXE d   1       1.822  -2.648   0.951  0.00  0.00    -0.002 A 
ATOM      8  C6  OXE d   1       0.536  -2.458   1.446  0.00  0.00     0.003 A 
ENDROOT
TORSDOF 0
ENDMDL
