MODEL 1
REMARK minimizedAffinity -3.89062238
REMARK minimizedRMSD -1
REMARK  0 active torsions:
REMARK  status: ('A' for Active; 'I' for Inactive)
ROOT
ATOM      1  C2' OXE d   1       3.834  -0.628   1.524  0.00  0.00     0.078 C 
ATOM      2  C1' OXE d   1       2.277   0.866  -0.271  0.00  0.00     0.078 C 
ATOM      3  C1  OXE d   1       1.694  -0.417   0.267  0.00  0.00    -0.078 A 
ATOM      4  C2  OXE d   1       2.482  -1.165   1.109  0.00  0.00    -0.078 A 
ATOM      5  C3  OXE d   1       1.972  -2.329   1.677  0.00  0.00     0.003 A 
ATOM      6  C4  OXE d   1       0.724  -2.824   1.279  0.00  0.00    -0.002 A 
ATOM      7  C5  OXE d   1      -0.078  -2.098   0.392  0.00  0.00    -0.002 A 
ATOM      8  C6  OXE d   1       0.374  -0.874  -0.089  0.00  0.00     0.003 A 
ENDROOT
TORSDOF 0
ENDMDL
