MODEL 1
REMARK minimizedAffinity -4.4571414
REMARK minimizedRMSD -1
REMARK  0 active torsions:
REMARK  status: ('A' for Active; 'I' for Inactive)
ROOT
ATOM      1  C2' OXE d   1      -1.081  -1.626   2.002  0.00  0.00     0.078 C 
ATOM      2  C1' OXE d   1       1.320  -2.636   0.956  0.00  0.00     0.078 C 
ATOM      3  C1  OXE d   1       0.870  -1.273   0.494  0.00  0.00    -0.078 A 
ATOM      4  C2  OXE d   1      -0.330  -0.806   0.975  0.00  0.00    -0.078 A 
ATOM      5  C3  OXE d   1      -0.765   0.468   0.622  0.00  0.00     0.003 A 
ATOM      6  C4  OXE d   1      -0.069   1.215  -0.336  0.00  0.00    -0.002 A 
ATOM      7  C5  OXE d   1       1.134   0.741  -0.869  0.00  0.00    -0.002 A 
ATOM      8  C6  OXE d   1       1.639  -0.479  -0.433  0.00  0.00     0.003 A 
ENDROOT
TORSDOF 0
ENDMDL
