MODEL 1
REMARK minimizedAffinity 3.34236002
REMARK minimizedRMSD -1
REMARK  0 active torsions:
REMARK  status: ('A' for Active; 'I' for Inactive)
ROOT
ATOM      1  C2' OXE d   1       0.824   2.050  -0.065  0.00  0.00     0.078 C 
ATOM      2  C1' OXE d   1      -0.934   0.697  -1.784  0.00  0.00     0.078 C 
ATOM      3  C1  OXE d   1      -0.687   0.102  -0.420  0.00  0.00    -0.078 A 
ATOM      4  C2  OXE d   1       0.211   0.746   0.397  0.00  0.00    -0.078 A 
ATOM      5  C3  OXE d   1       0.434   0.270   1.686  0.00  0.00     0.003 A 
ATOM      6  C4  OXE d   1      -0.129  -0.943   2.101  0.00  0.00    -0.002 A 
ATOM      7  C5  OXE d   1      -1.016  -1.635   1.270  0.00  0.00    -0.002 A 
ATOM      8  C6  OXE d   1      -1.338  -1.106   0.025  0.00  0.00     0.003 A 
ENDROOT
TORSDOF 0
ENDMDL
