MODEL 1
REMARK minimizedAffinity -1.25523329
REMARK minimizedRMSD -1
REMARK  0 active torsions:
REMARK  status: ('A' for Active; 'I' for Inactive)
ROOT
ATOM      1  C2' OXE d   1      -2.319   0.793  -3.156  0.00  0.00     0.078 C 
ATOM      2  C1' OXE d   1      -1.181   3.099  -2.030  0.00  0.00     0.078 C 
ATOM      3  C1  OXE d   1      -0.823   1.768  -1.419  0.00  0.00    -0.078 A 
ATOM      4  C2  OXE d   1      -1.421   0.649  -1.947  0.00  0.00    -0.078 A 
ATOM      5  C3  OXE d   1      -1.083  -0.609  -1.456  0.00  0.00     0.003 A 
ATOM      6  C4  OXE d   1      -0.259  -0.734  -0.331  0.00  0.00    -0.002 A 
ATOM      7  C5  OXE d   1       0.329   0.397   0.247  0.00  0.00    -0.002 A 
ATOM      8  C6  OXE d   1       0.092   1.648  -0.311  0.00  0.00     0.003 A 
ENDROOT
TORSDOF 0
ENDMDL
