MODEL 1
REMARK minimizedAffinity -2.79060364
REMARK minimizedRMSD -1
REMARK  0 active torsions:
REMARK  status: ('A' for Active; 'I' for Inactive)
ROOT
ATOM      1  C2' OXE d   1       0.899  -2.957   0.873  0.00  0.00     0.078 C 
ATOM      2  C1' OXE d   1       2.788  -0.985   0.223  0.00  0.00     0.078 C 
ATOM      3  C1  OXE d   1       1.329  -0.612   0.150  0.00  0.00    -0.078 A 
ATOM      4  C2  OXE d   1       0.410  -1.597   0.425  0.00  0.00    -0.078 A 
ATOM      5  C3  OXE d   1      -0.948  -1.292   0.425  0.00  0.00     0.003 A 
ATOM      6  C4  OXE d   1      -1.392  -0.034  -0.000  0.00  0.00    -0.002 A 
ATOM      7  C5  OXE d   1      -0.475   0.971  -0.323  0.00  0.00    -0.002 A 
ATOM      8  C6  OXE d   1       0.887   0.712  -0.212  0.00  0.00     0.003 A 
ENDROOT
TORSDOF 0
ENDMDL
