MODEL 1
REMARK minimizedAffinity 8.35871696
REMARK minimizedRMSD -1
REMARK  0 active torsions:
REMARK  status: ('A' for Active; 'I' for Inactive)
ROOT
ATOM      1  C   UNL d   1       3.433   0.427   0.918  0.00  0.00     0.023 A 
ATOM      2  C1  UNL d   1       3.146   1.403   1.873  0.00  0.00     0.003 A 
ATOM      3  C2  UNL d   1       1.873   1.469   2.444  0.00  0.00     0.048 A 
ATOM      4  C3  UNL d   1       0.893   0.556   2.056  0.00  0.00     0.023 A 
ATOM      5  C4  UNL d   1       1.176  -0.422   1.102  0.00  0.00     0.048 A 
ATOM      6  C5  UNL d   1       2.450  -0.485   0.533  0.00  0.00     0.003 A 
ATOM      7  I   UNL d   1      -1.002   0.653   2.904  0.00  0.00    -0.146 I 
ENDROOT
TORSDOF 0
ENDMDL
