MODEL 1
REMARK minimizedAffinity 7.98540401
REMARK minimizedRMSD -1
REMARK  0 active torsions:
REMARK  status: ('A' for Active; 'I' for Inactive)
ROOT
ATOM      1  C   UNL d   1      -2.065  -2.985  -2.086  0.00  0.00     0.023 A 
ATOM      2  C1  UNL d   1      -3.329  -2.522  -2.452  0.00  0.00     0.003 A 
ATOM      3  C2  UNL d   1      -4.443  -2.837  -1.671  0.00  0.00     0.048 A 
ATOM      4  C3  UNL d   1      -4.285  -3.616  -0.525  0.00  0.00     0.023 A 
ATOM      5  C4  UNL d   1      -3.022  -4.081  -0.155  0.00  0.00     0.048 A 
ATOM      6  C5  UNL d   1      -1.912  -3.763  -0.939  0.00  0.00     0.003 A 
ATOM      7  I   UNL d   1      -5.941  -4.087   0.639  0.00  0.00    -0.146 I 
ENDROOT
TORSDOF 0
ENDMDL
