MODEL 1
REMARK minimizedAffinity 11.5146017
REMARK minimizedRMSD -1
REMARK  0 active torsions:
REMARK  status: ('A' for Active; 'I' for Inactive)
ROOT
ATOM      1  C   UNL d   1      -1.990   3.402  -5.998  0.00  0.00     0.023 A 
ATOM      2  C1  UNL d   1      -1.617   2.057  -5.996  0.00  0.00     0.003 A 
ATOM      3  C2  UNL d   1      -0.266   1.706  -5.997  0.00  0.00     0.048 A 
ATOM      4  C3  UNL d   1       0.708   2.704  -5.999  0.00  0.00     0.023 A 
ATOM      5  C4  UNL d   1       0.340   4.051  -6.000  0.00  0.00     0.048 A 
ATOM      6  C5  UNL d   1      -1.013   4.397  -6.000  0.00  0.00     0.003 A 
ATOM      7  I   UNL d   1       2.720   2.184  -6.000  0.00  0.00    -0.146 I 
ENDROOT
TORSDOF 0
ENDMDL
