MODEL 1
REMARK minimizedAffinity 6.54457521
REMARK minimizedRMSD -1
REMARK  0 active torsions:
REMARK  status: ('A' for Active; 'I' for Inactive)
ROOT
ATOM      1  C   UNL d   1      -5.999  -2.607   3.992  0.00  0.00     0.023 A 
ATOM      2  C1  UNL d   1      -4.920  -2.641   4.875  0.00  0.00     0.003 A 
ATOM      3  C2  UNL d   1      -3.695  -2.084   4.504  0.00  0.00     0.048 A 
ATOM      4  C3  UNL d   1      -3.555  -1.495   3.248  0.00  0.00     0.023 A 
ATOM      5  C4  UNL d   1      -4.632  -1.459   2.361  0.00  0.00     0.048 A 
ATOM      6  C5  UNL d   1      -5.855  -2.017   2.736  0.00  0.00     0.003 A 
ATOM      7  I   UNL d   1      -1.732  -0.666   2.693  0.00  0.00    -0.146 I 
ENDROOT
TORSDOF 0
ENDMDL
