MODEL 1
REMARK minimizedAffinity 1.6484251
REMARK minimizedRMSD -1
REMARK  0 active torsions:
REMARK  status: ('A' for Active; 'I' for Inactive)
ROOT
ATOM      1  C   UNL d   1      -1.846  -2.352   0.779  0.00  0.00     0.023 A 
ATOM      2  C1  UNL d   1      -1.818  -2.616  -0.590  0.00  0.00     0.003 A 
ATOM      3  C2  UNL d   1      -0.602  -2.862  -1.230  0.00  0.00     0.048 A 
ATOM      4  C3  UNL d   1       0.583  -2.844  -0.495  0.00  0.00     0.023 A 
ATOM      5  C4  UNL d   1       0.559  -2.581   0.876  0.00  0.00     0.048 A 
ATOM      6  C5  UNL d   1      -0.659  -2.334   1.511  0.00  0.00     0.003 A 
ATOM      7  I   UNL d   1       2.394  -3.210  -1.445  0.00  0.00    -0.146 I 
ENDROOT
TORSDOF 0
ENDMDL
