MODEL 1
REMARK minimizedAffinity 7.11711979
REMARK minimizedRMSD -1
REMARK  0 active torsions:
REMARK  status: ('A' for Active; 'I' for Inactive)
ROOT
ATOM      1  C   UNL d   1      -3.003  -3.149   0.002  0.00  0.00     0.023 A 
ATOM      2  C1  UNL d   1      -3.368  -4.493   0.087  0.00  0.00     0.003 A 
ATOM      3  C2  UNL d   1      -2.796  -5.312   1.062  0.00  0.00     0.048 A 
ATOM      4  C3  UNL d   1      -1.860  -4.782   1.949  0.00  0.00     0.023 A 
ATOM      5  C4  UNL d   1      -1.492  -3.438   1.868  0.00  0.00     0.048 A 
ATOM      6  C5  UNL d   1      -2.066  -2.622   0.891  0.00  0.00     0.003 A 
ATOM      7  I   UNL d   1      -1.007  -6.000   3.401  0.00  0.00    -0.146 I 
ENDROOT
TORSDOF 0
ENDMDL
