MODEL 1
REMARK minimizedAffinity 8.47108746
REMARK minimizedRMSD -1
REMARK  0 active torsions:
REMARK  status: ('A' for Active; 'I' for Inactive)
ROOT
ATOM      1  C   UNL d   1       4.203   6.000   5.465  0.00  0.00     0.023 A 
ATOM      2  C1  UNL d   1       3.411   4.976   5.985  0.00  0.00     0.003 A 
ATOM      3  C2  UNL d   1       2.963   3.948   5.154  0.00  0.00     0.048 A 
ATOM      4  C3  UNL d   1       3.311   3.949   3.803  0.00  0.00     0.023 A 
ATOM      5  C4  UNL d   1       4.104   4.970   3.279  0.00  0.00     0.048 A 
ATOM      6  C5  UNL d   1       4.549   5.997   4.114  0.00  0.00     0.003 A 
ATOM      7  I   UNL d   1       2.645   2.419   2.564  0.00  0.00    -0.146 I 
ENDROOT
TORSDOF 0
ENDMDL
