MODEL 1
REMARK minimizedAffinity -1.64819229
REMARK minimizedRMSD -1
REMARK  0 active torsions:
REMARK  status: ('A' for Active; 'I' for Inactive)
ROOT
ATOM      1  C   UNL d   1      -0.039  -2.858  -0.082  0.00  0.00     0.023 A 
ATOM      2  C1  UNL d   1      -0.762  -1.797   0.464  0.00  0.00     0.003 A 
ATOM      3  C2  UNL d   1      -0.097  -0.649   0.902  0.00  0.00     0.048 A 
ATOM      4  C3  UNL d   1       1.291  -0.569   0.789  0.00  0.00     0.023 A 
ATOM      5  C4  UNL d   1       2.018  -1.628   0.242  0.00  0.00     0.048 A 
ATOM      6  C5  UNL d   1       1.349  -2.773  -0.193  0.00  0.00     0.003 A 
ATOM      7  I   UNL d   1       2.282   1.138   1.440  0.00  0.00    -0.146 I 
ENDROOT
TORSDOF 0
ENDMDL
