MODEL 1
REMARK minimizedAffinity 4.49874067
REMARK minimizedRMSD -1
REMARK  0 active torsions:
REMARK  status: ('A' for Active; 'I' for Inactive)
ROOT
ATOM      1  C   UNL d   1       5.997   5.928   3.856  0.00  0.00     0.023 A 
ATOM      2  C1  UNL d   1       4.839   5.920   3.078  0.00  0.00     0.003 A 
ATOM      3  C2  UNL d   1       3.584   5.939   3.690  0.00  0.00     0.048 A 
ATOM      4  C3  UNL d   1       3.495   5.966   5.082  0.00  0.00     0.023 A 
ATOM      5  C4  UNL d   1       4.651   5.975   5.864  0.00  0.00     0.048 A 
ATOM      6  C5  UNL d   1       5.903   5.955   5.247  0.00  0.00     0.003 A 
ATOM      7  I   UNL d   1       1.629   5.994   5.996  0.00  0.00    -0.146 I 
ENDROOT
TORSDOF 0
ENDMDL
