MODEL 1
REMARK minimizedAffinity 18.1873302
REMARK minimizedRMSD -1
REMARK  0 active torsions:
REMARK  status: ('A' for Active; 'I' for Inactive)
ROOT
ATOM      1  C   UNL d   1       1.664  -3.262   1.981  0.00  0.00     0.023 A 
ATOM      2  C1  UNL d   1       1.028  -2.063   1.661  0.00  0.00     0.003 A 
ATOM      3  C2  UNL d   1       1.576  -1.216   0.695  0.00  0.00     0.048 A 
ATOM      4  C3  UNL d   1       2.760  -1.575   0.053  0.00  0.00     0.023 A 
ATOM      5  C4  UNL d   1       3.400  -2.774   0.369  0.00  0.00     0.048 A 
ATOM      6  C5  UNL d   1       2.849  -3.618   1.336  0.00  0.00     0.003 A 
ATOM      7  I   UNL d   1       3.577  -0.317  -1.385  0.00  0.00    -0.146 I 
ENDROOT
TORSDOF 0
ENDMDL
