MODEL 1
REMARK minimizedAffinity 7.98280048
REMARK minimizedRMSD -1
REMARK  0 active torsions:
REMARK  status: ('A' for Active; 'I' for Inactive)
ROOT
ATOM      1  C   UNL d   1       0.129  -5.998   4.492  0.00  0.00     0.023 A 
ATOM      2  C1  UNL d   1       1.132  -5.058   4.726  0.00  0.00     0.003 A 
ATOM      3  C2  UNL d   1       1.453  -4.118   3.744  0.00  0.00     0.048 A 
ATOM      4  C3  UNL d   1       0.766  -4.123   2.531  0.00  0.00     0.023 A 
ATOM      5  C4  UNL d   1      -0.240  -5.062   2.293  0.00  0.00     0.048 A 
ATOM      6  C5  UNL d   1      -0.556  -6.000   3.277  0.00  0.00     0.003 A 
ATOM      7  I   UNL d   1       1.241  -2.725   1.068  0.00  0.00    -0.146 I 
ENDROOT
TORSDOF 0
ENDMDL
