MODEL 1
REMARK minimizedAffinity 1.03610289
REMARK minimizedRMSD -1
REMARK  0 active torsions:
REMARK  status: ('A' for Active; 'I' for Inactive)
ROOT
ATOM      1  C   UNL d   1       1.937  -4.178   0.003  0.00  0.00     0.023 A 
ATOM      2  C1  UNL d   1       1.190  -3.588   1.022  0.00  0.00     0.003 A 
ATOM      3  C2  UNL d   1       1.291  -2.216   1.261  0.00  0.00     0.048 A 
ATOM      4  C3  UNL d   1       2.141  -1.439   0.475  0.00  0.00     0.023 A 
ATOM      5  C4  UNL d   1       2.890  -2.024  -0.547  0.00  0.00     0.048 A 
ATOM      6  C5  UNL d   1       2.786  -3.396  -0.781  0.00  0.00     0.003 A 
ATOM      7  I   UNL d   1       2.293   0.604   0.827  0.00  0.00    -0.146 I 
ENDROOT
TORSDOF 0
ENDMDL
