MODEL 1
REMARK minimizedAffinity 0.383124024
REMARK minimizedRMSD -1
REMARK  0 active torsions:
REMARK  status: ('A' for Active; 'I' for Inactive)
ROOT
ATOM      1  C   UNL d   1      -1.936   1.172   2.578  0.00  0.00     0.023 A 
ATOM      2  C1  UNL d   1      -2.670  -0.005   2.430  0.00  0.00     0.003 A 
ATOM      3  C2  UNL d   1      -3.837  -0.009   1.663  0.00  0.00     0.048 A 
ATOM      4  C3  UNL d   1      -4.264   1.166   1.046  0.00  0.00     0.023 A 
ATOM      5  C4  UNL d   1      -3.532   2.346   1.191  0.00  0.00     0.048 A 
ATOM      6  C5  UNL d   1      -2.366   2.346   1.960  0.00  0.00     0.003 A 
ATOM      7  I   UNL d   1      -6.000   1.162  -0.096  0.00  0.00    -0.146 I 
ENDROOT
TORSDOF 0
ENDMDL
