MODEL 1
REMARK minimizedAffinity 6.02794266
REMARK minimizedRMSD -1
REMARK  0 active torsions:
REMARK  status: ('A' for Active; 'I' for Inactive)
ROOT
ATOM      1  C   UNL d   1      -2.744   3.009  -4.870  0.00  0.00     0.023 A 
ATOM      2  C1  UNL d   1      -1.988   3.333  -5.996  0.00  0.00     0.003 A 
ATOM      3  C2  UNL d   1      -0.609   3.115  -6.000  0.00  0.00     0.048 A 
ATOM      4  C3  UNL d   1       0.008   2.572  -4.873  0.00  0.00     0.023 A 
ATOM      5  C4  UNL d   1      -0.745   2.245  -3.744  0.00  0.00     0.048 A 
ATOM      6  C5  UNL d   1      -2.123   2.465  -3.745  0.00  0.00     0.003 A 
ATOM      7  I   UNL d   1       2.061   2.247  -4.876  0.00  0.00    -0.146 I 
ENDROOT
TORSDOF 0
ENDMDL
