MODEL 1
REMARK minimizedAffinity 8.08527565
REMARK minimizedRMSD -1
REMARK  0 active torsions:
REMARK  status: ('A' for Active; 'I' for Inactive)
ROOT
ATOM      1  C   UNL d   1       1.440   2.655  -5.704  0.00  0.00     0.023 A 
ATOM      2  C1  UNL d   1       1.515   1.911  -4.526  0.00  0.00     0.003 A 
ATOM      3  C2  UNL d   1       0.435   1.894  -3.640  0.00  0.00     0.048 A 
ATOM      4  C3  UNL d   1      -0.716   2.621  -3.939  0.00  0.00     0.023 A 
ATOM      5  C4  UNL d   1      -0.796   3.365  -5.117  0.00  0.00     0.048 A 
ATOM      6  C5  UNL d   1       0.286   3.380  -5.999  0.00  0.00     0.003 A 
ATOM      7  I   UNL d   1      -2.325   2.596  -2.623  0.00  0.00    -0.146 I 
ENDROOT
TORSDOF 0
ENDMDL
