MODEL 1
REMARK minimizedAffinity 1.49274123
REMARK minimizedRMSD -1
REMARK  0 active torsions:
REMARK  status: ('A' for Active; 'I' for Inactive)
ROOT
ATOM      1  C   UNL d   1      -3.938   2.077   1.461  0.00  0.00     0.023 A 
ATOM      2  C1  UNL d   1      -2.599   2.157   1.846  0.00  0.00     0.003 A 
ATOM      3  C2  UNL d   1      -1.808   1.007   1.869  0.00  0.00     0.048 A 
ATOM      4  C3  UNL d   1      -2.361  -0.220   1.504  0.00  0.00     0.023 A 
ATOM      5  C4  UNL d   1      -3.699  -0.305   1.117  0.00  0.00     0.048 A 
ATOM      6  C5  UNL d   1      -4.487   0.847   1.097  0.00  0.00     0.003 A 
ATOM      7  I   UNL d   1      -1.185  -1.934   1.537  0.00  0.00    -0.146 I 
ENDROOT
TORSDOF 0
ENDMDL
