MODEL 1
REMARK minimizedAffinity 5.50650501
REMARK minimizedRMSD -1
REMARK  0 active torsions:
REMARK  status: ('A' for Active; 'I' for Inactive)
ROOT
ATOM      1  C   UNL d   1      -2.188   4.477  -4.815  0.00  0.00     0.023 A 
ATOM      2  C1  UNL d   1      -1.900   3.698  -5.936  0.00  0.00     0.003 A 
ATOM      3  C2  UNL d   1      -0.708   2.974  -5.997  0.00  0.00     0.048 A 
ATOM      4  C3  UNL d   1       0.192   3.033  -4.934  0.00  0.00     0.023 A 
ATOM      5  C4  UNL d   1      -0.092   3.810  -3.810  0.00  0.00     0.048 A 
ATOM      6  C5  UNL d   1      -1.285   4.533  -3.753  0.00  0.00     0.003 A 
ATOM      7  I   UNL d   1       1.968   1.957  -5.023  0.00  0.00    -0.146 I 
ENDROOT
TORSDOF 0
ENDMDL
