MODEL 1
REMARK minimizedAffinity -2.17329979
REMARK minimizedRMSD -1
REMARK  0 active torsions:
REMARK  status: ('A' for Active; 'I' for Inactive)
ROOT
ATOM      1  C   UNL d   1      -1.908  -2.561  -0.002  0.00  0.00     0.023 A 
ATOM      2  C1  UNL d   1      -0.947  -2.288   0.972  0.00  0.00     0.003 A 
ATOM      3  C2  UNL d   1       0.376  -2.693   0.783  0.00  0.00     0.048 A 
ATOM      4  C3  UNL d   1       0.731  -3.370  -0.383  0.00  0.00     0.023 A 
ATOM      5  C4  UNL d   1      -0.226  -3.645  -1.361  0.00  0.00     0.048 A 
ATOM      6  C5  UNL d   1      -1.548  -3.238  -1.167  0.00  0.00     0.003 A 
ATOM      7  I   UNL d   1       2.700  -3.974  -0.667  0.00  0.00    -0.146 I 
ENDROOT
TORSDOF 0
ENDMDL
