MODEL 1
REMARK minimizedAffinity 2.71165133
REMARK minimizedRMSD -1
REMARK  0 active torsions:
REMARK  status: ('A' for Active; 'I' for Inactive)
ROOT
ATOM      1  C   UNL d   1      -4.476   4.026  -5.997  0.00  0.00     0.023 A 
ATOM      2  C1  UNL d   1      -3.706   2.863  -5.994  0.00  0.00     0.003 A 
ATOM      3  C2  UNL d   1      -2.312   2.946  -5.995  0.00  0.00     0.048 A 
ATOM      4  C3  UNL d   1      -1.695   4.196  -5.997  0.00  0.00     0.023 A 
ATOM      5  C4  UNL d   1      -2.461   5.363  -5.999  0.00  0.00     0.048 A 
ATOM      6  C5  UNL d   1      -3.854   5.275  -6.000  0.00  0.00     0.003 A 
ATOM      7  I   UNL d   1       0.380   4.323  -5.998  0.00  0.00    -0.146 I 
ENDROOT
TORSDOF 0
ENDMDL
