MODEL 1
REMARK minimizedAffinity -5.24727917
REMARK minimizedRMSD -1
REMARK  0 active torsions:
REMARK  status: ('A' for Active; 'I' for Inactive)
ROOT
ATOM      1  O1  BZF d   1      -1.128   0.536   0.857  0.00  0.00    -0.204 OA
ATOM      2  C2  BZF d   1      -0.615   1.414  -0.078  0.00  0.00     0.174 A 
ATOM      3  C3  BZF d   1       0.325   0.813  -0.835  0.00  0.00    -0.012 A 
ATOM      4  C3A BZF d   1       0.341  -0.551  -0.402  0.00  0.00    -0.107 A 
ATOM      5  C4  BZF d   1       1.055  -1.650  -0.786  0.00  0.00     0.055 A 
ATOM      6  C5  BZF d   1       0.883  -2.818  -0.113  0.00  0.00    -0.016 A 
ATOM      7  C6  BZF d   1       0.012  -2.921   0.952  0.00  0.00     0.022 A 
ATOM      8  C7  BZF d   1      -0.722  -1.859   1.366  0.00  0.00     0.029 A 
ATOM      9  C7A BZF d   1      -0.575  -0.687   0.666  0.00  0.00     0.058 A 
ENDROOT
TORSDOF 0
ENDMDL
