MODEL 1
REMARK minimizedAffinity -3.85681033
REMARK minimizedRMSD -1
REMARK  0 active torsions:
REMARK  status: ('A' for Active; 'I' for Inactive)
ROOT
ATOM      1  O1  BZF d   1      -1.411   0.275   0.174  0.00  0.00    -0.204 OA
ATOM      2  C2  BZF d   1      -0.612   1.252  -0.388  0.00  0.00     0.174 A 
ATOM      3  C3  BZF d   1       0.641   0.793  -0.581  0.00  0.00    -0.012 A 
ATOM      4  C3A BZF d   1       0.600  -0.585  -0.195  0.00  0.00    -0.107 A 
ATOM      5  C4  BZF d   1       1.533  -1.582  -0.175  0.00  0.00     0.055 A 
ATOM      6  C5  BZF d   1       1.190  -2.797   0.327  0.00  0.00    -0.016 A 
ATOM      7  C6  BZF d   1      -0.073  -3.048   0.823  0.00  0.00     0.022 A 
ATOM      8  C7  BZF d   1      -1.033  -2.091   0.820  0.00  0.00     0.029 A 
ATOM      9  C7A BZF d   1      -0.699  -0.872   0.282  0.00  0.00     0.058 A 
ENDROOT
TORSDOF 0
ENDMDL
