MODEL 1
REMARK minimizedAffinity -5.28591776
REMARK minimizedRMSD -1
REMARK  0 active torsions:
REMARK  status: ('A' for Active; 'I' for Inactive)
ROOT
ATOM      1  O1  BZF d   1       1.352  -0.118  -0.846  0.00  0.00    -0.204 OA
ATOM      2  C2  BZF d   1       1.101   1.165  -0.399  0.00  0.00     0.174 A 
ATOM      3  C3  BZF d   1       0.123   1.166   0.530  0.00  0.00    -0.012 A 
ATOM      4  C3A BZF d   1      -0.198  -0.213   0.739  0.00  0.00    -0.107 A 
ATOM      5  C4  BZF d   1      -1.083  -0.857   1.555  0.00  0.00     0.055 A 
ATOM      6  C5  BZF d   1      -1.202  -2.208   1.465  0.00  0.00    -0.016 A 
ATOM      7  C6  BZF d   1      -0.457  -2.944   0.567  0.00  0.00     0.022 A 
ATOM      8  C7  BZF d   1       0.438  -2.350  -0.259  0.00  0.00     0.029 A 
ATOM      9  C7A BZF d   1       0.584  -0.989  -0.147  0.00  0.00     0.058 A 
ENDROOT
TORSDOF 0
ENDMDL
