MODEL 1
REMARK minimizedAffinity -4.13617563
REMARK minimizedRMSD -1
REMARK  0 active torsions:
REMARK  status: ('A' for Active; 'I' for Inactive)
ROOT
ATOM      1  O1  BZF d   1      -0.389  -2.619   1.148  0.00  0.00    -0.204 OA
ATOM      2  C2  BZF d   1       0.363  -3.437   0.328  0.00  0.00     0.174 A 
ATOM      3  C3  BZF d   1       0.862  -2.742  -0.714  0.00  0.00    -0.012 A 
ATOM      4  C3A BZF d   1       0.468  -1.386  -0.485  0.00  0.00    -0.107 A 
ATOM      5  C4  BZF d   1       0.676  -0.220  -1.165  0.00  0.00     0.055 A 
ATOM      6  C5  BZF d   1       0.093   0.922  -0.713  0.00  0.00    -0.016 A 
ATOM      7  C6  BZF d   1      -0.706   0.933   0.411  0.00  0.00     0.022 A 
ATOM      8  C7  BZF d   1      -0.938  -0.198   1.122  0.00  0.00     0.029 A 
ATOM      9  C7A BZF d   1      -0.324  -1.347   0.686  0.00  0.00     0.058 A 
ENDROOT
TORSDOF 0
ENDMDL
