MODEL 1
REMARK minimizedAffinity -3.78710532
REMARK minimizedRMSD -1
REMARK  0 active torsions:
REMARK  status: ('A' for Active; 'I' for Inactive)
ROOT
ATOM      1  O1  BZF d   1      -0.453   2.119   0.626  0.00  0.00    -0.204 OA
ATOM      2  C2  BZF d   1       0.295   2.689  -0.386  0.00  0.00     0.174 A 
ATOM      3  C3  BZF d   1       0.868   1.738  -1.151  0.00  0.00    -0.012 A 
ATOM      4  C3A BZF d   1       0.378   0.496  -0.637  0.00  0.00    -0.107 A 
ATOM      5  C4  BZF d   1       0.574  -0.809  -0.989  0.00  0.00     0.055 A 
ATOM      6  C5  BZF d   1       0.007  -1.789  -0.237  0.00  0.00    -0.016 A 
ATOM      7  C6  BZF d   1      -0.758  -1.500   0.875  0.00  0.00     0.022 A 
ATOM      8  C7  BZF d   1      -0.985  -0.221   1.260  0.00  0.00     0.029 A 
ATOM      9  C7A BZF d   1      -0.440   0.772   0.483  0.00  0.00     0.058 A 
ENDROOT
TORSDOF 0
ENDMDL
