MODEL 1
REMARK minimizedAffinity -5.19139051
REMARK minimizedRMSD -1
REMARK  0 active torsions:
REMARK  status: ('A' for Active; 'I' for Inactive)
ROOT
ATOM      1  O1  BZF d   1       0.269  -1.740   0.943  0.00  0.00    -0.204 OA
ATOM      2  C2  BZF d   1       0.800  -2.652   0.052  0.00  0.00     0.174 A 
ATOM      3  C3  BZF d   1       1.003  -2.082  -1.153  0.00  0.00    -0.012 A 
ATOM      4  C3A BZF d   1       0.658  -0.704  -0.980  0.00  0.00    -0.107 A 
ATOM      5  C4  BZF d   1       0.666   0.377  -1.814  0.00  0.00     0.055 A 
ATOM      6  C5  BZF d   1       0.199   1.568  -1.356  0.00  0.00    -0.016 A 
ATOM      7  C6  BZF d   1      -0.286   1.712  -0.072  0.00  0.00     0.022 A 
ATOM      8  C7  BZF d   1      -0.309   0.670   0.793  0.00  0.00     0.029 A 
ATOM      9  C7A BZF d   1       0.192  -0.527   0.343  0.00  0.00     0.058 A 
ENDROOT
TORSDOF 0
ENDMDL
