MODEL 1
REMARK minimizedAffinity -1.47629559
REMARK minimizedRMSD -1
REMARK  0 active torsions:
REMARK  status: ('A' for Active; 'I' for Inactive)
ROOT
ATOM      1  O1  BZF d   1       0.464   0.134  -1.556  0.00  0.00    -0.204 OA
ATOM      2  C2  BZF d   1       0.314   1.475  -1.259  0.00  0.00     0.174 A 
ATOM      3  C3  BZF d   1      -0.368   1.637  -0.107  0.00  0.00    -0.012 A 
ATOM      4  C3A BZF d   1      -0.583   0.313   0.392  0.00  0.00    -0.107 A 
ATOM      5  C4  BZF d   1      -1.190  -0.181   1.511  0.00  0.00     0.055 A 
ATOM      6  C5  BZF d   1      -1.295  -1.527   1.666  0.00  0.00    -0.016 A 
ATOM      7  C6  BZF d   1      -0.808  -2.407   0.721  0.00  0.00     0.022 A 
ATOM      8  C7  BZF d   1      -0.193  -1.964  -0.403  0.00  0.00     0.029 A 
ATOM      9  C7A BZF d   1      -0.057  -0.605  -0.546  0.00  0.00     0.058 A 
ENDROOT
TORSDOF 0
ENDMDL
