MODEL 1
REMARK minimizedAffinity -5.1827445
REMARK minimizedRMSD -1
REMARK  0 active torsions:
REMARK  status: ('A' for Active; 'I' for Inactive)
ROOT
ATOM      1  O1  BZF d   1       0.192   0.515  -1.098  0.00  0.00    -0.204 OA
ATOM      2  C2  BZF d   1      -0.088   1.008   0.162  0.00  0.00     0.174 A 
ATOM      3  C3  BZF d   1      -0.431   0.010   1.001  0.00  0.00    -0.012 A 
ATOM      4  C3A BZF d   1      -0.272  -1.192   0.241  0.00  0.00    -0.107 A 
ATOM      5  C4  BZF d   1      -0.445  -2.515   0.531  0.00  0.00     0.055 A 
ATOM      6  C5  BZF d   1      -0.276  -3.435  -0.456  0.00  0.00    -0.016 A 
ATOM      7  C6  BZF d   1       0.060  -3.066  -1.742  0.00  0.00     0.022 A 
ATOM      8  C7  BZF d   1       0.248  -1.766  -2.076  0.00  0.00     0.029 A 
ATOM      9  C7A BZF d   1       0.110  -0.837  -1.073  0.00  0.00     0.058 A 
ENDROOT
TORSDOF 0
ENDMDL
