MODEL 1
REMARK minimizedAffinity -5.22125196
REMARK minimizedRMSD -1
REMARK  0 active torsions:
REMARK  status: ('A' for Active; 'I' for Inactive)
ROOT
ATOM      1  O1  BZF d   1       0.318   0.410  -0.964  0.00  0.00    -0.204 OA
ATOM      2  C2  BZF d   1      -0.252   0.959   0.169  0.00  0.00     0.174 A 
ATOM      3  C3  BZF d   1      -0.780  -0.002   0.953  0.00  0.00    -0.012 A 
ATOM      4  C3A BZF d   1      -0.443  -1.237   0.314  0.00  0.00    -0.107 A 
ATOM      5  C4  BZF d   1      -0.675  -2.547   0.620  0.00  0.00     0.055 A 
ATOM      6  C5  BZF d   1      -0.276  -3.510  -0.251  0.00  0.00    -0.016 A 
ATOM      7  C6  BZF d   1       0.352  -3.199  -1.439  0.00  0.00     0.022 A 
ATOM      8  C7  BZF d   1       0.609  -1.914  -1.785  0.00  0.00     0.029 A 
ATOM      9  C7A BZF d   1       0.237  -0.940  -0.891  0.00  0.00     0.058 A 
ENDROOT
TORSDOF 0
ENDMDL
