MODEL 1
REMARK minimizedAffinity -5.41442156
REMARK minimizedRMSD -1
REMARK  0 active torsions:
REMARK  status: ('A' for Active; 'I' for Inactive)
ROOT
ATOM      1  O1  BZF d   1       0.201   0.045  -1.718  0.00  0.00    -0.204 OA
ATOM      2  C2  BZF d   1      -0.165   0.742  -0.582  0.00  0.00     0.174 A 
ATOM      3  C3  BZF d   1      -0.386  -0.101   0.447  0.00  0.00    -0.012 A 
ATOM      4  C3A BZF d   1      -0.053  -1.400  -0.053  0.00  0.00    -0.107 A 
ATOM      5  C4  BZF d   1      -0.051  -2.648   0.502  0.00  0.00     0.055 A 
ATOM      6  C5  BZF d   1       0.258  -3.717  -0.278  0.00  0.00    -0.016 A 
ATOM      7  C6  BZF d   1       0.565  -3.576  -1.616  0.00  0.00     0.022 A 
ATOM      8  C7  BZF d   1       0.581  -2.358  -2.210  0.00  0.00     0.029 A 
ATOM      9  C7A BZF d   1       0.301  -1.272  -1.416  0.00  0.00     0.058 A 
ENDROOT
TORSDOF 0
ENDMDL
