MODEL 1
REMARK minimizedAffinity -3.17030001
REMARK minimizedRMSD -1
REMARK  0 active torsions:
REMARK  status: ('A' for Active; 'I' for Inactive)
ROOT
ATOM      1  O1  BZF d   1      -0.734  -2.725   1.100  0.00  0.00    -0.204 OA
ATOM      2  C2  BZF d   1      -0.005  -3.471   0.193  0.00  0.00     0.174 A 
ATOM      3  C3  BZF d   1       0.582  -2.672  -0.721  0.00  0.00    -0.012 A 
ATOM      4  C3A BZF d   1       0.272  -1.337  -0.309  0.00  0.00    -0.107 A 
ATOM      5  C4  BZF d   1       0.586  -0.104  -0.805  0.00  0.00     0.055 A 
ATOM      6  C5  BZF d   1       0.065   1.000  -0.210  0.00  0.00    -0.016 A 
ATOM      7  C6  BZF d   1      -0.778   0.909   0.879  0.00  0.00     0.022 A 
ATOM      8  C7  BZF d   1      -1.115  -0.292   1.409  0.00  0.00     0.029 A 
ATOM      9  C7A BZF d   1      -0.563  -1.409   0.830  0.00  0.00     0.058 A 
ENDROOT
TORSDOF 0
ENDMDL
