MODEL 1
REMARK minimizedAffinity -0.337571144
REMARK minimizedRMSD -1
REMARK  0 active torsions:
REMARK  status: ('A' for Active; 'I' for Inactive)
ROOT
ATOM      1  O1  BZF d   1       0.021  -0.147  -1.590  0.00  0.00    -0.204 OA
ATOM      2  C2  BZF d   1       0.032   1.157  -1.133  0.00  0.00     0.174 A 
ATOM      3  C3  BZF d   1      -0.430   1.224   0.133  0.00  0.00    -0.012 A 
ATOM      4  C3A BZF d   1      -0.662  -0.133   0.521  0.00  0.00    -0.107 A 
ATOM      5  C4  BZF d   1      -1.108  -0.717   1.672  0.00  0.00     0.055 A 
ATOM      6  C5  BZF d   1      -1.292  -2.064   1.701  0.00  0.00    -0.016 A 
ATOM      7  C6  BZF d   1      -1.045  -2.854   0.598  0.00  0.00     0.022 A 
ATOM      8  C7  BZF d   1      -0.596  -2.321  -0.564  0.00  0.00     0.029 A 
ATOM      9  C7A BZF d   1      -0.378  -0.965  -0.587  0.00  0.00     0.058 A 
ENDROOT
TORSDOF 0
ENDMDL
