MODEL 1
REMARK minimizedAffinity -5.3453002
REMARK minimizedRMSD -1
REMARK  0 active torsions:
REMARK  status: ('A' for Active; 'I' for Inactive)
ROOT
ATOM      1  O1  BZF d   1       0.368  -0.070  -2.142  0.00  0.00    -0.204 OA
ATOM      2  C2  BZF d   1       0.056   1.146  -1.567  0.00  0.00     0.174 A 
ATOM      3  C3  BZF d   1      -0.225   0.998  -0.257  0.00  0.00    -0.012 A 
ATOM      4  C3A BZF d   1       0.011  -0.385   0.025  0.00  0.00    -0.107 A 
ATOM      5  C4  BZF d   1      -0.079  -1.141   1.158  0.00  0.00     0.055 A 
ATOM      6  C5  BZF d   1       0.149  -2.479   1.080  0.00  0.00    -0.016 A 
ATOM      7  C6  BZF d   1       0.464  -3.093  -0.115  0.00  0.00     0.022 A 
ATOM      8  C7  BZF d   1       0.569  -2.383  -1.265  0.00  0.00     0.029 A 
ATOM      9  C7A BZF d   1       0.372  -1.027  -1.183  0.00  0.00     0.058 A 
ENDROOT
TORSDOF 0
ENDMDL
