MODEL 1
REMARK minimizedAffinity -2.55913591
REMARK minimizedRMSD -1
REMARK  0 active torsions:
REMARK  status: ('A' for Active; 'I' for Inactive)
ROOT
ATOM      1  O1  BZF d   1       0.175   0.900  -1.150  0.00  0.00    -0.204 OA
ATOM      2  C2  BZF d   1      -0.463   1.384  -0.025  0.00  0.00     0.174 A 
ATOM      3  C3  BZF d   1      -0.854   0.372   0.777  0.00  0.00    -0.012 A 
ATOM      4  C3A BZF d   1      -0.353  -0.815   0.155  0.00  0.00    -0.107 A 
ATOM      5  C4  BZF d   1      -0.404  -2.140   0.483  0.00  0.00     0.055 A 
ATOM      6  C5  BZF d   1       0.122  -3.053  -0.375  0.00  0.00    -0.016 A 
ATOM      7  C6  BZF d   1       0.700  -2.678  -1.570  0.00  0.00     0.022 A 
ATOM      8  C7  BZF d   1       0.779  -1.376  -1.936  0.00  0.00     0.029 A 
ATOM      9  C7A BZF d   1       0.278  -0.448  -1.056  0.00  0.00     0.058 A 
ENDROOT
TORSDOF 0
ENDMDL
