MODEL 1
REMARK minimizedAffinity -5.06752872
REMARK minimizedRMSD -1
REMARK  0 active torsions:
REMARK  status: ('A' for Active; 'I' for Inactive)
ROOT
ATOM      1  O1  BZF d   1       1.412  -0.100  -0.477  0.00  0.00    -0.204 OA
ATOM      2  C2  BZF d   1       0.978   1.168  -0.138  0.00  0.00     0.174 A 
ATOM      3  C3  BZF d   1      -0.209   1.113   0.499  0.00  0.00    -0.012 A 
ATOM      4  C3A BZF d   1      -0.494  -0.282   0.644  0.00  0.00    -0.107 A 
ATOM      5  C4  BZF d   1      -1.526  -0.975   1.210  0.00  0.00     0.055 A 
ATOM      6  C5  BZF d   1      -1.539  -2.331   1.118  0.00  0.00    -0.016 A 
ATOM      7  C6  BZF d   1      -0.541  -3.024   0.464  0.00  0.00     0.022 A 
ATOM      8  C7  BZF d   1       0.505  -2.380  -0.108  0.00  0.00     0.029 A 
ATOM      9  C7A BZF d   1       0.538  -1.013   0.011  0.00  0.00     0.058 A 
ENDROOT
TORSDOF 0
ENDMDL
