MODEL 1
REMARK minimizedAffinity -5.68056536
REMARK minimizedRMSD -1
REMARK  0 active torsions:
REMARK  status: ('A' for Active; 'I' for Inactive)
ROOT
ATOM      1  C4' PXY d   1       0.453  -1.537  -1.192  0.00  0.00     0.077 C 
ATOM      2  C1' PXY d   1      -1.322   3.519   0.977  0.00  0.00     0.077 C 
ATOM      3  C1  PXY d   1      -0.849   2.191   0.419  0.00  0.00    -0.082 A 
ATOM      4  C2  PXY d   1      -0.821   2.005  -0.890  0.00  0.00     0.003 A 
ATOM      5  C3  PXY d   1      -0.427   0.799  -1.411  0.00  0.00     0.003 A 
ATOM      6  C4  PXY d   1      -0.007  -0.209  -0.584  0.00  0.00    -0.082 A 
ATOM      7  C5  PXY d   1      -0.023  -0.023   0.752  0.00  0.00     0.003 A 
ATOM      8  C6  PXY d   1      -0.466   1.194   1.263  0.00  0.00     0.003 A 
ENDROOT
TORSDOF 0
ENDMDL
