MODEL 1
REMARK minimizedAffinity -4.29073715
REMARK minimizedRMSD -1
REMARK  0 active torsions:
REMARK  status: ('A' for Active; 'I' for Inactive)
ROOT
ATOM      1  C4' PXY d   1       0.804  -1.586  -1.333  0.00  0.00     0.077 C 
ATOM      2  C1' PXY d   1      -1.019   2.555   2.265  0.00  0.00     0.077 C 
ATOM      3  C1  PXY d   1      -0.552   1.470   1.314  0.00  0.00    -0.082 A 
ATOM      4  C2  PXY d   1       0.364   0.601   1.712  0.00  0.00     0.003 A 
ATOM      5  C3  PXY d   1       0.821  -0.366   0.855  0.00  0.00     0.003 A 
ATOM      6  C4  PXY d   1       0.296  -0.480  -0.405  0.00  0.00    -0.082 A 
ATOM      7  C5  PXY d   1      -0.646   0.396  -0.814  0.00  0.00     0.003 A 
ATOM      8  C6  PXY d   1      -1.066   1.397   0.057  0.00  0.00     0.003 A 
ENDROOT
TORSDOF 0
ENDMDL
