MODEL 1
REMARK minimizedAffinity -5.46866608
REMARK minimizedRMSD -1
REMARK  0 active torsions:
REMARK  status: ('A' for Active; 'I' for Inactive)
ROOT
ATOM      1  C4' PXY d   1      -1.439   2.366   1.498  0.00  0.00     0.077 C 
ATOM      2  C1' PXY d   1       0.690  -1.635  -2.090  0.00  0.00     0.077 C 
ATOM      3  C1  PXY d   1       0.132  -0.577  -1.159  0.00  0.00    -0.082 A 
ATOM      4  C2  PXY d   1       0.255  -0.727   0.150  0.00  0.00     0.003 A 
ATOM      5  C3  PXY d   1      -0.271   0.204   1.008  0.00  0.00     0.003 A 
ATOM      6  C4  PXY d   1      -0.883   1.328   0.519  0.00  0.00    -0.082 A 
ATOM      7  C5  PXY d   1      -1.002   1.494  -0.815  0.00  0.00     0.003 A 
ATOM      8  C6  PXY d   1      -0.498   0.516  -1.668  0.00  0.00     0.003 A 
ENDROOT
TORSDOF 0
ENDMDL
