MODEL 1
REMARK minimizedAffinity -5.74226761
REMARK minimizedRMSD -1
REMARK  0 active torsions:
REMARK  status: ('A' for Active; 'I' for Inactive)
ROOT
ATOM      1  C4' PXY d   1       1.027  -0.617  -2.081  0.00  0.00     0.077 C 
ATOM      2  C1' PXY d   1      -1.092   2.035   2.598  0.00  0.00     0.077 C 
ATOM      3  C1  PXY d   1      -0.527   1.334   1.378  0.00  0.00    -0.082 A 
ATOM      4  C2  PXY d   1      -0.772   1.820   0.172  0.00  0.00     0.003 A 
ATOM      5  C3  PXY d   1      -0.296   1.181  -0.943  0.00  0.00     0.003 A 
ATOM      6  C4  PXY d   1       0.485   0.063  -0.821  0.00  0.00    -0.082 A 
ATOM      7  C5  PXY d   1       0.749  -0.433   0.407  0.00  0.00     0.003 A 
ATOM      8  C6  PXY d   1       0.221   0.207   1.525  0.00  0.00     0.003 A 
ENDROOT
TORSDOF 0
ENDMDL
