MODEL 1
REMARK minimizedAffinity -4.17857933
REMARK minimizedRMSD -1
REMARK  0 active torsions:
REMARK  status: ('A' for Active; 'I' for Inactive)
ROOT
ATOM      1  C4' PXY d   1      -1.110  -2.525  -1.199  0.00  0.00     0.077 C 
ATOM      2  C1' PXY d   1      -0.126   2.426   1.619  0.00  0.00     0.077 C 
ATOM      3  C1  PXY d   1      -0.374   1.130   0.872  0.00  0.00    -0.082 A 
ATOM      4  C2  PXY d   1      -1.576   0.578   0.902  0.00  0.00     0.003 A 
ATOM      5  C3  PXY d   1      -1.809  -0.610   0.259  0.00  0.00     0.003 A 
ATOM      6  C4  PXY d   1      -0.816  -1.212  -0.467  0.00  0.00    -0.082 A 
ATOM      7  C5  PXY d   1       0.410  -0.649  -0.511  0.00  0.00     0.003 A 
ATOM      8  C6  PXY d   1       0.637   0.536   0.183  0.00  0.00     0.003 A 
ENDROOT
TORSDOF 0
ENDMDL
