MODEL 1
REMARK minimizedAffinity -3.11696744
REMARK minimizedRMSD -1
REMARK  0 active torsions:
REMARK  status: ('A' for Active; 'I' for Inactive)
ROOT
ATOM      1  C4' PXY d   1       0.274  -1.739  -1.125  0.00  0.00     0.077 C 
ATOM      2  C1' PXY d   1       0.560   2.394   2.906  0.00  0.00     0.077 C 
ATOM      3  C1  PXY d   1       0.472   1.313   1.847  0.00  0.00    -0.082 A 
ATOM      4  C2  PXY d   1       1.314   0.292   1.882  0.00  0.00     0.003 A 
ATOM      5  C3  PXY d   1       1.270  -0.677   0.914  0.00  0.00     0.003 A 
ATOM      6  C4  PXY d   1       0.319  -0.630  -0.071  0.00  0.00    -0.082 A 
ATOM      7  C5  PXY d   1      -0.550   0.402  -0.108  0.00  0.00     0.003 A 
ATOM      8  C6  PXY d   1      -0.462   1.398   0.861  0.00  0.00     0.003 A 
ENDROOT
TORSDOF 0
ENDMDL
