MODEL 1
REMARK minimizedAffinity -0.917473674
REMARK minimizedRMSD -1
REMARK  0 active torsions:
REMARK  status: ('A' for Active; 'I' for Inactive)
ROOT
ATOM      1  C4' PXY d   1       0.323  -2.707  -1.279  0.00  0.00     0.077 C 
ATOM      2  C1' PXY d   1       0.419   2.007   2.064  0.00  0.00     0.077 C 
ATOM      3  C1  PXY d   1       0.384   0.776   1.181  0.00  0.00    -0.082 A 
ATOM      4  C2  PXY d   1       0.854  -0.372   1.640  0.00  0.00     0.003 A 
ATOM      5  C3  PXY d   1       0.860  -1.488   0.843  0.00  0.00     0.003 A 
ATOM      6  C4  PXY d   1       0.330  -1.441  -0.419  0.00  0.00    -0.082 A 
ATOM      7  C5  PXY d   1      -0.161  -0.275  -0.891  0.00  0.00     0.003 A 
ATOM      8  C6  PXY d   1      -0.120   0.856  -0.081  0.00  0.00     0.003 A 
ENDROOT
TORSDOF 0
ENDMDL
