MODEL 1
REMARK minimizedAffinity -2.41354394
REMARK minimizedRMSD -1
REMARK  0 active torsions:
REMARK  status: ('A' for Active; 'I' for Inactive)
ROOT
ATOM      1  C4' PXY d   1      -1.349   2.368   1.801  0.00  0.00     0.077 C 
ATOM      2  C1' PXY d   1       1.091  -2.130  -0.887  0.00  0.00     0.077 C 
ATOM      3  C1  PXY d   1       0.453  -0.956  -0.171  0.00  0.00    -0.082 A 
ATOM      4  C2  PXY d   1      -0.403  -0.182  -0.817  0.00  0.00     0.003 A 
ATOM      5  C3  PXY d   1      -0.965   0.903  -0.194  0.00  0.00     0.003 A 
ATOM      6  C4  PXY d   1      -0.688   1.166   1.120  0.00  0.00    -0.082 A 
ATOM      7  C5  PXY d   1       0.176   0.375   1.790  0.00  0.00     0.003 A 
ATOM      8  C6  PXY d   1       0.767  -0.697   1.128  0.00  0.00     0.003 A 
ENDROOT
TORSDOF 0
ENDMDL
