MODEL 1
REMARK minimizedAffinity -3.97487783
REMARK minimizedRMSD -1
REMARK  0 active torsions:
REMARK  status: ('A' for Active; 'I' for Inactive)
ROOT
ATOM      1  C4' PXY d   1      -1.822   1.645   0.536  0.00  0.00     0.077 C 
ATOM      2  C1' PXY d   1       2.748  -0.899   2.998  0.00  0.00     0.077 C 
ATOM      3  C1  PXY d   1       1.547  -0.225   2.363  0.00  0.00    -0.082 A 
ATOM      4  C2  PXY d   1       0.898  -0.832   1.384  0.00  0.00     0.003 A 
ATOM      5  C3  PXY d   1      -0.170  -0.223   0.777  0.00  0.00     0.003 A 
ATOM      6  C4  PXY d   1      -0.611   0.998   1.213  0.00  0.00    -0.082 A 
ATOM      7  C5  PXY d   1       0.040   1.619   2.219  0.00  0.00     0.003 A 
ATOM      8  C6  PXY d   1       1.147   1.002   2.795  0.00  0.00     0.003 A 
ENDROOT
TORSDOF 0
ENDMDL
