MODEL 1
REMARK minimizedAffinity -1.29161608
REMARK minimizedRMSD -1
REMARK  0 active torsions:
REMARK  status: ('A' for Active; 'I' for Inactive)
ROOT
ATOM      1  C4' PXY d   1      -0.130   2.189  -0.759  0.00  0.00     0.077 C 
ATOM      2  C1' PXY d   1       0.736  -0.285   4.393  0.00  0.00     0.077 C 
ATOM      3  C1  PXY d   1       0.516   0.355   3.036  0.00  0.00    -0.082 A 
ATOM      4  C2  PXY d   1       0.198   1.637   2.961  0.00  0.00     0.003 A 
ATOM      5  C3  PXY d   1      -0.035   2.224   1.744  0.00  0.00     0.003 A 
ATOM      6  C4  PXY d   1       0.110   1.503   0.589  0.00  0.00    -0.082 A 
ATOM      7  C5  PXY d   1       0.445   0.197   0.656  0.00  0.00     0.003 A 
ATOM      8  C6  PXY d   1       0.637  -0.389   1.904  0.00  0.00     0.003 A 
ENDROOT
TORSDOF 0
ENDMDL
