MODEL 1
REMARK minimizedAffinity -4.01657581
REMARK minimizedRMSD -1
REMARK  0 active torsions:
REMARK  status: ('A' for Active; 'I' for Inactive)
ROOT
ATOM      1  C4' PXY d   1      -1.735   2.624   1.916  0.00  0.00     0.077 C 
ATOM      2  C1' PXY d   1       0.891  -1.725  -0.841  0.00  0.00     0.077 C 
ATOM      3  C1  PXY d   1       0.205  -0.591  -0.107  0.00  0.00    -0.082 A 
ATOM      4  C2  PXY d   1      -0.671   0.167  -0.747  0.00  0.00     0.003 A 
ATOM      5  C3  PXY d   1      -1.277   1.217  -0.107  0.00  0.00     0.003 A 
ATOM      6  C4  PXY d   1      -1.025   1.461   1.217  0.00  0.00    -0.082 A 
ATOM      7  C5  PXY d   1      -0.141   0.686   1.879  0.00  0.00     0.003 A 
ATOM      8  C6  PXY d   1       0.495  -0.350   1.200  0.00  0.00     0.003 A 
ENDROOT
TORSDOF 0
ENDMDL
