MODEL 1
REMARK minimizedAffinity 4.73501205
REMARK minimizedRMSD -1
REMARK  0 active torsions:
REMARK  status: ('A' for Active; 'I' for Inactive)
ROOT
ATOM      1  C4' PXY d   1      -3.537   3.415  -1.539  0.00  0.00     0.077 C 
ATOM      2  C1' PXY d   1       1.263   0.363  -0.512  0.00  0.00     0.077 C 
ATOM      3  C1  PXY d   1      -0.000   1.154  -0.789  0.00  0.00    -0.082 A 
ATOM      4  C2  PXY d   1       0.003   2.467  -0.631  0.00  0.00     0.003 A 
ATOM      5  C3  PXY d   1      -1.139   3.195  -0.847  0.00  0.00     0.003 A 
ATOM      6  C4  PXY d   1      -2.282   2.577  -1.280  0.00  0.00    -0.082 A 
ATOM      7  C5  PXY d   1      -2.291   1.239  -1.453  0.00  0.00     0.003 A 
ATOM      8  C6  PXY d   1      -1.132   0.513  -1.189  0.00  0.00     0.003 A 
ENDROOT
TORSDOF 0
ENDMDL
