MODEL 1
REMARK minimizedAffinity 5.65241385
REMARK minimizedRMSD -1
REMARK  0 active torsions:
REMARK  status: ('A' for Active; 'I' for Inactive)
ROOT
ATOM      1  C4' PXY d   1       6.000  -1.525  -2.334  0.00  0.00     0.077 C 
ATOM      2  C1' PXY d   1       1.443  -1.650   1.221  0.00  0.00     0.077 C 
ATOM      3  C1  PXY d   1       2.644  -1.627   0.295  0.00  0.00    -0.082 A 
ATOM      4  C2  PXY d   1       2.954  -0.512  -0.347  0.00  0.00     0.003 A 
ATOM      5  C3  PXY d   1       4.017  -0.483  -1.212  0.00  0.00     0.003 A 
ATOM      6  C4  PXY d   1       4.802  -1.591  -1.382  0.00  0.00    -0.082 A 
ATOM      7  C5  PXY d   1       4.499  -2.729  -0.723  0.00  0.00     0.003 A 
ATOM      8  C6  PXY d   1       3.391  -2.750   0.119  0.00  0.00     0.003 A 
ENDROOT
TORSDOF 0
ENDMDL
