MODEL 1
REMARK minimizedAffinity 5.57549906
REMARK minimizedRMSD -1
REMARK  0 active torsions:
REMARK  status: ('A' for Active; 'I' for Inactive)
ROOT
ATOM      1  C4' PXY d   1      -2.778   0.882  -0.422  0.00  0.00     0.077 C 
ATOM      2  C1' PXY d   1      -5.073   4.810  -3.988  0.00  0.00     0.077 C 
ATOM      3  C1  PXY d   1      -4.481   3.772  -3.056  0.00  0.00    -0.082 A 
ATOM      4  C2  PXY d   1      -3.647   4.150  -2.101  0.00  0.00     0.003 A 
ATOM      5  C3  PXY d   1      -3.077   3.221  -1.269  0.00  0.00     0.003 A 
ATOM      6  C4  PXY d   1      -3.407   1.896  -1.381  0.00  0.00    -0.082 A 
ATOM      7  C5  PXY d   1      -4.265   1.504  -2.346  0.00  0.00     0.003 A 
ATOM      8  C6  PXY d   1      -4.801   2.458  -3.206  0.00  0.00     0.003 A 
ENDROOT
TORSDOF 0
ENDMDL
