MODEL 1
REMARK minimizedAffinity 4.99831963
REMARK minimizedRMSD -1
REMARK  0 active torsions:
REMARK  status: ('A' for Active; 'I' for Inactive)
ROOT
ATOM      1  C4' PXY d   1       5.803  -3.296  -2.148  0.00  0.00     0.077 C 
ATOM      2  C1' PXY d   1       1.311  -0.309  -0.071  0.00  0.00     0.077 C 
ATOM      3  C1  PXY d   1       2.485  -1.103  -0.609  0.00  0.00    -0.082 A 
ATOM      4  C2  PXY d   1       3.582  -0.471  -0.990  0.00  0.00     0.003 A 
ATOM      5  C3  PXY d   1       4.641  -1.170  -1.509  0.00  0.00     0.003 A 
ATOM      6  C4  PXY d   1       4.597  -2.536  -1.590  0.00  0.00    -0.082 A 
ATOM      7  C5  PXY d   1       3.484  -3.190  -1.193  0.00  0.00     0.003 A 
ATOM      8  C6  PXY d   1       2.404  -2.458  -0.708  0.00  0.00     0.003 A 
ENDROOT
TORSDOF 0
ENDMDL
