MODEL 1
REMARK minimizedAffinity -4.29550266
REMARK minimizedRMSD -1
REMARK  0 active torsions:
REMARK  status: ('A' for Active; 'I' for Inactive)
ROOT
ATOM      1  C   UNL d   1      -2.663   3.384  -5.978  0.00  0.00     0.078 C 
ATOM      2  C1  UNL d   1      -3.394   2.088  -5.790  0.00  0.00    -0.077 A 
ATOM      3  C2  UNL d   1      -2.712   0.923  -5.416  0.00  0.00    -0.001 A 
ATOM      4  C3  UNL d   1      -3.403  -0.278  -5.254  0.00  0.00     0.003 A 
ATOM      5  C4  UNL d   1      -4.780  -0.327  -5.463  0.00  0.00    -0.005 A 
ATOM      6  C5  UNL d   1      -5.467   0.826  -5.837  0.00  0.00     0.003 A 
ATOM      7  C6  UNL d   1      -4.777   2.029  -6.000  0.00  0.00    -0.001 A 
ENDROOT
TORSDOF 0
ENDMDL
