MODEL 1
REMARK minimizedAffinity -2.04250622
REMARK minimizedRMSD -1
REMARK  0 active torsions:
REMARK  status: ('A' for Active; 'I' for Inactive)
ROOT
ATOM      1  C   UNL d   1      -1.859  -6.000  -5.699  0.00  0.00     0.078 C 
ATOM      2  C1  UNL d   1      -3.101  -5.165  -5.796  0.00  0.00    -0.077 A 
ATOM      3  C2  UNL d   1      -4.364  -5.759  -5.900  0.00  0.00    -0.001 A 
ATOM      4  C3  UNL d   1      -5.510  -4.969  -5.999  0.00  0.00     0.003 A 
ATOM      5  C4  UNL d   1      -5.405  -3.580  -5.997  0.00  0.00    -0.005 A 
ATOM      6  C5  UNL d   1      -4.152  -2.979  -5.896  0.00  0.00     0.003 A 
ATOM      7  C6  UNL d   1      -3.004  -3.767  -5.797  0.00  0.00    -0.001 A 
ENDROOT
TORSDOF 0
ENDMDL
