MODEL 1
REMARK minimizedAffinity 0.91471523
REMARK minimizedRMSD -1
REMARK  0 active torsions:
REMARK  status: ('A' for Active; 'I' for Inactive)
ROOT
ATOM      1  C   UNL d   1      -4.514  -0.878  -5.998  0.00  0.00     0.078 C 
ATOM      2  C1  UNL d   1      -3.872   0.477  -5.986  0.00  0.00    -0.077 A 
ATOM      3  C2  UNL d   1      -4.649   1.643  -6.000  0.00  0.00    -0.001 A 
ATOM      4  C3  UNL d   1      -4.038   2.898  -5.999  0.00  0.00     0.003 A 
ATOM      5  C4  UNL d   1      -2.648   2.999  -5.986  0.00  0.00    -0.005 A 
ATOM      6  C5  UNL d   1      -1.867   1.845  -5.975  0.00  0.00     0.003 A 
ATOM      7  C6  UNL d   1      -2.476   0.589  -5.976  0.00  0.00    -0.001 A 
ENDROOT
TORSDOF 0
ENDMDL
