MODEL 1
REMARK minimizedAffinity -1.70469499
REMARK minimizedRMSD -1
REMARK  0 active torsions:
REMARK  status: ('A' for Active; 'I' for Inactive)
ROOT
ATOM      1  C   UNL d   1      -5.032  -0.409  -5.991  0.00  0.00     0.078 C 
ATOM      2  C1  UNL d   1      -4.417   0.959  -6.000  0.00  0.00    -0.077 A 
ATOM      3  C2  UNL d   1      -3.027   1.125  -5.998  0.00  0.00    -0.001 A 
ATOM      4  C3  UNL d   1      -2.469   2.405  -5.997  0.00  0.00     0.003 A 
ATOM      5  C4  UNL d   1      -3.294   3.528  -5.996  0.00  0.00    -0.005 A 
ATOM      6  C5  UNL d   1      -4.679   3.372  -5.995  0.00  0.00     0.003 A 
ATOM      7  C6  UNL d   1      -5.238   2.093  -5.997  0.00  0.00    -0.001 A 
ENDROOT
TORSDOF 0
ENDMDL
