MODEL 1
REMARK minimizedAffinity -3.47609591
REMARK minimizedRMSD -1
REMARK  0 active torsions:
REMARK  status: ('A' for Active; 'I' for Inactive)
ROOT
ATOM      1  C   UNL d   1      -4.528  -0.178  -5.987  0.00  0.00     0.078 C 
ATOM      2  C1  UNL d   1      -4.448   1.319  -5.981  0.00  0.00    -0.077 A 
ATOM      3  C2  UNL d   1      -5.608   2.104  -5.994  0.00  0.00    -0.001 A 
ATOM      4  C3  UNL d   1      -5.519   3.497  -5.999  0.00  0.00     0.003 A 
ATOM      5  C4  UNL d   1      -4.271   4.117  -5.991  0.00  0.00    -0.005 A 
ATOM      6  C5  UNL d   1      -3.111   3.345  -5.980  0.00  0.00     0.003 A 
ATOM      7  C6  UNL d   1      -3.199   1.952  -5.976  0.00  0.00    -0.001 A 
ENDROOT
TORSDOF 0
ENDMDL
