MODEL 1
REMARK minimizedAffinity -3.10546589
REMARK minimizedRMSD -1
REMARK  0 active torsions:
REMARK  status: ('A' for Active; 'I' for Inactive)
ROOT
ATOM      1  C   UNL d   1      -2.193   5.024  -5.988  0.00  0.00     0.078 C 
ATOM      2  C1  UNL d   1      -2.968   3.740  -5.999  0.00  0.00    -0.077 A 
ATOM      3  C2  UNL d   1      -4.368   3.744  -5.997  0.00  0.00    -0.001 A 
ATOM      4  C3  UNL d   1      -5.077   2.541  -5.997  0.00  0.00     0.003 A 
ATOM      5  C4  UNL d   1      -4.394   1.327  -5.999  0.00  0.00    -0.005 A 
ATOM      6  C5  UNL d   1      -3.000   1.313  -5.999  0.00  0.00     0.003 A 
ATOM      7  C6  UNL d   1      -2.290   2.515  -5.999  0.00  0.00    -0.001 A 
ENDROOT
TORSDOF 0
ENDMDL
