MODEL 1
REMARK minimizedAffinity -3.56710434
REMARK minimizedRMSD -1
REMARK  0 active torsions:
REMARK  status: ('A' for Active; 'I' for Inactive)
ROOT
ATOM      1  C   UNL d   1      -2.985   3.022  -5.818  0.00  0.00     0.078 C 
ATOM      2  C1  UNL d   1      -3.592   1.652  -5.785  0.00  0.00    -0.077 A 
ATOM      3  C2  UNL d   1      -2.802   0.518  -5.559  0.00  0.00    -0.001 A 
ATOM      4  C3  UNL d   1      -3.379  -0.753  -5.541  0.00  0.00     0.003 A 
ATOM      5  C4  UNL d   1      -4.748  -0.902  -5.751  0.00  0.00    -0.005 A 
ATOM      6  C5  UNL d   1      -5.542   0.220  -5.980  0.00  0.00     0.003 A 
ATOM      7  C6  UNL d   1      -4.967   1.491  -5.997  0.00  0.00    -0.001 A 
ENDROOT
TORSDOF 0
ENDMDL
