MODEL 1
REMARK minimizedAffinity -2.75739861
REMARK minimizedRMSD -1
REMARK  0 active torsions:
REMARK  status: ('A' for Active; 'I' for Inactive)
ROOT
ATOM      1  C   UNL d   1      -4.872   3.885  -5.996  0.00  0.00     0.078 C 
ATOM      2  C1  UNL d   1      -4.378   2.469  -5.990  0.00  0.00    -0.077 A 
ATOM      3  C2  UNL d   1      -3.008   2.183  -5.992  0.00  0.00    -0.001 A 
ATOM      4  C3  UNL d   1      -2.562   0.860  -5.996  0.00  0.00     0.003 A 
ATOM      5  C4  UNL d   1      -3.481  -0.187  -5.999  0.00  0.00    -0.005 A 
ATOM      6  C5  UNL d   1      -4.847   0.088  -6.000  0.00  0.00     0.003 A 
ATOM      7  C6  UNL d   1      -5.294   1.410  -5.996  0.00  0.00    -0.001 A 
ENDROOT
TORSDOF 0
ENDMDL
