MODEL 1
REMARK minimizedAffinity -1.60393763
REMARK minimizedRMSD -1
REMARK  0 active torsions:
REMARK  status: ('A' for Active; 'I' for Inactive)
ROOT
ATOM      1  C   UNL d   1      -5.367   4.802  -5.989  0.00  0.00     0.078 C 
ATOM      2  C1  UNL d   1      -4.996   3.349  -5.985  0.00  0.00    -0.077 A 
ATOM      3  C2  UNL d   1      -3.654   2.948  -5.994  0.00  0.00    -0.001 A 
ATOM      4  C3  UNL d   1      -3.323   1.592  -6.000  0.00  0.00     0.003 A 
ATOM      5  C4  UNL d   1      -4.328   0.626  -5.999  0.00  0.00    -0.005 A 
ATOM      6  C5  UNL d   1      -5.666   1.016  -5.992  0.00  0.00     0.003 A 
ATOM      7  C6  UNL d   1      -5.999   2.371  -5.986  0.00  0.00    -0.001 A 
ENDROOT
TORSDOF 0
ENDMDL
