MODEL 1
REMARK minimizedAffinity -2.22680593
REMARK minimizedRMSD -1
REMARK  0 active torsions:
REMARK  status: ('A' for Active; 'I' for Inactive)
ROOT
ATOM      1  C   UNL d   1      -4.522  -0.707  -5.972  0.00  0.00     0.078 C 
ATOM      2  C1  UNL d   1      -4.229   0.763  -5.975  0.00  0.00    -0.077 A 
ATOM      3  C2  UNL d   1      -5.265   1.705  -5.984  0.00  0.00    -0.001 A 
ATOM      4  C3  UNL d   1      -4.978   3.071  -5.996  0.00  0.00     0.003 A 
ATOM      5  C4  UNL d   1      -3.655   3.507  -6.000  0.00  0.00    -0.005 A 
ATOM      6  C5  UNL d   1      -2.617   2.578  -5.993  0.00  0.00     0.003 A 
ATOM      7  C6  UNL d   1      -2.902   1.212  -5.981  0.00  0.00    -0.001 A 
ENDROOT
TORSDOF 0
ENDMDL
