MODEL 1
REMARK minimizedAffinity -1.9735477
REMARK minimizedRMSD -1
REMARK  0 active torsions:
REMARK  status: ('A' for Active; 'I' for Inactive)
ROOT
ATOM      1  C   UNL d   1      -4.046   4.877  -5.970  0.00  0.00     0.078 C 
ATOM      2  C1  UNL d   1      -3.992   3.379  -5.981  0.00  0.00    -0.077 A 
ATOM      3  C2  UNL d   1      -5.165   2.615  -5.965  0.00  0.00    -0.001 A 
ATOM      4  C3  UNL d   1      -5.100   1.221  -5.966  0.00  0.00     0.003 A 
ATOM      5  C4  UNL d   1      -3.863   0.578  -5.981  0.00  0.00    -0.005 A 
ATOM      6  C5  UNL d   1      -2.690   1.330  -5.995  0.00  0.00     0.003 A 
ATOM      7  C6  UNL d   1      -2.754   2.725  -5.994  0.00  0.00    -0.001 A 
ENDROOT
TORSDOF 0
ENDMDL
