MODEL 1
REMARK minimizedAffinity -2.28049803
REMARK minimizedRMSD -1
REMARK  0 active torsions:
REMARK  status: ('A' for Active; 'I' for Inactive)
ROOT
ATOM      1  C   UNL d   1      -2.743   1.284  -5.972  0.00  0.00     0.078 C 
ATOM      2  C1  UNL d   1      -3.721   2.421  -5.970  0.00  0.00    -0.077 A 
ATOM      3  C2  UNL d   1      -5.101   2.185  -5.968  0.00  0.00    -0.001 A 
ATOM      4  C3  UNL d   1      -6.000   3.253  -5.976  0.00  0.00     0.003 A 
ATOM      5  C4  UNL d   1      -5.529   4.564  -5.988  0.00  0.00    -0.005 A 
ATOM      6  C5  UNL d   1      -4.157   4.809  -5.992  0.00  0.00     0.003 A 
ATOM      7  C6  UNL d   1      -3.257   3.742  -5.984  0.00  0.00    -0.001 A 
ENDROOT
TORSDOF 0
ENDMDL
