MODEL 1
REMARK minimizedAffinity -2.49128604
REMARK minimizedRMSD -1
REMARK  0 active torsions:
REMARK  status: ('A' for Active; 'I' for Inactive)
ROOT
ATOM      1  C   UNL d   1      -2.384   0.588  -5.962  0.00  0.00     0.078 C 
ATOM      2  C1  UNL d   1      -3.445   1.647  -5.982  0.00  0.00    -0.077 A 
ATOM      3  C2  UNL d   1      -3.107   3.006  -5.985  0.00  0.00    -0.001 A 
ATOM      4  C3  UNL d   1      -4.105   3.982  -5.993  0.00  0.00     0.003 A 
ATOM      5  C4  UNL d   1      -5.448   3.609  -5.999  0.00  0.00    -0.005 A 
ATOM      6  C5  UNL d   1      -5.794   2.259  -5.995  0.00  0.00     0.003 A 
ATOM      7  C6  UNL d   1      -4.797   1.282  -5.986  0.00  0.00    -0.001 A 
ENDROOT
TORSDOF 0
ENDMDL
