MODEL 1
REMARK minimizedAffinity -2.53128743
REMARK minimizedRMSD -1
REMARK  0 active torsions:
REMARK  status: ('A' for Active; 'I' for Inactive)
ROOT
ATOM      1  C   UNL d   1      -4.572   0.396  -5.983  0.00  0.00     0.078 C 
ATOM      2  C1  UNL d   1      -4.421   1.887  -5.981  0.00  0.00    -0.077 A 
ATOM      3  C2  UNL d   1      -5.542   2.726  -5.991  0.00  0.00    -0.001 A 
ATOM      4  C3  UNL d   1      -5.386   4.113  -6.000  0.00  0.00     0.003 A 
ATOM      5  C4  UNL d   1      -4.110   4.674  -5.999  0.00  0.00    -0.005 A 
ATOM      6  C5  UNL d   1      -2.989   3.847  -5.992  0.00  0.00     0.003 A 
ATOM      7  C6  UNL d   1      -3.142   2.460  -5.983  0.00  0.00    -0.001 A 
ENDROOT
TORSDOF 0
ENDMDL
