MODEL 1
REMARK minimizedAffinity -3.1743257
REMARK minimizedRMSD -1
REMARK  0 active torsions:
REMARK  status: ('A' for Active; 'I' for Inactive)
ROOT
ATOM      1  C   UNL d   1      -4.861  -1.097  -5.948  0.00  0.00     0.078 C 
ATOM      2  C1  UNL d   1      -4.365   0.318  -5.958  0.00  0.00    -0.077 A 
ATOM      3  C2  UNL d   1      -5.258   1.396  -5.971  0.00  0.00    -0.001 A 
ATOM      4  C3  UNL d   1      -4.782   2.707  -5.991  0.00  0.00     0.003 A 
ATOM      5  C4  UNL d   1      -3.411   2.954  -5.999  0.00  0.00    -0.005 A 
ATOM      6  C5  UNL d   1      -2.514   1.888  -5.989  0.00  0.00     0.003 A 
ATOM      7  C6  UNL d   1      -2.988   0.575  -5.969  0.00  0.00    -0.001 A 
ENDROOT
TORSDOF 0
ENDMDL
