MODEL 1
REMARK minimizedAffinity -2.40630984
REMARK minimizedRMSD -1
REMARK  0 active torsions:
REMARK  status: ('A' for Active; 'I' for Inactive)
ROOT
ATOM      1  C   UNL d   1      -5.068   1.117  -5.995  0.00  0.00     0.078 C 
ATOM      2  C1  UNL d   1      -4.325   2.420  -6.000  0.00  0.00    -0.077 A 
ATOM      3  C2  UNL d   1      -2.926   2.452  -5.992  0.00  0.00    -0.001 A 
ATOM      4  C3  UNL d   1      -2.247   3.672  -5.987  0.00  0.00     0.003 A 
ATOM      5  C4  UNL d   1      -2.960   4.869  -5.988  0.00  0.00    -0.005 A 
ATOM      6  C5  UNL d   1      -4.354   4.847  -5.993  0.00  0.00     0.003 A 
ATOM      7  C6  UNL d   1      -5.034   3.628  -5.999  0.00  0.00    -0.001 A 
ENDROOT
TORSDOF 0
ENDMDL
