MODEL 1
REMARK minimizedAffinity -0.560814381
REMARK minimizedRMSD -1
REMARK  0 active torsions:
REMARK  status: ('A' for Active; 'I' for Inactive)
ROOT
ATOM      1  C   UNL d   1      -2.519  -5.228  -5.216  0.00  0.00     0.078 C 
ATOM      2  C1  UNL d   1      -3.487  -4.085  -5.144  0.00  0.00    -0.077 A 
ATOM      3  C2  UNL d   1      -3.310  -3.047  -4.220  0.00  0.00    -0.001 A 
ATOM      4  C3  UNL d   1      -4.224  -1.994  -4.158  0.00  0.00     0.003 A 
ATOM      5  C4  UNL d   1      -5.322  -1.970  -5.015  0.00  0.00    -0.005 A 
ATOM      6  C5  UNL d   1      -5.508  -2.999  -5.936  0.00  0.00     0.003 A 
ATOM      7  C6  UNL d   1      -4.595  -4.052  -6.000  0.00  0.00    -0.001 A 
ENDROOT
TORSDOF 0
ENDMDL
