MODEL 1
REMARK minimizedAffinity -2.57474542
REMARK minimizedRMSD -1
REMARK  0 active torsions:
REMARK  status: ('A' for Active; 'I' for Inactive)
ROOT
ATOM      1  C   UNL d   1      -2.217  -6.000  -5.647  0.00  0.00     0.078 C 
ATOM      2  C1  UNL d   1      -3.525  -5.272  -5.743  0.00  0.00    -0.077 A 
ATOM      3  C2  UNL d   1      -3.583  -3.877  -5.646  0.00  0.00    -0.001 A 
ATOM      4  C3  UNL d   1      -4.808  -3.213  -5.728  0.00  0.00     0.003 A 
ATOM      5  C4  UNL d   1      -5.985  -3.938  -5.905  0.00  0.00    -0.005 A 
ATOM      6  C5  UNL d   1      -5.938  -5.327  -6.000  0.00  0.00     0.003 A 
ATOM      7  C6  UNL d   1      -4.714  -5.992  -5.919  0.00  0.00    -0.001 A 
ENDROOT
TORSDOF 0
ENDMDL
