MODEL 1
REMARK minimizedAffinity -3.86083436
REMARK minimizedRMSD -1
REMARK  0 active torsions:
REMARK  status: ('A' for Active; 'I' for Inactive)
ROOT
ATOM      1  C   UNL d   1      -0.670   0.488  -0.068  0.00  0.00     0.020 A 
ATOM      2  C1  UNL d   1      -1.263  -0.629   0.519  0.00  0.00     0.020 A 
ATOM      3  C2  UNL d   1      -0.517  -1.452   1.366  0.00  0.00     0.034 A 
ATOM      4  C3  UNL d   1       0.826  -1.159   1.628  0.00  0.00     0.017 A 
ATOM      5  C4  UNL d   1       1.421  -0.038   1.039  0.00  0.00     0.017 A 
ATOM      6  C5  UNL d   1       0.669   0.783   0.192  0.00  0.00     0.034 A 
ATOM      7 Cl   UNL d   1       3.073   0.388   1.315  0.00  0.00    -0.070 Cl
ATOM      8 Cl1  UNL d   1       1.688  -2.220   2.686  0.00  0.00    -0.070 Cl
ENDROOT
TORSDOF 0
ENDMDL
