MODEL 1
REMARK minimizedAffinity -3.80924582
REMARK minimizedRMSD -1
REMARK  0 active torsions:
REMARK  status: ('A' for Active; 'I' for Inactive)
ROOT
ATOM      1  C   UNL d   1       1.763  -0.481   1.852  0.00  0.00     0.020 A 
ATOM      2  C1  UNL d   1       2.867   0.257   1.426  0.00  0.00     0.020 A 
ATOM      3  C2  UNL d   1       2.793   1.008   0.251  0.00  0.00     0.034 A 
ATOM      4  C3  UNL d   1       1.614   1.023  -0.502  0.00  0.00     0.017 A 
ATOM      5  C4  UNL d   1       0.506   0.282  -0.074  0.00  0.00     0.017 A 
ATOM      6  C5  UNL d   1       0.585  -0.468   1.103  0.00  0.00     0.034 A 
ATOM      7 Cl   UNL d   1      -0.983   0.252  -0.950  0.00  0.00    -0.070 Cl
ATOM      8 Cl1  UNL d   1       1.594   1.974  -1.945  0.00  0.00    -0.070 Cl
ENDROOT
TORSDOF 0
ENDMDL
