MODEL 1
REMARK minimizedAffinity -4.42308664
REMARK minimizedRMSD -1
REMARK  0 active torsions:
REMARK  status: ('A' for Active; 'I' for Inactive)
ROOT
ATOM      1  C   UNL d   1       2.244  -1.284  -0.560  0.00  0.00     0.020 A 
ATOM      2  C1  UNL d   1       2.781  -0.382   0.359  0.00  0.00     0.020 A 
ATOM      3  C2  UNL d   1       2.042   0.735   0.754  0.00  0.00     0.034 A 
ATOM      4  C3  UNL d   1       0.762   0.953   0.231  0.00  0.00     0.017 A 
ATOM      5  C4  UNL d   1       0.224   0.048  -0.691  0.00  0.00     0.017 A 
ATOM      6  C5  UNL d   1       0.969  -1.069  -1.083  0.00  0.00     0.034 A 
ATOM      7 Cl   UNL d   1      -1.348   0.250  -1.380  0.00  0.00    -0.070 Cl
ATOM      8 Cl1  UNL d   1      -0.095   2.355   0.765  0.00  0.00    -0.070 Cl
ENDROOT
TORSDOF 0
ENDMDL
