MODEL 1
REMARK minimizedAffinity -3.8924849
REMARK minimizedRMSD -1
REMARK  0 active torsions:
REMARK  status: ('A' for Active; 'I' for Inactive)
ROOT
ATOM      1  C   UNL d   1      -0.752   1.028  -0.427  0.00  0.00     0.020 A 
ATOM      2  C1  UNL d   1       0.426   1.757  -0.584  0.00  0.00     0.020 A 
ATOM      3  C2  UNL d   1       1.638   1.232  -0.128  0.00  0.00     0.034 A 
ATOM      4  C3  UNL d   1       1.673  -0.024   0.488  0.00  0.00     0.017 A 
ATOM      5  C4  UNL d   1       0.490  -0.754   0.646  0.00  0.00     0.017 A 
ATOM      6  C5  UNL d   1      -0.720  -0.224   0.187  0.00  0.00     0.034 A 
ATOM      7 Cl   UNL d   1       0.454  -2.311   1.396  0.00  0.00    -0.070 Cl
ATOM      8 Cl1  UNL d   1       3.206  -0.611   1.028  0.00  0.00    -0.070 Cl
ENDROOT
TORSDOF 0
ENDMDL
