MODEL 1
REMARK minimizedAffinity -4.75951195
REMARK minimizedRMSD -1
REMARK  0 active torsions:
REMARK  status: ('A' for Active; 'I' for Inactive)
ROOT
ATOM      1  C   UNL d   1       0.489   1.900  -0.184  0.00  0.00     0.020 A 
ATOM      2  C1  UNL d   1      -0.739   1.281   0.047  0.00  0.00     0.020 A 
ATOM      3  C2  UNL d   1      -0.781  -0.005   0.589  0.00  0.00     0.034 A 
ATOM      4  C3  UNL d   1       0.407  -0.677   0.900  0.00  0.00     0.017 A 
ATOM      5  C4  UNL d   1       1.639  -0.055   0.668  0.00  0.00     0.017 A 
ATOM      6  C5  UNL d   1       1.675   1.233   0.125  0.00  0.00     0.034 A 
ATOM      7 Cl   UNL d   1       3.146  -0.820   1.026  0.00  0.00    -0.070 Cl
ATOM      8 Cl1  UNL d   1       0.280  -2.266   1.568  0.00  0.00    -0.070 Cl
ENDROOT
TORSDOF 0
ENDMDL
