MODEL 1
REMARK minimizedAffinity -1.69379139
REMARK minimizedRMSD -1
REMARK  0 active torsions:
REMARK  status: ('A' for Active; 'I' for Inactive)
ROOT
ATOM      1  C   UNL d   1       2.621   0.347   0.899  0.00  0.00     0.020 A 
ATOM      2  C1  UNL d   1       1.910   1.366   0.267  0.00  0.00     0.020 A 
ATOM      3  C2  UNL d   1       0.578   1.163  -0.101  0.00  0.00     0.034 A 
ATOM      4  C3  UNL d   1      -0.047  -0.062   0.163  0.00  0.00     0.017 A 
ATOM      5  C4  UNL d   1       0.669  -1.084   0.798  0.00  0.00     0.017 A 
ATOM      6  C5  UNL d   1       2.002  -0.875   1.164  0.00  0.00     0.034 A 
ATOM      7 Cl   UNL d   1      -0.034  -2.622   1.156  0.00  0.00    -0.070 Cl
ATOM      8 Cl1  UNL d   1      -1.696  -0.243  -0.319  0.00  0.00    -0.070 Cl
ENDROOT
TORSDOF 0
ENDMDL
