MODEL 1
REMARK minimizedAffinity 5.79434729
REMARK minimizedRMSD -1
REMARK  1 active torsions:
REMARK  status: ('A' for Active; 'I' for Inactive)
REMARK    1  A    between atoms: C3_4  and  O_7 
ROOT
ATOM      1  C   UNL d   1      -5.998   0.595   5.956  0.00  0.00    -0.033 A 
ATOM      2  C1  UNL d   1      -5.749   1.968   5.994  0.00  0.00     0.039 A 
ATOM      3  C2  UNL d   1      -4.987   2.569   4.989  0.00  0.00    -0.080 A 
ATOM      4  C3  UNL d   1      -4.483   1.787   3.954  0.00  0.00     0.150 A 
ATOM      5  C4  UNL d   1      -4.731   0.419   3.908  0.00  0.00    -0.007 A 
ATOM      6  C5  UNL d   1      -5.490  -0.180   4.912  0.00  0.00     0.039 A 
ENDROOT
BRANCH   4   7
ATOM      7  O   UNL d   1      -3.730   2.328   2.954  0.00  0.00    -0.526 OA
ATOM      8  H5  UNL d   1      -3.618   3.276   3.132  0.00  0.00     0.418 HD
ENDBRANCH   4   7
TORSDOF 1
ENDMDL
