MODEL 1
REMARK minimizedAffinity 8.12549973
REMARK minimizedRMSD -1
REMARK  1 active torsions:
REMARK  status: ('A' for Active; 'I' for Inactive)
REMARK    1  A    between atoms: C3_4  and  O_7 
ROOT
ATOM      1  C   UNL d   1       3.188   0.064  -0.214  0.00  0.00    -0.033 A 
ATOM      2  C1  UNL d   1       2.875   0.153   1.144  0.00  0.00     0.039 A 
ATOM      3  C2  UNL d   1       2.209   1.277   1.637  0.00  0.00    -0.080 A 
ATOM      4  C3  UNL d   1       1.861   2.303   0.762  0.00  0.00     0.150 A 
ATOM      5  C4  UNL d   1       2.166   2.219  -0.592  0.00  0.00    -0.007 A 
ATOM      6  C5  UNL d   1       2.832   1.096  -1.082  0.00  0.00     0.039 A 
ENDROOT
BRANCH   4   7
ATOM      7  O   UNL d   1       1.215   3.421   1.198  0.00  0.00    -0.526 OA
ATOM      8  H5  UNL d   1       1.096   3.353   2.160  0.00  0.00     0.418 HD
ENDBRANCH   4   7
TORSDOF 1
ENDMDL
