MODEL 1
REMARK minimizedAffinity 8.05946732
REMARK minimizedRMSD -1
REMARK  1 active torsions:
REMARK  status: ('A' for Active; 'I' for Inactive)
REMARK    1  A    between atoms: C3_4  and  O_7 
ROOT
ATOM      1  C   UNL d   1      -5.835  -0.002   4.972  0.00  0.00    -0.033 A 
ATOM      2  C1  UNL d   1      -5.999   0.928   6.000  0.00  0.00     0.039 A 
ATOM      3  C2  UNL d   1      -5.439   2.202   5.887  0.00  0.00    -0.080 A 
ATOM      4  C3  UNL d   1      -4.720   2.534   4.742  0.00  0.00     0.150 A 
ATOM      5  C4  UNL d   1      -4.555   1.613   3.713  0.00  0.00    -0.007 A 
ATOM      6  C5  UNL d   1      -5.114   0.341   3.827  0.00  0.00     0.039 A 
ENDROOT
BRANCH   4   7
ATOM      7  O   UNL d   1      -4.151   3.763   4.589  0.00  0.00    -0.526 OA
ATOM      8  H5  UNL d   1      -4.322   4.284   5.392  0.00  0.00     0.418 HD
ENDBRANCH   4   7
TORSDOF 1
ENDMDL
