MODEL 1
REMARK minimizedAffinity 6.77677536
REMARK minimizedRMSD -1
REMARK  1 active torsions:
REMARK  status: ('A' for Active; 'I' for Inactive)
REMARK    1  A    between atoms: C3_4  and  O_7 
ROOT
ATOM      1  C   UNL d   1       2.248   5.621  -4.810  0.00  0.00    -0.033 A 
ATOM      2  C1  UNL d   1       1.912   4.720  -3.797  0.00  0.00     0.039 A 
ATOM      3  C2  UNL d   1       2.314   3.386  -3.885  0.00  0.00    -0.080 A 
ATOM      4  C3  UNL d   1       3.052   2.966  -4.989  0.00  0.00     0.150 A 
ATOM      5  C4  UNL d   1       3.393   3.858  -6.000  0.00  0.00    -0.007 A 
ATOM      6  C5  UNL d   1       2.990   5.190  -5.911  0.00  0.00     0.039 A 
ENDROOT
BRANCH   4   7
ATOM      7  O   UNL d   1       3.462   1.673  -5.122  0.00  0.00    -0.526 OA
ATOM      8  H5  UNL d   1       3.129   1.165  -4.363  0.00  0.00     0.418 HD
ENDBRANCH   4   7
TORSDOF 1
ENDMDL
