MODEL 1
REMARK minimizedAffinity 4.53701448
REMARK minimizedRMSD -1
REMARK  1 active torsions:
REMARK  status: ('A' for Active; 'I' for Inactive)
REMARK    1  A    between atoms: C3_4  and  O_7 
ROOT
ATOM      1  C   UNL d   1      -2.529  -5.998   2.123  0.00  0.00    -0.033 A 
ATOM      2  C1  UNL d   1      -1.499  -5.992   1.180  0.00  0.00     0.039 A 
ATOM      3  C2  UNL d   1      -1.799  -5.991  -0.184  0.00  0.00    -0.080 A 
ATOM      4  C3  UNL d   1      -3.131  -5.996  -0.591  0.00  0.00     0.150 A 
ATOM      5  C4  UNL d   1      -4.161  -5.998   0.343  0.00  0.00    -0.007 A 
ATOM      6  C5  UNL d   1      -3.860  -6.000   1.705  0.00  0.00     0.039 A 
ENDROOT
BRANCH   4   7
ATOM      7  O   UNL d   1      -3.473  -6.000  -1.910  0.00  0.00    -0.526 OA
ATOM      8  H5  UNL d   1      -2.658  -6.027  -2.439  0.00  0.00     0.418 HD
ENDBRANCH   4   7
TORSDOF 1
ENDMDL
