MODEL 1
REMARK minimizedAffinity 6.68818331
REMARK minimizedRMSD -1
REMARK  1 active torsions:
REMARK  status: ('A' for Active; 'I' for Inactive)
REMARK    1  A    between atoms: C3_4  and  O_7 
ROOT
ATOM      1  C   UNL d   1      -3.324  -4.956  -2.273  0.00  0.00    -0.033 A 
ATOM      2  C1  UNL d   1      -4.616  -5.424  -2.519  0.00  0.00     0.039 A 
ATOM      3  C2  UNL d   1      -5.478  -4.701  -3.346  0.00  0.00    -0.080 A 
ATOM      4  C3  UNL d   1      -5.036  -3.513  -3.921  0.00  0.00     0.150 A 
ATOM      5  C4  UNL d   1      -3.749  -3.042  -3.683  0.00  0.00    -0.007 A 
ATOM      6  C5  UNL d   1      -2.890  -3.765  -2.857  0.00  0.00     0.039 A 
ENDROOT
BRANCH   4   7
ATOM      7  O   UNL d   1      -5.842  -2.769  -4.730  0.00  0.00    -0.526 OA
ATOM      8  H5  UNL d   1      -6.711  -3.202  -4.780  0.00  0.00     0.418 HD
ENDBRANCH   4   7
TORSDOF 1
ENDMDL
