MODEL 1
REMARK minimizedAffinity 11.8549871
REMARK minimizedRMSD -1
REMARK  1 active torsions:
REMARK  status: ('A' for Active; 'I' for Inactive)
REMARK    1  A    between atoms: C3_4  and  O_7 
ROOT
ATOM      1  C   UNL d   1       3.840   1.594  -2.896  0.00  0.00    -0.033 A 
ATOM      2  C1  UNL d   1       2.902   2.585  -2.602  0.00  0.00     0.039 A 
ATOM      3  C2  UNL d   1       2.257   3.267  -3.636  0.00  0.00    -0.080 A 
ATOM      4  C3  UNL d   1       2.558   2.948  -4.957  0.00  0.00     0.150 A 
ATOM      5  C4  UNL d   1       3.488   1.959  -5.257  0.00  0.00    -0.007 A 
ATOM      6  C5  UNL d   1       4.132   1.280  -4.224  0.00  0.00     0.039 A 
ENDROOT
BRANCH   4   7
ATOM      7  O   UNL d   1       1.958   3.589  -6.000  0.00  0.00    -0.526 OA
ATOM      8  H5  UNL d   1       1.360   4.267  -5.641  0.00  0.00     0.418 HD
ENDBRANCH   4   7
TORSDOF 1
ENDMDL
