MODEL 1
REMARK minimizedAffinity 15.6496611
REMARK minimizedRMSD -1
REMARK  1 active torsions:
REMARK  status: ('A' for Active; 'I' for Inactive)
REMARK    1  A    between atoms: C3_4  and  O_7 
ROOT
ATOM      1  C   UNL d   1      -4.023  -5.618  -1.523  0.00  0.00    -0.033 A 
ATOM      2  C1  UNL d   1      -3.160  -4.572  -1.856  0.00  0.00     0.039 A 
ATOM      3  C2  UNL d   1      -3.522  -3.652  -2.841  0.00  0.00    -0.080 A 
ATOM      4  C3  UNL d   1      -4.750  -3.788  -3.484  0.00  0.00     0.150 A 
ATOM      5  C4  UNL d   1      -5.616  -4.825  -3.155  0.00  0.00    -0.007 A 
ATOM      6  C5  UNL d   1      -5.251  -5.744  -2.171  0.00  0.00     0.039 A 
ENDROOT
BRANCH   4   7
ATOM      7  O   UNL d   1      -5.145  -2.917  -4.456  0.00  0.00    -0.526 OA
ATOM      8  H5  UNL d   1      -4.434  -2.270  -4.597  0.00  0.00     0.418 HD
ENDBRANCH   4   7
TORSDOF 1
ENDMDL
