MODEL 1
REMARK minimizedAffinity 8.99739838
REMARK minimizedRMSD -1
REMARK  1 active torsions:
REMARK  status: ('A' for Active; 'I' for Inactive)
REMARK    1  A    between atoms: C3_4  and  O_7 
ROOT
ATOM      1  C   UNL d   1      -1.400  -3.119   1.319  0.00  0.00    -0.033 A 
ATOM      2  C1  UNL d   1      -0.288  -3.119   0.475  0.00  0.00     0.039 A 
ATOM      3  C2  UNL d   1      -0.397  -2.629  -0.827  0.00  0.00    -0.080 A 
ATOM      4  C3  UNL d   1      -1.623  -2.141  -1.273  0.00  0.00     0.150 A 
ATOM      5  C4  UNL d   1      -2.734  -2.135  -0.436  0.00  0.00    -0.007 A 
ATOM      6  C5  UNL d   1      -2.623  -2.626   0.864  0.00  0.00     0.039 A 
ENDROOT
BRANCH   4   7
ATOM      7  O   UNL d   1      -1.780  -1.657  -2.537  0.00  0.00    -0.526 OA
ATOM      8  H5  UNL d   1      -0.936  -1.751  -3.010  0.00  0.00     0.418 HD
ENDBRANCH   4   7
TORSDOF 1
ENDMDL
