MODEL 1
REMARK minimizedAffinity 2.83730936
REMARK minimizedRMSD -1
REMARK  1 active torsions:
REMARK  status: ('A' for Active; 'I' for Inactive)
REMARK    1  A    between atoms: C3_4  and  O_7 
ROOT
ATOM      1  C   UNL d   1       2.426  -0.117   4.644  0.00  0.00    -0.033 A 
ATOM      2  C1  UNL d   1       2.774   0.188   3.326  0.00  0.00     0.039 A 
ATOM      3  C2  UNL d   1       2.116   1.215   2.648  0.00  0.00    -0.080 A 
ATOM      4  C3  UNL d   1       1.114   1.930   3.298  0.00  0.00     0.150 A 
ATOM      5  C4  UNL d   1       0.765   1.635   4.612  0.00  0.00    -0.007 A 
ATOM      6  C5  UNL d   1       1.422   0.608   5.287  0.00  0.00     0.039 A 
ENDROOT
BRANCH   4   7
ATOM      7  O   UNL d   1       0.440   2.939   2.676  0.00  0.00    -0.526 OA
ATOM      8  H5  UNL d   1       0.768   3.011   1.764  0.00  0.00     0.418 HD
ENDBRANCH   4   7
TORSDOF 1
ENDMDL
