MODEL 1
REMARK minimizedAffinity 4.18693161
REMARK minimizedRMSD -1
REMARK  1 active torsions:
REMARK  status: ('A' for Active; 'I' for Inactive)
REMARK    1  A    between atoms: C3_4  and  O_7 
ROOT
ATOM      1  C   UNL d   1      -2.163  -1.147   0.690  0.00  0.00    -0.033 A 
ATOM      2  C1  UNL d   1      -1.086  -1.236   1.574  0.00  0.00     0.039 A 
ATOM      3  C2  UNL d   1      -0.511  -2.477   1.854  0.00  0.00    -0.080 A 
ATOM      4  C3  UNL d   1      -1.020  -3.620   1.243  0.00  0.00     0.150 A 
ATOM      5  C4  UNL d   1      -2.091  -3.538   0.358  0.00  0.00    -0.007 A 
ATOM      6  C5  UNL d   1      -2.664  -2.298   0.081  0.00  0.00     0.039 A 
ENDROOT
BRANCH   4   7
ATOM      7  O   UNL d   1      -0.495  -4.853   1.489  0.00  0.00    -0.526 OA
ATOM      8  H5  UNL d   1       0.219  -4.759   2.141  0.00  0.00     0.418 HD
ENDBRANCH   4   7
TORSDOF 1
ENDMDL
