MODEL 1
REMARK minimizedAffinity 3.29269218
REMARK minimizedRMSD -1
REMARK  1 active torsions:
REMARK  status: ('A' for Active; 'I' for Inactive)
REMARK    1  A    between atoms: C3_4  and  O_7 
ROOT
ATOM      1  C   UNL d   1       2.041   3.559  -5.992  0.00  0.00    -0.033 A 
ATOM      2  C1  UNL d   1       1.877   4.945  -5.993  0.00  0.00     0.039 A 
ATOM      3  C2  UNL d   1       2.994   5.782  -5.993  0.00  0.00    -0.080 A 
ATOM      4  C3  UNL d   1       4.268   5.221  -5.991  0.00  0.00     0.150 A 
ATOM      5  C4  UNL d   1       4.439   3.841  -5.994  0.00  0.00    -0.007 A 
ATOM      6  C5  UNL d   1       3.322   3.006  -5.994  0.00  0.00     0.039 A 
ENDROOT
BRANCH   4   7
ATOM      7  O   UNL d   1       5.389   5.997  -5.986  0.00  0.00    -0.526 OA
ATOM      8  H5  UNL d   1       5.117   6.930  -5.956  0.00  0.00     0.418 HD
ENDBRANCH   4   7
TORSDOF 1
ENDMDL
