MODEL 1
REMARK minimizedAffinity 13.2811203
REMARK minimizedRMSD -1
REMARK  1 active torsions:
REMARK  status: ('A' for Active; 'I' for Inactive)
REMARK    1  A    between atoms: C3_4  and  O_7 
ROOT
ATOM      1  C   UNL d   1      -2.345   5.899  -1.071  0.00  0.00    -0.033 A 
ATOM      2  C1  UNL d   1      -3.740   5.830  -1.078  0.00  0.00     0.039 A 
ATOM      3  C2  UNL d   1      -4.434   5.824  -2.290  0.00  0.00    -0.080 A 
ATOM      4  C3  UNL d   1      -3.722   5.888  -3.485  0.00  0.00     0.150 A 
ATOM      5  C4  UNL d   1      -2.333   5.954  -3.485  0.00  0.00    -0.007 A 
ATOM      6  C5  UNL d   1      -1.642   5.960  -2.274  0.00  0.00     0.039 A 
ENDROOT
BRANCH   4   7
ATOM      7  O   UNL d   1      -4.356   5.891  -4.692  0.00  0.00    -0.526 OA
ATOM      8  H5  UNL d   1      -5.315   5.871  -4.536  0.00  0.00     0.418 HD
ENDBRANCH   4   7
TORSDOF 1
ENDMDL
