MODEL 1
REMARK minimizedAffinity 9.63435078
REMARK minimizedRMSD -1
REMARK  1 active torsions:
REMARK  status: ('A' for Active; 'I' for Inactive)
REMARK    1  A    between atoms: C3_4  and  O_7 
ROOT
ATOM      1  C   UNL d   1       1.874   2.201   1.521  0.00  0.00    -0.033 A 
ATOM      2  C1  UNL d   1       0.712   2.630   2.166  0.00  0.00     0.039 A 
ATOM      3  C2  UNL d   1       0.306   2.021   3.355  0.00  0.00    -0.080 A 
ATOM      4  C3  UNL d   1       1.071   0.987   3.889  0.00  0.00     0.150 A 
ATOM      5  C4  UNL d   1       2.232   0.558   3.254  0.00  0.00    -0.007 A 
ATOM      6  C5  UNL d   1       2.635   1.166   2.066  0.00  0.00     0.039 A 
ENDROOT
BRANCH   4   7
ATOM      7  O   UNL d   1       0.712   0.359   5.044  0.00  0.00    -0.526 OA
ATOM      8  H5  UNL d   1      -0.125   0.741   5.355  0.00  0.00     0.418 HD
ENDBRANCH   4   7
TORSDOF 1
ENDMDL
