MODEL 1
REMARK minimizedAffinity 2.94702983
REMARK minimizedRMSD -1
REMARK  1 active torsions:
REMARK  status: ('A' for Active; 'I' for Inactive)
REMARK    1  A    between atoms: C3_4  and  O_7 
ROOT
ATOM      1  C   UNL d   1       5.144   5.796  -5.996  0.00  0.00    -0.033 A 
ATOM      2  C1  UNL d   1       5.841   4.586  -5.997  0.00  0.00     0.039 A 
ATOM      3  C2  UNL d   1       5.144   3.377  -5.960  0.00  0.00    -0.080 A 
ATOM      4  C3  UNL d   1       3.752   3.391  -5.924  0.00  0.00     0.150 A 
ATOM      5  C4  UNL d   1       3.051   4.593  -5.927  0.00  0.00    -0.007 A 
ATOM      6  C5  UNL d   1       3.750   5.799  -5.963  0.00  0.00     0.039 A 
ENDROOT
BRANCH   4   7
ATOM      7  O   UNL d   1       3.028   2.237  -5.882  0.00  0.00    -0.526 OA
ATOM      8  H5  UNL d   1       3.646   1.487  -5.856  0.00  0.00     0.418 HD
ENDBRANCH   4   7
TORSDOF 1
ENDMDL
