MODEL 1
REMARK minimizedAffinity -4.48260641
REMARK minimizedRMSD -1
REMARK  1 active torsions:
REMARK  status: ('A' for Active; 'I' for Inactive)
REMARK    1  A    between atoms: C1_2  and  C2_3 
ROOT
ATOM      1  C2  UNL d   1      -0.141  -0.334   0.315  0.00  0.00    -0.073 A 
ATOM      2  C3  UNL d   1       0.178  -1.274   1.301  0.00  0.00    -0.002 A 
ATOM      3  C4  UNL d   1      -0.709  -2.309   1.602  0.00  0.00     0.004 A 
ATOM      4  C5  UNL d   1      -1.918  -2.419   0.916  0.00  0.00    -0.004 A 
ATOM      5  C6  UNL d   1      -2.250  -1.496  -0.081  0.00  0.00    -0.075 A 
ATOM      6  C7  UNL d   1      -3.548  -1.599  -0.827  0.00  0.00     0.076 C 
ATOM      7  C8  UNL d   1      -1.355  -0.458  -0.375  0.00  0.00     0.001 A 
ENDROOT
BRANCH   1   8
ATOM      8  C1  UNL d   1       0.816   0.782  -0.017  0.00  0.00     0.053 C 
ATOM      9  C   UNL d   1       2.179   0.572   0.623  0.00  0.00     0.018 C 
ENDBRANCH   1   8
TORSDOF 1
ENDMDL
