MODEL 1
REMARK minimizedAffinity -4.97448206
REMARK minimizedRMSD -1
REMARK  1 active torsions:
REMARK  status: ('A' for Active; 'I' for Inactive)
REMARK    1  A    between atoms: C1_2  and  C2_3 
ROOT
ATOM      1  C2  UNL d   1      -1.484  -1.088   0.178  0.00  0.00    -0.073 A 
ATOM      2  C3  UNL d   1      -2.015  -0.657  -1.044  0.00  0.00    -0.002 A 
ATOM      3  C4  UNL d   1      -1.285   0.205  -1.864  0.00  0.00     0.004 A 
ATOM      4  C5  UNL d   1      -0.018   0.639  -1.475  0.00  0.00    -0.004 A 
ATOM      5  C6  UNL d   1       0.534   0.211  -0.264  0.00  0.00    -0.075 A 
ATOM      6  C7  UNL d   1       1.895   0.670   0.169  0.00  0.00     0.076 C 
ATOM      7  C8  UNL d   1      -0.206  -0.653   0.555  0.00  0.00     0.001 A 
ENDROOT
BRANCH   1   8
ATOM      8  C1  UNL d   1      -2.265  -2.024   1.064  0.00  0.00     0.053 C 
ATOM      9  C   UNL d   1      -3.674  -2.260   0.542  0.00  0.00     0.018 C 
ENDBRANCH   1   8
TORSDOF 1
ENDMDL
