MODEL 1
REMARK minimizedAffinity -5.82232809
REMARK minimizedRMSD -1
REMARK  1 active torsions:
REMARK  status: ('A' for Active; 'I' for Inactive)
REMARK    1  A    between atoms: C1_2  and  C2_3 
ROOT
ATOM      1  C2  UNL d   1       0.665   0.017   0.341  0.00  0.00    -0.073 A 
ATOM      2  C3  UNL d   1       1.037  -1.197   0.931  0.00  0.00    -0.002 A 
ATOM      3  C4  UNL d   1       0.063  -2.089   1.382  0.00  0.00     0.004 A 
ATOM      4  C5  UNL d   1      -1.290  -1.781   1.242  0.00  0.00    -0.004 A 
ATOM      5  C6  UNL d   1      -1.682  -0.578   0.644  0.00  0.00    -0.075 A 
ATOM      6  C7  UNL d   1      -3.133  -0.231   0.488  0.00  0.00     0.076 C 
ATOM      7  C8  UNL d   1      -0.698   0.314   0.196  0.00  0.00     0.001 A 
ENDROOT
BRANCH   1   8
ATOM      8  C1  UNL d   1       1.713   0.980  -0.153  0.00  0.00     0.053 C 
ATOM      9  C   UNL d   1       1.951   2.116   0.829  0.00  0.00     0.018 C 
ENDBRANCH   1   8
TORSDOF 1
ENDMDL
