MODEL 1
REMARK minimizedAffinity -3.34768963
REMARK minimizedRMSD -1
REMARK  1 active torsions:
REMARK  status: ('A' for Active; 'I' for Inactive)
REMARK    1  A    between atoms: C1_2  and  C2_3 
ROOT
ATOM      1  C2  UNL d   1      -1.720  -0.931   0.137  0.00  0.00    -0.073 A 
ATOM      2  C3  UNL d   1      -1.956  -1.042  -1.238  0.00  0.00    -0.002 A 
ATOM      3  C4  UNL d   1      -1.037  -0.529  -2.155  0.00  0.00     0.004 A 
ATOM      4  C5  UNL d   1       0.128   0.093  -1.707  0.00  0.00    -0.004 A 
ATOM      5  C6  UNL d   1       0.388   0.204  -0.337  0.00  0.00    -0.075 A 
ATOM      6  C7  UNL d   1       1.635   0.872   0.160  0.00  0.00     0.076 C 
ATOM      7  C8  UNL d   1      -0.541  -0.311   0.577  0.00  0.00     0.001 A 
ENDROOT
BRANCH   1   8
ATOM      8  C1  UNL d   1      -2.706  -1.489   1.131  0.00  0.00     0.053 C 
ATOM      9  C   UNL d   1      -3.842  -2.235   0.449  0.00  0.00     0.018 C 
ENDBRANCH   1   8
TORSDOF 1
ENDMDL
