MODEL 1
REMARK minimizedAffinity -0.970555544
REMARK minimizedRMSD -1
REMARK  1 active torsions:
REMARK  status: ('A' for Active; 'I' for Inactive)
REMARK    1  A    between atoms: C1_2  and  C2_3 
ROOT
ATOM      1  C2  UNL d   1       1.151   1.068  -0.305  0.00  0.00    -0.073 A 
ATOM      2  C3  UNL d   1       0.233   1.129  -1.359  0.00  0.00    -0.002 A 
ATOM      3  C4  UNL d   1      -0.760   0.157  -1.486  0.00  0.00     0.004 A 
ATOM      4  C5  UNL d   1      -0.851  -0.879  -0.557  0.00  0.00    -0.004 A 
ATOM      5  C6  UNL d   1       0.050  -0.951   0.510  0.00  0.00    -0.075 A 
ATOM      6  C7  UNL d   1      -0.033  -2.061   1.517  0.00  0.00     0.076 C 
ATOM      7  C8  UNL d   1       1.047   0.027   0.629  0.00  0.00     0.001 A 
ENDROOT
BRANCH   1   8
ATOM      8  C1  UNL d   1       2.222   2.119  -0.160  0.00  0.00     0.053 C 
ATOM      9  C   UNL d   1       2.105   2.875   1.153  0.00  0.00     0.018 C 
ENDBRANCH   1   8
TORSDOF 1
ENDMDL
