MODEL 1
REMARK minimizedAffinity -2.97949648
REMARK minimizedRMSD -1
REMARK  1 active torsions:
REMARK  status: ('A' for Active; 'I' for Inactive)
REMARK    1  A    between atoms: C1_2  and  C2_3 
ROOT
ATOM      1  C2  UNL d   1      -2.012  -1.111   0.152  0.00  0.00    -0.073 A 
ATOM      2  C3  UNL d   1      -1.751  -2.002   1.199  0.00  0.00    -0.002 A 
ATOM      3  C4  UNL d   1      -0.499  -2.019   1.815  0.00  0.00     0.004 A 
ATOM      4  C5  UNL d   1       0.501  -1.143   1.395  0.00  0.00    -0.004 A 
ATOM      5  C6  UNL d   1       0.256  -0.237   0.358  0.00  0.00    -0.075 A 
ATOM      6  C7  UNL d   1       1.323   0.711  -0.106  0.00  0.00     0.076 C 
ATOM      7  C8  UNL d   1      -1.003  -0.228  -0.257  0.00  0.00     0.001 A 
ENDROOT
BRANCH   1   8
ATOM      8  C1  UNL d   1      -3.365  -1.085  -0.512  0.00  0.00     0.053 C 
ATOM      9  C   UNL d   1      -4.128  -2.382  -0.302  0.00  0.00     0.018 C 
ENDBRANCH   1   8
TORSDOF 1
ENDMDL
