MODEL 1
REMARK minimizedAffinity 0.600860178
REMARK minimizedRMSD -1
REMARK  1 active torsions:
REMARK  status: ('A' for Active; 'I' for Inactive)
REMARK    1  A    between atoms: C1_2  and  C2_3 
ROOT
ATOM      1  C2  UNL d   1      -0.091  -0.063  -1.243  0.00  0.00    -0.073 A 
ATOM      2  C3  UNL d   1       0.448   1.124  -0.734  0.00  0.00    -0.002 A 
ATOM      3  C4  UNL d   1       0.986   1.159   0.553  0.00  0.00     0.004 A 
ATOM      4  C5  UNL d   1       0.996   0.008   1.341  0.00  0.00    -0.004 A 
ATOM      5  C6  UNL d   1       0.473  -1.191   0.846  0.00  0.00    -0.075 A 
ATOM      6  C7  UNL d   1       0.474  -2.437   1.681  0.00  0.00     0.076 C 
ATOM      7  C8  UNL d   1      -0.068  -1.217  -0.447  0.00  0.00     0.001 A 
ENDROOT
BRANCH   1   8
ATOM      8  C1  UNL d   1      -0.667  -0.107  -2.635  0.00  0.00     0.053 C 
ATOM      9  C   UNL d   1      -0.341   1.149  -3.427  0.00  0.00     0.018 C 
ENDBRANCH   1   8
TORSDOF 1
ENDMDL
