MODEL 1
REMARK minimizedAffinity -4.22773457
REMARK minimizedRMSD -1
REMARK  1 active torsions:
REMARK  status: ('A' for Active; 'I' for Inactive)
REMARK    1  A    between atoms: C1_2  and  C2_3 
ROOT
ATOM      1  C2  UNL d   1      -1.649  -2.162   0.023  0.00  0.00    -0.073 A 
ATOM      2  C3  UNL d   1      -2.237  -1.713  -1.165  0.00  0.00    -0.002 A 
ATOM      3  C4  UNL d   1      -1.719  -0.603  -1.832  0.00  0.00     0.004 A 
ATOM      4  C5  UNL d   1      -0.605   0.065  -1.324  0.00  0.00    -0.004 A 
ATOM      5  C6  UNL d   1       0.004  -0.375  -0.144  0.00  0.00    -0.075 A 
ATOM      6  C7  UNL d   1       1.201   0.334   0.417  0.00  0.00     0.076 C 
ATOM      7  C8  UNL d   1      -0.524  -1.489   0.522  0.00  0.00     0.001 A 
ENDROOT
BRANCH   1   8
ATOM      8  C1  UNL d   1      -2.201  -3.365   0.744  0.00  0.00     0.053 C 
ATOM      9  C   UNL d   1      -1.816  -4.666   0.059  0.00  0.00     0.018 C 
ENDBRANCH   1   8
TORSDOF 1
ENDMDL
