MODEL 1
REMARK minimizedAffinity -4.56100225
REMARK minimizedRMSD -1
REMARK  1 active torsions:
REMARK  status: ('A' for Active; 'I' for Inactive)
REMARK    1  A    between atoms: C1_2  and  C2_3 
ROOT
ATOM      1  C2  UNL d   1      -1.758  -1.378  -0.068  0.00  0.00    -0.073 A 
ATOM      2  C3  UNL d   1      -1.484  -2.371   0.880  0.00  0.00    -0.002 A 
ATOM      3  C4  UNL d   1      -0.317  -2.315   1.643  0.00  0.00     0.004 A 
ATOM      4  C5  UNL d   1       0.584  -1.264   1.471  0.00  0.00    -0.004 A 
ATOM      5  C6  UNL d   1       0.323  -0.256   0.538  0.00  0.00    -0.075 A 
ATOM      6  C7  UNL d   1       1.283   0.880   0.339  0.00  0.00     0.076 C 
ATOM      7  C8  UNL d   1      -0.850  -0.321  -0.227  0.00  0.00     0.001 A 
ENDROOT
BRANCH   1   8
ATOM      8  C1  UNL d   1      -3.020  -1.431  -0.889  0.00  0.00     0.053 C 
ATOM      9  C   UNL d   1      -4.180  -2.032  -0.112  0.00  0.00     0.018 C 
ENDBRANCH   1   8
TORSDOF 1
ENDMDL
