MODEL 1
REMARK minimizedAffinity -6.38062477
REMARK minimizedRMSD -1
REMARK  1 active torsions:
REMARK  status: ('A' for Active; 'I' for Inactive)
REMARK    1  A    between atoms: C1_2  and  C2_3 
ROOT
ATOM      1  C2  UNL d   1      -1.101  -0.630  -0.164  0.00  0.00    -0.073 A 
ATOM      2  C3  UNL d   1      -2.464  -0.319  -0.214  0.00  0.00    -0.002 A 
ATOM      3  C4  UNL d   1      -3.395  -1.122   0.447  0.00  0.00     0.004 A 
ATOM      4  C5  UNL d   1      -2.972  -2.237   1.170  0.00  0.00    -0.004 A 
ATOM      5  C6  UNL d   1      -1.612  -2.557   1.242  0.00  0.00    -0.075 A 
ATOM      6  C7  UNL d   1      -1.141  -3.754   2.014  0.00  0.00     0.076 C 
ATOM      7  C8  UNL d   1      -0.684  -1.748   0.573  0.00  0.00     0.001 A 
ENDROOT
BRANCH   1   8
ATOM      8  C1  UNL d   1      -0.091   0.237  -0.872  0.00  0.00     0.053 C 
ATOM      9  C   UNL d   1       0.860   0.915   0.102  0.00  0.00     0.018 C 
ENDBRANCH   1   8
TORSDOF 1
ENDMDL
