MODEL 1
REMARK minimizedAffinity -3.60317135
REMARK minimizedRMSD -1
REMARK  1 active torsions:
REMARK  status: ('A' for Active; 'I' for Inactive)
REMARK    1  A    between atoms: C1_2  and  C2_3 
ROOT
ATOM      1  C2  UNL d   1      -1.325  -0.798   0.164  0.00  0.00    -0.073 A 
ATOM      2  C3  UNL d   1      -2.458  -0.831   0.985  0.00  0.00    -0.002 A 
ATOM      3  C4  UNL d   1      -3.583  -1.564   0.604  0.00  0.00     0.004 A 
ATOM      4  C5  UNL d   1      -3.584  -2.276  -0.595  0.00  0.00    -0.004 A 
ATOM      5  C6  UNL d   1      -2.457  -2.264  -1.423  0.00  0.00    -0.075 A 
ATOM      6  C7  UNL d   1      -2.443  -3.023  -2.718  0.00  0.00     0.076 C 
ATOM      7  C8  UNL d   1      -1.332  -1.524  -1.036  0.00  0.00     0.001 A 
ENDROOT
BRANCH   1   8
ATOM      8  C1  UNL d   1      -0.105  -0.013   0.574  0.00  0.00     0.053 C 
ATOM      9  C   UNL d   1       0.787   0.314  -0.613  0.00  0.00     0.018 C 
ENDBRANCH   1   8
TORSDOF 1
ENDMDL
