MODEL 1
REMARK minimizedAffinity -2.7680769
REMARK minimizedRMSD -1
REMARK  1 active torsions:
REMARK  status: ('A' for Active; 'I' for Inactive)
REMARK    1  A    between atoms: C1_2  and  C2_3 
ROOT
ATOM      1  C2  UNL d   1      -2.065  -1.102  -0.252  0.00  0.00    -0.073 A 
ATOM      2  C3  UNL d   1      -1.722   0.107  -0.869  0.00  0.00    -0.002 A 
ATOM      3  C4  UNL d   1      -0.501   0.721  -0.585  0.00  0.00     0.004 A 
ATOM      4  C5  UNL d   1       0.390   0.132   0.311  0.00  0.00    -0.004 A 
ATOM      5  C6  UNL d   1       0.070  -1.082   0.929  0.00  0.00    -0.075 A 
ATOM      6  C7  UNL d   1       1.017  -1.728   1.897  0.00  0.00     0.076 C 
ATOM      7  C8  UNL d   1      -1.159  -1.691   0.641  0.00  0.00     0.001 A 
ENDROOT
BRANCH   1   8
ATOM      8  C1  UNL d   1      -3.379  -1.772  -0.560  0.00  0.00     0.053 C 
ATOM      9  C   UNL d   1      -3.214  -2.930  -1.531  0.00  0.00     0.018 C 
ENDBRANCH   1   8
TORSDOF 1
ENDMDL
