MODEL 1
REMARK minimizedAffinity -6.03744125
REMARK minimizedRMSD -1
REMARK  1 active torsions:
REMARK  status: ('A' for Active; 'I' for Inactive)
REMARK    1  A    between atoms: C1_2  and  C2_3 
ROOT
ATOM      1  C2  UNL d   1      -1.065   0.051   0.810  0.00  0.00    -0.073 A 
ATOM      2  C3  UNL d   1       0.290   0.051   0.457  0.00  0.00    -0.002 A 
ATOM      3  C4  UNL d   1       0.792  -0.918  -0.413  0.00  0.00     0.004 A 
ATOM      4  C5  UNL d   1      -0.055  -1.890  -0.944  0.00  0.00    -0.004 A 
ATOM      5  C6  UNL d   1      -1.414  -1.900  -0.613  0.00  0.00    -0.075 A 
ATOM      6  C7  UNL d   1      -2.338  -2.941  -1.174  0.00  0.00     0.076 C 
ATOM      7  C8  UNL d   1      -1.910  -0.925   0.263  0.00  0.00     0.001 A 
ENDROOT
BRANCH   1   8
ATOM      8  C1  UNL d   1      -1.612   1.099   1.744  0.00  0.00     0.053 C 
ATOM      9  C   UNL d   1      -0.825   1.173   3.042  0.00  0.00     0.018 C 
ENDBRANCH   1   8
TORSDOF 1
ENDMDL
