MODEL 1
REMARK minimizedAffinity -2.19965148
REMARK minimizedRMSD -1
REMARK  1 active torsions:
REMARK  status: ('A' for Active; 'I' for Inactive)
REMARK    1  A    between atoms: C1_2  and  C2_3 
ROOT
ATOM      1  C2  UNL d   1      -1.184  -1.092  -0.441  0.00  0.00    -0.073 A 
ATOM      2  C3  UNL d   1      -2.342  -0.813   0.293  0.00  0.00    -0.002 A 
ATOM      3  C4  UNL d   1      -2.296   0.066   1.376  0.00  0.00     0.004 A 
ATOM      4  C5  UNL d   1      -1.095   0.679   1.732  0.00  0.00    -0.004 A 
ATOM      5  C6  UNL d   1       0.071   0.421   1.004  0.00  0.00    -0.075 A 
ATOM      6  C7  UNL d   1       1.372   1.071   1.375  0.00  0.00     0.076 C 
ATOM      7  C8  UNL d   1       0.017  -0.465  -0.081  0.00  0.00     0.001 A 
ENDROOT
BRANCH   1   8
ATOM      8  C1  UNL d   1      -1.230  -2.036  -1.615  0.00  0.00     0.053 C 
ATOM      9  C   UNL d   1      -2.228  -3.163  -1.402  0.00  0.00     0.018 C 
ENDBRANCH   1   8
TORSDOF 1
ENDMDL
