MODEL 1
REMARK minimizedAffinity -2.06296325
REMARK minimizedRMSD -1
REMARK  1 active torsions:
REMARK  status: ('A' for Active; 'I' for Inactive)
REMARK    1  A    between atoms: C1_2  and  C2_3 
ROOT
ATOM      1  C2  UNL d   1      -0.020  -0.722  -0.736  0.00  0.00    -0.073 A 
ATOM      2  C3  UNL d   1       0.320  -0.379  -2.050  0.00  0.00    -0.002 A 
ATOM      3  C4  UNL d   1      -0.207  -1.095  -3.125  0.00  0.00     0.004 A 
ATOM      4  C5  UNL d   1      -1.085  -2.155  -2.899  0.00  0.00    -0.004 A 
ATOM      5  C6  UNL d   1      -1.447  -2.506  -1.594  0.00  0.00    -0.075 A 
ATOM      6  C7  UNL d   1      -2.388  -3.645  -1.334  0.00  0.00     0.076 C 
ATOM      7  C8  UNL d   1      -0.911  -1.783  -0.519  0.00  0.00     0.001 A 
ENDROOT
BRANCH   1   8
ATOM      8  C1  UNL d   1       0.542   0.053   0.428  0.00  0.00     0.053 C 
ATOM      9  C   UNL d   1      -0.552   0.692   1.268  0.00  0.00     0.018 C 
ENDBRANCH   1   8
TORSDOF 1
ENDMDL
