MODEL 1
REMARK minimizedAffinity 1.0283668
REMARK minimizedRMSD -1
REMARK  1 active torsions:
REMARK  status: ('A' for Active; 'I' for Inactive)
REMARK    1  A    between atoms: C1_2  and  C2_3 
ROOT
ATOM      1  C2  UNL d   1       0.496   0.624  -2.321  0.00  0.00    -0.073 A 
ATOM      2  C3  UNL d   1       1.747   1.161  -2.642  0.00  0.00    -0.002 A 
ATOM      3  C4  UNL d   1       2.249   1.053  -3.940  0.00  0.00     0.004 A 
ATOM      4  C5  UNL d   1       1.503   0.414  -4.930  0.00  0.00    -0.004 A 
ATOM      5  C6  UNL d   1       0.245  -0.119  -4.632  0.00  0.00    -0.075 A 
ATOM      6  C7  UNL d   1      -0.569  -0.812  -5.685  0.00  0.00     0.076 C 
ATOM      7  C8  UNL d   1      -0.251  -0.009  -3.326  0.00  0.00     0.001 A 
ENDROOT
BRANCH   1   8
ATOM      8  C1  UNL d   1      -0.053   0.744  -0.923  0.00  0.00     0.053 C 
ATOM      9  C   UNL d   1       0.301  -0.461  -0.066  0.00  0.00     0.018 C 
ENDBRANCH   1   8
TORSDOF 1
ENDMDL
