MODEL 1
REMARK minimizedAffinity -4.90423536
REMARK minimizedRMSD -1
REMARK  1 active torsions:
REMARK  status: ('A' for Active; 'I' for Inactive)
REMARK    1  A    between atoms: C1_2  and  C2_3 
ROOT
ATOM      1  C2  UNL d   1      -1.459  -0.628  -0.192  0.00  0.00    -0.073 A 
ATOM      2  C3  UNL d   1      -0.251  -0.462  -0.878  0.00  0.00    -0.002 A 
ATOM      3  C4  UNL d   1       0.771   0.314  -0.329  0.00  0.00     0.004 A 
ATOM      4  C5  UNL d   1       0.599   0.924   0.914  0.00  0.00    -0.004 A 
ATOM      5  C6  UNL d   1      -0.597   0.759   1.620  0.00  0.00    -0.075 A 
ATOM      6  C7  UNL d   1      -0.799   1.411   2.957  0.00  0.00     0.076 C 
ATOM      7  C8  UNL d   1      -1.619  -0.019   1.061  0.00  0.00     0.001 A 
ENDROOT
BRANCH   1   8
ATOM      8  C1  UNL d   1      -2.562  -1.470  -0.779  0.00  0.00     0.053 C 
ATOM      9  C   UNL d   1      -2.075  -2.856  -1.171  0.00  0.00     0.018 C 
ENDBRANCH   1   8
TORSDOF 1
ENDMDL
