MODEL 1
REMARK minimizedAffinity -2.05373931
REMARK minimizedRMSD -1
REMARK  1 active torsions:
REMARK  status: ('A' for Active; 'I' for Inactive)
REMARK    1  A    between atoms: C1_2  and  C2_3 
ROOT
ATOM      1  C2  UNL d   1       1.007   0.120  -2.439  0.00  0.00    -0.073 A 
ATOM      2  C3  UNL d   1       2.210   0.780  -2.719  0.00  0.00    -0.002 A 
ATOM      3  C4  UNL d   1       2.444   1.309  -3.989  0.00  0.00     0.004 A 
ATOM      4  C5  UNL d   1       1.478   1.191  -4.988  0.00  0.00    -0.004 A 
ATOM      5  C6  UNL d   1       0.266   0.545  -4.724  0.00  0.00    -0.075 A 
ATOM      6  C7  UNL d   1      -0.783   0.408  -5.789  0.00  0.00     0.076 C 
ATOM      7  C8  UNL d   1       0.039   0.014  -3.447  0.00  0.00     0.001 A 
ENDROOT
BRANCH   1   8
ATOM      8  C1  UNL d   1       0.747  -0.448  -1.068  0.00  0.00     0.053 C 
ATOM      9  C   UNL d   1       0.297   0.621  -0.084  0.00  0.00     0.018 C 
ENDBRANCH   1   8
TORSDOF 1
ENDMDL
