MODEL 1
REMARK minimizedAffinity 2.13172412
REMARK minimizedRMSD -1
REMARK  0 active torsions:
REMARK  status: ('A' for Active; 'I' for Inactive)
ROOT
ATOM      1  C   UNL d   1       1.828  -2.877   0.803  0.00  0.00     0.078 C 
ATOM      2  C1  UNL d   1       0.989  -2.591   2.013  0.00  0.00    -0.077 A 
ATOM      3  C2  UNL d   1       0.806  -3.558   3.009  0.00  0.00    -0.001 A 
ATOM      4  C3  UNL d   1       0.015  -3.281   4.125  0.00  0.00     0.003 A 
ATOM      5  C4  UNL d   1      -0.602  -2.039   4.254  0.00  0.00    -0.005 A 
ATOM      6  C5  UNL d   1      -0.428  -1.071   3.267  0.00  0.00     0.003 A 
ATOM      7  C6  UNL d   1       0.363  -1.346   2.151  0.00  0.00    -0.001 A 
ENDROOT
TORSDOF 0
ENDMDL
