MODEL 1
REMARK minimizedAffinity 1.47603285
REMARK minimizedRMSD -1
REMARK  0 active torsions:
REMARK  status: ('A' for Active; 'I' for Inactive)
ROOT
ATOM      1  C   UNL d   1      -3.305  -3.030   1.514  0.00  0.00     0.078 C 
ATOM      2  C1  UNL d   1      -2.169  -2.268   2.129  0.00  0.00    -0.077 A 
ATOM      3  C2  UNL d   1      -2.226  -1.840   3.461  0.00  0.00    -0.001 A 
ATOM      4  C3  UNL d   1      -1.165  -1.123   4.018  0.00  0.00     0.003 A 
ATOM      5  C4  UNL d   1      -0.041  -0.828   3.249  0.00  0.00    -0.005 A 
ATOM      6  C5  UNL d   1       0.023  -1.248   1.922  0.00  0.00     0.003 A 
ATOM      7  C6  UNL d   1      -1.036  -1.965   1.364  0.00  0.00    -0.001 A 
ENDROOT
TORSDOF 0
ENDMDL
