MODEL 1
REMARK minimizedAffinity 13.3116341
REMARK minimizedRMSD -1
REMARK  0 active torsions:
REMARK  status: ('A' for Active; 'I' for Inactive)
ROOT
ATOM      1  C   UNL d   1       0.924  -5.949   3.060  0.00  0.00     0.078 C 
ATOM      2  C1  UNL d   1       0.721  -4.658   2.325  0.00  0.00    -0.077 A 
ATOM      3  C2  UNL d   1       0.056  -3.582   2.926  0.00  0.00    -0.001 A 
ATOM      4  C3  UNL d   1      -0.134  -2.390   2.226  0.00  0.00     0.003 A 
ATOM      5  C4  UNL d   1       0.335  -2.262   0.921  0.00  0.00    -0.005 A 
ATOM      6  C5  UNL d   1       0.996  -3.327   0.313  0.00  0.00     0.003 A 
ATOM      7  C6  UNL d   1       1.188  -4.521   1.011  0.00  0.00    -0.001 A 
ENDROOT
TORSDOF 0
ENDMDL
