MODEL 1
REMARK minimizedAffinity 10.006691
REMARK minimizedRMSD -1
REMARK  0 active torsions:
REMARK  status: ('A' for Active; 'I' for Inactive)
ROOT
ATOM      1  C   UNL d   1      -1.179   2.570  -2.301  0.00  0.00     0.078 C 
ATOM      2  C1  UNL d   1      -0.147   2.973  -1.291  0.00  0.00    -0.077 A 
ATOM      3  C2  UNL d   1       0.119   4.322  -1.029  0.00  0.00    -0.001 A 
ATOM      4  C3  UNL d   1       1.089   4.682  -0.093  0.00  0.00     0.003 A 
ATOM      5  C4  UNL d   1       1.803   3.698   0.589  0.00  0.00    -0.005 A 
ATOM      6  C5  UNL d   1       1.548   2.353   0.333  0.00  0.00     0.003 A 
ATOM      7  C6  UNL d   1       0.578   1.991  -0.603  0.00  0.00    -0.001 A 
ENDROOT
TORSDOF 0
ENDMDL
