MODEL 1
REMARK minimizedAffinity 5.59914255
REMARK minimizedRMSD -1
REMARK  0 active torsions:
REMARK  status: ('A' for Active; 'I' for Inactive)
ROOT
ATOM      1  C   UNL d   1      -5.135  -2.117   5.997  0.00  0.00     0.078 C 
ATOM      2  C1  UNL d   1      -5.109  -3.471   5.351  0.00  0.00    -0.077 A 
ATOM      3  C2  UNL d   1      -5.992  -4.479   5.756  0.00  0.00    -0.001 A 
ATOM      4  C3  UNL d   1      -5.950  -5.737   5.152  0.00  0.00     0.003 A 
ATOM      5  C4  UNL d   1      -5.026  -5.999   4.142  0.00  0.00    -0.005 A 
ATOM      6  C5  UNL d   1      -4.142  -5.002   3.735  0.00  0.00     0.003 A 
ATOM      7  C6  UNL d   1      -4.183  -3.743   4.337  0.00  0.00    -0.001 A 
ENDROOT
TORSDOF 0
ENDMDL
