MODEL 1
REMARK minimizedAffinity 10.6127901
REMARK minimizedRMSD -1
REMARK  0 active torsions:
REMARK  status: ('A' for Active; 'I' for Inactive)
ROOT
ATOM      1  C   UNL d   1      -2.703  -2.948   2.717  0.00  0.00     0.078 C 
ATOM      2  C1  UNL d   1      -1.366  -2.391   2.331  0.00  0.00    -0.077 A 
ATOM      3  C2  UNL d   1      -1.065  -1.037   2.527  0.00  0.00    -0.001 A 
ATOM      4  C3  UNL d   1       0.181  -0.530   2.154  0.00  0.00     0.003 A 
ATOM      5  C4  UNL d   1       1.135  -1.369   1.580  0.00  0.00    -0.005 A 
ATOM      6  C5  UNL d   1       0.843  -2.717   1.379  0.00  0.00     0.003 A 
ATOM      7  C6  UNL d   1      -0.402  -3.225   1.752  0.00  0.00    -0.001 A 
ENDROOT
TORSDOF 0
ENDMDL
