MODEL 1
REMARK minimizedAffinity 7.50884151
REMARK minimizedRMSD -1
REMARK  0 active torsions:
REMARK  status: ('A' for Active; 'I' for Inactive)
ROOT
ATOM      1  C   UNL d   1      -2.845  -2.750   2.405  0.00  0.00     0.078 C 
ATOM      2  C1  UNL d   1      -1.558  -1.984   2.344  0.00  0.00    -0.077 A 
ATOM      3  C2  UNL d   1      -1.130  -1.204   3.426  0.00  0.00    -0.001 A 
ATOM      4  C3  UNL d   1       0.066  -0.489   3.351  0.00  0.00     0.003 A 
ATOM      5  C4  UNL d   1       0.844  -0.546   2.196  0.00  0.00    -0.005 A 
ATOM      6  C5  UNL d   1       0.426  -1.317   1.114  0.00  0.00     0.003 A 
ATOM      7  C6  UNL d   1      -0.770  -2.033   1.187  0.00  0.00    -0.001 A 
ENDROOT
TORSDOF 0
ENDMDL
