MODEL 1
REMARK minimizedAffinity 12.9813023
REMARK minimizedRMSD -1
REMARK  0 active torsions:
REMARK  status: ('A' for Active; 'I' for Inactive)
ROOT
ATOM      1  C   UNL d   1       2.864   0.386   1.909  0.00  0.00     0.078 C 
ATOM      2  C1  UNL d   1       1.668  -0.513   2.006  0.00  0.00    -0.077 A 
ATOM      3  C2  UNL d   1       0.588  -0.189   2.836  0.00  0.00    -0.001 A 
ATOM      4  C3  UNL d   1      -0.515  -1.040   2.924  0.00  0.00     0.003 A 
ATOM      5  C4  UNL d   1      -0.548  -2.221   2.185  0.00  0.00    -0.005 A 
ATOM      6  C5  UNL d   1       0.523  -2.552   1.358  0.00  0.00     0.003 A 
ATOM      7  C6  UNL d   1       1.626  -1.703   1.268  0.00  0.00    -0.001 A 
ENDROOT
TORSDOF 0
ENDMDL
