MODEL 1
REMARK minimizedAffinity 13.1633005
REMARK minimizedRMSD -1
REMARK  0 active torsions:
REMARK  status: ('A' for Active; 'I' for Inactive)
ROOT
ATOM      1  C   UNL d   1       3.590   0.786   0.759  0.00  0.00     0.078 C 
ATOM      2  C1  UNL d   1       4.207   0.265  -0.504  0.00  0.00    -0.077 A 
ATOM      3  C2  UNL d   1       4.179  -1.101  -0.810  0.00  0.00    -0.001 A 
ATOM      4  C3  UNL d   1       4.766  -1.573  -1.985  0.00  0.00     0.003 A 
ATOM      5  C4  UNL d   1       5.386  -0.687  -2.863  0.00  0.00    -0.005 A 
ATOM      6  C5  UNL d   1       5.421   0.674  -2.566  0.00  0.00     0.003 A 
ATOM      7  C6  UNL d   1       4.835   1.148  -1.391  0.00  0.00    -0.001 A 
ENDROOT
TORSDOF 0
ENDMDL
