MODEL 1
REMARK minimizedAffinity 10.6402321
REMARK minimizedRMSD -1
REMARK  0 active torsions:
REMARK  status: ('A' for Active; 'I' for Inactive)
ROOT
ATOM      1  C   UNL d   1      -2.522  -3.084   2.428  0.00  0.00     0.078 C 
ATOM      2  C1  UNL d   1      -1.235  -2.330   2.273  0.00  0.00    -0.077 A 
ATOM      3  C2  UNL d   1      -0.950  -1.216   3.072  0.00  0.00    -0.001 A 
ATOM      4  C3  UNL d   1       0.248  -0.518   2.910  0.00  0.00     0.003 A 
ATOM      5  C4  UNL d   1       1.170  -0.926   1.947  0.00  0.00    -0.005 A 
ATOM      6  C5  UNL d   1       0.894  -2.031   1.145  0.00  0.00     0.003 A 
ATOM      7  C6  UNL d   1      -0.303  -2.730   1.307  0.00  0.00    -0.001 A 
ENDROOT
TORSDOF 0
ENDMDL
