MODEL 1
REMARK minimizedAffinity 8.78978157
REMARK minimizedRMSD -1
REMARK  0 active torsions:
REMARK  status: ('A' for Active; 'I' for Inactive)
ROOT
ATOM      1  C   UNL d   1       2.274  -3.006  -0.234  0.00  0.00     0.078 C 
ATOM      2  C1  UNL d   1       1.472  -2.211   0.753  0.00  0.00    -0.077 A 
ATOM      3  C2  UNL d   1       0.391  -2.786   1.433  0.00  0.00    -0.001 A 
ATOM      4  C3  UNL d   1      -0.353  -2.031   2.341  0.00  0.00     0.003 A 
ATOM      5  C4  UNL d   1      -0.025  -0.697   2.577  0.00  0.00    -0.005 A 
ATOM      6  C5  UNL d   1       1.048  -0.116   1.903  0.00  0.00     0.003 A 
ATOM      7  C6  UNL d   1       1.793  -0.869   0.994  0.00  0.00    -0.001 A 
ENDROOT
TORSDOF 0
ENDMDL
