MODEL 1
REMARK minimizedAffinity 8.91059017
REMARK minimizedRMSD -1
REMARK  0 active torsions:
REMARK  status: ('A' for Active; 'I' for Inactive)
ROOT
ATOM      1  C   UNL d   1      -3.282  -3.095   2.747  0.00  0.00     0.078 C 
ATOM      2  C1  UNL d   1      -1.955  -2.401   2.663  0.00  0.00    -0.077 A 
ATOM      3  C2  UNL d   1      -0.868  -2.999   2.013  0.00  0.00    -0.001 A 
ATOM      4  C3  UNL d   1       0.363  -2.345   1.951  0.00  0.00     0.003 A 
ATOM      5  C4  UNL d   1       0.520  -1.091   2.537  0.00  0.00    -0.005 A 
ATOM      6  C5  UNL d   1      -0.555  -0.489   3.187  0.00  0.00     0.003 A 
ATOM      7  C6  UNL d   1      -1.787  -1.141   3.251  0.00  0.00    -0.001 A 
ENDROOT
TORSDOF 0
ENDMDL
