MODEL 1
REMARK minimizedAffinity 7.58296108
REMARK minimizedRMSD -1
REMARK  0 active torsions:
REMARK  status: ('A' for Active; 'I' for Inactive)
ROOT
ATOM      1  C   UNL d   1      -1.938   4.523  -5.995  0.00  0.00     0.078 C 
ATOM      2  C1  UNL d   1      -2.322   4.656  -4.552  0.00  0.00    -0.077 A 
ATOM      3  C2  UNL d   1      -2.255   5.893  -3.899  0.00  0.00    -0.001 A 
ATOM      4  C3  UNL d   1      -2.606   6.000  -2.552  0.00  0.00     0.003 A 
ATOM      5  C4  UNL d   1      -3.026   4.874  -1.847  0.00  0.00    -0.005 A 
ATOM      6  C5  UNL d   1      -3.094   3.638  -2.487  0.00  0.00     0.003 A 
ATOM      7  C6  UNL d   1      -2.743   3.529  -3.834  0.00  0.00    -0.001 A 
ENDROOT
TORSDOF 0
ENDMDL
