MODEL 1
REMARK minimizedAffinity 4.76000214
REMARK minimizedRMSD -1
REMARK  0 active torsions:
REMARK  status: ('A' for Active; 'I' for Inactive)
ROOT
ATOM      1  C   UNL d   1       3.623  -2.446  -5.778  0.00  0.00     0.078 C 
ATOM      2  C1  UNL d   1       2.693  -3.622  -5.728  0.00  0.00    -0.077 A 
ATOM      3  C2  UNL d   1       3.152  -4.916  -6.000  0.00  0.00    -0.001 A 
ATOM      4  C3  UNL d   1       2.273  -6.000  -5.959  0.00  0.00     0.003 A 
ATOM      5  C4  UNL d   1       0.930  -5.800  -5.648  0.00  0.00    -0.005 A 
ATOM      6  C5  UNL d   1       0.463  -4.515  -5.378  0.00  0.00     0.003 A 
ATOM      7  C6  UNL d   1       1.341  -3.430  -5.418  0.00  0.00    -0.001 A 
ENDROOT
TORSDOF 0
ENDMDL
