MODEL 1
REMARK minimizedAffinity 7.50174809
REMARK minimizedRMSD -1
REMARK  0 active torsions:
REMARK  status: ('A' for Active; 'I' for Inactive)
ROOT
ATOM      1  C   UNL d   1      -4.130   2.344  -3.019  0.00  0.00     0.078 C 
ATOM      2  C1  UNL d   1      -3.352   3.617  -3.171  0.00  0.00    -0.077 A 
ATOM      3  C2  UNL d   1      -3.368   4.596  -2.170  0.00  0.00    -0.001 A 
ATOM      4  C3  UNL d   1      -2.647   5.780  -2.330  0.00  0.00     0.003 A 
ATOM      5  C4  UNL d   1      -1.907   5.998  -3.490  0.00  0.00    -0.005 A 
ATOM      6  C5  UNL d   1      -1.887   5.031  -4.493  0.00  0.00     0.003 A 
ATOM      7  C6  UNL d   1      -2.608   3.846  -4.335  0.00  0.00    -0.001 A 
ENDROOT
TORSDOF 0
ENDMDL
