MODEL 1
REMARK minimizedAffinity 10.3824196
REMARK minimizedRMSD -1
REMARK  0 active torsions:
REMARK  status: ('A' for Active; 'I' for Inactive)
ROOT
ATOM      1  C   UNL d   1      -4.396   4.567  -1.195  0.00  0.00     0.078 C 
ATOM      2  C1  UNL d   1      -3.380   4.675  -2.292  0.00  0.00    -0.077 A 
ATOM      3  C2  UNL d   1      -2.816   5.910  -2.634  0.00  0.00    -0.001 A 
ATOM      4  C3  UNL d   1      -1.878   5.997  -3.664  0.00  0.00     0.003 A 
ATOM      5  C4  UNL d   1      -1.496   4.853  -4.361  0.00  0.00    -0.005 A 
ATOM      6  C5  UNL d   1      -2.054   3.619  -4.029  0.00  0.00     0.003 A 
ATOM      7  C6  UNL d   1      -2.992   3.530  -3.000  0.00  0.00    -0.001 A 
ENDROOT
TORSDOF 0
ENDMDL
