MODEL 1
REMARK minimizedAffinity 1.44154775
REMARK minimizedRMSD -1
REMARK  0 active torsions:
REMARK  status: ('A' for Active; 'I' for Inactive)
ROOT
ATOM      1  C   UNL d   1      -3.960  -4.936  -0.581  0.00  0.00     0.078 C 
ATOM      2  C1  UNL d   1      -4.038  -4.711   0.899  0.00  0.00    -0.077 A 
ATOM      3  C2  UNL d   1      -3.615  -3.503   1.468  0.00  0.00    -0.001 A 
ATOM      4  C3  UNL d   1      -3.684  -3.311   2.849  0.00  0.00     0.003 A 
ATOM      5  C4  UNL d   1      -4.174  -4.322   3.673  0.00  0.00    -0.005 A 
ATOM      6  C5  UNL d   1      -4.595  -5.528   3.116  0.00  0.00     0.003 A 
ATOM      7  C6  UNL d   1      -4.527  -5.722   1.735  0.00  0.00    -0.001 A 
ENDROOT
TORSDOF 0
ENDMDL
