MODEL 1
REMARK minimizedAffinity -0.841802001
REMARK minimizedRMSD -1
REMARK  0 active torsions:
REMARK  status: ('A' for Active; 'I' for Inactive)
ROOT
ATOM      1  C1  BNZ d   1       6.000   2.104   4.208  0.00  0.00     0.000 A 
ATOM      2  C2  BNZ d   1       6.000   3.470   4.115  0.00  0.00     0.000 A 
ATOM      3  C3  BNZ d   1       5.067   4.120   3.357  0.00  0.00     0.000 A 
ATOM      4  C4  BNZ d   1       4.161   3.402   2.662  0.00  0.00     0.000 A 
ATOM      5  C5  BNZ d   1       4.153   2.024   2.738  0.00  0.00     0.000 A 
ATOM      6  C6  BNZ d   1       5.070   1.375   3.533  0.00  0.00     0.000 A 
ENDROOT
TORSDOF 0
ENDMDL
