MODEL 1
REMARK minimizedAffinity -1.11604679
REMARK minimizedRMSD -1
REMARK  0 active torsions:
REMARK  status: ('A' for Active; 'I' for Inactive)
ROOT
ATOM      1  C1  BNZ d   1       5.249  -0.013   4.560  0.00  0.00     0.000 A 
ATOM      2  C2  BNZ d   1       5.258   1.138   5.302  0.00  0.00     0.000 A 
ATOM      3  C3  BNZ d   1       5.611   2.332   4.738  0.00  0.00     0.000 A 
ATOM      4  C4  BNZ d   1       5.994   2.367   3.445  0.00  0.00     0.000 A 
ATOM      5  C5  BNZ d   1       6.000   1.213   2.686  0.00  0.00     0.000 A 
ATOM      6  C6  BNZ d   1       5.606   0.020   3.247  0.00  0.00     0.000 A 
ENDROOT
TORSDOF 0
ENDMDL
