MODEL 1
REMARK minimizedAffinity -1.33019364
REMARK minimizedRMSD -1
REMARK  0 active torsions:
REMARK  status: ('A' for Active; 'I' for Inactive)
ROOT
ATOM      1  C1  BNZ d   1       5.977   2.051   4.934  0.00  0.00     0.000 A 
ATOM      2  C2  BNZ d   1       5.971   1.192   6.000  0.00  0.00     0.000 A 
ATOM      3  C3  BNZ d   1       5.999  -0.162   5.808  0.00  0.00     0.000 A 
ATOM      4  C4  BNZ d   1       5.992  -0.653   4.552  0.00  0.00     0.000 A 
ATOM      5  C5  BNZ d   1       5.988   0.200   3.467  0.00  0.00     0.000 A 
ATOM      6  C6  BNZ d   1       5.999   1.562   3.664  0.00  0.00     0.000 A 
ENDROOT
TORSDOF 0
ENDMDL
