MODEL 1
REMARK minimizedAffinity -1.84062779
REMARK minimizedRMSD -1
REMARK  0 active torsions:
REMARK  status: ('A' for Active; 'I' for Inactive)
ROOT
ATOM      1  C1  BNZ d   1       5.997   4.122   3.156  0.00  0.00     0.000 A 
ATOM      2  C2  BNZ d   1       5.999   2.762   3.319  0.00  0.00     0.000 A 
ATOM      3  C3  BNZ d   1       5.975   2.207   4.568  0.00  0.00     0.000 A 
ATOM      4  C4  BNZ d   1       5.989   3.011   5.651  0.00  0.00     0.000 A 
ATOM      5  C5  BNZ d   1       5.997   4.383   5.503  0.00  0.00     0.000 A 
ATOM      6  C6  BNZ d   1       5.982   4.939   4.244  0.00  0.00     0.000 A 
ENDROOT
TORSDOF 0
ENDMDL
