MODEL 1
REMARK minimizedAffinity -2.82967353
REMARK minimizedRMSD -1
REMARK  0 active torsions:
REMARK  status: ('A' for Active; 'I' for Inactive)
ROOT
ATOM      1  C1  BNZ d   1       5.901   2.988   3.025  0.00  0.00     0.000 A 
ATOM      2  C2  BNZ d   1       5.784   1.642   2.798  0.00  0.00     0.000 A 
ATOM      3  C3  BNZ d   1       5.746   0.757   3.839  0.00  0.00     0.000 A 
ATOM      4  C4  BNZ d   1       5.866   1.214   5.102  0.00  0.00     0.000 A 
ATOM      5  C5  BNZ d   1       5.994   2.567   5.347  0.00  0.00     0.000 A 
ATOM      6  C6  BNZ d   1       5.992   3.458   4.299  0.00  0.00     0.000 A 
ENDROOT
TORSDOF 0
ENDMDL
