MODEL 1
REMARK minimizedAffinity -0.991866231
REMARK minimizedRMSD -1
REMARK  0 active torsions:
REMARK  status: ('A' for Active; 'I' for Inactive)
ROOT
ATOM      1  C1  BNZ d   1       5.900   2.315   5.972  0.00  0.00     0.000 A 
ATOM      2  C2  BNZ d   1       5.842   0.995   5.609  0.00  0.00     0.000 A 
ATOM      3  C3  BNZ d   1       5.887   0.628   4.293  0.00  0.00     0.000 A 
ATOM      4  C4  BNZ d   1       5.950   1.581   3.341  0.00  0.00     0.000 A 
ATOM      5  C5  BNZ d   1       6.000   2.916   3.690  0.00  0.00     0.000 A 
ATOM      6  C6  BNZ d   1       5.993   3.280   5.017  0.00  0.00     0.000 A 
ENDROOT
TORSDOF 0
ENDMDL
