MODEL 1
REMARK minimizedAffinity -1.41894162
REMARK minimizedRMSD -1
REMARK  0 active torsions:
REMARK  status: ('A' for Active; 'I' for Inactive)
ROOT
ATOM      1  C1  BNZ d   1       5.404   2.317   3.252  0.00  0.00     0.000 A 
ATOM      2  C2  BNZ d   1       5.998   1.176   2.781  0.00  0.00     0.000 A 
ATOM      3  C3  BNZ d   1       6.000   0.030   3.526  0.00  0.00     0.000 A 
ATOM      4  C4  BNZ d   1       5.445   0.037   4.755  0.00  0.00     0.000 A 
ATOM      5  C5  BNZ d   1       4.851   1.182   5.248  0.00  0.00     0.000 A 
ATOM      6  C6  BNZ d   1       4.816   2.323   4.479  0.00  0.00     0.000 A 
ENDROOT
TORSDOF 0
ENDMDL
