MODEL 1
REMARK minimizedAffinity -0.571414113
REMARK minimizedRMSD -1
REMARK  0 active torsions:
REMARK  status: ('A' for Active; 'I' for Inactive)
ROOT
ATOM      1  C1  BNZ d   1       5.964   5.181   5.347  0.00  0.00     0.000 A 
ATOM      2  C2  BNZ d   1       5.993   5.948   4.213  0.00  0.00     0.000 A 
ATOM      3  C3  BNZ d   1       5.991   5.368   2.976  0.00  0.00     0.000 A 
ATOM      4  C4  BNZ d   1       6.000   4.023   2.874  0.00  0.00     0.000 A 
ATOM      5  C5  BNZ d   1       5.980   3.236   4.008  0.00  0.00     0.000 A 
ATOM      6  C6  BNZ d   1       5.943   3.824   5.251  0.00  0.00     0.000 A 
ENDROOT
TORSDOF 0
ENDMDL
