MODEL 1
REMARK minimizedAffinity 0.324142039
REMARK minimizedRMSD -1
REMARK  0 active torsions:
REMARK  status: ('A' for Active; 'I' for Inactive)
ROOT
ATOM      1  C1  BNZ d   1       5.999   0.437   2.971  0.00  0.00     0.000 A 
ATOM      2  C2  BNZ d   1       6.000  -0.932   2.963  0.00  0.00     0.000 A 
ATOM      3  C3  BNZ d   1       5.975  -1.639   4.133  0.00  0.00     0.000 A 
ATOM      4  C4  BNZ d   1       5.991  -0.977   5.308  0.00  0.00     0.000 A 
ATOM      5  C5  BNZ d   1       6.000   0.404   5.332  0.00  0.00     0.000 A 
ATOM      6  C6  BNZ d   1       5.985   1.112   4.153  0.00  0.00     0.000 A 
ENDROOT
TORSDOF 0
ENDMDL
