MODEL 1
REMARK minimizedAffinity 2.77959418
REMARK minimizedRMSD -1
REMARK  0 active torsions:
REMARK  status: ('A' for Active; 'I' for Inactive)
ROOT
ATOM      1  C1  BNZ d   1       5.997   3.632   3.823  0.00  0.00     0.000 A 
ATOM      2  C2  BNZ d   1       6.000   3.519   5.188  0.00  0.00     0.000 A 
ATOM      3  C3  BNZ d   1       5.973   4.631   5.982  0.00  0.00     0.000 A 
ATOM      4  C4  BNZ d   1       5.983   5.854   5.411  0.00  0.00     0.000 A 
ATOM      5  C5  BNZ d   1       5.990   5.984   4.037  0.00  0.00     0.000 A 
ATOM      6  C6  BNZ d   1       5.977   4.862   3.241  0.00  0.00     0.000 A 
ENDROOT
TORSDOF 0
ENDMDL
