MODEL 1
REMARK minimizedAffinity -2.3501122
REMARK minimizedRMSD -1
REMARK  0 active torsions:
REMARK  status: ('A' for Active; 'I' for Inactive)
ROOT
ATOM      1  C1  BNZ d   1       5.418  -0.045   4.732  0.00  0.00     0.000 A 
ATOM      2  C2  BNZ d   1       4.825   1.114   5.157  0.00  0.00     0.000 A 
ATOM      3  C3  BNZ d   1       4.776   2.213   4.346  0.00  0.00     0.000 A 
ATOM      4  C4  BNZ d   1       5.353   2.165   3.128  0.00  0.00     0.000 A 
ATOM      5  C5  BNZ d   1       5.963   1.007   2.689  0.00  0.00     0.000 A 
ATOM      6  C6  BNZ d   1       5.977  -0.110   3.493  0.00  0.00     0.000 A 
ENDROOT
TORSDOF 0
ENDMDL
