MODEL 1
REMARK minimizedAffinity -1.84027672
REMARK minimizedRMSD -1
REMARK  0 active torsions:
REMARK  status: ('A' for Active; 'I' for Inactive)
ROOT
ATOM      1  C1  BNZ d   1       6.000   1.801   2.868  0.00  0.00     0.000 A 
ATOM      2  C2  BNZ d   1       5.983   2.679   3.919  0.00  0.00     0.000 A 
ATOM      3  C3  BNZ d   1       5.914   2.227   5.207  0.00  0.00     0.000 A 
ATOM      4  C4  BNZ d   1       5.822   0.902   5.441  0.00  0.00     0.000 A 
ATOM      5  C5  BNZ d   1       5.828   0.005   4.392  0.00  0.00     0.000 A 
ATOM      6  C6  BNZ d   1       5.937   0.461   3.098  0.00  0.00     0.000 A 
ENDROOT
TORSDOF 0
ENDMDL
