MODEL 1
REMARK minimizedAffinity -2.40273452
REMARK minimizedRMSD -1
REMARK  0 active torsions:
REMARK  status: ('A' for Active; 'I' for Inactive)
ROOT
ATOM      1  C1  BNZ d   1       5.951   1.753   4.825  0.00  0.00     0.000 A 
ATOM      2  C2  BNZ d   1       5.913   1.049   5.999  0.00  0.00     0.000 A 
ATOM      3  C3  BNZ d   1       5.920  -0.318   5.997  0.00  0.00     0.000 A 
ATOM      4  C4  BNZ d   1       5.924  -0.978   4.821  0.00  0.00     0.000 A 
ATOM      5  C5  BNZ d   1       5.954  -0.283   3.628  0.00  0.00     0.000 A 
ATOM      6  C6  BNZ d   1       5.986   1.093   3.636  0.00  0.00     0.000 A 
ENDROOT
TORSDOF 0
ENDMDL
