MODEL 1
REMARK minimizedAffinity 4.84425449
REMARK minimizedRMSD -1
REMARK  0 active torsions:
REMARK  status: ('A' for Active; 'I' for Inactive)
ROOT
ATOM      1  C1  BNZ d   1      -1.687   0.719   4.231  0.00  0.00     0.000 A 
ATOM      2  C2  BNZ d   1      -1.524   2.077   4.296  0.00  0.00     0.000 A 
ATOM      3  C3  BNZ d   1      -0.882   2.753   3.297  0.00  0.00     0.000 A 
ATOM      4  C4  BNZ d   1      -0.369   2.068   2.255  0.00  0.00     0.000 A 
ATOM      5  C5  BNZ d   1      -0.517   0.697   2.180  0.00  0.00     0.000 A 
ATOM      6  C6  BNZ d   1      -1.198   0.024   3.168  0.00  0.00     0.000 A 
ENDROOT
TORSDOF 0
ENDMDL
