MODEL 1
REMARK minimizedAffinity -0.955972195
REMARK minimizedRMSD -1
REMARK  0 active torsions:
REMARK  status: ('A' for Active; 'I' for Inactive)
ROOT
ATOM      1  C1  BNZ d   1       5.992   2.276   5.239  0.00  0.00     0.000 A 
ATOM      2  C2  BNZ d   1       6.000   1.137   5.999  0.00  0.00     0.000 A 
ATOM      3  C3  BNZ d   1       5.654  -0.069   5.457  0.00  0.00     0.000 A 
ATOM      4  C4  BNZ d   1       5.263  -0.128   4.167  0.00  0.00     0.000 A 
ATOM      5  C5  BNZ d   1       5.241   1.013   3.390  0.00  0.00     0.000 A 
ATOM      6  C6  BNZ d   1       5.627   2.219   3.929  0.00  0.00     0.000 A 
ENDROOT
TORSDOF 0
ENDMDL
