MODEL 1
REMARK minimizedAffinity -0.984231174
REMARK minimizedRMSD -1
REMARK  0 active torsions:
REMARK  status: ('A' for Active; 'I' for Inactive)
ROOT
ATOM      1  C1  BNZ d   1       6.000   3.221   2.918  0.00  0.00     0.000 A 
ATOM      2  C2  BNZ d   1       5.974   1.852   2.925  0.00  0.00     0.000 A 
ATOM      3  C3  BNZ d   1       5.935   1.159   4.103  0.00  0.00     0.000 A 
ATOM      4  C4  BNZ d   1       5.963   1.834   5.271  0.00  0.00     0.000 A 
ATOM      5  C5  BNZ d   1       5.999   3.214   5.280  0.00  0.00     0.000 A 
ATOM      6  C6  BNZ d   1       5.998   3.909   4.092  0.00  0.00     0.000 A 
ENDROOT
TORSDOF 0
ENDMDL
