MODEL 1
REMARK minimizedAffinity -0.20530051
REMARK minimizedRMSD -1
REMARK  0 active torsions:
REMARK  status: ('A' for Active; 'I' for Inactive)
ROOT
ATOM      1  C1  BNZ d   1       5.991   4.919   4.949  0.00  0.00     0.000 A 
ATOM      2  C2  BNZ d   1       5.995   5.992   4.098  0.00  0.00     0.000 A 
ATOM      3  C3  BNZ d   1       5.975   5.810   2.743  0.00  0.00     0.000 A 
ATOM      4  C4  BNZ d   1       5.993   4.559   2.242  0.00  0.00     0.000 A 
ATOM      5  C5  BNZ d   1       6.000   3.467   3.087  0.00  0.00     0.000 A 
ATOM      6  C6  BNZ d   1       5.980   3.653   4.450  0.00  0.00     0.000 A 
ENDROOT
TORSDOF 0
ENDMDL
