MODEL 1
REMARK minimizedAffinity -2.45842361
REMARK minimizedRMSD -1
REMARK  1 active torsions:
REMARK  status: ('A' for Active; 'I' for Inactive)
REMARK    1  A    between atoms: C1_2  and  C2_3 
ROOT
ATOM      1  C2  UNL d   1       2.290   1.259   0.466  0.00  0.00    -0.076 A 
ATOM      2  C3  UNL d   1       2.907   1.655  -0.733  0.00  0.00     0.004 A 
ATOM      3  C4  UNL d   1       3.554   2.885  -0.835  0.00  0.00    -0.003 A 
ATOM      4  C5  UNL d   1       3.595   3.740   0.262  0.00  0.00     0.000 A 
ATOM      5  C6  UNL d   1       3.004   3.355   1.464  0.00  0.00     0.000 A 
ATOM      6  C7  UNL d   1       2.362   2.111   1.589  0.00  0.00    -0.073 A 
ATOM      7  C8  UNL d   1       1.735   1.751   2.908  0.00  0.00     0.078 C 
ENDROOT
BRANCH   1   8
ATOM      8  C1  UNL d   1       1.580  -0.075   0.509  0.00  0.00     0.053 C 
ATOM      9  C   UNL d   1       0.472  -0.179  -0.528  0.00  0.00     0.018 C 
ENDBRANCH   1   8
TORSDOF 1
ENDMDL
