MODEL 1
REMARK minimizedAffinity -2.95567942
REMARK minimizedRMSD -1
REMARK  1 active torsions:
REMARK  status: ('A' for Active; 'I' for Inactive)
REMARK    1  A    between atoms: C1_2  and  C2_3 
ROOT
ATOM      1  C2  UNL d   1       1.043   0.782   0.329  0.00  0.00    -0.076 A 
ATOM      2  C3  UNL d   1       0.888   2.175   0.439  0.00  0.00     0.004 A 
ATOM      3  C4  UNL d   1       1.902   2.970   0.969  0.00  0.00    -0.003 A 
ATOM      4  C5  UNL d   1       3.088   2.385   1.398  0.00  0.00     0.000 A 
ATOM      5  C6  UNL d   1       3.267   1.007   1.281  0.00  0.00     0.000 A 
ATOM      6  C7  UNL d   1       2.261   0.193   0.733  0.00  0.00    -0.073 A 
ATOM      7  C8  UNL d   1       2.504  -1.288   0.635  0.00  0.00     0.078 C 
ENDROOT
BRANCH   1   8
ATOM      8  C1  UNL d   1      -0.102  -0.033  -0.230  0.00  0.00     0.053 C 
ATOM      9  C   UNL d   1      -0.993   0.776  -1.160  0.00  0.00     0.018 C 
ENDBRANCH   1   8
TORSDOF 1
ENDMDL
