MODEL 1
REMARK minimizedAffinity -2.45008659
REMARK minimizedRMSD -1
REMARK  1 active torsions:
REMARK  status: ('A' for Active; 'I' for Inactive)
REMARK    1  A    between atoms: C1_2  and  C2_3 
ROOT
ATOM      1  C2  UNL d   1       0.916   0.952   0.282  0.00  0.00    -0.076 A 
ATOM      2  C3  UNL d   1       0.794   2.340   0.465  0.00  0.00     0.004 A 
ATOM      3  C4  UNL d   1       1.827   3.082   1.036  0.00  0.00    -0.003 A 
ATOM      4  C5  UNL d   1       2.998   2.447   1.433  0.00  0.00     0.000 A 
ATOM      5  C6  UNL d   1       3.143   1.073   1.243  0.00  0.00     0.000 A 
ATOM      6  C7  UNL d   1       2.118   0.314   0.653  0.00  0.00    -0.073 A 
ATOM      7  C8  UNL d   1       2.326  -1.166   0.478  0.00  0.00     0.078 C 
ENDROOT
BRANCH   1   8
ATOM      8  C1  UNL d   1      -0.248   0.196  -0.319  0.00  0.00     0.053 C 
ATOM      9  C   UNL d   1      -0.595   0.676  -1.719  0.00  0.00     0.018 C 
ENDBRANCH   1   8
TORSDOF 1
ENDMDL
