MODEL 1
REMARK minimizedAffinity 1.3926295
REMARK minimizedRMSD -1
REMARK  1 active torsions:
REMARK  status: ('A' for Active; 'I' for Inactive)
REMARK    1  A    between atoms: C1_2  and  C2_3 
ROOT
ATOM      1  C2  UNL d   1      -1.417  -1.146  -0.216  0.00  0.00    -0.076 A 
ATOM      2  C3  UNL d   1      -0.568  -0.608   0.767  0.00  0.00     0.004 A 
ATOM      3  C4  UNL d   1       0.378   0.363   0.445  0.00  0.00    -0.003 A 
ATOM      4  C5  UNL d   1       0.491   0.812  -0.866  0.00  0.00     0.000 A 
ATOM      5  C6  UNL d   1      -0.354   0.302  -1.851  0.00  0.00     0.000 A 
ATOM      6  C7  UNL d   1      -1.325  -0.665  -1.540  0.00  0.00    -0.073 A 
ATOM      7  C8  UNL d   1      -2.206  -1.185  -2.642  0.00  0.00     0.078 C 
ENDROOT
BRANCH   1   8
ATOM      8  C1  UNL d   1      -2.405  -2.217   0.188  0.00  0.00     0.053 C 
ATOM      9  C   UNL d   1      -1.809  -3.225   1.158  0.00  0.00     0.018 C 
ENDBRANCH   1   8
TORSDOF 1
ENDMDL
