MODEL 1
REMARK minimizedAffinity -2.60369658
REMARK minimizedRMSD -1
REMARK  1 active torsions:
REMARK  status: ('A' for Active; 'I' for Inactive)
REMARK    1  A    between atoms: C1_2  and  C2_3 
ROOT
ATOM      1  C2  UNL d   1       1.815   1.414   0.476  0.00  0.00    -0.076 A 
ATOM      2  C3  UNL d   1       1.041   1.831   1.574  0.00  0.00     0.004 A 
ATOM      3  C4  UNL d   1       1.401   2.950   2.322  0.00  0.00    -0.003 A 
ATOM      4  C5  UNL d   1       2.540   3.672   1.984  0.00  0.00     0.000 A 
ATOM      5  C6  UNL d   1       3.310   3.284   0.888  0.00  0.00     0.000 A 
ATOM      6  C7  UNL d   1       2.952   2.167   0.114  0.00  0.00    -0.073 A 
ATOM      7  C8  UNL d   1       3.822   1.790  -1.054  0.00  0.00     0.078 C 
ENDROOT
BRANCH   1   8
ATOM      8  C1  UNL d   1       1.390   0.176  -0.281  0.00  0.00     0.053 C 
ATOM      9  C   UNL d   1      -0.109   0.130  -0.528  0.00  0.00     0.018 C 
ENDBRANCH   1   8
TORSDOF 1
ENDMDL
