MODEL 1
REMARK minimizedAffinity -3.71484804
REMARK minimizedRMSD -1
REMARK  1 active torsions:
REMARK  status: ('A' for Active; 'I' for Inactive)
REMARK    1  A    between atoms: C1_2  and  C2_3 
ROOT
ATOM      1  C2  UNL d   1      -0.490  -0.622   0.194  0.00  0.00    -0.076 A 
ATOM      2  C3  UNL d   1      -0.610  -1.756   1.015  0.00  0.00     0.004 A 
ATOM      3  C4  UNL d   1      -1.598  -2.711   0.781  0.00  0.00    -0.003 A 
ATOM      4  C5  UNL d   1      -2.481  -2.548  -0.280  0.00  0.00     0.000 A 
ATOM      5  C6  UNL d   1      -2.366  -1.438  -1.117  0.00  0.00     0.000 A 
ATOM      6  C7  UNL d   1      -1.365  -0.474  -0.904  0.00  0.00    -0.073 A 
ATOM      7  C8  UNL d   1      -1.290   0.706  -1.833  0.00  0.00     0.078 C 
ENDROOT
BRANCH   1   8
ATOM      8  C1  UNL d   1       0.584   0.393   0.513  0.00  0.00     0.053 C 
ATOM      9  C   UNL d   1       1.982  -0.202   0.464  0.00  0.00     0.018 C 
ENDBRANCH   1   8
TORSDOF 1
ENDMDL
