MODEL 1
REMARK minimizedAffinity -0.807210743
REMARK minimizedRMSD -1
REMARK  1 active torsions:
REMARK  status: ('A' for Active; 'I' for Inactive)
REMARK    1  A    between atoms: C1_2  and  C2_3 
ROOT
ATOM      1  C2  UNL d   1       1.449   0.882  -0.232  0.00  0.00    -0.076 A 
ATOM      2  C3  UNL d   1       0.780   1.627  -1.219  0.00  0.00     0.004 A 
ATOM      3  C4  UNL d   1      -0.434   1.192  -1.746  0.00  0.00    -0.003 A 
ATOM      4  C5  UNL d   1      -1.000   0.004  -1.296  0.00  0.00     0.000 A 
ATOM      5  C6  UNL d   1      -0.359  -0.739  -0.305  0.00  0.00     0.000 A 
ATOM      6  C7  UNL d   1       0.858  -0.306   0.249  0.00  0.00    -0.073 A 
ATOM      7  C8  UNL d   1       1.509  -1.149   1.311  0.00  0.00     0.078 C 
ENDROOT
BRANCH   1   8
ATOM      8  C1  UNL d   1       2.776   1.390   0.284  0.00  0.00     0.053 C 
ATOM      9  C   UNL d   1       2.670   1.985   1.679  0.00  0.00     0.018 C 
ENDBRANCH   1   8
TORSDOF 1
ENDMDL
