MODEL 1
REMARK minimizedAffinity -0.166858315
REMARK minimizedRMSD -1
REMARK  1 active torsions:
REMARK  status: ('A' for Active; 'I' for Inactive)
REMARK    1  A    between atoms: C1_2  and  C2_3 
ROOT
ATOM      1  C2  UNL d   1      -0.509  -1.196  -0.025  0.00  0.00    -0.076 A 
ATOM      2  C3  UNL d   1      -1.575  -1.800  -0.714  0.00  0.00     0.004 A 
ATOM      3  C4  UNL d   1      -2.232  -1.133  -1.747  0.00  0.00    -0.003 A 
ATOM      4  C5  UNL d   1      -1.832   0.149  -2.107  0.00  0.00     0.000 A 
ATOM      5  C6  UNL d   1      -0.765   0.757  -1.446  0.00  0.00     0.000 A 
ATOM      6  C7  UNL d   1      -0.082   0.091  -0.414  0.00  0.00    -0.073 A 
ATOM      7  C8  UNL d   1       1.058   0.796   0.269  0.00  0.00     0.078 C 
ENDROOT
BRANCH   1   8
ATOM      8  C1  UNL d   1       0.147  -1.958   1.105  0.00  0.00     0.053 C 
ATOM      9  C   UNL d   1      -0.736  -3.071   1.647  0.00  0.00     0.018 C 
ENDBRANCH   1   8
TORSDOF 1
ENDMDL
