MODEL 1
REMARK minimizedAffinity 0.320796043
REMARK minimizedRMSD -1
REMARK  1 active torsions:
REMARK  status: ('A' for Active; 'I' for Inactive)
REMARK    1  A    between atoms: C1_2  and  C2_3 
ROOT
ATOM      1  C2  UNL d   1      -1.034  -1.290   0.002  0.00  0.00    -0.076 A 
ATOM      2  C3  UNL d   1      -0.476  -0.654  -1.121  0.00  0.00     0.004 A 
ATOM      3  C4  UNL d   1      -1.283   0.006  -2.046  0.00  0.00    -0.003 A 
ATOM      4  C5  UNL d   1      -2.661   0.043  -1.863  0.00  0.00     0.000 A 
ATOM      5  C6  UNL d   1      -3.230  -0.568  -0.746  0.00  0.00     0.000 A 
ATOM      6  C7  UNL d   1      -2.429  -1.224   0.205  0.00  0.00    -0.073 A 
ATOM      7  C8  UNL d   1      -3.097  -1.871   1.388  0.00  0.00     0.078 C 
ENDROOT
BRANCH   1   8
ATOM      8  C1  UNL d   1      -0.112  -2.015   0.956  0.00  0.00     0.053 C 
ATOM      9  C   UNL d   1       1.171  -1.244   1.225  0.00  0.00     0.018 C 
ENDBRANCH   1   8
TORSDOF 1
ENDMDL
