MODEL 1
REMARK minimizedAffinity -0.126708552
REMARK minimizedRMSD -1
REMARK  1 active torsions:
REMARK  status: ('A' for Active; 'I' for Inactive)
REMARK    1  A    between atoms: C1_2  and  C2_3 
ROOT
ATOM      1  C2  UNL d   1       0.656   0.035   0.620  0.00  0.00    -0.076 A 
ATOM      2  C3  UNL d   1       1.346   0.453   1.771  0.00  0.00     0.004 A 
ATOM      3  C4  UNL d   1       2.358   1.408   1.694  0.00  0.00    -0.003 A 
ATOM      4  C5  UNL d   1       2.697   1.961   0.464  0.00  0.00     0.000 A 
ATOM      5  C6  UNL d   1       2.011   1.570  -0.686  0.00  0.00     0.000 A 
ATOM      6  C7  UNL d   1       0.977   0.621  -0.623  0.00  0.00    -0.073 A 
ATOM      7  C8  UNL d   1       0.276   0.232  -1.896  0.00  0.00     0.078 C 
ENDROOT
BRANCH   1   8
ATOM      8  C1  UNL d   1      -0.414  -1.024   0.761  0.00  0.00     0.053 C 
ATOM      9  C   UNL d   1      -0.105  -2.020   1.868  0.00  0.00     0.018 C 
ENDBRANCH   1   8
TORSDOF 1
ENDMDL
