MODEL 1
REMARK minimizedAffinity -0.126553342
REMARK minimizedRMSD -1
REMARK  1 active torsions:
REMARK  status: ('A' for Active; 'I' for Inactive)
REMARK    1  A    between atoms: C1_2  and  C2_3 
ROOT
ATOM      1  C2  UNL d   1       0.346   0.010   0.032  0.00  0.00    -0.076 A 
ATOM      2  C3  UNL d   1       0.040   0.685  -1.163  0.00  0.00     0.004 A 
ATOM      3  C4  UNL d   1      -1.147   0.431  -1.847  0.00  0.00    -0.003 A 
ATOM      4  C5  UNL d   1      -2.048  -0.503  -1.348  0.00  0.00     0.000 A 
ATOM      5  C6  UNL d   1      -1.769  -1.169  -0.155  0.00  0.00     0.000 A 
ATOM      6  C7  UNL d   1      -0.585  -0.912   0.556  0.00  0.00    -0.073 A 
ATOM      7  C8  UNL d   1      -0.332  -1.664   1.834  0.00  0.00     0.078 C 
ENDROOT
BRANCH   1   8
ATOM      8  C1  UNL d   1       1.661   0.308   0.716  0.00  0.00     0.053 C 
ATOM      9  C   UNL d   1       2.212   1.677   0.349  0.00  0.00     0.018 C 
ENDBRANCH   1   8
TORSDOF 1
ENDMDL
