MODEL 1
REMARK minimizedAffinity 1.41801012
REMARK minimizedRMSD -1
REMARK  0 active torsions:
REMARK  status: ('A' for Active; 'I' for Inactive)
ROOT
ATOM      1  C   UNL d   1       2.369  -1.507   2.248  0.00  0.00     0.020 A 
ATOM      2  C1  UNL d   1       2.360  -0.293   2.933  0.00  0.00     0.020 A 
ATOM      3  C2  UNL d   1       1.156   0.386   3.135  0.00  0.00     0.034 A 
ATOM      4  C3  UNL d   1      -0.044  -0.149   2.652  0.00  0.00     0.017 A 
ATOM      5  C4  UNL d   1      -0.034  -1.368   1.964  0.00  0.00     0.017 A 
ATOM      6  C5  UNL d   1       1.174  -2.043   1.765  0.00  0.00     0.034 A 
ATOM      7 Cl   UNL d   1      -1.473  -2.091   1.338  0.00  0.00    -0.070 Cl
ATOM      8 Cl1  UNL d   1      -1.495   0.744   2.938  0.00  0.00    -0.070 Cl
ENDROOT
TORSDOF 0
ENDMDL
