MODEL 1
REMARK minimizedAffinity 0.616993427
REMARK minimizedRMSD -1
REMARK  0 active torsions:
REMARK  status: ('A' for Active; 'I' for Inactive)
ROOT
ATOM      1  C   UNL d   1       1.125  -1.204  -0.732  0.00  0.00     0.020 A 
ATOM      2  C1  UNL d   1       2.393  -1.773  -0.620  0.00  0.00     0.020 A 
ATOM      3  C2  UNL d   1       2.933  -2.032   0.641  0.00  0.00     0.034 A 
ATOM      4  C3  UNL d   1       2.205  -1.722   1.796  0.00  0.00     0.017 A 
ATOM      5  C4  UNL d   1       0.932  -1.151   1.682  0.00  0.00     0.017 A 
ATOM      6  C5  UNL d   1       0.396  -0.894   0.417  0.00  0.00     0.034 A 
ATOM      7 Cl   UNL d   1      -0.026  -0.740   3.061  0.00  0.00    -0.070 Cl
ATOM      8 Cl1  UNL d   1       2.935  -2.069   3.323  0.00  0.00    -0.070 Cl
ENDROOT
TORSDOF 0
ENDMDL
