MODEL 1
REMARK minimizedAffinity 6.61350298
REMARK minimizedRMSD -1
REMARK  0 active torsions:
REMARK  status: ('A' for Active; 'I' for Inactive)
ROOT
ATOM      1  C   UNL d   1       1.814   1.578  -2.775  0.00  0.00     0.020 A 
ATOM      2  C1  UNL d   1       1.278   0.298  -2.903  0.00  0.00     0.020 A 
ATOM      3  C2  UNL d   1       1.221  -0.550  -1.794  0.00  0.00     0.034 A 
ATOM      4  C3  UNL d   1       1.703  -0.118  -0.553  0.00  0.00     0.017 A 
ATOM      5  C4  UNL d   1       2.241   1.168  -0.425  0.00  0.00     0.017 A 
ATOM      6  C5  UNL d   1       2.295   2.012  -1.538  0.00  0.00     0.034 A 
ATOM      7 Cl   UNL d   1       2.854   1.771   1.074  0.00  0.00    -0.070 Cl
ATOM      8 Cl1  UNL d   1       1.601  -1.219   0.775  0.00  0.00    -0.070 Cl
ENDROOT
TORSDOF 0
ENDMDL
