MODEL 1
REMARK minimizedAffinity 4.22434664
REMARK minimizedRMSD -1
REMARK  0 active torsions:
REMARK  status: ('A' for Active; 'I' for Inactive)
ROOT
ATOM      1  C   UNL d   1       3.261  -2.214   1.567  0.00  0.00     0.020 A 
ATOM      2  C1  UNL d   1       3.035  -2.434   0.209  0.00  0.00     0.020 A 
ATOM      3  C2  UNL d   1       1.821  -2.055  -0.367  0.00  0.00     0.034 A 
ATOM      4  C3  UNL d   1       0.828  -1.454   0.415  0.00  0.00     0.017 A 
ATOM      5  C4  UNL d   1       1.055  -1.233   1.778  0.00  0.00     0.017 A 
ATOM      6  C5  UNL d   1       2.273  -1.615   2.350  0.00  0.00     0.034 A 
ATOM      7 Cl   UNL d   1      -0.122  -0.497   2.807  0.00  0.00    -0.070 Cl
ATOM      8 Cl1  UNL d   1      -0.649  -1.010  -0.364  0.00  0.00    -0.070 Cl
ENDROOT
TORSDOF 0
ENDMDL
