MODEL 1
REMARK minimizedAffinity 3.06734657
REMARK minimizedRMSD -1
REMARK  0 active torsions:
REMARK  status: ('A' for Active; 'I' for Inactive)
ROOT
ATOM      1  C   UNL d   1       2.384   1.937  -3.092  0.00  0.00     0.020 A 
ATOM      2  C1  UNL d   1       2.105   0.589  -3.315  0.00  0.00     0.020 A 
ATOM      3  C2  UNL d   1       2.192  -0.325  -2.263  0.00  0.00     0.034 A 
ATOM      4  C3  UNL d   1       2.559   0.107  -0.983  0.00  0.00     0.017 A 
ATOM      5  C4  UNL d   1       2.839   1.460  -0.760  0.00  0.00     0.017 A 
ATOM      6  C5  UNL d   1       2.751   2.371  -1.817  0.00  0.00     0.034 A 
ATOM      7 Cl   UNL d   1       3.299   2.068   0.791  0.00  0.00    -0.070 Cl
ATOM      8 Cl1  UNL d   1       2.646  -1.078   0.271  0.00  0.00    -0.070 Cl
ENDROOT
TORSDOF 0
ENDMDL
