MODEL 1
REMARK minimizedAffinity 8.3001852
REMARK minimizedRMSD -1
REMARK  0 active torsions:
REMARK  status: ('A' for Active; 'I' for Inactive)
ROOT
ATOM      1  C   UNL d   1       0.771  -1.435   3.607  0.00  0.00     0.020 A 
ATOM      2  C1  UNL d   1      -0.251  -0.764   2.937  0.00  0.00     0.020 A 
ATOM      3  C2  UNL d   1      -0.153  -0.536   1.563  0.00  0.00     0.034 A 
ATOM      4  C3  UNL d   1       0.970  -0.980   0.854  0.00  0.00     0.017 A 
ATOM      5  C4  UNL d   1       1.995  -1.654   1.528  0.00  0.00     0.017 A 
ATOM      6  C5  UNL d   1       1.892  -1.879   2.904  0.00  0.00     0.034 A 
ATOM      7 Cl   UNL d   1       3.410  -2.231   0.721  0.00  0.00    -0.070 Cl
ATOM      8 Cl1  UNL d   1       1.024  -0.664  -0.844  0.00  0.00    -0.070 Cl
ENDROOT
TORSDOF 0
ENDMDL
