MODEL 1
REMARK minimizedAffinity 11.714716
REMARK minimizedRMSD -1
REMARK  0 active torsions:
REMARK  status: ('A' for Active; 'I' for Inactive)
ROOT
ATOM      1  C   UNL d   1       0.553  -1.224   3.065  0.00  0.00     0.020 A 
ATOM      2  C1  UNL d   1       1.669  -1.969   3.443  0.00  0.00     0.020 A 
ATOM      3  C2  UNL d   1       2.630  -2.318   2.492  0.00  0.00     0.034 A 
ATOM      4  C3  UNL d   1       2.477  -1.922   1.158  0.00  0.00     0.017 A 
ATOM      5  C4  UNL d   1       1.356  -1.174   0.780  0.00  0.00     0.017 A 
ATOM      6  C5  UNL d   1       0.397  -0.827   1.736  0.00  0.00     0.034 A 
ATOM      7 Cl   UNL d   1       1.098  -0.650  -0.847  0.00  0.00    -0.070 Cl
ATOM      8 Cl1  UNL d   1       3.705  -2.389   0.036  0.00  0.00    -0.070 Cl
ENDROOT
TORSDOF 0
ENDMDL
