MODEL 1
REMARK minimizedAffinity 6.35922527
REMARK minimizedRMSD -1
REMARK  0 active torsions:
REMARK  status: ('A' for Active; 'I' for Inactive)
ROOT
ATOM      1  C   UNL d   1       1.979  -2.143   0.500  0.00  0.00     0.020 A 
ATOM      2  C1  UNL d   1       2.348  -1.393   1.617  0.00  0.00     0.020 A 
ATOM      3  C2  UNL d   1       2.362   0.001   1.548  0.00  0.00     0.034 A 
ATOM      4  C3  UNL d   1       2.005   0.651   0.361  0.00  0.00     0.017 A 
ATOM      5  C4  UNL d   1       1.635  -0.102  -0.759  0.00  0.00     0.017 A 
ATOM      6  C5  UNL d   1       1.623  -1.498  -0.685  0.00  0.00     0.034 A 
ATOM      7 Cl   UNL d   1       1.182   0.629  -2.258  0.00  0.00    -0.070 Cl
ATOM      8 Cl1  UNL d   1       2.044   2.379   0.348  0.00  0.00    -0.070 Cl
ENDROOT
TORSDOF 0
ENDMDL
