MODEL 1
REMARK minimizedAffinity 7.3809247
REMARK minimizedRMSD -1
REMARK  0 active torsions:
REMARK  status: ('A' for Active; 'I' for Inactive)
ROOT
ATOM      1  C   UNL d   1       2.219  -1.757   2.506  0.00  0.00     0.020 A 
ATOM      2  C1  UNL d   1       1.995  -0.456   2.953  0.00  0.00     0.020 A 
ATOM      3  C2  UNL d   1       0.692  -0.012   3.187  0.00  0.00     0.034 A 
ATOM      4  C3  UNL d   1      -0.393  -0.871   2.974  0.00  0.00     0.017 A 
ATOM      5  C4  UNL d   1      -0.167  -2.178   2.526  0.00  0.00     0.017 A 
ATOM      6  C5  UNL d   1       1.141  -2.616   2.293  0.00  0.00     0.034 A 
ATOM      7 Cl   UNL d   1      -1.454  -3.296   2.241  0.00  0.00    -0.070 Cl
ATOM      8 Cl1  UNL d   1      -1.977  -0.257   3.284  0.00  0.00    -0.070 Cl
ENDROOT
TORSDOF 0
ENDMDL
