MODEL 1
REMARK minimizedAffinity 0.553231061
REMARK minimizedRMSD -1
REMARK  0 active torsions:
REMARK  status: ('A' for Active; 'I' for Inactive)
ROOT
ATOM      1  C   UNL d   1       2.454   1.897  -2.593  0.00  0.00     0.020 A 
ATOM      2  C1  UNL d   1       2.173   2.279  -1.281  0.00  0.00     0.020 A 
ATOM      3  C2  UNL d   1       2.197   1.329  -0.258  0.00  0.00     0.034 A 
ATOM      4  C3  UNL d   1       2.503  -0.007  -0.544  0.00  0.00     0.017 A 
ATOM      5  C4  UNL d   1       2.784  -0.388  -1.861  0.00  0.00     0.017 A 
ATOM      6  C5  UNL d   1       2.759   0.567  -2.882  0.00  0.00     0.034 A 
ATOM      7 Cl   UNL d   1       3.170  -2.017  -2.292  0.00  0.00    -0.070 Cl
ATOM      8 Cl1  UNL d   1       2.515  -1.128   0.771  0.00  0.00    -0.070 Cl
ENDROOT
TORSDOF 0
ENDMDL
