MODEL 1
REMARK minimizedAffinity 3.13183689
REMARK minimizedRMSD -1
REMARK  2 active torsions:
REMARK  status: ('A' for Active; 'I' for Inactive)
REMARK    1  A    between atoms: C1_2  and  C2_3 
REMARK    2  A    between atoms: C2_3  and  C3_4 
ROOT
ATOM      1  C3  UNL d   1      -0.280  -3.218   0.410  0.00  0.00    -0.075 A 
ATOM      2  C4  UNL d   1      -1.065  -2.634  -0.594  0.00  0.00     0.002 A 
ATOM      3  C5  UNL d   1      -0.605  -1.516  -1.292  0.00  0.00     0.002 A 
ATOM      4  C6  UNL d   1       0.637  -0.964  -0.988  0.00  0.00    -0.004 A 
ATOM      5  C7  UNL d   1       1.418  -1.526   0.020  0.00  0.00     0.002 A 
ATOM      6  C8  UNL d   1       0.963  -2.647   0.716  0.00  0.00     0.002 A 
ENDROOT
BRANCH   1   7
ATOM      7  C2  UNL d   1      -0.758  -4.445   1.149  0.00  0.00     0.056 C 
BRANCH   7   8
ATOM      8  C1  UNL d   1       0.078  -5.701   0.879  0.00  0.00     0.007 C 
ATOM      9  C   UNL d   1       1.089  -5.997   1.979  0.00  0.00     0.009 C 
ENDBRANCH   7   8
ENDBRANCH   1   7
TORSDOF 2
ENDMDL
