MODEL 1
REMARK minimizedAffinity 7.25846767
REMARK minimizedRMSD -1
REMARK  2 active torsions:
REMARK  status: ('A' for Active; 'I' for Inactive)
REMARK    1  A    between atoms: C1_2  and  C2_3 
REMARK    2  A    between atoms: C2_3  and  C3_4 
ROOT
ATOM      1  C3  UNL d   1       1.349  -3.725   0.125  0.00  0.00    -0.075 A 
ATOM      2  C4  UNL d   1      -0.037  -3.510   0.119  0.00  0.00     0.002 A 
ATOM      3  C5  UNL d   1      -0.909  -4.496   0.580  0.00  0.00     0.002 A 
ATOM      4  C6  UNL d   1      -0.410  -5.711   1.042  0.00  0.00    -0.004 A 
ATOM      5  C7  UNL d   1       0.964  -5.943   1.037  0.00  0.00     0.002 A 
ATOM      6  C8  UNL d   1       1.840  -4.956   0.581  0.00  0.00     0.002 A 
ENDROOT
BRANCH   1   7
ATOM      7  C2  UNL d   1       2.300  -2.651  -0.345  0.00  0.00     0.056 C 
BRANCH   7   8
ATOM      8  C1  UNL d   1       1.706  -1.708  -1.397  0.00  0.00     0.007 C 
ATOM      9  C   UNL d   1       2.318  -0.314  -1.368  0.00  0.00     0.009 C 
ENDBRANCH   7   8
ENDBRANCH   1   7
TORSDOF 2
ENDMDL
