MODEL 1
REMARK minimizedAffinity -3.84995198
REMARK minimizedRMSD -1
REMARK  2 active torsions:
REMARK  status: ('A' for Active; 'I' for Inactive)
REMARK    1  A    between atoms: C1_2  and  C2_3 
REMARK    2  A    between atoms: C2_3  and  C3_4 
ROOT
ATOM      1  C3  UNL d   1       1.253  -3.218   0.083  0.00  0.00    -0.075 A 
ATOM      2  C4  UNL d   1       1.928  -2.251  -0.675  0.00  0.00     0.002 A 
ATOM      3  C5  UNL d   1       1.256  -1.120  -1.141  0.00  0.00     0.002 A 
ATOM      4  C6  UNL d   1      -0.098  -0.948  -0.863  0.00  0.00    -0.004 A 
ATOM      5  C7  UNL d   1      -0.783  -1.911  -0.125  0.00  0.00     0.002 A 
ATOM      6  C8  UNL d   1      -0.112  -3.041   0.346  0.00  0.00     0.002 A 
ENDROOT
BRANCH   1   7
ATOM      7  C2  UNL d   1       1.982  -4.430   0.615  0.00  0.00     0.056 C 
BRANCH   7   8
ATOM      8  C1  UNL d   1       1.227  -5.748   0.416  0.00  0.00     0.007 C 
ATOM      9  C   UNL d   1       0.164  -5.997   1.478  0.00  0.00     0.009 C 
ENDBRANCH   7   8
ENDBRANCH   1   7
TORSDOF 2
ENDMDL
