MODEL 1
REMARK minimizedAffinity -3.75318766
REMARK minimizedRMSD -1
REMARK  2 active torsions:
REMARK  status: ('A' for Active; 'I' for Inactive)
REMARK    1  A    between atoms: C1_2  and  C2_3 
REMARK    2  A    between atoms: C2_3  and  C3_4 
ROOT
ATOM      1  C3  UNL d   1       0.935  -2.376  -0.495  0.00  0.00    -0.075 A 
ATOM      2  C4  UNL d   1       1.603  -1.257  -1.013  0.00  0.00     0.002 A 
ATOM      3  C5  UNL d   1       0.960  -0.022  -1.094  0.00  0.00     0.002 A 
ATOM      4  C6  UNL d   1      -0.360   0.109  -0.668  0.00  0.00    -0.004 A 
ATOM      5  C7  UNL d   1      -1.039  -0.999  -0.167  0.00  0.00     0.002 A 
ATOM      6  C8  UNL d   1      -0.397  -2.236  -0.081  0.00  0.00     0.002 A 
ENDROOT
BRANCH   1   7
ATOM      7  C2  UNL d   1       1.635  -3.709  -0.377  0.00  0.00     0.056 C 
BRANCH   7   8
ATOM      8  C1  UNL d   1       0.707  -4.869  -0.003  0.00  0.00     0.007 C 
ATOM      9  C   UNL d   1       1.421  -5.996   0.731  0.00  0.00     0.009 C 
ENDBRANCH   7   8
ENDBRANCH   1   7
TORSDOF 2
ENDMDL
