MODEL 1
REMARK minimizedAffinity 6.52826643
REMARK minimizedRMSD -1
REMARK  2 active torsions:
REMARK  status: ('A' for Active; 'I' for Inactive)
REMARK    1  A    between atoms: C1_2  and  C2_3 
REMARK    2  A    between atoms: C2_3  and  C3_4 
ROOT
ATOM      1  C3  UNL d   1       0.798  -1.134  -0.247  0.00  0.00    -0.075 A 
ATOM      2  C4  UNL d   1      -0.285  -1.917   0.177  0.00  0.00     0.002 A 
ATOM      3  C5  UNL d   1      -1.445  -1.998  -0.595  0.00  0.00     0.002 A 
ATOM      4  C6  UNL d   1      -1.539  -1.292  -1.792  0.00  0.00    -0.004 A 
ATOM      5  C7  UNL d   1      -0.475  -0.498  -2.214  0.00  0.00     0.002 A 
ATOM      6  C8  UNL d   1       0.688  -0.418  -1.446  0.00  0.00     0.002 A 
ENDROOT
BRANCH   1   7
ATOM      7  C2  UNL d   1       2.067  -1.065   0.569  0.00  0.00     0.056 C 
BRANCH   7   8
ATOM      8  C1  UNL d   1       3.076  -2.173   0.248  0.00  0.00     0.007 C 
ATOM      9  C   UNL d   1       2.430  -3.426  -0.327  0.00  0.00     0.009 C 
ENDBRANCH   7   8
ENDBRANCH   1   7
TORSDOF 2
ENDMDL
