MODEL 1
REMARK minimizedAffinity -1.92643774
REMARK minimizedRMSD -1
REMARK  2 active torsions:
REMARK  status: ('A' for Active; 'I' for Inactive)
REMARK    1  A    between atoms: C1_2  and  C2_3 
REMARK    2  A    between atoms: C2_3  and  C3_4 
ROOT
ATOM      1  C3  UNL d   1      -0.610  -2.963   0.091  0.00  0.00    -0.075 A 
ATOM      2  C4  UNL d   1       0.355  -2.256   0.823  0.00  0.00     0.002 A 
ATOM      3  C5  UNL d   1       0.901  -1.075   0.319  0.00  0.00     0.002 A 
ATOM      4  C6  UNL d   1       0.499  -0.594  -0.925  0.00  0.00    -0.004 A 
ATOM      5  C7  UNL d   1      -0.447  -1.297  -1.668  0.00  0.00     0.002 A 
ATOM      6  C8  UNL d   1      -0.999  -2.476  -1.164  0.00  0.00     0.002 A 
ENDROOT
BRANCH   1   7
ATOM      7  C2  UNL d   1      -1.228  -4.225   0.645  0.00  0.00     0.056 C 
BRANCH   7   8
ATOM      8  C1  UNL d   1      -2.112  -4.977  -0.355  0.00  0.00     0.007 C 
ATOM      9  C   UNL d   1      -3.352  -5.590   0.283  0.00  0.00     0.009 C 
ENDBRANCH   7   8
ENDBRANCH   1   7
TORSDOF 2
ENDMDL
