MODEL 1
REMARK minimizedAffinity -1.97193336
REMARK minimizedRMSD -1
REMARK  2 active torsions:
REMARK  status: ('A' for Active; 'I' for Inactive)
REMARK    1  A    between atoms: C1_2  and  C2_3 
REMARK    2  A    between atoms: C2_3  and  C3_4 
ROOT
ATOM      1  C3  UNL d   1       1.734  -2.739   0.386  0.00  0.00    -0.075 A 
ATOM      2  C4  UNL d   1       0.359  -2.749   0.110  0.00  0.00     0.002 A 
ATOM      3  C5  UNL d   1      -0.184  -1.856  -0.815  0.00  0.00     0.002 A 
ATOM      4  C6  UNL d   1       0.637  -0.938  -1.466  0.00  0.00    -0.004 A 
ATOM      5  C7  UNL d   1       2.001  -0.909  -1.188  0.00  0.00     0.002 A 
ATOM      6  C8  UNL d   1       2.548  -1.804  -0.266  0.00  0.00     0.002 A 
ENDROOT
BRANCH   1   7
ATOM      7  C2  UNL d   1       2.333  -3.722   1.364  0.00  0.00     0.056 C 
BRANCH   7   8
ATOM      8  C1  UNL d   1       1.536  -5.023   1.507  0.00  0.00     0.007 C 
ATOM      9  C   UNL d   1       1.758  -5.993   0.354  0.00  0.00     0.009 C 
ENDBRANCH   7   8
ENDBRANCH   1   7
TORSDOF 2
ENDMDL
