MODEL 1
REMARK minimizedAffinity -1.1977216
REMARK minimizedRMSD -1
REMARK  2 active torsions:
REMARK  status: ('A' for Active; 'I' for Inactive)
REMARK    1  A    between atoms: C1_2  and  C2_3 
REMARK    2  A    between atoms: C2_3  and  C3_4 
ROOT
ATOM      1  C3  UNL d   1       1.332  -2.485  -0.299  0.00  0.00    -0.075 A 
ATOM      2  C4  UNL d   1      -0.062  -2.381  -0.406  0.00  0.00     0.002 A 
ATOM      3  C5  UNL d   1      -0.654  -1.190  -0.829  0.00  0.00     0.002 A 
ATOM      4  C6  UNL d   1       0.139  -0.087  -1.139  0.00  0.00    -0.004 A 
ATOM      5  C7  UNL d   1       1.524  -0.174  -1.021  0.00  0.00     0.002 A 
ATOM      6  C8  UNL d   1       2.119  -1.366  -0.602  0.00  0.00     0.002 A 
ENDROOT
BRANCH   1   7
ATOM      7  C2  UNL d   1       1.980  -3.780   0.130  0.00  0.00     0.056 C 
BRANCH   7   8
ATOM      8  C1  UNL d   1       0.983  -4.880   0.509  0.00  0.00     0.007 C 
ATOM      9  C   UNL d   1       1.608  -6.000   1.330  0.00  0.00     0.009 C 
ENDBRANCH   7   8
ENDBRANCH   1   7
TORSDOF 2
ENDMDL
