MODEL 1
REMARK minimizedAffinity -4.57631636
REMARK minimizedRMSD -1
REMARK  2 active torsions:
REMARK  status: ('A' for Active; 'I' for Inactive)
REMARK    1  A    between atoms: C1_2  and  C2_3 
REMARK    2  A    between atoms: C2_3  and  C3_4 
ROOT
ATOM      1  C3  UNL d   1       1.457  -2.360  -0.300  0.00  0.00    -0.075 A 
ATOM      2  C4  UNL d   1       0.429  -1.761   0.442  0.00  0.00     0.002 A 
ATOM      3  C5  UNL d   1      -0.074  -0.513   0.076  0.00  0.00     0.002 A 
ATOM      4  C6  UNL d   1       0.449   0.156  -1.028  0.00  0.00    -0.004 A 
ATOM      5  C7  UNL d   1       1.482  -0.421  -1.763  0.00  0.00     0.002 A 
ATOM      6  C8  UNL d   1       1.985  -1.673  -1.402  0.00  0.00     0.002 A 
ENDROOT
BRANCH   1   7
ATOM      7  C2  UNL d   1       1.986  -3.724   0.073  0.00  0.00     0.056 C 
BRANCH   7   8
ATOM      8  C1  UNL d   1       1.044  -4.535   0.969  0.00  0.00     0.007 C 
ATOM      9  C   UNL d   1       1.472  -5.987   1.132  0.00  0.00     0.009 C 
ENDBRANCH   7   8
ENDBRANCH   1   7
TORSDOF 2
ENDMDL
