MODEL 1
REMARK minimizedAffinity -1.74890661
REMARK minimizedRMSD -1
REMARK  2 active torsions:
REMARK  status: ('A' for Active; 'I' for Inactive)
REMARK    1  A    between atoms: C1_2  and  C2_3 
REMARK    2  A    between atoms: C2_3  and  C3_4 
ROOT
ATOM      1  C3  UNL d   1      -0.011  -1.880  -0.048  0.00  0.00    -0.075 A 
ATOM      2  C4  UNL d   1       0.103  -0.553  -0.486  0.00  0.00     0.002 A 
ATOM      3  C5  UNL d   1       1.333  -0.051  -0.913  0.00  0.00     0.002 A 
ATOM      4  C6  UNL d   1       2.464  -0.864  -0.898  0.00  0.00    -0.004 A 
ATOM      5  C7  UNL d   1       2.366  -2.179  -0.448  0.00  0.00     0.002 A 
ATOM      6  C8  UNL d   1       1.136  -2.685  -0.024  0.00  0.00     0.002 A 
ENDROOT
BRANCH   1   7
ATOM      7  C2  UNL d   1      -1.345  -2.438   0.388  0.00  0.00     0.056 C 
BRANCH   7   8
ATOM      8  C1  UNL d   1      -1.400  -3.969   0.418  0.00  0.00     0.007 C 
ATOM      9  C   UNL d   1      -2.238  -4.562  -0.707  0.00  0.00     0.009 C 
ENDBRANCH   7   8
ENDBRANCH   1   7
TORSDOF 2
ENDMDL
