MODEL 1
REMARK minimizedAffinity 18.162632
REMARK minimizedRMSD -1
REMARK  2 active torsions:
REMARK  status: ('A' for Active; 'I' for Inactive)
REMARK    1  A    between atoms: C2'_3  and  C1'_4 
REMARK    2  A    between atoms: C1'_4  and  C1_5 
ROOT
ATOM      1  C1  I4B d   1       3.466   4.039  -2.689  0.00  0.00    -0.075 A 
ATOM      2  C2  I4B d   1       3.176   2.734  -3.002  0.00  0.00     0.003 A 
ATOM      3  C3  I4B d   1       1.833   2.329  -3.191  0.00  0.00     0.002 A 
ATOM      4  C4  I4B d   1       0.815   3.242  -3.008  0.00  0.00    -0.004 A 
ATOM      5  C5  I4B d   1       1.112   4.570  -2.713  0.00  0.00     0.002 A 
ATOM      6  C6  I4B d   1       2.447   4.974  -2.564  0.00  0.00     0.003 A 
ENDROOT
BRANCH   1   7
ATOM      7  C1' I4B d   1       4.894   4.425  -2.464  0.00  0.00     0.060 C 
BRANCH   7   8
ATOM      8  C2' I4B d   1       5.095   4.623  -0.975  0.00  0.00    -0.013 C 
ATOM      9  C4' I4B d   1       5.997   3.562  -0.401  0.00  0.00     0.013 C 
ATOM     10  C3' I4B d   1       5.667   5.993  -0.764  0.00  0.00     0.013 C 
ENDBRANCH   7   8
ENDBRANCH   1   7
TORSDOF 2
ENDMDL
