MODEL 1
REMARK minimizedAffinity 10.1126556
REMARK minimizedRMSD -1
REMARK  2 active torsions:
REMARK  status: ('A' for Active; 'I' for Inactive)
REMARK    1  A    between atoms: C2'_3  and  C1'_4 
REMARK    2  A    between atoms: C1'_4  and  C1_5 
ROOT
ATOM      1  C1  I4B d   1      -4.335   2.504   5.270  0.00  0.00    -0.075 A 
ATOM      2  C2  I4B d   1      -3.385   3.494   5.281  0.00  0.00     0.003 A 
ATOM      3  C3  I4B d   1      -3.732   4.811   5.670  0.00  0.00     0.002 A 
ATOM      4  C4  I4B d   1      -5.043   5.102   5.989  0.00  0.00    -0.004 A 
ATOM      5  C5  I4B d   1      -6.000   4.091   5.999  0.00  0.00     0.002 A 
ATOM      6  C6  I4B d   1      -5.642   2.781   5.649  0.00  0.00     0.003 A 
ENDROOT
BRANCH   1   7
ATOM      7  C1' I4B d   1      -3.941   1.132   4.822  0.00  0.00     0.060 C 
BRANCH   7   8
ATOM      8  C2' I4B d   1      -2.468   1.162   4.468  0.00  0.00    -0.013 C 
ATOM      9  C4' I4B d   1      -1.651   0.385   5.467  0.00  0.00     0.013 C 
ATOM     10  C3' I4B d   1      -2.313   0.599   3.087  0.00  0.00     0.013 C 
ENDBRANCH   7   8
ENDBRANCH   1   7
TORSDOF 2
ENDMDL
