MODEL 1
REMARK minimizedAffinity 24.2907372
REMARK minimizedRMSD -1
REMARK  2 active torsions:
REMARK  status: ('A' for Active; 'I' for Inactive)
REMARK    1  A    between atoms: C2'_3  and  C1'_4 
REMARK    2  A    between atoms: C1'_4  and  C1_5 
ROOT
ATOM      1  C1  I4B d   1      -3.039  -0.458   1.476  0.00  0.00    -0.075 A 
ATOM      2  C2  I4B d   1      -2.157  -1.477   1.215  0.00  0.00     0.003 A 
ATOM      3  C3  I4B d   1      -0.889  -1.501   1.843  0.00  0.00     0.002 A 
ATOM      4  C4  I4B d   1      -0.525  -0.466   2.681  0.00  0.00    -0.004 A 
ATOM      5  C5  I4B d   1      -1.429   0.554   2.962  0.00  0.00     0.002 A 
ATOM      6  C6  I4B d   1      -2.699   0.553   2.366  0.00  0.00     0.003 A 
ENDROOT
BRANCH   1   7
ATOM      7  C1' I4B d   1      -4.358  -0.447   0.770  0.00  0.00     0.060 C 
BRANCH   7   8
ATOM      8  C2' I4B d   1      -4.888   0.972   0.795  0.00  0.00    -0.013 C 
ATOM      9  C4' I4B d   1      -5.365   1.400  -0.568  0.00  0.00     0.013 C 
ATOM     10  C3' I4B d   1      -5.999   1.034   1.801  0.00  0.00     0.013 C 
ENDBRANCH   7   8
ENDBRANCH   1   7
TORSDOF 2
ENDMDL
