MODEL 1
REMARK minimizedAffinity 13.1558542
REMARK minimizedRMSD -1
REMARK  2 active torsions:
REMARK  status: ('A' for Active; 'I' for Inactive)
REMARK    1  A    between atoms: C2'_3  and  C1'_4 
REMARK    2  A    between atoms: C1'_4  and  C1_5 
ROOT
ATOM      1  C1  I4B d   1       0.592  -2.164   1.562  0.00  0.00    -0.075 A 
ATOM      2  C2  I4B d   1       1.859  -1.639   1.542  0.00  0.00     0.003 A 
ATOM      3  C3  I4B d   1       2.876  -2.257   0.774  0.00  0.00     0.002 A 
ATOM      4  C4  I4B d   1       2.595  -3.421   0.087  0.00  0.00    -0.004 A 
ATOM      5  C5  I4B d   1       1.303  -3.939   0.090  0.00  0.00     0.002 A 
ATOM      6  C6  I4B d   1       0.292  -3.301   0.822  0.00  0.00     0.003 A 
ENDROOT
BRANCH   1   7
ATOM      7  C1' I4B d   1      -0.449  -1.504   2.410  0.00  0.00     0.060 C 
BRANCH   7   8
ATOM      8  C2' I4B d   1      -1.621  -1.147   1.517  0.00  0.00    -0.013 C 
ATOM      9  C4' I4B d   1      -2.758  -2.118   1.697  0.00  0.00     0.013 C 
ATOM     10  C3' I4B d   1      -2.045   0.252   1.848  0.00  0.00     0.013 C 
ENDBRANCH   7   8
ENDBRANCH   1   7
TORSDOF 2
ENDMDL
