MODEL 1
REMARK minimizedAffinity -4.09618425
REMARK minimizedRMSD -1
REMARK  2 active torsions:
REMARK  status: ('A' for Active; 'I' for Inactive)
REMARK    1  A    between atoms: C2'_3  and  C1'_4 
REMARK    2  A    between atoms: C1'_4  and  C1_5 
ROOT
ATOM      1  C1  I4B d   1      -0.070   0.082  -0.238  0.00  0.00    -0.075 A 
ATOM      2  C2  I4B d   1       0.939  -0.691   0.279  0.00  0.00     0.003 A 
ATOM      3  C3  I4B d   1       0.639  -1.908   0.938  0.00  0.00     0.002 A 
ATOM      4  C4  I4B d   1      -0.678  -2.286   1.100  0.00  0.00    -0.004 A 
ATOM      5  C5  I4B d   1      -1.699  -1.513   0.555  0.00  0.00     0.002 A 
ATOM      6  C6  I4B d   1      -1.393  -0.327  -0.129  0.00  0.00     0.003 A 
ENDROOT
BRANCH   1   7
ATOM      7  C1' I4B d   1       0.280   1.378  -0.898  0.00  0.00     0.060 C 
BRANCH   7   8
ATOM      8  C2' I4B d   1       1.659   1.232  -1.509  0.00  0.00    -0.013 C 
ATOM      9  C4' I4B d   1       1.585   0.621  -2.883  0.00  0.00     0.013 C 
ATOM     10  C3' I4B d   1       2.291   2.591  -1.554  0.00  0.00     0.013 C 
ENDBRANCH   7   8
ENDBRANCH   1   7
TORSDOF 2
ENDMDL
