MODEL 1
REMARK minimizedAffinity 3.50958276
REMARK minimizedRMSD -1
REMARK  2 active torsions:
REMARK  status: ('A' for Active; 'I' for Inactive)
REMARK    1  A    between atoms: C2'_3  and  C1'_4 
REMARK    2  A    between atoms: C1'_4  and  C1_5 
ROOT
ATOM      1  C1  I4B d   1      -0.171  -1.173   1.218  0.00  0.00    -0.075 A 
ATOM      2  C2  I4B d   1      -0.872   0.004   1.142  0.00  0.00     0.003 A 
ATOM      3  C3  I4B d   1      -0.345   1.103   0.421  0.00  0.00     0.002 A 
ATOM      4  C4  I4B d   1       0.902   0.998  -0.162  0.00  0.00    -0.004 A 
ATOM      5  C5  I4B d   1       1.601  -0.204  -0.103  0.00  0.00     0.002 A 
ATOM      6  C6  I4B d   1       1.056  -1.301   0.581  0.00  0.00     0.003 A 
ENDROOT
BRANCH   1   7
ATOM      7  C1' I4B d   1      -0.743  -2.303   2.015  0.00  0.00     0.060 C 
BRANCH   7   8
ATOM      8  C2' I4B d   1      -2.073  -1.848   2.581  0.00  0.00    -0.013 C 
ATOM      9  C4' I4B d   1      -3.040  -2.996   2.690  0.00  0.00     0.013 C 
ATOM     10  C3' I4B d   1      -1.816  -1.226   3.922  0.00  0.00     0.013 C 
ENDBRANCH   7   8
ENDBRANCH   1   7
TORSDOF 2
ENDMDL
