MODEL 1
REMARK minimizedAffinity 3.23952103
REMARK minimizedRMSD -1
REMARK  1 active torsions:
REMARK  status: ('A' for Active; 'I' for Inactive)
REMARK    1  A    between atoms: C1_2  and  C2_3 
ROOT
ATOM      1  C2  UNL d   1      -1.415   0.104   1.317  0.00  0.00    -0.073 A 
ATOM      2  C3  UNL d   1      -0.236   0.240   0.577  0.00  0.00    -0.002 A 
ATOM      3  C4  UNL d   1       0.985  -0.174   1.113  0.00  0.00     0.004 A 
ATOM      4  C5  UNL d   1       1.037  -0.734   2.389  0.00  0.00    -0.004 A 
ATOM      5  C6  UNL d   1      -0.133  -0.890   3.139  0.00  0.00    -0.075 A 
ATOM      6  C7  UNL d   1      -0.093  -1.489   4.514  0.00  0.00     0.076 C 
ATOM      7  C8  UNL d   1      -1.354  -0.469   2.595  0.00  0.00     0.001 A 
ENDROOT
BRANCH   1   8
ATOM      8  C1  UNL d   1      -2.736   0.543   0.740  0.00  0.00     0.053 C 
ATOM      9  C   UNL d   1      -3.171  -0.334  -0.423  0.00  0.00     0.018 C 
ENDBRANCH   1   8
TORSDOF 1
ENDMDL
