MODEL 1
REMARK minimizedAffinity -4.8490572
REMARK minimizedRMSD -1
REMARK  1 active torsions:
REMARK  status: ('A' for Active; 'I' for Inactive)
REMARK    1  A    between atoms: C1_2  and  C2_3 
ROOT
ATOM      1  C2  UNL d   1      -1.154   0.749   2.150  0.00  0.00    -0.073 A 
ATOM      2  C3  UNL d   1      -0.092  -0.152   2.013  0.00  0.00    -0.002 A 
ATOM      3  C4  UNL d   1       0.716  -0.462   3.107  0.00  0.00     0.004 A 
ATOM      4  C5  UNL d   1       0.467   0.119   4.350  0.00  0.00    -0.004 A 
ATOM      5  C6  UNL d   1      -0.597   1.013   4.511  0.00  0.00    -0.075 A 
ATOM      6  C7  UNL d   1      -0.877   1.649   5.841  0.00  0.00     0.076 C 
ATOM      7  C8  UNL d   1      -1.402   1.321   3.406  0.00  0.00     0.001 A 
ENDROOT
BRANCH   1   8
ATOM      8  C1  UNL d   1      -2.033   1.082   0.973  0.00  0.00     0.053 C 
ATOM      9  C   UNL d   1      -1.952   0.024  -0.116  0.00  0.00     0.018 C 
ENDBRANCH   1   8
TORSDOF 1
ENDMDL
