MODEL 1
REMARK minimizedAffinity -5.71882391
REMARK minimizedRMSD -1
REMARK  3 active torsions:
REMARK  status: ('A' for Active; 'I' for Inactive)
REMARK    1  A    between atoms: C3'_2  and  C2'_3 
REMARK    2  A    between atoms: C2'_3  and  C1'_4 
REMARK    3  A    between atoms: C1'_4  and  C1_5 
ROOT
ATOM      1  C1  N4B d   1      -1.223   0.253   0.504  0.00  0.00    -0.075 A 
ATOM      2  C2  N4B d   1      -2.378   0.601   1.238  0.00  0.00     0.002 A 
ATOM      3  C3  N4B d   1      -3.041  -0.355   1.968  0.00  0.00     0.002 A 
ATOM      4  C4  N4B d   1      -2.581  -1.663   1.964  0.00  0.00    -0.004 A 
ATOM      5  C5  N4B d   1      -1.450  -1.986   1.272  0.00  0.00     0.002 A 
ATOM      6  C6  N4B d   1      -0.771  -1.035   0.537  0.00  0.00     0.002 A 
ENDROOT
BRANCH   1   7
ATOM      7  C1' N4B d   1      -0.514   1.244  -0.378  0.00  0.00     0.057 C 
BRANCH   7   8
ATOM      8  C2' N4B d   1       0.940   0.813  -0.548  0.00  0.00     0.009 C 
BRANCH   8   9
ATOM      9  C3' N4B d   1       1.681   1.692  -1.541  0.00  0.00     0.004 C 
ATOM     10  C4' N4B d   1       0.923   1.889  -2.820  0.00  0.00     0.003 C 
ENDBRANCH   8   9
ENDBRANCH   7   8
ENDBRANCH   1   7
TORSDOF 3
ENDMDL
