MODEL 1
REMARK minimizedAffinity -2.29840636
REMARK minimizedRMSD -1
REMARK  3 active torsions:
REMARK  status: ('A' for Active; 'I' for Inactive)
REMARK    1  A    between atoms: C3'_2  and  C2'_3 
REMARK    2  A    between atoms: C2'_3  and  C1'_4 
REMARK    3  A    between atoms: C1'_4  and  C1_5 
ROOT
ATOM      1  C1  N4B d   1      -0.754  -1.633   1.221  0.00  0.00    -0.075 A 
ATOM      2  C2  N4B d   1      -0.343  -0.957   0.051  0.00  0.00     0.002 A 
ATOM      3  C3  N4B d   1       0.910  -1.177  -0.465  0.00  0.00     0.002 A 
ATOM      4  C4  N4B d   1       1.774  -2.051   0.180  0.00  0.00    -0.004 A 
ATOM      5  C5  N4B d   1       1.360  -2.719   1.295  0.00  0.00     0.002 A 
ATOM      6  C6  N4B d   1       0.101  -2.510   1.822  0.00  0.00     0.002 A 
ENDROOT
BRANCH   1   7
ATOM      7  C1' N4B d   1      -2.083  -1.360   1.871  0.00  0.00     0.057 C 
BRANCH   7   8
ATOM      8  C2' N4B d   1      -2.143   0.105   2.292  0.00  0.00     0.009 C 
BRANCH   8   9
ATOM      9  C3' N4B d   1      -2.765   0.980   1.217  0.00  0.00     0.004 C 
ATOM     10  C4' N4B d   1      -2.232   2.381   1.228  0.00  0.00     0.003 C 
ENDBRANCH   8   9
ENDBRANCH   7   8
ENDBRANCH   1   7
TORSDOF 3
ENDMDL
