MODEL 1
REMARK minimizedAffinity -1.06528366
REMARK minimizedRMSD -1
REMARK  3 active torsions:
REMARK  status: ('A' for Active; 'I' for Inactive)
REMARK    1  A    between atoms: C3'_2  and  C2'_3 
REMARK    2  A    between atoms: C2'_3  and  C1'_4 
REMARK    3  A    between atoms: C1'_4  and  C1_5 
ROOT
ATOM      1  C1  N4B d   1      -0.291  -1.477   1.813  0.00  0.00    -0.075 A 
ATOM      2  C2  N4B d   1       0.084  -0.324   1.089  0.00  0.00     0.002 A 
ATOM      3  C3  N4B d   1      -0.698   0.803   1.140  0.00  0.00     0.002 A 
ATOM      4  C4  N4B d   1      -1.864   0.796   1.890  0.00  0.00    -0.004 A 
ATOM      5  C5  N4B d   1      -2.206  -0.313   2.607  0.00  0.00     0.002 A 
ATOM      6  C6  N4B d   1      -1.428  -1.452   2.568  0.00  0.00     0.002 A 
ENDROOT
BRANCH   1   7
ATOM      7  C1' N4B d   1       0.486  -2.762   1.720  0.00  0.00     0.057 C 
BRANCH   7   8
ATOM      8  C2' N4B d   1       1.140  -2.853   0.344  0.00  0.00     0.009 C 
BRANCH   8   9
ATOM      9  C3' N4B d   1       2.654  -2.763   0.427  0.00  0.00     0.004 C 
ATOM     10  C4' N4B d   1       3.332  -4.055   0.082  0.00  0.00     0.003 C 
ENDBRANCH   8   9
ENDBRANCH   7   8
ENDBRANCH   1   7
TORSDOF 3
ENDMDL
