MODEL 1
REMARK minimizedAffinity 1.17666721
REMARK minimizedRMSD -1
REMARK  3 active torsions:
REMARK  status: ('A' for Active; 'I' for Inactive)
REMARK    1  A    between atoms: C3'_2  and  C2'_3 
REMARK    2  A    between atoms: C2'_3  and  C1'_4 
REMARK    3  A    between atoms: C1'_4  and  C1_5 
ROOT
ATOM      1  C1  N4B d   1       0.257   0.981  -1.374  0.00  0.00    -0.075 A 
ATOM      2  C2  N4B d   1       0.459   2.209  -2.041  0.00  0.00     0.002 A 
ATOM      3  C3  N4B d   1       0.348   2.274  -3.409  0.00  0.00     0.002 A 
ATOM      4  C4  N4B d   1       0.057   1.125  -4.128  0.00  0.00    -0.004 A 
ATOM      5  C5  N4B d   1      -0.161  -0.052  -3.474  0.00  0.00     0.002 A 
ATOM      6  C6  N4B d   1      -0.058  -0.131  -2.100  0.00  0.00     0.002 A 
ENDROOT
BRANCH   1   7
ATOM      7  C1' N4B d   1       0.451   0.843   0.111  0.00  0.00     0.057 C 
BRANCH   7   8
ATOM      8  C2' N4B d   1      -0.804   1.331   0.828  0.00  0.00     0.009 C 
BRANCH   8   9
ATOM      9  C3' N4B d   1      -1.741   0.187   1.175  0.00  0.00     0.004 C 
ATOM     10  C4' N4B d   1      -1.052  -1.145   1.189  0.00  0.00     0.003 C 
ENDBRANCH   8   9
ENDBRANCH   7   8
ENDBRANCH   1   7
TORSDOF 3
ENDMDL
