MODEL 1
REMARK minimizedAffinity -4.31189251
REMARK minimizedRMSD -1
REMARK  3 active torsions:
REMARK  status: ('A' for Active; 'I' for Inactive)
REMARK    1  A    between atoms: C3'_2  and  C2'_3 
REMARK    2  A    between atoms: C2'_3  and  C1'_4 
REMARK    3  A    between atoms: C1'_4  and  C1_5 
ROOT
ATOM      1  C1  N4B d   1       0.277  -0.222  -0.068  0.00  0.00    -0.075 A 
ATOM      2  C2  N4B d   1       1.102  -1.286  -0.494  0.00  0.00     0.002 A 
ATOM      3  C3  N4B d   1       0.972  -2.528   0.078  0.00  0.00     0.002 A 
ATOM      4  C4  N4B d   1       0.042  -2.723   1.088  0.00  0.00    -0.004 A 
ATOM      5  C5  N4B d   1      -0.769  -1.697   1.476  0.00  0.00     0.002 A 
ATOM      6  C6  N4B d   1      -0.652  -0.445   0.906  0.00  0.00     0.002 A 
ENDROOT
BRANCH   1   7
ATOM      7  C1' N4B d   1       0.441   1.174  -0.605  0.00  0.00     0.057 C 
BRANCH   7   8
ATOM      8  C2' N4B d   1       1.750   1.260  -1.383  0.00  0.00     0.009 C 
BRANCH   8   9
ATOM      9  C3' N4B d   1       1.540   1.794  -2.790  0.00  0.00     0.004 C 
ATOM     10  C4' N4B d   1       0.214   2.474  -2.962  0.00  0.00     0.003 C 
ENDBRANCH   8   9
ENDBRANCH   7   8
ENDBRANCH   1   7
TORSDOF 3
ENDMDL
