MODEL 1
REMARK minimizedAffinity -4.89389896
REMARK minimizedRMSD -1
REMARK  3 active torsions:
REMARK  status: ('A' for Active; 'I' for Inactive)
REMARK    1  A    between atoms: C3'_2  and  C2'_3 
REMARK    2  A    between atoms: C2'_3  and  C1'_4 
REMARK    3  A    between atoms: C1'_4  and  C1_5 
ROOT
ATOM      1  C1  N4B d   1       0.240   0.814  -0.844  0.00  0.00    -0.075 A 
ATOM      2  C2  N4B d   1       1.490   1.424  -0.602  0.00  0.00     0.002 A 
ATOM      3  C3  N4B d   1       2.079   2.193  -1.575  0.00  0.00     0.002 A 
ATOM      4  C4  N4B d   1       1.448   2.351  -2.800  0.00  0.00    -0.004 A 
ATOM      5  C5  N4B d   1       0.228   1.780  -3.017  0.00  0.00     0.002 A 
ATOM      6  C6  N4B d   1      -0.377   1.007  -2.046  0.00  0.00     0.002 A 
ENDROOT
BRANCH   1   7
ATOM      7  C1' N4B d   1      -0.402  -0.106   0.158  0.00  0.00     0.057 C 
BRANCH   7   8
ATOM      8  C2' N4B d   1       0.669  -0.998   0.777  0.00  0.00     0.009 C 
BRANCH   8   9
ATOM      9  C3' N4B d   1       0.077  -2.012   1.741  0.00  0.00     0.004 C 
ATOM     10  C4' N4B d   1      -1.325  -2.406   1.381  0.00  0.00     0.003 C 
ENDBRANCH   8   9
ENDBRANCH   7   8
ENDBRANCH   1   7
TORSDOF 3
ENDMDL
