MODEL 1
REMARK minimizedAffinity -4.86055088
REMARK minimizedRMSD -1
REMARK  3 active torsions:
REMARK  status: ('A' for Active; 'I' for Inactive)
REMARK    1  A    between atoms: C3'_2  and  C2'_3 
REMARK    2  A    between atoms: C2'_3  and  C1'_4 
REMARK    3  A    between atoms: C1'_4  and  C1_5 
ROOT
ATOM      1  C1  N4B d   1      -0.387  -0.169   0.460  0.00  0.00    -0.075 A 
ATOM      2  C2  N4B d   1       0.654  -1.087   0.722  0.00  0.00     0.002 A 
ATOM      3  C3  N4B d   1       0.356  -2.389   1.040  0.00  0.00     0.002 A 
ATOM      4  C4  N4B d   1      -0.969  -2.790   1.120  0.00  0.00    -0.004 A 
ATOM      5  C5  N4B d   1      -1.968  -1.904   0.840  0.00  0.00     0.002 A 
ATOM      6  C6  N4B d   1      -1.683  -0.593   0.515  0.00  0.00     0.002 A 
ENDROOT
BRANCH   1   7
ATOM      7  C1' N4B d   1      -0.114   1.286   0.192  0.00  0.00     0.057 C 
BRANCH   7   8
ATOM      8  C2' N4B d   1       1.334   1.449  -0.259  0.00  0.00     0.009 C 
BRANCH   8   9
ATOM      9  C3' N4B d   1       1.445   2.274  -1.530  0.00  0.00     0.004 C 
ATOM     10  C4' N4B d   1       2.860   2.430  -2.000  0.00  0.00     0.003 C 
ENDBRANCH   8   9
ENDBRANCH   7   8
ENDBRANCH   1   7
TORSDOF 3
ENDMDL
