MODEL 1
REMARK minimizedAffinity -5.31548977
REMARK minimizedRMSD -1
REMARK  3 active torsions:
REMARK  status: ('A' for Active; 'I' for Inactive)
REMARK    1  A    between atoms: C3'_2  and  C2'_3 
REMARK    2  A    between atoms: C2'_3  and  C1'_4 
REMARK    3  A    between atoms: C1'_4  and  C1_5 
ROOT
ATOM      1  C1  N4B d   1       0.203  -0.915   0.333  0.00  0.00    -0.075 A 
ATOM      2  C2  N4B d   1      -1.104  -0.450   0.069  0.00  0.00     0.002 A 
ATOM      3  C3  N4B d   1      -2.186  -1.252   0.340  0.00  0.00     0.002 A 
ATOM      4  C4  N4B d   1      -1.985  -2.524   0.856  0.00  0.00    -0.004 A 
ATOM      5  C5  N4B d   1      -0.721  -2.955   1.132  0.00  0.00     0.002 A 
ATOM      6  C6  N4B d   1       0.375  -2.159   0.868  0.00  0.00     0.002 A 
ENDROOT
BRANCH   1   7
ATOM      7  C1' N4B d   1       1.420  -0.108  -0.027  0.00  0.00     0.057 C 
BRANCH   7   8
ATOM      8  C2' N4B d   1       0.980   1.244  -0.580  0.00  0.00     0.009 C 
BRANCH   8   9
ATOM      9  C3' N4B d   1       2.008   1.832  -1.530  0.00  0.00     0.004 C 
ATOM     10  C4' N4B d   1       1.488   1.982  -2.928  0.00  0.00     0.003 C 
ENDBRANCH   8   9
ENDBRANCH   7   8
ENDBRANCH   1   7
TORSDOF 3
ENDMDL
