MODEL 1
REMARK minimizedAffinity -6.1246686
REMARK minimizedRMSD -1
REMARK  3 active torsions:
REMARK  status: ('A' for Active; 'I' for Inactive)
REMARK    1  A    between atoms: C3'_2  and  C2'_3 
REMARK    2  A    between atoms: C2'_3  and  C1'_4 
REMARK    3  A    between atoms: C1'_4  and  C1_5 
ROOT
ATOM      1  C1  N4B d   1      -0.302  -0.452   0.268  0.00  0.00    -0.075 A 
ATOM      2  C2  N4B d   1      -1.582  -0.366   0.858  0.00  0.00     0.002 A 
ATOM      3  C3  N4B d   1      -2.295  -1.509   1.121  0.00  0.00     0.002 A 
ATOM      4  C4  N4B d   1      -1.760  -2.744   0.786  0.00  0.00    -0.004 A 
ATOM      5  C5  N4B d   1      -0.512  -2.820   0.240  0.00  0.00     0.002 A 
ATOM      6  C6  N4B d   1       0.218  -1.679  -0.026  0.00  0.00     0.002 A 
ENDROOT
BRANCH   1   7
ATOM      7  C1' N4B d   1       0.480   0.774  -0.116  0.00  0.00     0.057 C 
BRANCH   7   8
ATOM      8  C2' N4B d   1       0.750   0.746  -1.618  0.00  0.00     0.009 C 
BRANCH   8   9
ATOM      9  C3' N4B d   1       1.046   2.130  -2.168  0.00  0.00     0.004 C 
ATOM     10  C4' N4B d   1       1.136   2.153  -3.665  0.00  0.00     0.003 C 
ENDBRANCH   8   9
ENDBRANCH   7   8
ENDBRANCH   1   7
TORSDOF 3
ENDMDL
