MODEL 1
REMARK minimizedAffinity -6.28162575
REMARK minimizedRMSD -1
REMARK  3 active torsions:
REMARK  status: ('A' for Active; 'I' for Inactive)
REMARK    1  A    between atoms: C3'_2  and  C2'_3 
REMARK    2  A    between atoms: C2'_3  and  C1'_4 
REMARK    3  A    between atoms: C1'_4  and  C1_5 
ROOT
ATOM      1  C1  N4B d   1      -0.502  -0.084   0.357  0.00  0.00    -0.075 A 
ATOM      2  C2  N4B d   1      -0.552  -1.494   0.418  0.00  0.00     0.002 A 
ATOM      3  C3  N4B d   1      -1.683  -2.121   0.878  0.00  0.00     0.002 A 
ATOM      4  C4  N4B d   1      -2.766  -1.363   1.298  0.00  0.00    -0.004 A 
ATOM      5  C5  N4B d   1      -2.719  -0.002   1.212  0.00  0.00     0.002 A 
ATOM      6  C6  N4B d   1      -1.590   0.642   0.748  0.00  0.00     0.002 A 
ENDROOT
BRANCH   1   7
ATOM      7  C1' N4B d   1       0.744   0.650  -0.058  0.00  0.00     0.057 C 
BRANCH   7   8
ATOM      8  C2' N4B d   1       0.356   2.004  -0.644  0.00  0.00     0.009 C 
BRANCH   8   9
ATOM      9  C3' N4B d   1       1.357   2.483  -1.681  0.00  0.00     0.004 C 
ATOM     10  C4' N4B d   1       0.747   2.662  -3.039  0.00  0.00     0.003 C 
ENDBRANCH   8   9
ENDBRANCH   7   8
ENDBRANCH   1   7
TORSDOF 3
ENDMDL
