MODEL 1
REMARK minimizedAffinity 2.09881043
REMARK minimizedRMSD -1
REMARK  1 active torsions:
REMARK  status: ('A' for Active; 'I' for Inactive)
REMARK    1  A    between atoms: C1_2  and  C2_3 
ROOT
ATOM      1  C2  UNL d   1       1.181  -2.125   0.388  0.00  0.00    -0.076 A 
ATOM      2  C3  UNL d   1       0.661  -3.374   0.768  0.00  0.00     0.004 A 
ATOM      3  C4  UNL d   1       1.429  -4.533   0.664  0.00  0.00    -0.003 A 
ATOM      4  C5  UNL d   1       2.730  -4.460   0.178  0.00  0.00     0.000 A 
ATOM      5  C6  UNL d   1       3.268  -3.227  -0.187  0.00  0.00     0.000 A 
ATOM      6  C7  UNL d   1       2.512  -2.047  -0.073  0.00  0.00    -0.073 A 
ATOM      7  C8  UNL d   1       3.141  -0.745  -0.487  0.00  0.00     0.078 C 
ENDROOT
BRANCH   1   8
ATOM      8  C1  UNL d   1       0.292  -0.907   0.497  0.00  0.00     0.053 C 
ATOM      9  C   UNL d   1       0.311  -0.294   1.889  0.00  0.00     0.018 C 
ENDBRANCH   1   8
TORSDOF 1
ENDMDL
