MODEL 1
REMARK minimizedAffinity 8.36179066
REMARK minimizedRMSD -1
REMARK  1 active torsions:
REMARK  status: ('A' for Active; 'I' for Inactive)
REMARK    1  A    between atoms: C1_2  and  C2_3 
ROOT
ATOM      1  C2  UNL d   1       0.209  -1.775   0.616  0.00  0.00    -0.076 A 
ATOM      2  C3  UNL d   1       1.381  -1.574  -0.134  0.00  0.00     0.004 A 
ATOM      3  C4  UNL d   1       2.289  -2.611  -0.338  0.00  0.00    -0.003 A 
ATOM      4  C5  UNL d   1       2.039  -3.867   0.203  0.00  0.00     0.000 A 
ATOM      5  C6  UNL d   1       0.872  -4.089   0.935  0.00  0.00     0.000 A 
ATOM      6  C7  UNL d   1      -0.061  -3.058   1.136  0.00  0.00    -0.073 A 
ATOM      7  C8  UNL d   1      -1.299  -3.352   1.938  0.00  0.00     0.078 C 
ENDROOT
BRANCH   1   8
ATOM      8  C1  UNL d   1      -0.725  -0.605   0.827  0.00  0.00     0.053 C 
ATOM      9  C   UNL d   1      -0.165   0.419   1.802  0.00  0.00     0.018 C 
ENDBRANCH   1   8
TORSDOF 1
ENDMDL
