MODEL 1
REMARK minimizedAffinity -5.67342234
REMARK minimizedRMSD -1
REMARK  1 active torsions:
REMARK  status: ('A' for Active; 'I' for Inactive)
REMARK    1  A    between atoms: C1_2  and  C2_3 
ROOT
ATOM      1  C2  UNL d   1       1.332  -3.356   1.076  0.00  0.00    -0.076 A 
ATOM      2  C3  UNL d   1       2.207  -2.673   0.213  0.00  0.00     0.004 A 
ATOM      3  C4  UNL d   1       1.969  -1.348  -0.149  0.00  0.00    -0.003 A 
ATOM      4  C5  UNL d   1       0.851  -0.685   0.345  0.00  0.00     0.000 A 
ATOM      5  C6  UNL d   1      -0.018  -1.341   1.215  0.00  0.00     0.000 A 
ATOM      6  C7  UNL d   1       0.216  -2.671   1.604  0.00  0.00    -0.073 A 
ATOM      7  C8  UNL d   1      -0.758  -3.332   2.541  0.00  0.00     0.078 C 
ENDROOT
BRANCH   1   8
ATOM      8  C1  UNL d   1       1.627  -4.800   1.412  0.00  0.00     0.053 C 
ATOM      9  C   UNL d   1       3.003  -4.984   2.034  0.00  0.00     0.018 C 
ENDBRANCH   1   8
TORSDOF 1
ENDMDL
