MODEL 1
REMARK minimizedAffinity -2.57648754
REMARK minimizedRMSD -1
REMARK  1 active torsions:
REMARK  status: ('A' for Active; 'I' for Inactive)
REMARK    1  A    between atoms: C1_2  and  C2_3 
ROOT
ATOM      1  C2  UNL d   1       1.850  -3.317   0.708  0.00  0.00    -0.076 A 
ATOM      2  C3  UNL d   1       2.082  -1.952   0.464  0.00  0.00     0.004 A 
ATOM      3  C4  UNL d   1       1.198  -0.980   0.927  0.00  0.00    -0.003 A 
ATOM      4  C5  UNL d   1       0.068  -1.356   1.644  0.00  0.00     0.000 A 
ATOM      5  C6  UNL d   1      -0.169  -2.704   1.911  0.00  0.00     0.000 A 
ATOM      6  C7  UNL d   1       0.721  -3.696   1.465  0.00  0.00    -0.073 A 
ATOM      7  C8  UNL d   1       0.413  -5.135   1.776  0.00  0.00     0.078 C 
ENDROOT
BRANCH   1   8
ATOM      8  C1  UNL d   1       2.830  -4.328   0.157  0.00  0.00     0.053 C 
ATOM      9  C   UNL d   1       4.272  -3.989   0.499  0.00  0.00     0.018 C 
ENDBRANCH   1   8
TORSDOF 1
ENDMDL
