MODEL 1
REMARK minimizedAffinity 1.05506098
REMARK minimizedRMSD -1
REMARK  1 active torsions:
REMARK  status: ('A' for Active; 'I' for Inactive)
REMARK    1  A    between atoms: C1_2  and  C2_3 
ROOT
ATOM      1  C2  UNL d   1      -3.758   2.927   4.718  0.00  0.00    -0.076 A 
ATOM      2  C3  UNL d   1      -2.872   4.017   4.745  0.00  0.00     0.004 A 
ATOM      3  C4  UNL d   1      -3.218   5.208   5.381  0.00  0.00    -0.003 A 
ATOM      4  C5  UNL d   1      -4.458   5.328   6.000  0.00  0.00     0.000 A 
ATOM      5  C6  UNL d   1      -5.343   4.250   5.998  0.00  0.00     0.000 A 
ATOM      6  C7  UNL d   1      -5.002   3.037   5.376  0.00  0.00    -0.073 A 
ATOM      7  C8  UNL d   1      -5.998   1.910   5.399  0.00  0.00     0.078 C 
ENDROOT
BRANCH   1   8
ATOM      8  C1  UNL d   1      -3.339   1.669   3.990  0.00  0.00     0.053 C 
ATOM      9  C   UNL d   1      -3.095   1.908   2.508  0.00  0.00     0.018 C 
ENDBRANCH   1   8
TORSDOF 1
ENDMDL
