MODEL 1
REMARK minimizedAffinity 1.94332945
REMARK minimizedRMSD -1
REMARK  1 active torsions:
REMARK  status: ('A' for Active; 'I' for Inactive)
REMARK    1  A    between atoms: C1_2  and  C2_3 
ROOT
ATOM      1  C2  UNL d   1       1.414  -2.828   0.902  0.00  0.00    -0.076 A 
ATOM      2  C3  UNL d   1       0.436  -3.137   1.863  0.00  0.00     0.004 A 
ATOM      3  C4  UNL d   1      -0.459  -2.167   2.313  0.00  0.00    -0.003 A 
ATOM      4  C5  UNL d   1      -0.390  -0.873   1.808  0.00  0.00     0.000 A 
ATOM      5  C6  UNL d   1       0.563  -0.554   0.841  0.00  0.00     0.000 A 
ATOM      6  C7  UNL d   1       1.462  -1.524   0.365  0.00  0.00    -0.073 A 
ATOM      7  C8  UNL d   1       2.473  -1.123  -0.674  0.00  0.00     0.078 C 
ENDROOT
BRANCH   1   8
ATOM      8  C1  UNL d   1       2.375  -3.914   0.472  0.00  0.00     0.053 C 
ATOM      9  C   UNL d   1       3.537  -4.079   1.439  0.00  0.00     0.018 C 
ENDBRANCH   1   8
TORSDOF 1
ENDMDL
