MODEL 1
REMARK minimizedAffinity 10.6357651
REMARK minimizedRMSD -1
REMARK  1 active torsions:
REMARK  status: ('A' for Active; 'I' for Inactive)
REMARK    1  A    between atoms: C1_2  and  C2_3 
ROOT
ATOM      1  C2  UNL d   1       2.040  -3.116   0.290  0.00  0.00    -0.076 A 
ATOM      2  C3  UNL d   1       1.915  -4.470   0.648  0.00  0.00     0.004 A 
ATOM      3  C4  UNL d   1       3.027  -5.310   0.674  0.00  0.00    -0.003 A 
ATOM      4  C5  UNL d   1       4.282  -4.811   0.342  0.00  0.00     0.000 A 
ATOM      5  C6  UNL d   1       4.426  -3.466   0.002  0.00  0.00     0.000 A 
ATOM      6  C7  UNL d   1       3.319  -2.602  -0.013  0.00  0.00    -0.073 A 
ATOM      7  C8  UNL d   1       3.532  -1.162  -0.393  0.00  0.00     0.078 C 
ENDROOT
BRANCH   1   8
ATOM      8  C1  UNL d   1       0.795  -2.259   0.254  0.00  0.00     0.053 C 
ATOM      9  C   UNL d   1       0.594  -1.469   1.537  0.00  0.00     0.018 C 
ENDBRANCH   1   8
TORSDOF 1
ENDMDL
