MODEL 1
REMARK minimizedAffinity 6.27994347
REMARK minimizedRMSD -1
REMARK  1 active torsions:
REMARK  status: ('A' for Active; 'I' for Inactive)
REMARK    1  A    between atoms: C1_2  and  C2_3 
ROOT
ATOM      1  C2  UNL d   1       1.602  -2.213   0.796  0.00  0.00    -0.076 A 
ATOM      2  C3  UNL d   1       0.518  -2.972   1.271  0.00  0.00     0.004 A 
ATOM      3  C4  UNL d   1      -0.652  -2.355   1.708  0.00  0.00    -0.003 A 
ATOM      4  C5  UNL d   1      -0.759  -0.969   1.676  0.00  0.00     0.000 A 
ATOM      5  C6  UNL d   1       0.300  -0.201   1.192  0.00  0.00     0.000 A 
ATOM      6  C7  UNL d   1       1.481  -0.808   0.732  0.00  0.00    -0.073 A 
ATOM      7  C8  UNL d   1       2.594   0.068   0.226  0.00  0.00     0.078 C 
ENDROOT
BRANCH   1   8
ATOM      8  C1  UNL d   1       2.857  -2.936   0.361  0.00  0.00     0.053 C 
ATOM      9  C   UNL d   1       2.733  -4.446   0.488  0.00  0.00     0.018 C 
ENDBRANCH   1   8
TORSDOF 1
ENDMDL
