MODEL 1
REMARK minimizedAffinity 4.07727623
REMARK minimizedRMSD -1
REMARK  1 active torsions:
REMARK  status: ('A' for Active; 'I' for Inactive)
REMARK    1  A    between atoms: C1_2  and  C2_3 
ROOT
ATOM      1  C2  UNL d   1       1.794  -2.321   0.507  0.00  0.00    -0.076 A 
ATOM      2  C3  UNL d   1       0.817  -3.047   1.210  0.00  0.00     0.004 A 
ATOM      3  C4  UNL d   1      -0.231  -2.397   1.860  0.00  0.00    -0.003 A 
ATOM      4  C5  UNL d   1      -0.318  -1.010   1.818  0.00  0.00     0.000 A 
ATOM      5  C6  UNL d   1       0.632  -0.275   1.111  0.00  0.00     0.000 A 
ATOM      6  C7  UNL d   1       1.686  -0.915   0.436  0.00  0.00    -0.073 A 
ATOM      7  C8  UNL d   1       2.686  -0.072  -0.305  0.00  0.00     0.078 C 
ENDROOT
BRANCH   1   8
ATOM      8  C1  UNL d   1       2.922  -3.078  -0.156  0.00  0.00     0.053 C 
ATOM      9  C   UNL d   1       3.274  -4.362   0.580  0.00  0.00     0.018 C 
ENDBRANCH   1   8
TORSDOF 1
ENDMDL
