MODEL 1
REMARK minimizedAffinity 7.85400248
REMARK minimizedRMSD -1
REMARK  1 active torsions:
REMARK  status: ('A' for Active; 'I' for Inactive)
REMARK    1  A    between atoms: C1_2  and  C2_3 
ROOT
ATOM      1  C2  UNL d   1       3.181   3.365  -0.120  0.00  0.00    -0.076 A 
ATOM      2  C3  UNL d   1       4.475   3.147  -0.625  0.00  0.00     0.004 A 
ATOM      3  C4  UNL d   1       5.515   4.029  -0.338  0.00  0.00    -0.003 A 
ATOM      4  C5  UNL d   1       5.279   5.144   0.459  0.00  0.00     0.000 A 
ATOM      5  C6  UNL d   1       4.006   5.366   0.982  0.00  0.00     0.000 A 
ATOM      6  C7  UNL d   1       2.950   4.478   0.716  0.00  0.00    -0.073 A 
ATOM      7  C8  UNL d   1       1.595   4.771   1.302  0.00  0.00     0.078 C 
ENDROOT
BRANCH   1   8
ATOM      8  C1  UNL d   1       2.086   2.389  -0.487  0.00  0.00     0.053 C 
ATOM      9  C   UNL d   1       2.576   0.950  -0.524  0.00  0.00     0.018 C 
ENDBRANCH   1   8
TORSDOF 1
ENDMDL
