MODEL 1
REMARK minimizedAffinity -0.103442743
REMARK minimizedRMSD -1
REMARK  1 active torsions:
REMARK  status: ('A' for Active; 'I' for Inactive)
REMARK    1  A    between atoms: C1_2  and  C2_3 
ROOT
ATOM      1  C2  UNL d   1      -1.054  -5.966  -3.599  0.00  0.00    -0.076 A 
ATOM      2  C3  UNL d   1      -2.239  -5.962  -4.356  0.00  0.00     0.004 A 
ATOM      3  C4  UNL d   1      -3.487  -5.979  -3.734  0.00  0.00    -0.003 A 
ATOM      4  C5  UNL d   1      -3.570  -6.000  -2.347  0.00  0.00     0.000 A 
ATOM      5  C6  UNL d   1      -2.405  -5.986  -1.580  0.00  0.00     0.000 A 
ATOM      6  C7  UNL d   1      -1.139  -5.952  -2.191  0.00  0.00    -0.073 A 
ATOM      7  C8  UNL d   1       0.084  -5.945  -1.316  0.00  0.00     0.078 C 
ENDROOT
BRANCH   1   8
ATOM      8  C1  UNL d   1       0.270  -5.974  -4.329  0.00  0.00     0.053 C 
ATOM      9  C   UNL d   1       0.128  -5.618  -5.800  0.00  0.00     0.018 C 
ENDBRANCH   1   8
TORSDOF 1
ENDMDL
