MODEL 1
REMARK minimizedAffinity -0.376753002
REMARK minimizedRMSD -1
REMARK  1 active torsions:
REMARK  status: ('A' for Active; 'I' for Inactive)
REMARK    1  A    between atoms: C1_2  and  C2_3 
ROOT
ATOM      1  C2  UNL d   1      -1.287  -5.984  -3.511  0.00  0.00    -0.076 A 
ATOM      2  C3  UNL d   1      -1.726  -6.000  -2.176  0.00  0.00     0.004 A 
ATOM      3  C4  UNL d   1      -3.085  -5.994  -1.867  0.00  0.00    -0.003 A 
ATOM      4  C5  UNL d   1      -4.028  -5.973  -2.889  0.00  0.00     0.000 A 
ATOM      5  C6  UNL d   1      -3.611  -5.976  -4.220  0.00  0.00     0.000 A 
ATOM      6  C7  UNL d   1      -2.245  -5.998  -4.548  0.00  0.00    -0.073 A 
ATOM      7  C8  UNL d   1      -1.851  -5.993  -6.000  0.00  0.00     0.078 C 
ENDROOT
BRANCH   1   8
ATOM      8  C1  UNL d   1       0.200  -5.964  -3.785  0.00  0.00     0.053 C 
ATOM      9  C   UNL d   1       0.546  -5.218  -5.064  0.00  0.00     0.018 C 
ENDBRANCH   1   8
TORSDOF 1
ENDMDL
