MODEL 1
REMARK minimizedAffinity -0.313824177
REMARK minimizedRMSD -1
REMARK  1 active torsions:
REMARK  status: ('A' for Active; 'I' for Inactive)
REMARK    1  A    between atoms: C1_2  and  C2_3 
ROOT
ATOM      1  C2  UNL d   1      -0.501  -5.891  -3.198  0.00  0.00    -0.076 A 
ATOM      2  C3  UNL d   1       0.641  -5.838  -4.016  0.00  0.00     0.004 A 
ATOM      3  C4  UNL d   1       0.531  -5.875  -5.405  0.00  0.00    -0.003 A 
ATOM      4  C5  UNL d   1      -0.723  -5.965  -5.999  0.00  0.00     0.000 A 
ATOM      5  C6  UNL d   1      -1.868  -6.000  -5.203  0.00  0.00     0.000 A 
ATOM      6  C7  UNL d   1      -1.775  -5.947  -3.802  0.00  0.00    -0.073 A 
ATOM      7  C8  UNL d   1      -3.042  -5.994  -2.993  0.00  0.00     0.078 C 
ENDROOT
BRANCH   1   8
ATOM      8  C1  UNL d   1      -0.318  -5.875  -1.698  0.00  0.00     0.053 C 
ATOM      9  C   UNL d   1      -0.393  -4.471  -1.117  0.00  0.00     0.018 C 
ENDBRANCH   1   8
TORSDOF 1
ENDMDL
