MODEL 1
REMARK minimizedAffinity -1.2517854
REMARK minimizedRMSD -1
REMARK  1 active torsions:
REMARK  status: ('A' for Active; 'I' for Inactive)
REMARK    1  A    between atoms: C1_2  and  C2_3 
ROOT
ATOM      1  C2  UNL d   1       0.290  -5.955  -3.876  0.00  0.00    -0.076 A 
ATOM      2  C3  UNL d   1       0.359  -5.973  -2.472  0.00  0.00     0.004 A 
ATOM      3  C4  UNL d   1      -0.800  -5.994  -1.698  0.00  0.00    -0.003 A 
ATOM      4  C5  UNL d   1      -2.046  -5.999  -2.315  0.00  0.00     0.000 A 
ATOM      5  C6  UNL d   1      -2.133  -6.000  -3.707  0.00  0.00     0.000 A 
ATOM      6  C7  UNL d   1      -0.974  -5.995  -4.502  0.00  0.00    -0.073 A 
ATOM      7  C8  UNL d   1      -1.126  -5.989  -5.999  0.00  0.00     0.078 C 
ENDROOT
BRANCH   1   8
ATOM      8  C1  UNL d   1       1.580  -5.904  -4.664  0.00  0.00     0.053 C 
ATOM      9  C   UNL d   1       2.242  -4.536  -4.610  0.00  0.00     0.018 C 
ENDBRANCH   1   8
TORSDOF 1
ENDMDL
