MODEL 1
REMARK minimizedAffinity 8.98073101
REMARK minimizedRMSD -1
REMARK  1 active torsions:
REMARK  status: ('A' for Active; 'I' for Inactive)
REMARK    1  A    between atoms: C1_2  and  C2_3 
ROOT
ATOM      1  C2  UNL d   1       1.321   0.901   0.402  0.00  0.00    -0.076 A 
ATOM      2  C3  UNL d   1       0.407   1.968   0.415  0.00  0.00     0.004 A 
ATOM      3  C4  UNL d   1       0.833   3.281   0.220  0.00  0.00    -0.003 A 
ATOM      4  C5  UNL d   1       2.181   3.547   0.007  0.00  0.00     0.000 A 
ATOM      5  C6  UNL d   1       3.100   2.499  -0.027  0.00  0.00     0.000 A 
ATOM      6  C7  UNL d   1       2.685   1.168   0.152  0.00  0.00    -0.073 A 
ATOM      7  C8  UNL d   1       3.719   0.077   0.112  0.00  0.00     0.078 C 
ENDROOT
BRANCH   1   8
ATOM      8  C1  UNL d   1       0.805  -0.499   0.647  0.00  0.00     0.053 C 
ATOM      9  C   UNL d   1       0.169  -1.110  -0.592  0.00  0.00     0.018 C 
ENDBRANCH   1   8
TORSDOF 1
ENDMDL
