MODEL 1
REMARK minimizedAffinity 3.09948969
REMARK minimizedRMSD -1
REMARK  1 active torsions:
REMARK  status: ('A' for Active; 'I' for Inactive)
REMARK    1  A    between atoms: C1_2  and  C2_3 
ROOT
ATOM      1  C2  UNL d   1      -0.152  -5.969  -4.515  0.00  0.00    -0.076 A 
ATOM      2  C3  UNL d   1      -1.542  -5.935  -4.311  0.00  0.00     0.004 A 
ATOM      3  C4  UNL d   1      -2.078  -5.942  -3.024  0.00  0.00    -0.003 A 
ATOM      4  C5  UNL d   1      -1.233  -5.981  -1.921  0.00  0.00     0.000 A 
ATOM      5  C6  UNL d   1       0.150  -5.997  -2.105  0.00  0.00     0.000 A 
ATOM      6  C7  UNL d   1       0.707  -5.974  -3.395  0.00  0.00    -0.073 A 
ATOM      7  C8  UNL d   1       2.204  -5.999  -3.535  0.00  0.00     0.078 C 
ENDROOT
BRANCH   1   8
ATOM      8  C1  UNL d   1       0.372  -5.988  -5.934  0.00  0.00     0.053 C 
ATOM      9  C   UNL d   1       1.891  -5.999  -5.994  0.00  0.00     0.018 C 
ENDBRANCH   1   8
TORSDOF 1
ENDMDL
