MODEL 1
REMARK minimizedAffinity 3.21226788
REMARK minimizedRMSD -1
REMARK  0 active torsions:
REMARK  status: ('A' for Active; 'I' for Inactive)
ROOT
ATOM      1  C   UNL d   1       0.609  -5.418  -4.477  0.00  0.00     0.023 A 
ATOM      2  C1  UNL d   1       0.457  -5.178  -3.112  0.00  0.00     0.003 A 
ATOM      3  C2  UNL d   1      -0.790  -5.342  -2.507  0.00  0.00     0.048 A 
ATOM      4  C3  UNL d   1      -1.882  -5.748  -3.274  0.00  0.00     0.023 A 
ATOM      5  C4  UNL d   1      -1.735  -5.990  -4.641  0.00  0.00     0.048 A 
ATOM      6  C5  UNL d   1      -0.485  -5.824  -5.241  0.00  0.00     0.003 A 
ATOM      7  I   UNL d   1      -3.741  -5.994  -2.376  0.00  0.00    -0.146 I 
ENDROOT
TORSDOF 0
ENDMDL
