MODEL 1
REMARK minimizedAffinity 1.27853537
REMARK minimizedRMSD -1
REMARK  0 active torsions:
REMARK  status: ('A' for Active; 'I' for Inactive)
ROOT
ATOM      1  C   UNL d   1       0.281  -5.974  -4.908  0.00  0.00     0.023 A 
ATOM      2  C1  UNL d   1      -1.018  -5.962  -5.418  0.00  0.00     0.003 A 
ATOM      3  C2  UNL d   1      -2.110  -5.970  -4.549  0.00  0.00     0.048 A 
ATOM      4  C3  UNL d   1      -1.898  -5.988  -3.171  0.00  0.00     0.023 A 
ATOM      5  C4  UNL d   1      -0.600  -5.999  -2.656  0.00  0.00     0.048 A 
ATOM      6  C5  UNL d   1       0.489  -5.992  -3.529  0.00  0.00     0.003 A 
ATOM      7  I   UNL d   1      -3.522  -6.000  -1.875  0.00  0.00    -0.146 I 
ENDROOT
TORSDOF 0
ENDMDL
