MODEL 1
REMARK minimizedAffinity 2.84621453
REMARK minimizedRMSD -1
REMARK  0 active torsions:
REMARK  status: ('A' for Active; 'I' for Inactive)
ROOT
ATOM      1  C   UNL d   1      -5.996  -4.066   5.087  0.00  0.00     0.023 A 
ATOM      2  C1  UNL d   1      -5.761  -5.436   4.970  0.00  0.00     0.003 A 
ATOM      3  C2  UNL d   1      -5.478  -5.993   3.721  0.00  0.00     0.048 A 
ATOM      4  C3  UNL d   1      -5.430  -5.173   2.593  0.00  0.00     0.023 A 
ATOM      5  C4  UNL d   1      -5.663  -3.802   2.706  0.00  0.00     0.048 A 
ATOM      6  C5  UNL d   1      -5.947  -3.250   3.957  0.00  0.00     0.003 A 
ATOM      7  I   UNL d   1      -5.008  -5.999   0.733  0.00  0.00    -0.146 I 
ENDROOT
TORSDOF 0
ENDMDL
