MODEL 1
REMARK minimizedAffinity 2.81905437
REMARK minimizedRMSD -1
REMARK  0 active torsions:
REMARK  status: ('A' for Active; 'I' for Inactive)
ROOT
ATOM      1  C   UNL d   1       0.875  -5.991  -3.451  0.00  0.00     0.023 A 
ATOM      2  C1  UNL d   1       0.008  -5.995  -4.544  0.00  0.00     0.003 A 
ATOM      3  C2  UNL d   1      -1.374  -5.998  -4.341  0.00  0.00     0.048 A 
ATOM      4  C3  UNL d   1      -1.882  -5.996  -3.042  0.00  0.00     0.023 A 
ATOM      5  C4  UNL d   1      -1.018  -5.991  -1.946  0.00  0.00     0.048 A 
ATOM      6  C5  UNL d   1       0.363  -5.989  -2.154  0.00  0.00     0.003 A 
ATOM      7  I   UNL d   1      -3.937  -6.000  -2.738  0.00  0.00    -0.146 I 
ENDROOT
TORSDOF 0
ENDMDL
