MODEL 1
REMARK minimizedAffinity 3.28660488
REMARK minimizedRMSD -1
REMARK  0 active torsions:
REMARK  status: ('A' for Active; 'I' for Inactive)
ROOT
ATOM      1  C   UNL d   1       5.683   4.737  -0.404  0.00  0.00     0.023 A 
ATOM      2  C1  UNL d   1       4.983   5.318   0.653  0.00  0.00     0.003 A 
ATOM      3  C2  UNL d   1       3.632   5.022   0.845  0.00  0.00     0.048 A 
ATOM      4  C3  UNL d   1       2.987   4.142  -0.024  0.00  0.00     0.023 A 
ATOM      5  C4  UNL d   1       3.684   3.558  -1.083  0.00  0.00     0.048 A 
ATOM      6  C5  UNL d   1       5.034   3.858  -1.271  0.00  0.00     0.003 A 
ATOM      7  I   UNL d   1       0.976   3.699   0.259  0.00  0.00    -0.146 I 
ENDROOT
TORSDOF 0
ENDMDL
