MODEL 1
REMARK minimizedAffinity 6.6303463
REMARK minimizedRMSD -1
REMARK  0 active torsions:
REMARK  status: ('A' for Active; 'I' for Inactive)
ROOT
ATOM      1  C   UNL d   1      -1.101  -1.323   0.405  0.00  0.00     0.023 A 
ATOM      2  C1  UNL d   1      -0.219  -2.381   0.625  0.00  0.00     0.003 A 
ATOM      3  C2  UNL d   1       1.147  -2.134   0.774  0.00  0.00     0.048 A 
ATOM      4  C3  UNL d   1       1.625  -0.826   0.705  0.00  0.00     0.023 A 
ATOM      5  C4  UNL d   1       0.746   0.236   0.486  0.00  0.00     0.048 A 
ATOM      6  C5  UNL d   1      -0.619  -0.016   0.336  0.00  0.00     0.003 A 
ATOM      7  I   UNL d   1       3.658  -0.456   0.928  0.00  0.00    -0.146 I 
ENDROOT
TORSDOF 0
ENDMDL
