MODEL 1
REMARK minimizedAffinity -2.24814773
REMARK minimizedRMSD -1
REMARK  0 active torsions:
REMARK  status: ('A' for Active; 'I' for Inactive)
ROOT
ATOM      1  C   UNL d   1       1.138  -5.746  -5.418  0.00  0.00     0.023 A 
ATOM      2  C1  UNL d   1      -0.128  -5.666  -5.999  0.00  0.00     0.003 A 
ATOM      3  C2  UNL d   1      -1.270  -5.739  -5.200  0.00  0.00     0.048 A 
ATOM      4  C3  UNL d   1      -1.141  -5.891  -3.820  0.00  0.00     0.023 A 
ATOM      5  C4  UNL d   1       0.123  -5.970  -3.234  0.00  0.00     0.048 A 
ATOM      6  C5  UNL d   1       1.263  -5.898  -4.037  0.00  0.00     0.003 A 
ATOM      7  I   UNL d   1      -2.841  -5.999  -2.629  0.00  0.00    -0.146 I 
ENDROOT
TORSDOF 0
ENDMDL
