MODEL 1
REMARK minimizedAffinity -2.61693954
REMARK minimizedRMSD -1
REMARK  0 active torsions:
REMARK  status: ('A' for Active; 'I' for Inactive)
ROOT
ATOM      1  C   UNL d   1      -3.374  -5.996  -4.487  0.00  0.00     0.023 A 
ATOM      2  C1  UNL d   1      -2.503  -5.999  -3.397  0.00  0.00     0.003 A 
ATOM      3  C2  UNL d   1      -1.122  -5.992  -3.606  0.00  0.00     0.048 A 
ATOM      4  C3  UNL d   1      -0.619  -5.982  -4.906  0.00  0.00     0.023 A 
ATOM      5  C4  UNL d   1      -1.487  -5.978  -5.999  0.00  0.00     0.048 A 
ATOM      6  C5  UNL d   1      -2.867  -5.986  -5.786  0.00  0.00     0.003 A 
ATOM      7  I   UNL d   1       1.436  -5.971  -5.218  0.00  0.00    -0.146 I 
ENDROOT
TORSDOF 0
ENDMDL
