MODEL 1
REMARK minimizedAffinity 1.42118216
REMARK minimizedRMSD -1
REMARK  0 active torsions:
REMARK  status: ('A' for Active; 'I' for Inactive)
ROOT
ATOM      1  C   UNL d   1       1.105  -5.983  -4.833  0.00  0.00     0.023 A 
ATOM      2  C1  UNL d   1       0.954  -5.979  -3.446  0.00  0.00     0.003 A 
ATOM      3  C2  UNL d   1      -0.323  -5.984  -2.881  0.00  0.00     0.048 A 
ATOM      4  C3  UNL d   1      -1.445  -5.993  -3.709  0.00  0.00     0.023 A 
ATOM      5  C4  UNL d   1      -1.299  -5.998  -5.097  0.00  0.00     0.048 A 
ATOM      6  C5  UNL d   1      -0.020  -5.993  -5.657  0.00  0.00     0.003 A 
ATOM      7  I   UNL d   1      -3.347  -6.000  -2.871  0.00  0.00    -0.146 I 
ENDROOT
TORSDOF 0
ENDMDL
