MODEL 1
REMARK minimizedAffinity 7.35804749
REMARK minimizedRMSD -1
REMARK  0 active torsions:
REMARK  status: ('A' for Active; 'I' for Inactive)
ROOT
ATOM      1  C   UNL d   1      -1.422  -5.980  -5.878  0.00  0.00     0.023 A 
ATOM      2  C1  UNL d   1      -2.189  -5.994  -4.713  0.00  0.00     0.003 A 
ATOM      3  C2  UNL d   1      -1.563  -6.000  -3.465  0.00  0.00     0.048 A 
ATOM      4  C3  UNL d   1      -0.171  -5.991  -3.389  0.00  0.00     0.023 A 
ATOM      5  C4  UNL d   1       0.600  -5.976  -4.552  0.00  0.00     0.048 A 
ATOM      6  C5  UNL d   1      -0.030  -5.971  -5.798  0.00  0.00     0.003 A 
ATOM      7  I   UNL d   1       0.763  -5.999  -1.532  0.00  0.00    -0.146 I 
ENDROOT
TORSDOF 0
ENDMDL
