MODEL 1
REMARK minimizedAffinity 4.54838085
REMARK minimizedRMSD -1
REMARK  0 active torsions:
REMARK  status: ('A' for Active; 'I' for Inactive)
ROOT
ATOM      1  C   UNL d   1      -2.242  -5.998  -5.321  0.00  0.00     0.023 A 
ATOM      2  C1  UNL d   1      -2.343  -5.999  -3.930  0.00  0.00     0.003 A 
ATOM      3  C2  UNL d   1      -1.188  -6.000  -3.144  0.00  0.00     0.048 A 
ATOM      4  C3  UNL d   1       0.064  -5.998  -3.757  0.00  0.00     0.023 A 
ATOM      5  C4  UNL d   1       0.171  -5.995  -5.148  0.00  0.00     0.048 A 
ATOM      6  C5  UNL d   1      -0.987  -5.996  -5.930  0.00  0.00     0.003 A 
ATOM      7  I   UNL d   1       1.784  -5.998  -2.590  0.00  0.00    -0.146 I 
ENDROOT
TORSDOF 0
ENDMDL
