MODEL 1
REMARK minimizedAffinity 1.36550486
REMARK minimizedRMSD -1
REMARK  0 active torsions:
REMARK  status: ('A' for Active; 'I' for Inactive)
ROOT
ATOM      1  C   UNL d   1      -1.160  -2.658   1.224  0.00  0.00     0.023 A 
ATOM      2  C1  UNL d   1       0.012  -2.917   0.513  0.00  0.00     0.003 A 
ATOM      3  C2  UNL d   1       0.876  -1.871   0.183  0.00  0.00     0.048 A 
ATOM      4  C3  UNL d   1       0.563  -0.568   0.569  0.00  0.00     0.023 A 
ATOM      5  C4  UNL d   1      -0.608  -0.304   1.282  0.00  0.00     0.048 A 
ATOM      6  C5  UNL d   1      -1.469  -1.353   1.609  0.00  0.00     0.003 A 
ATOM      7  I   UNL d   1       1.847   0.991   0.079  0.00  0.00    -0.146 I 
ENDROOT
TORSDOF 0
ENDMDL
