MODEL 1
REMARK minimizedAffinity -0.431073099
REMARK minimizedRMSD -1
REMARK  0 active torsions:
REMARK  status: ('A' for Active; 'I' for Inactive)
ROOT
ATOM      1  C   UNL d   1      -1.355  -1.724   1.101  0.00  0.00     0.023 A 
ATOM      2  C1  UNL d   1      -0.438  -2.772   1.007  0.00  0.00     0.003 A 
ATOM      3  C2  UNL d   1       0.914  -2.500   0.787  0.00  0.00     0.048 A 
ATOM      4  C3  UNL d   1       1.343  -1.179   0.663  0.00  0.00     0.023 A 
ATOM      5  C4  UNL d   1       0.429  -0.128   0.757  0.00  0.00     0.048 A 
ATOM      6  C5  UNL d   1      -0.922  -0.404   0.976  0.00  0.00     0.003 A 
ATOM      7  I   UNL d   1       3.354  -0.772   0.335  0.00  0.00    -0.146 I 
ENDROOT
TORSDOF 0
ENDMDL
