MODEL 1
REMARK minimizedAffinity -3.60916758
REMARK minimizedRMSD -1
REMARK  0 active torsions:
REMARK  status: ('A' for Active; 'I' for Inactive)
ROOT
ATOM      1  C   UNL d   1       1.125  -5.558  -5.113  0.00  0.00     0.023 A 
ATOM      2  C1  UNL d   1      -0.040  -5.618  -5.878  0.00  0.00     0.003 A 
ATOM      3  C2  UNL d   1      -1.282  -5.745  -5.253  0.00  0.00     0.048 A 
ATOM      4  C3  UNL d   1      -1.353  -5.810  -3.862  0.00  0.00     0.023 A 
ATOM      5  C4  UNL d   1      -0.190  -5.749  -3.092  0.00  0.00     0.048 A 
ATOM      6  C5  UNL d   1       1.050  -5.623  -3.721  0.00  0.00     0.003 A 
ATOM      7  I   UNL d   1      -3.200  -5.998  -2.930  0.00  0.00    -0.146 I 
ENDROOT
TORSDOF 0
ENDMDL
