MODEL 1
REMARK minimizedAffinity 4.24615049
REMARK minimizedRMSD -1
REMARK  0 active torsions:
REMARK  status: ('A' for Active; 'I' for Inactive)
ROOT
ATOM      1  C   UNL d   1      -2.334  -5.967  -3.024  0.00  0.00     0.023 A 
ATOM      2  C1  UNL d   1      -2.521  -5.992  -4.406  0.00  0.00     0.003 A 
ATOM      3  C2  UNL d   1      -1.418  -6.000  -5.262  0.00  0.00     0.048 A 
ATOM      4  C3  UNL d   1      -0.129  -5.984  -4.728  0.00  0.00     0.023 A 
ATOM      5  C4  UNL d   1       0.063  -5.961  -3.346  0.00  0.00     0.048 A 
ATOM      6  C5  UNL d   1      -1.044  -5.952  -2.495  0.00  0.00     0.003 A 
ATOM      7  I   UNL d   1       1.515  -5.997  -5.999  0.00  0.00    -0.146 I 
ENDROOT
TORSDOF 0
ENDMDL
