MODEL 1
REMARK minimizedAffinity 1.16210866
REMARK minimizedRMSD -1
REMARK  0 active torsions:
REMARK  status: ('A' for Active; 'I' for Inactive)
ROOT
ATOM      1  C   UNL d   1       0.111  -1.331  -0.188  0.00  0.00     0.023 A 
ATOM      2  C1  UNL d   1       0.626  -0.095  -0.579  0.00  0.00     0.003 A 
ATOM      3  C2  UNL d   1       1.911   0.283  -0.184  0.00  0.00     0.048 A 
ATOM      4  C3  UNL d   1       2.675  -0.579   0.601  0.00  0.00     0.023 A 
ATOM      5  C4  UNL d   1       2.164  -1.817   0.994  0.00  0.00     0.048 A 
ATOM      6  C5  UNL d   1       0.878  -2.191   0.598  0.00  0.00     0.003 A 
ATOM      7  I   UNL d   1       4.588  -0.018   1.189  0.00  0.00    -0.146 I 
ENDROOT
TORSDOF 0
ENDMDL
