MODEL 1
REMARK minimizedAffinity -5.54560995
REMARK minimizedRMSD -1
REMARK  1 active torsions:
REMARK  status: ('A' for Active; 'I' for Inactive)
REMARK    1  A    between atoms: C1_2  and  C2_3 
ROOT
ATOM      1  C2  UNL d   1       0.855  -0.297   0.977  0.00  0.00    -0.077 A 
ATOM      2  C3  UNL d   1       1.232  -0.789   2.234  0.00  0.00     0.002 A 
ATOM      3  C4  UNL d   1       2.405  -1.531   2.379  0.00  0.00     0.002 A 
ATOM      4  C5  UNL d   1       3.214  -1.784   1.273  0.00  0.00    -0.004 A 
ATOM      5  C6  UNL d   1       2.847  -1.300   0.018  0.00  0.00     0.002 A 
ATOM      6  C7  UNL d   1       1.673  -0.559  -0.129  0.00  0.00     0.002 A 
ENDROOT
BRANCH   1   7
ATOM      7  C1  UNL d   1      -0.384   0.546   0.827  0.00  0.00     0.055 C 
ATOM      8  C   UNL d   1      -1.580  -0.102   1.510  0.00  0.00     0.019 C 
ENDBRANCH   1   7
TORSDOF 1
ENDMDL
