MODEL 1
REMARK minimizedAffinity -3.15593767
REMARK minimizedRMSD -1
REMARK  1 active torsions:
REMARK  status: ('A' for Active; 'I' for Inactive)
REMARK    1  A    between atoms: C1_2  and  C2_3 
ROOT
ATOM      1  C2  UNL d   1      -0.264   0.620  -0.614  0.00  0.00    -0.077 A 
ATOM      2  C3  UNL d   1      -1.391   0.049  -0.007  0.00  0.00     0.002 A 
ATOM      3  C4  UNL d   1      -1.321  -0.435   1.300  0.00  0.00     0.002 A 
ATOM      4  C5  UNL d   1      -0.127  -0.350   2.013  0.00  0.00    -0.004 A 
ATOM      5  C6  UNL d   1       1.000   0.215   1.419  0.00  0.00     0.002 A 
ATOM      6  C7  UNL d   1       0.932   0.698   0.111  0.00  0.00     0.002 A 
ENDROOT
BRANCH   1   7
ATOM      7  C1  UNL d   1      -0.351   1.188  -2.006  0.00  0.00     0.055 C 
ATOM      8  C   UNL d   1      -1.637   1.978  -2.203  0.00  0.00     0.019 C 
ENDBRANCH   1   7
TORSDOF 1
ENDMDL
