MODEL 1
REMARK minimizedAffinity -3.14209104
REMARK minimizedRMSD -1
REMARK  1 active torsions:
REMARK  status: ('A' for Active; 'I' for Inactive)
REMARK    1  A    between atoms: C1_2  and  C2_3 
ROOT
ATOM      1  C2  UNL d   1       0.929  -0.234   0.720  0.00  0.00    -0.077 A 
ATOM      2  C3  UNL d   1       1.529  -0.440  -0.530  0.00  0.00     0.002 A 
ATOM      3  C4  UNL d   1       0.749  -0.508  -1.686  0.00  0.00     0.002 A 
ATOM      4  C5  UNL d   1      -0.635  -0.367  -1.604  0.00  0.00    -0.004 A 
ATOM      5  C6  UNL d   1      -1.241  -0.163  -0.366  0.00  0.00     0.002 A 
ATOM      6  C7  UNL d   1      -0.463  -0.096   0.791  0.00  0.00     0.002 A 
ENDROOT
BRANCH   1   7
ATOM      7  C1  UNL d   1       1.773  -0.111   1.961  0.00  0.00     0.055 C 
ATOM      8  C   UNL d   1       1.301  -1.065   3.048  0.00  0.00     0.019 C 
ENDBRANCH   1   7
TORSDOF 1
ENDMDL
