MODEL 1
REMARK minimizedAffinity -3.16233277
REMARK minimizedRMSD -1
REMARK  1 active torsions:
REMARK  status: ('A' for Active; 'I' for Inactive)
REMARK    1  A    between atoms: C1_2  and  C2_3 
ROOT
ATOM      1  C2  UNL d   1       0.390  -0.416  -0.187  0.00  0.00    -0.077 A 
ATOM      2  C3  UNL d   1       1.311  -1.200  -0.897  0.00  0.00     0.002 A 
ATOM      3  C4  UNL d   1       2.662  -1.195  -0.545  0.00  0.00     0.002 A 
ATOM      4  C5  UNL d   1       3.103  -0.413   0.520  0.00  0.00    -0.004 A 
ATOM      5  C6  UNL d   1       2.196   0.371   1.231  0.00  0.00     0.002 A 
ATOM      6  C7  UNL d   1       0.846   0.369   0.880  0.00  0.00     0.002 A 
ENDROOT
BRANCH   1   7
ATOM      7  C1  UNL d   1      -1.075  -0.458  -0.534  0.00  0.00     0.055 C 
ATOM      8  C   UNL d   1      -1.913  -0.905   0.655  0.00  0.00     0.019 C 
ENDBRANCH   1   7
TORSDOF 1
ENDMDL
