MODEL 1
REMARK minimizedAffinity -5.75579166
REMARK minimizedRMSD -1
REMARK  1 active torsions:
REMARK  status: ('A' for Active; 'I' for Inactive)
REMARK    1  A    between atoms: C1_2  and  C2_3 
ROOT
ATOM      1  C2  UNL d   1       0.620  -0.969   0.418  0.00  0.00    -0.077 A 
ATOM      2  C3  UNL d   1       1.678  -0.143   0.824  0.00  0.00     0.002 A 
ATOM      3  C4  UNL d   1       1.900   0.105   2.180  0.00  0.00     0.002 A 
ATOM      4  C5  UNL d   1       1.071  -0.472   3.140  0.00  0.00    -0.004 A 
ATOM      5  C6  UNL d   1       0.016  -1.293   2.746  0.00  0.00     0.002 A 
ATOM      6  C7  UNL d   1      -0.208  -1.541   1.391  0.00  0.00     0.002 A 
ENDROOT
BRANCH   1   7
ATOM      7  C1  UNL d   1       0.410  -1.278  -1.042  0.00  0.00     0.055 C 
ATOM      8  C   UNL d   1       1.658  -1.886  -1.665  0.00  0.00     0.019 C 
ENDBRANCH   1   7
TORSDOF 1
ENDMDL
