MODEL 1
REMARK minimizedAffinity 16.5297203
REMARK minimizedRMSD -1
REMARK  0 active torsions:
REMARK  status: ('A' for Active; 'I' for Inactive)
ROOT
ATOM      1  C4' PXY d   1       4.533   0.836   2.710  0.00  0.00     0.077 C 
ATOM      2  C1' PXY d   1      -0.478   0.174  -0.095  0.00  0.00     0.077 C 
ATOM      3  C1  PXY d   1       0.838   0.334   0.640  0.00  0.00    -0.082 A 
ATOM      4  C2  PXY d   1       1.032   1.393   1.410  0.00  0.00     0.003 A 
ATOM      5  C3  PXY d   1       2.228   1.570   2.056  0.00  0.00     0.003 A 
ATOM      6  C4  PXY d   1       3.216   0.627   1.956  0.00  0.00    -0.082 A 
ATOM      7  C5  PXY d   1       3.022  -0.461   1.182  0.00  0.00     0.003 A 
ATOM      8  C6  PXY d   1       1.816  -0.602   0.501  0.00  0.00     0.003 A 
ENDROOT
TORSDOF 0
ENDMDL
