MODEL 1
REMARK minimizedAffinity 6.43924046
REMARK minimizedRMSD -1
REMARK  0 active torsions:
REMARK  status: ('A' for Active; 'I' for Inactive)
ROOT
ATOM      1  C4' PXY d   1       3.512   1.876  -6.000  0.00  0.00     0.077 C 
ATOM      2  C1' PXY d   1       3.079  -1.327  -1.207  0.00  0.00     0.077 C 
ATOM      3  C1  PXY d   1       3.192  -0.498  -2.471  0.00  0.00    -0.082 A 
ATOM      4  C2  PXY d   1       3.792   0.680  -2.429  0.00  0.00     0.003 A 
ATOM      5  C3  PXY d   1       3.874   1.457  -3.556  0.00  0.00     0.003 A 
ATOM      6  C4  PXY d   1       3.384   1.000  -4.750  0.00  0.00    -0.082 A 
ATOM      7  C5  PXY d   1       2.780  -0.206  -4.803  0.00  0.00     0.003 A 
ATOM      8  C6  PXY d   1       2.670  -0.961  -3.639  0.00  0.00     0.003 A 
ENDROOT
TORSDOF 0
ENDMDL
