MODEL 1
REMARK minimizedAffinity 5.07860327
REMARK minimizedRMSD -1
REMARK  0 active torsions:
REMARK  status: ('A' for Active; 'I' for Inactive)
ROOT
ATOM      1  C4' PXY d   1      -4.616  -1.099  -2.845  0.00  0.00     0.077 C 
ATOM      2  C1' PXY d   1       0.869  -2.348  -4.177  0.00  0.00     0.077 C 
ATOM      3  C1  PXY d   1      -0.565  -2.011  -3.820  0.00  0.00    -0.082 A 
ATOM      4  C2  PXY d   1      -1.505  -2.933  -3.948  0.00  0.00     0.003 A 
ATOM      5  C3  PXY d   1      -2.812  -2.636  -3.660  0.00  0.00     0.003 A 
ATOM      6  C4  PXY d   1      -3.153  -1.398  -3.185  0.00  0.00    -0.082 A 
ATOM      7  C5  PXY d   1      -2.198  -0.455  -3.041  0.00  0.00     0.003 A 
ATOM      8  C6  PXY d   1      -0.883  -0.764  -3.378  0.00  0.00     0.003 A 
ENDROOT
TORSDOF 0
ENDMDL
