MODEL 1
REMARK minimizedAffinity 4.04073715
REMARK minimizedRMSD -1
REMARK  0 active torsions:
REMARK  status: ('A' for Active; 'I' for Inactive)
ROOT
ATOM      1  C4' PXY d   1      -1.020  -5.987   0.497  0.00  0.00     0.077 C 
ATOM      2  C1' PXY d   1       1.622  -5.990   5.638  0.00  0.00     0.077 C 
ATOM      3  C1  PXY d   1       0.940  -5.984   4.284  0.00  0.00    -0.082 A 
ATOM      4  C2  PXY d   1      -0.381  -5.973   4.218  0.00  0.00     0.003 A 
ATOM      5  C3  PXY d   1      -1.015  -6.000   3.002  0.00  0.00     0.003 A 
ATOM      6  C4  PXY d   1      -0.288  -5.984   1.842  0.00  0.00    -0.082 A 
ATOM      7  C5  PXY d   1       1.060  -5.985   1.901  0.00  0.00     0.003 A 
ATOM      8  C6  PXY d   1       1.684  -6.000   3.145  0.00  0.00     0.003 A 
ENDROOT
TORSDOF 0
ENDMDL
