MODEL 1
REMARK minimizedAffinity 3.59198809
REMARK minimizedRMSD -1
REMARK  0 active torsions:
REMARK  status: ('A' for Active; 'I' for Inactive)
ROOT
ATOM      1  C4' PXY d   1      -0.209  -5.897   2.124  0.00  0.00     0.077 C 
ATOM      2  C1' PXY d   1      -5.988  -5.990   2.251  0.00  0.00     0.077 C 
ATOM      3  C1  PXY d   1      -4.473  -5.970   2.206  0.00  0.00    -0.082 A 
ATOM      4  C2  PXY d   1      -3.784  -6.000   3.335  0.00  0.00     0.003 A 
ATOM      5  C3  PXY d   1      -2.414  -5.950   3.314  0.00  0.00     0.003 A 
ATOM      6  C4  PXY d   1      -1.740  -5.924   2.122  0.00  0.00    -0.082 A 
ATOM      7  C5  PXY d   1      -2.435  -5.905   0.965  0.00  0.00     0.003 A 
ATOM      8  C6  PXY d   1      -3.827  -5.914   1.010  0.00  0.00     0.003 A 
ENDROOT
TORSDOF 0
ENDMDL
