MODEL 1
REMARK minimizedAffinity 7.45459461
REMARK minimizedRMSD -1
REMARK  0 active torsions:
REMARK  status: ('A' for Active; 'I' for Inactive)
ROOT
ATOM      1  C4' PXY d   1       1.487  -5.964   5.954  0.00  0.00     0.077 C 
ATOM      2  C1' PXY d   1      -1.382  -5.999   0.936  0.00  0.00     0.077 C 
ATOM      3  C1  PXY d   1      -0.620  -5.995   2.246  0.00  0.00    -0.082 A 
ATOM      4  C2  PXY d   1      -1.284  -5.999   3.390  0.00  0.00     0.003 A 
ATOM      5  C3  PXY d   1      -0.611  -5.963   4.584  0.00  0.00     0.003 A 
ATOM      6  C4  PXY d   1       0.758  -5.977   4.608  0.00  0.00    -0.082 A 
ATOM      7  C5  PXY d   1       1.444  -5.985   3.445  0.00  0.00     0.003 A 
ATOM      8  C6  PXY d   1       0.741  -5.979   2.243  0.00  0.00     0.003 A 
ENDROOT
TORSDOF 0
ENDMDL
