MODEL 1
REMARK minimizedAffinity 4.96526718
REMARK minimizedRMSD -1
REMARK  0 active torsions:
REMARK  status: ('A' for Active; 'I' for Inactive)
ROOT
ATOM      1  C4' PXY d   1       3.118  -5.983   2.987  0.00  0.00     0.077 C 
ATOM      2  C1' PXY d   1      -2.504  -5.979   1.644  0.00  0.00     0.077 C 
ATOM      3  C1  PXY d   1      -1.032  -5.975   2.008  0.00  0.00    -0.082 A 
ATOM      4  C2  PXY d   1      -0.121  -5.968   1.048  0.00  0.00     0.003 A 
ATOM      5  C3  PXY d   1       1.214  -5.996   1.359  0.00  0.00     0.003 A 
ATOM      6  C4  PXY d   1       1.621  -5.978   2.666  0.00  0.00    -0.082 A 
ATOM      7  C5  PXY d   1       0.698  -5.974   3.651  0.00  0.00     0.003 A 
ATOM      8  C6  PXY d   1      -0.653  -5.987   3.314  0.00  0.00     0.003 A 
ENDROOT
TORSDOF 0
ENDMDL
