MODEL 1
REMARK minimizedAffinity 2.91345263
REMARK minimizedRMSD -1
REMARK  0 active torsions:
REMARK  status: ('A' for Active; 'I' for Inactive)
ROOT
ATOM      1  C4' PXY d   1       1.851  -5.982   5.821  0.00  0.00     0.077 C 
ATOM      2  C1' PXY d   1      -1.248  -5.997   0.941  0.00  0.00     0.077 C 
ATOM      3  C1  PXY d   1      -0.425  -5.998   2.215  0.00  0.00    -0.082 A 
ATOM      4  C2  PXY d   1      -1.036  -5.999   3.388  0.00  0.00     0.003 A 
ATOM      5  C3  PXY d   1      -0.307  -5.968   4.550  0.00  0.00     0.003 A 
ATOM      6  C4  PXY d   1       1.061  -5.990   4.510  0.00  0.00    -0.082 A 
ATOM      7  C5  PXY d   1       1.692  -6.000   3.316  0.00  0.00     0.003 A 
ATOM      8  C6  PXY d   1       0.934  -5.989   2.149  0.00  0.00     0.003 A 
ENDROOT
TORSDOF 0
ENDMDL
