MODEL 1
REMARK minimizedAffinity 1.98397481
REMARK minimizedRMSD -1
REMARK  0 active torsions:
REMARK  status: ('A' for Active; 'I' for Inactive)
ROOT
ATOM      1  C4' PXY d   1      -1.174  -6.000   0.702  0.00  0.00     0.077 C 
ATOM      2  C1' PXY d   1       2.186  -4.769   5.242  0.00  0.00     0.077 C 
ATOM      3  C1  PXY d   1       1.294  -5.091   4.059  0.00  0.00    -0.082 A 
ATOM      4  C2  PXY d   1       1.798  -5.729   3.015  0.00  0.00     0.003 A 
ATOM      5  C3  PXY d   1       1.013  -6.000   1.923  0.00  0.00     0.003 A 
ATOM      6  C4  PXY d   1      -0.313  -5.662   1.922  0.00  0.00    -0.082 A 
ATOM      7  C5  PXY d   1      -0.837  -5.021   2.989  0.00  0.00     0.003 A 
ATOM      8  C6  PXY d   1      -0.015  -4.718   4.070  0.00  0.00     0.003 A 
ENDROOT
TORSDOF 0
ENDMDL
