MODEL 1
REMARK minimizedAffinity 0.662364721
REMARK minimizedRMSD -1
REMARK  0 active torsions:
REMARK  status: ('A' for Active; 'I' for Inactive)
ROOT
ATOM      1  C4' PXY d   1      -3.384  -5.997   1.834  0.00  0.00     0.077 C 
ATOM      2  C1' PXY d   1       2.262  -5.981   3.072  0.00  0.00     0.077 C 
ATOM      3  C1  PXY d   1       0.779  -5.990   2.759  0.00  0.00    -0.082 A 
ATOM      4  C2  PXY d   1       0.376  -5.999   1.499  0.00  0.00     0.003 A 
ATOM      5  C3  PXY d   1      -0.961  -5.975   1.197  0.00  0.00     0.003 A 
ATOM      6  C4  PXY d   1      -1.897  -5.997   2.197  0.00  0.00    -0.082 A 
ATOM      7  C5  PXY d   1      -1.494  -5.999   3.485  0.00  0.00     0.003 A 
ATOM      8  C6  PXY d   1      -0.132  -5.981   3.770  0.00  0.00     0.003 A 
ENDROOT
TORSDOF 0
ENDMDL
