MODEL 1
REMARK minimizedAffinity 3.19274664
REMARK minimizedRMSD -1
REMARK  0 active torsions:
REMARK  status: ('A' for Active; 'I' for Inactive)
ROOT
ATOM      1  C4' PXY d   1       1.782  -5.999   4.034  0.00  0.00     0.077 C 
ATOM      2  C1' PXY d   1      -2.611  -3.270   1.453  0.00  0.00     0.077 C 
ATOM      3  C1  PXY d   1      -1.467  -3.995   2.134  0.00  0.00    -0.082 A 
ATOM      4  C2  PXY d   1      -0.386  -3.321   2.493  0.00  0.00     0.003 A 
ATOM      5  C3  PXY d   1       0.671  -3.967   3.081  0.00  0.00     0.003 A 
ATOM      6  C4  PXY d   1       0.599  -5.307   3.353  0.00  0.00    -0.082 A 
ATOM      7  C5  PXY d   1      -0.504  -6.000   2.999  0.00  0.00     0.003 A 
ATOM      8  C6  PXY d   1      -1.549  -5.333   2.366  0.00  0.00     0.003 A 
ENDROOT
TORSDOF 0
ENDMDL
