MODEL 1
REMARK minimizedAffinity 1.85552037
REMARK minimizedRMSD -1
REMARK  0 active torsions:
REMARK  status: ('A' for Active; 'I' for Inactive)
ROOT
ATOM      1  C4' PXY d   1      -0.521  -5.959   2.920  0.00  0.00     0.077 C 
ATOM      2  C1' PXY d   1      -5.713  -6.000   0.379  0.00  0.00     0.077 C 
ATOM      3  C1  PXY d   1      -4.356  -5.984   1.056  0.00  0.00    -0.082 A 
ATOM      4  C2  PXY d   1      -3.258  -5.963   0.319  0.00  0.00     0.003 A 
ATOM      5  C3  PXY d   1      -2.023  -5.981   0.915  0.00  0.00     0.003 A 
ATOM      6  C4  PXY d   1      -1.911  -5.966   2.280  0.00  0.00    -0.082 A 
ATOM      7  C5  PXY d   1      -3.028  -5.976   3.038  0.00  0.00     0.003 A 
ATOM      8  C6  PXY d   1      -4.272  -6.000   2.414  0.00  0.00     0.003 A 
ENDROOT
TORSDOF 0
ENDMDL
