MODEL 1
REMARK minimizedAffinity 2.90619087
REMARK minimizedRMSD -1
REMARK  0 active torsions:
REMARK  status: ('A' for Active; 'I' for Inactive)
ROOT
ATOM      1  C4' PXY d   1       2.579  -5.985   4.756  0.00  0.00     0.077 C 
ATOM      2  C1' PXY d   1      -1.349  -5.991   0.515  0.00  0.00     0.077 C 
ATOM      3  C1  PXY d   1      -0.327  -5.984   1.635  0.00  0.00    -0.082 A 
ATOM      4  C2  PXY d   1       0.963  -5.973   1.344  0.00  0.00     0.003 A 
ATOM      5  C3  PXY d   1       1.901  -5.999   2.344  0.00  0.00     0.003 A 
ATOM      6  C4  PXY d   1       1.513  -5.983   3.657  0.00  0.00    -0.082 A 
ATOM      7  C5  PXY d   1       0.198  -5.984   3.963  0.00  0.00     0.003 A 
ATOM      8  C6  PXY d   1      -0.738  -5.999   2.932  0.00  0.00     0.003 A 
ENDROOT
TORSDOF 0
ENDMDL
