MODEL 1
REMARK minimizedAffinity 8.010005
REMARK minimizedRMSD -1
REMARK  0 active torsions:
REMARK  status: ('A' for Active; 'I' for Inactive)
ROOT
ATOM      1  C4' PXY d   1      -2.416  -3.572  -4.964  0.00  0.00     0.077 C 
ATOM      2  C1' PXY d   1      -1.006   0.818  -1.477  0.00  0.00     0.077 C 
ATOM      3  C1  PXY d   1      -1.369  -0.328  -2.401  0.00  0.00    -0.082 A 
ATOM      4  C2  PXY d   1      -2.460  -1.037  -2.166  0.00  0.00     0.003 A 
ATOM      5  C3  PXY d   1      -2.786  -2.097  -2.973  0.00  0.00     0.003 A 
ATOM      6  C4  PXY d   1      -2.016  -2.400  -4.063  0.00  0.00    -0.082 A 
ATOM      7  C5  PXY d   1      -0.906  -1.674  -4.316  0.00  0.00     0.003 A 
ATOM      8  C6  PXY d   1      -0.570  -0.629  -3.461  0.00  0.00     0.003 A 
ENDROOT
TORSDOF 0
ENDMDL
