MODEL 1
REMARK minimizedAffinity 8.95004749
REMARK minimizedRMSD -1
REMARK  0 active torsions:
REMARK  status: ('A' for Active; 'I' for Inactive)
ROOT
ATOM      1  C4' PXY d   1      -6.000   1.881   4.508  0.00  0.00     0.077 C 
ATOM      2  C1' PXY d   1      -1.735  -1.691   2.938  0.00  0.00     0.077 C 
ATOM      3  C1  PXY d   1      -2.861  -0.764   3.351  0.00  0.00    -0.082 A 
ATOM      4  C2  PXY d   1      -2.836   0.504   2.976  0.00  0.00     0.003 A 
ATOM      5  C3  PXY d   1      -3.830   1.364   3.368  0.00  0.00     0.003 A 
ATOM      6  C4  PXY d   1      -4.889   0.907   4.106  0.00  0.00    -0.082 A 
ATOM      7  C5  PXY d   1      -4.928  -0.388   4.483  0.00  0.00     0.003 A 
ATOM      8  C6  PXY d   1      -3.888  -1.235   4.111  0.00  0.00     0.003 A 
ENDROOT
TORSDOF 0
ENDMDL
