MODEL 1
REMARK minimizedAffinity 9.46955585
REMARK minimizedRMSD -1
REMARK  0 active torsions:
REMARK  status: ('A' for Active; 'I' for Inactive)
ROOT
ATOM      1  C4' PXY d   1       3.728  -5.844   5.737  0.00  0.00     0.077 C 
ATOM      2  C1' PXY d   1      -0.981  -5.950   2.387  0.00  0.00     0.077 C 
ATOM      3  C1  PXY d   1       0.261  -5.928   3.256  0.00  0.00    -0.082 A 
ATOM      4  C2  PXY d   1       0.138  -5.833   4.570  0.00  0.00     0.003 A 
ATOM      5  C3  PXY d   1       1.251  -5.780   5.368  0.00  0.00     0.003 A 
ATOM      6  C4  PXY d   1       2.502  -5.879   4.821  0.00  0.00    -0.082 A 
ATOM      7  C5  PXY d   1       2.635  -5.988   3.482  0.00  0.00     0.003 A 
ATOM      8  C6  PXY d   1       1.494  -5.998   2.685  0.00  0.00     0.003 A 
ENDROOT
TORSDOF 0
ENDMDL
