MODEL 1
REMARK minimizedAffinity 1.72038841
REMARK minimizedRMSD -1
REMARK  0 active torsions:
REMARK  status: ('A' for Active; 'I' for Inactive)
ROOT
ATOM      1  C4' PXY d   1       1.542  -5.977   5.672  0.00  0.00     0.077 C 
ATOM      2  C1' PXY d   1      -1.586  -5.999   0.810  0.00  0.00     0.077 C 
ATOM      3  C1  PXY d   1      -0.756  -5.999   2.079  0.00  0.00    -0.082 A 
ATOM      4  C2  PXY d   1      -1.360  -5.999   3.256  0.00  0.00     0.003 A 
ATOM      5  C3  PXY d   1      -0.625  -5.966   4.413  0.00  0.00     0.003 A 
ATOM      6  C4  PXY d   1       0.744  -5.987   4.365  0.00  0.00    -0.082 A 
ATOM      7  C5  PXY d   1       1.367  -5.997   3.168  0.00  0.00     0.003 A 
ATOM      8  C6  PXY d   1       0.603  -5.989   2.005  0.00  0.00     0.003 A 
ENDROOT
TORSDOF 0
ENDMDL
