MODEL 1
REMARK minimizedAffinity 12.3944931
REMARK minimizedRMSD -1
REMARK  0 active torsions:
REMARK  status: ('A' for Active; 'I' for Inactive)
ROOT
ATOM      1  C4' PXY d   1       1.629   1.762   1.962  0.00  0.00     0.077 C 
ATOM      2  C1' PXY d   1      -2.054  -2.397   0.364  0.00  0.00     0.077 C 
ATOM      3  C1  PXY d   1      -1.097  -1.301   0.791  0.00  0.00    -0.082 A 
ATOM      4  C2  PXY d   1      -0.086  -0.972   0.003  0.00  0.00     0.003 A 
ATOM      5  C3  PXY d   1       0.807  -0.006   0.388  0.00  0.00     0.003 A 
ATOM      6  C4  PXY d   1       0.633   0.669   1.567  0.00  0.00    -0.082 A 
ATOM      7  C5  PXY d   1      -0.402   0.347   2.371  0.00  0.00     0.003 A 
ATOM      8  C6  PXY d   1      -1.274  -0.666   1.981  0.00  0.00     0.003 A 
ENDROOT
TORSDOF 0
ENDMDL
