MODEL 1
REMARK minimizedAffinity 4.00787926
REMARK minimizedRMSD -1
REMARK  0 active torsions:
REMARK  status: ('A' for Active; 'I' for Inactive)
ROOT
ATOM      1  C4' PXY d   1       1.852  -5.962   5.994  0.00  0.00     0.077 C 
ATOM      2  C1' PXY d   1      -1.978  -5.999   1.665  0.00  0.00     0.077 C 
ATOM      3  C1  PXY d   1      -0.964  -5.994   2.792  0.00  0.00    -0.082 A 
ATOM      4  C2  PXY d   1      -1.382  -6.000   4.047  0.00  0.00     0.003 A 
ATOM      5  C3  PXY d   1      -0.480  -5.964   5.079  0.00  0.00     0.003 A 
ATOM      6  C4  PXY d   1       0.865  -5.976   4.824  0.00  0.00    -0.082 A 
ATOM      7  C5  PXY d   1       1.300  -5.981   3.546  0.00  0.00     0.003 A 
ATOM      8  C6  PXY d   1       0.367  -5.976   2.512  0.00  0.00     0.003 A 
ENDROOT
TORSDOF 0
ENDMDL
