MODEL 1
REMARK minimizedAffinity 9.79794979
REMARK minimizedRMSD -1
REMARK  0 active torsions:
REMARK  status: ('A' for Active; 'I' for Inactive)
ROOT
ATOM      1  C4' PXY d   1      -3.374  -1.504  -1.731  0.00  0.00     0.077 C 
ATOM      2  C1' PXY d   1       0.328  -2.732  -5.998  0.00  0.00     0.077 C 
ATOM      3  C1  PXY d   1      -0.634  -2.401  -4.874  0.00  0.00    -0.082 A 
ATOM      4  C2  PXY d   1      -1.523  -3.302  -4.488  0.00  0.00     0.003 A 
ATOM      5  C3  PXY d   1      -2.422  -3.008  -3.495  0.00  0.00     0.003 A 
ATOM      6  C4  PXY d   1      -2.376  -1.798  -2.855  0.00  0.00    -0.082 A 
ATOM      7  C5  PXY d   1      -1.465  -0.878  -3.236  0.00  0.00     0.003 A 
ATOM      8  C6  PXY d   1      -0.589  -1.181  -4.274  0.00  0.00     0.003 A 
ENDROOT
TORSDOF 0
ENDMDL
