MODEL 1
REMARK minimizedAffinity 0.804119885
REMARK minimizedRMSD -1
REMARK  0 active torsions:
REMARK  status: ('A' for Active; 'I' for Inactive)
ROOT
ATOM      1  C   UNL d   1       2.558  -2.150  -0.768  0.00  0.00     0.172 C 
ATOM      2  N   UNL d   1       1.798  -1.114  -0.109  0.00  0.00    -0.070 N 
ATOM      3  C1  UNL d   1       0.972  -1.293   0.969  0.00  0.00    -0.004 A 
ATOM      4  C2  UNL d   1       0.436  -0.067   1.298  0.00  0.00    -0.047 A 
ATOM      5  C3  UNL d   1       0.957   0.881   0.386  0.00  0.00    -0.047 A 
ATOM      6  C4  UNL d   1       1.797   0.206  -0.474  0.00  0.00    -0.004 A 
ENDROOT
TORSDOF 0
ENDMDL
