MODEL 1
REMARK minimizedAffinity -1.50252295
REMARK minimizedRMSD -1
REMARK  0 active torsions:
REMARK  status: ('A' for Active; 'I' for Inactive)
ROOT
ATOM      1  C   UNL d   1       4.822  -0.315  -2.507  0.00  0.00     0.172 C 
ATOM      2  N   UNL d   1       3.716  -0.378  -1.581  0.00  0.00    -0.070 N 
ATOM      3  C1  UNL d   1       3.325  -1.487  -0.879  0.00  0.00    -0.004 A 
ATOM      4  C2  UNL d   1       2.237  -1.137  -0.109  0.00  0.00    -0.047 A 
ATOM      5  C3  UNL d   1       1.965   0.229  -0.356  0.00  0.00    -0.047 A 
ATOM      6  C4  UNL d   1       2.896   0.674  -1.271  0.00  0.00    -0.004 A 
ENDROOT
TORSDOF 0
ENDMDL
