MODEL 1
REMARK minimizedAffinity -1.1046865
REMARK minimizedRMSD -1
REMARK  0 active torsions:
REMARK  status: ('A' for Active; 'I' for Inactive)
ROOT
ATOM      1  C   UNL d   1      -1.117   5.999  -2.333  0.00  0.00     0.172 C 
ATOM      2  N   UNL d   1      -1.262   4.782  -3.097  0.00  0.00    -0.070 N 
ATOM      3  C1  UNL d   1      -2.449   4.225  -3.493  0.00  0.00    -0.004 A 
ATOM      4  C2  UNL d   1      -2.161   3.076  -4.197  0.00  0.00    -0.047 A 
ATOM      5  C3  UNL d   1      -0.753   2.937  -4.225  0.00  0.00    -0.047 A 
ATOM      6  C4  UNL d   1      -0.222   4.007  -3.536  0.00  0.00    -0.004 A 
ENDROOT
TORSDOF 0
ENDMDL
