MODEL 1
REMARK minimizedAffinity -1.92622566
REMARK minimizedRMSD -1
REMARK  0 active torsions:
REMARK  status: ('A' for Active; 'I' for Inactive)
ROOT
ATOM      1  C   UNL d   1       3.744  -1.499  -0.580  0.00  0.00     0.172 C 
ATOM      2  N   UNL d   1       2.563  -0.789  -0.147  0.00  0.00    -0.070 N 
ATOM      3  C1  UNL d   1       1.479  -1.348   0.474  0.00  0.00    -0.004 A 
ATOM      4  C2  UNL d   1       0.570  -0.343   0.723  0.00  0.00    -0.047 A 
ATOM      5  C3  UNL d   1       1.127   0.862   0.233  0.00  0.00    -0.047 A 
ATOM      6  C4  UNL d   1       2.361   0.557  -0.301  0.00  0.00    -0.004 A 
ENDROOT
TORSDOF 0
ENDMDL
