MODEL 1
REMARK minimizedAffinity -4.50778675
REMARK minimizedRMSD -1
REMARK  0 active torsions:
REMARK  status: ('A' for Active; 'I' for Inactive)
ROOT
ATOM      1  C   UNL d   1       3.935  -0.516  -1.829  0.00  0.00     0.172 C 
ATOM      2  N   UNL d   1       2.731  -0.525  -1.033  0.00  0.00    -0.070 N 
ATOM      3  C1  UNL d   1       2.089  -1.641  -0.568  0.00  0.00    -0.004 A 
ATOM      4  C2  UNL d   1       0.986  -1.227   0.147  0.00  0.00    -0.047 A 
ATOM      5  C3  UNL d   1       0.963   0.187   0.109  0.00  0.00    -0.047 A 
ATOM      6  C4  UNL d   1       2.054   0.596  -0.628  0.00  0.00    -0.004 A 
ENDROOT
TORSDOF 0
ENDMDL
