MODEL 1
REMARK minimizedAffinity -3.81730676
REMARK minimizedRMSD -1
REMARK  0 active torsions:
REMARK  status: ('A' for Active; 'I' for Inactive)
ROOT
ATOM      1  C   UNL d   1       2.701  -0.499  -0.759  0.00  0.00     0.172 C 
ATOM      2  N   UNL d   1       1.507  -0.553   0.052  0.00  0.00    -0.070 N 
ATOM      3  C1  UNL d   1       0.534  -1.514  -0.022  0.00  0.00    -0.004 A 
ATOM      4  C2  UNL d   1      -0.432  -1.210   0.913  0.00  0.00    -0.047 A 
ATOM      5  C3  UNL d   1      -0.026  -0.025   1.571  0.00  0.00    -0.047 A 
ATOM      6  C4  UNL d   1       1.178   0.360   1.019  0.00  0.00    -0.004 A 
ENDROOT
TORSDOF 0
ENDMDL
