MODEL 1
REMARK minimizedAffinity 1.45461309
REMARK minimizedRMSD -1
REMARK  0 active torsions:
REMARK  status: ('A' for Active; 'I' for Inactive)
ROOT
ATOM      1  C   UNL d   1      -0.541  -1.080   1.562  0.00  0.00     0.172 C 
ATOM      2  N   UNL d   1       0.519  -0.359   0.899  0.00  0.00    -0.070 N 
ATOM      3  C1  UNL d   1       1.291  -0.839  -0.126  0.00  0.00    -0.004 A 
ATOM      4  C2  UNL d   1       2.184   0.150  -0.480  0.00  0.00    -0.047 A 
ATOM      5  C3  UNL d   1       1.941   1.261   0.362  0.00  0.00    -0.047 A 
ATOM      6  C4  UNL d   1       0.905   0.919   1.205  0.00  0.00    -0.004 A 
ENDROOT
TORSDOF 0
ENDMDL
