MODEL 1
REMARK minimizedAffinity 3.43614125
REMARK minimizedRMSD -1
REMARK  0 active torsions:
REMARK  status: ('A' for Active; 'I' for Inactive)
ROOT
ATOM      1  C   UNL d   1      -0.815   5.912  -1.720  0.00  0.00     0.172 C 
ATOM      2  N   UNL d   1      -0.861   4.717  -2.529  0.00  0.00    -0.070 N 
ATOM      3  C1  UNL d   1       0.224   3.996  -2.952  0.00  0.00    -0.004 A 
ATOM      4  C2  UNL d   1      -0.239   2.934  -3.697  0.00  0.00    -0.047 A 
ATOM      5  C3  UNL d   1      -1.652   3.019  -3.724  0.00  0.00    -0.047 A 
ATOM      6  C4  UNL d   1      -2.010   4.132  -2.994  0.00  0.00    -0.004 A 
ENDROOT
TORSDOF 0
ENDMDL
