MODEL 1
REMARK minimizedAffinity -4.04659891
REMARK minimizedRMSD -1
REMARK  0 active torsions:
REMARK  status: ('A' for Active; 'I' for Inactive)
ROOT
ATOM      1  C   UNL d   1       3.345  -1.273  -1.499  0.00  0.00     0.172 C 
ATOM      2  N   UNL d   1       2.338  -0.525  -0.785  0.00  0.00    -0.070 N 
ATOM      3  C1  UNL d   1       1.491  -1.030   0.165  0.00  0.00    -0.004 A 
ATOM      4  C2  UNL d   1       0.686  -0.001   0.604  0.00  0.00    -0.047 A 
ATOM      5  C3  UNL d   1       1.061   1.163  -0.108  0.00  0.00    -0.047 A 
ATOM      6  C4  UNL d   1       2.086   0.810  -0.961  0.00  0.00    -0.004 A 
ENDROOT
TORSDOF 0
ENDMDL
