MODEL 1
REMARK minimizedAffinity 2.55545688
REMARK minimizedRMSD -1
REMARK  0 active torsions:
REMARK  status: ('A' for Active; 'I' for Inactive)
ROOT
ATOM      1  C   UNL d   1       2.173   1.779   0.237  0.00  0.00     0.172 C 
ATOM      2  N   UNL d   1       2.023   0.344   0.292  0.00  0.00    -0.070 N 
ATOM      3  C1  UNL d   1       2.949  -0.572  -0.131  0.00  0.00    -0.004 A 
ATOM      4  C2  UNL d   1       2.431  -1.829   0.091  0.00  0.00    -0.047 A 
ATOM      5  C3  UNL d   1       1.149  -1.663   0.667  0.00  0.00    -0.047 A 
ATOM      6  C4  UNL d   1       0.922  -0.308   0.779  0.00  0.00    -0.004 A 
ENDROOT
TORSDOF 0
ENDMDL
