MODEL 1
REMARK minimizedAffinity -2.16982055
REMARK minimizedRMSD -1
REMARK  0 active torsions:
REMARK  status: ('A' for Active; 'I' for Inactive)
ROOT
ATOM      1  C   UNL d   1       0.624  -0.065   0.660  0.00  0.00     0.172 C 
ATOM      2  N   UNL d   1       1.794  -0.260  -0.164  0.00  0.00    -0.070 N 
ATOM      3  C1  UNL d   1       2.536  -1.409  -0.238  0.00  0.00    -0.004 A 
ATOM      4  C2  UNL d   1       3.561  -1.192  -1.133  0.00  0.00    -0.047 A 
ATOM      5  C3  UNL d   1       3.432   0.133  -1.613  0.00  0.00    -0.047 A 
ATOM      6  C4  UNL d   1       2.329   0.687  -0.997  0.00  0.00    -0.004 A 
ENDROOT
TORSDOF 0
ENDMDL
