MODEL 1
REMARK minimizedAffinity -1.18700945
REMARK minimizedRMSD -1
REMARK  0 active torsions:
REMARK  status: ('A' for Active; 'I' for Inactive)
ROOT
ATOM      1  C   UNL d   1       3.321   1.131  -1.890  0.00  0.00     0.172 C 
ATOM      2  N   UNL d   1       2.460   0.453  -0.950  0.00  0.00    -0.070 N 
ATOM      3  C1  UNL d   1       2.062  -0.855  -1.032  0.00  0.00    -0.004 A 
ATOM      4  C2  UNL d   1       1.251  -1.118   0.051  0.00  0.00    -0.047 A 
ATOM      5  C3  UNL d   1       1.157   0.074   0.809  0.00  0.00    -0.047 A 
ATOM      6  C4  UNL d   1       1.916   1.030   0.167  0.00  0.00    -0.004 A 
ENDROOT
TORSDOF 0
ENDMDL
