MODEL 1
REMARK minimizedAffinity -3.76984191
REMARK minimizedRMSD -1
REMARK  0 active torsions:
REMARK  status: ('A' for Active; 'I' for Inactive)
ROOT
ATOM      1  C   UNL d   1       4.036  -0.217  -2.079  0.00  0.00     0.172 C 
ATOM      2  N   UNL d   1       2.904  -0.423  -1.207  0.00  0.00    -0.070 N 
ATOM      3  C1  UNL d   1       2.598  -1.590  -0.559  0.00  0.00    -0.004 A 
ATOM      4  C2  UNL d   1       1.448  -1.378   0.172  0.00  0.00    -0.047 A 
ATOM      5  C3  UNL d   1       1.049  -0.038  -0.046  0.00  0.00    -0.047 A 
ATOM      6  C4  UNL d   1       1.968   0.530  -0.903  0.00  0.00    -0.004 A 
ENDROOT
TORSDOF 0
ENDMDL
