MODEL 1
REMARK minimizedAffinity -2.83843207
REMARK minimizedRMSD -1
REMARK  0 active torsions:
REMARK  status: ('A' for Active; 'I' for Inactive)
ROOT
ATOM      1  C   UNL d   1       3.677  -1.063  -1.583  0.00  0.00     0.172 C 
ATOM      2  N   UNL d   1       2.607  -0.766  -0.660  0.00  0.00    -0.070 N 
ATOM      3  C1  UNL d   1       1.714   0.265  -0.779  0.00  0.00    -0.004 A 
ATOM      4  C2  UNL d   1       0.855   0.206   0.298  0.00  0.00    -0.047 A 
ATOM      5  C3  UNL d   1       1.247  -0.898   1.092  0.00  0.00    -0.047 A 
ATOM      6  C4  UNL d   1       2.334  -1.482   0.476  0.00  0.00    -0.004 A 
ENDROOT
TORSDOF 0
ENDMDL
