MODEL 1
REMARK minimizedAffinity 0.169455871
REMARK minimizedRMSD -1
REMARK  0 active torsions:
REMARK  status: ('A' for Active; 'I' for Inactive)
ROOT
ATOM      1  C   UNL d   1       3.468  -1.844  -0.210  0.00  0.00     0.172 C 
ATOM      2  N   UNL d   1       2.250  -1.090  -0.024  0.00  0.00    -0.070 N 
ATOM      3  C1  UNL d   1       2.133   0.271  -0.112  0.00  0.00    -0.004 A 
ATOM      4  C2  UNL d   1       0.816   0.597   0.129  0.00  0.00    -0.047 A 
ATOM      5  C3  UNL d   1       0.118  -0.610   0.371  0.00  0.00    -0.047 A 
ATOM      6  C4  UNL d   1       1.030  -1.639   0.271  0.00  0.00    -0.004 A 
ENDROOT
TORSDOF 0
ENDMDL
