MODEL 1
REMARK minimizedAffinity -2.30361795
REMARK minimizedRMSD -1
REMARK  0 active torsions:
REMARK  status: ('A' for Active; 'I' for Inactive)
ROOT
ATOM      1  C   UNL d   1       3.953  -0.977  -1.436  0.00  0.00     0.172 C 
ATOM      2  N   UNL d   1       2.794  -0.510  -0.713  0.00  0.00    -0.070 N 
ATOM      3  C1  UNL d   1       1.829  -1.303  -0.153  0.00  0.00    -0.004 A 
ATOM      4  C2  UNL d   1       0.898  -0.479   0.443  0.00  0.00    -0.047 A 
ATOM      5  C3  UNL d   1       1.319   0.856   0.233  0.00  0.00    -0.047 A 
ATOM      6  C4  UNL d   1       2.495   0.808  -0.485  0.00  0.00    -0.004 A 
ENDROOT
TORSDOF 0
ENDMDL
