MODEL 1
REMARK minimizedAffinity -0.796295464
REMARK minimizedRMSD -1
REMARK  0 active torsions:
REMARK  status: ('A' for Active; 'I' for Inactive)
ROOT
ATOM      1  C   UNL d   1       3.796  -0.762  -1.482  0.00  0.00     0.172 C 
ATOM      2  N   UNL d   1       2.597  -0.547  -0.706  0.00  0.00    -0.070 N 
ATOM      3  C1  UNL d   1       1.747  -1.524  -0.262  0.00  0.00    -0.004 A 
ATOM      4  C2  UNL d   1       0.730  -0.913   0.439  0.00  0.00    -0.047 A 
ATOM      5  C3  UNL d   1       0.977   0.480   0.415  0.00  0.00    -0.047 A 
ATOM      6  C4  UNL d   1       2.139   0.679  -0.300  0.00  0.00    -0.004 A 
ENDROOT
TORSDOF 0
ENDMDL
