MODEL 1
REMARK minimizedAffinity -3.76313567
REMARK minimizedRMSD -1
REMARK  2 active torsions:
REMARK  status: ('A' for Active; 'I' for Inactive)
REMARK    1  A    between atoms: C2'_3  and  C1'_4 
REMARK    2  A    between atoms: C1'_4  and  C1_5 
ROOT
ATOM      1  C1  I4B d   1       1.035   1.124   1.550  0.00  0.00    -0.075 A 
ATOM      2  C2  I4B d   1       0.383   0.854   2.727  0.00  0.00     0.003 A 
ATOM      3  C3  I4B d   1      -0.470  -0.272   2.828  0.00  0.00     0.002 A 
ATOM      4  C4  I4B d   1      -0.680  -1.067   1.720  0.00  0.00    -0.004 A 
ATOM      5  C5  I4B d   1      -0.000  -0.805   0.534  0.00  0.00     0.002 A 
ATOM      6  C6  I4B d   1       0.872   0.290   0.452  0.00  0.00     0.003 A 
ENDROOT
BRANCH   1   7
ATOM      7  C1' I4B d   1       1.902   2.340   1.469  0.00  0.00     0.060 C 
BRANCH   7   8
ATOM      8  C2' I4B d   1       3.313   1.886   1.153  0.00  0.00    -0.013 C 
ATOM      9  C4' I4B d   1       4.151   3.028   0.642  0.00  0.00     0.013 C 
ATOM     10  C3' I4B d   1       3.901   1.300   2.402  0.00  0.00     0.013 C 
ENDBRANCH   7   8
ENDBRANCH   1   7
TORSDOF 2
ENDMDL
