MODEL 1
REMARK minimizedAffinity -4.30994081
REMARK minimizedRMSD -1
REMARK  2 active torsions:
REMARK  status: ('A' for Active; 'I' for Inactive)
REMARK    1  A    between atoms: C2'_3  and  C1'_4 
REMARK    2  A    between atoms: C1'_4  and  C1_5 
ROOT
ATOM      1  C1  I4B d   1       0.487   0.233   0.723  0.00  0.00    -0.075 A 
ATOM      2  C2  I4B d   1       1.040   0.955   1.751  0.00  0.00     0.003 A 
ATOM      3  C3  I4B d   1       0.531   0.827   3.067  0.00  0.00     0.002 A 
ATOM      4  C4  I4B d   1      -0.557   0.011   3.298  0.00  0.00    -0.004 A 
ATOM      5  C5  I4B d   1      -1.102  -0.737   2.258  0.00  0.00     0.002 A 
ATOM      6  C6  I4B d   1      -0.570  -0.635   0.965  0.00  0.00     0.003 A 
ENDROOT
BRANCH   1   7
ATOM      7  C1' I4B d   1       1.028   0.417  -0.659  0.00  0.00     0.060 C 
BRANCH   7   8
ATOM      8  C2' I4B d   1      -0.047  -0.002  -1.641  0.00  0.00    -0.013 C 
ATOM      9  C4' I4B d   1      -1.070   1.087  -1.827  0.00  0.00     0.013 C 
ATOM     10  C3' I4B d   1       0.620  -0.346  -2.939  0.00  0.00     0.013 C 
ENDBRANCH   7   8
ENDBRANCH   1   7
TORSDOF 2
ENDMDL
