MODEL 1
REMARK minimizedAffinity -6.04699278
REMARK minimizedRMSD -1
REMARK  2 active torsions:
REMARK  status: ('A' for Active; 'I' for Inactive)
REMARK    1  A    between atoms: C2'_3  and  C1'_4 
REMARK    2  A    between atoms: C1'_4  and  C1_5 
ROOT
ATOM      1  C1  I4B d   1      -0.066   0.152  -0.476  0.00  0.00    -0.075 A 
ATOM      2  C2  I4B d   1       1.117   0.393   0.176  0.00  0.00     0.003 A 
ATOM      3  C3  I4B d   1       1.188   0.289   1.586  0.00  0.00     0.002 A 
ATOM      4  C4  I4B d   1       0.047  -0.008   2.304  0.00  0.00    -0.004 A 
ATOM      5  C5  I4B d   1      -1.147  -0.274   1.639  0.00  0.00     0.002 A 
ATOM      6  C6  I4B d   1      -1.201  -0.206   0.240  0.00  0.00     0.003 A 
ENDROOT
BRANCH   1   7
ATOM      7  C1' I4B d   1      -0.113   0.303  -1.964  0.00  0.00     0.060 C 
BRANCH   7   8
ATOM      8  C2' I4B d   1       0.980  -0.563  -2.556  0.00  0.00    -0.013 C 
ATOM      9  C4' I4B d   1       0.429  -1.873  -3.053  0.00  0.00     0.013 C 
ATOM     10  C3' I4B d   1       1.630   0.207  -3.666  0.00  0.00     0.013 C 
ENDBRANCH   7   8
ENDBRANCH   1   7
TORSDOF 2
ENDMDL
