MODEL 1
REMARK minimizedAffinity -5.41375208
REMARK minimizedRMSD -1
REMARK  2 active torsions:
REMARK  status: ('A' for Active; 'I' for Inactive)
REMARK    1  A    between atoms: C2'_3  and  C1'_4 
REMARK    2  A    between atoms: C1'_4  and  C1_5 
ROOT
ATOM      1  C1  I4B d   1       0.014   0.162  -0.581  0.00  0.00    -0.075 A 
ATOM      2  C2  I4B d   1      -1.131  -0.258   0.050  0.00  0.00     0.003 A 
ATOM      3  C3  I4B d   1      -1.145  -0.439   1.454  0.00  0.00     0.002 A 
ATOM      4  C4  I4B d   1       0.013  -0.238   2.178  0.00  0.00    -0.004 A 
ATOM      5  C5  I4B d   1       1.166   0.210   1.539  0.00  0.00     0.002 A 
ATOM      6  C6  I4B d   1       1.163   0.423   0.153  0.00  0.00     0.003 A 
ENDROOT
BRANCH   1   7
ATOM      7  C1' I4B d   1       0.003   0.310  -2.069  0.00  0.00     0.060 C 
BRANCH   7   8
ATOM      8  C2' I4B d   1       0.943  -0.728  -2.648  0.00  0.00    -0.013 C 
ATOM      9  C4' I4B d   1       0.185  -1.790  -3.401  0.00  0.00     0.013 C 
ATOM     10  C3' I4B d   1       1.918  -0.022  -3.543  0.00  0.00     0.013 C 
ENDBRANCH   7   8
ENDBRANCH   1   7
TORSDOF 2
ENDMDL
