MODEL 1
REMARK minimizedAffinity -4.57585526
REMARK minimizedRMSD -1
REMARK  2 active torsions:
REMARK  status: ('A' for Active; 'I' for Inactive)
REMARK    1  A    between atoms: C2'_3  and  C1'_4 
REMARK    2  A    between atoms: C1'_4  and  C1_5 
ROOT
ATOM      1  C1  I4B d   1      -0.041   0.001  -0.092  0.00  0.00    -0.075 A 
ATOM      2  C2  I4B d   1       1.172   0.200   0.519  0.00  0.00     0.003 A 
ATOM      3  C3  I4B d   1       1.308   0.006   1.915  0.00  0.00     0.002 A 
ATOM      4  C4  I4B d   1       0.201  -0.336   2.664  0.00  0.00    -0.004 A 
ATOM      5  C5  I4B d   1      -1.023  -0.560   2.040  0.00  0.00     0.002 A 
ATOM      6  C6  I4B d   1      -1.142  -0.403   0.651  0.00  0.00     0.003 A 
ENDROOT
BRANCH   1   7
ATOM      7  C1' I4B d   1      -0.156   0.246  -1.563  0.00  0.00     0.060 C 
BRANCH   7   8
ATOM      8  C2' I4B d   1       1.067  -0.346  -2.233  0.00  0.00    -0.013 C 
ATOM      9  C4' I4B d   1       0.733  -1.634  -2.938  0.00  0.00     0.013 C 
ATOM     10  C3' I4B d   1       1.609   0.672  -3.192  0.00  0.00     0.013 C 
ENDBRANCH   7   8
ENDBRANCH   1   7
TORSDOF 2
ENDMDL
