MODEL 1
REMARK minimizedAffinity -0.128932595
REMARK minimizedRMSD -1
REMARK  2 active torsions:
REMARK  status: ('A' for Active; 'I' for Inactive)
REMARK    1  A    between atoms: C2'_3  and  C1'_4 
REMARK    2  A    between atoms: C1'_4  and  C1_5 
ROOT
ATOM      1  C1  I4B d   1       0.066  -0.008   1.461  0.00  0.00    -0.075 A 
ATOM      2  C2  I4B d   1       1.275   0.148   0.830  0.00  0.00     0.003 A 
ATOM      3  C3  I4B d   1       1.341   0.187  -0.584  0.00  0.00     0.002 A 
ATOM      4  C4  I4B d   1       0.188   0.016  -1.323  0.00  0.00    -0.004 A 
ATOM      5  C5  I4B d   1      -1.040  -0.120  -0.681  0.00  0.00     0.002 A 
ATOM      6  C6  I4B d   1      -1.103  -0.119   0.720  0.00  0.00     0.003 A 
ENDROOT
BRANCH   1   7
ATOM      7  C1' I4B d   1       0.037  -0.077   2.955  0.00  0.00     0.060 C 
BRANCH   7   8
ATOM      8  C2' I4B d   1      -1.297   0.467   3.422  0.00  0.00    -0.013 C 
ATOM      9  C4' I4B d   1      -1.908  -0.418   4.477  0.00  0.00     0.013 C 
ATOM     10  C3' I4B d   1      -1.075   1.855   3.943  0.00  0.00     0.013 C 
ENDBRANCH   7   8
ENDBRANCH   1   7
TORSDOF 2
ENDMDL
