MODEL 1
REMARK minimizedAffinity -4.52261829
REMARK minimizedRMSD -1
REMARK  2 active torsions:
REMARK  status: ('A' for Active; 'I' for Inactive)
REMARK    1  A    between atoms: C2'_3  and  C1'_4 
REMARK    2  A    between atoms: C1'_4  and  C1_5 
ROOT
ATOM      1  C1  I4B d   1       0.103   0.096   0.043  0.00  0.00    -0.075 A 
ATOM      2  C2  I4B d   1       1.287   0.142   0.736  0.00  0.00     0.003 A 
ATOM      3  C3  I4B d   1       1.306  -0.106   2.130  0.00  0.00     0.002 A 
ATOM      4  C4  I4B d   1       0.121  -0.343   2.795  0.00  0.00    -0.004 A 
ATOM      5  C5  I4B d   1      -1.076  -0.412   2.087  0.00  0.00     0.002 A 
ATOM      6  C6  I4B d   1      -1.083  -0.203   0.700  0.00  0.00     0.003 A 
ENDROOT
BRANCH   1   7
ATOM      7  C1' I4B d   1       0.114   0.395  -1.423  0.00  0.00     0.060 C 
BRANCH   7   8
ATOM      8  C2' I4B d   1       0.928  -0.681  -2.112  0.00  0.00    -0.013 C 
ATOM      9  C4' I4B d   1       0.037  -1.687  -2.792  0.00  0.00     0.013 C 
ATOM     10  C3' I4B d   1       1.839  -0.012  -3.098  0.00  0.00     0.013 C 
ENDBRANCH   7   8
ENDBRANCH   1   7
TORSDOF 2
ENDMDL
