MODEL 1
REMARK minimizedAffinity -4.8566699
REMARK minimizedRMSD -1
REMARK  2 active torsions:
REMARK  status: ('A' for Active; 'I' for Inactive)
REMARK    1  A    between atoms: C2'_3  and  C1'_4 
REMARK    2  A    between atoms: C1'_4  and  C1_5 
ROOT
ATOM      1  C1  I4B d   1       0.455   0.006  -0.138  0.00  0.00    -0.075 A 
ATOM      2  C2  I4B d   1      -0.651  -0.202   0.647  0.00  0.00     0.003 A 
ATOM      3  C3  I4B d   1      -0.515  -0.336   2.050  0.00  0.00     0.002 A 
ATOM      4  C4  I4B d   1       0.743  -0.305   2.616  0.00  0.00    -0.004 A 
ATOM      5  C5  I4B d   1       1.861  -0.071   1.821  0.00  0.00     0.002 A 
ATOM      6  C6  I4B d   1       1.716   0.098   0.437  0.00  0.00     0.003 A 
ENDROOT
BRANCH   1   7
ATOM      7  C1' I4B d   1       0.279   0.110  -1.620  0.00  0.00     0.060 C 
BRANCH   7   8
ATOM      8  C2' I4B d   1       1.043  -1.030  -2.262  0.00  0.00    -0.013 C 
ATOM      9  C4' I4B d   1       0.108  -2.091  -2.779  0.00  0.00     0.013 C 
ATOM     10  C3' I4B d   1       1.880  -0.461  -3.369  0.00  0.00     0.013 C 
ENDBRANCH   7   8
ENDBRANCH   1   7
TORSDOF 2
ENDMDL
