MODEL 1
REMARK minimizedAffinity -3.46903658
REMARK minimizedRMSD -1
REMARK  2 active torsions:
REMARK  status: ('A' for Active; 'I' for Inactive)
REMARK    1  A    between atoms: C2'_3  and  C1'_4 
REMARK    2  A    between atoms: C1'_4  and  C1_5 
ROOT
ATOM      1  C1  I4B d   1       0.264   0.295  -0.685  0.00  0.00    -0.075 A 
ATOM      2  C2  I4B d   1      -0.767  -0.120   0.120  0.00  0.00     0.003 A 
ATOM      3  C3  I4B d   1      -0.592  -0.190   1.523  0.00  0.00     0.002 A 
ATOM      4  C4  I4B d   1       0.637   0.113   2.071  0.00  0.00    -0.004 A 
ATOM      5  C5  I4B d   1       1.675   0.555   1.256  0.00  0.00     0.002 A 
ATOM      6  C6  I4B d   1       1.484   0.659  -0.130  0.00  0.00     0.003 A 
ENDROOT
BRANCH   1   7
ATOM      7  C1' I4B d   1       0.055   0.326  -2.166  0.00  0.00     0.060 C 
BRANCH   7   8
ATOM      8  C2' I4B d   1       0.911  -0.763  -2.781  0.00  0.00    -0.013 C 
ATOM      9  C4' I4B d   1       0.062  -1.876  -3.334  0.00  0.00     0.013 C 
ATOM     10  C3' I4B d   1       1.753  -0.139  -3.854  0.00  0.00     0.013 C 
ENDBRANCH   7   8
ENDBRANCH   1   7
TORSDOF 2
ENDMDL
