MODEL 1
REMARK minimizedAffinity -5.68995905
REMARK minimizedRMSD -1
REMARK  2 active torsions:
REMARK  status: ('A' for Active; 'I' for Inactive)
REMARK    1  A    between atoms: C2'_3  and  C1'_4 
REMARK    2  A    between atoms: C1'_4  and  C1_5 
ROOT
ATOM      1  C1  I4B d   1       0.219  -0.191  -0.083  0.00  0.00    -0.075 A 
ATOM      2  C2  I4B d   1       1.233   0.179   0.765  0.00  0.00     0.003 A 
ATOM      3  C3  I4B d   1       1.147  -0.110   2.149  0.00  0.00     0.002 A 
ATOM      4  C4  I4B d   1       0.013  -0.720   2.646  0.00  0.00    -0.004 A 
ATOM      5  C5  I4B d   1      -1.004  -1.115   1.782  0.00  0.00     0.002 A 
ATOM      6  C6  I4B d   1      -0.896  -0.860   0.407  0.00  0.00     0.003 A 
ENDROOT
BRANCH   1   7
ATOM      7  C1' I4B d   1       0.328   0.159  -1.533  0.00  0.00     0.060 C 
BRANCH   7   8
ATOM      8  C2' I4B d   1       1.208  -0.879  -2.198  0.00  0.00    -0.013 C 
ATOM      9  C4' I4B d   1       0.398  -1.809  -3.062  0.00  0.00     0.013 C 
ATOM     10  C3' I4B d   1       2.246  -0.157  -3.006  0.00  0.00     0.013 C 
ENDBRANCH   7   8
ENDBRANCH   1   7
TORSDOF 2
ENDMDL
