MODEL 1
REMARK minimizedAffinity 6.43217468
REMARK minimizedRMSD -1
REMARK  0 active torsions:
REMARK  status: ('A' for Active; 'I' for Inactive)
ROOT
ATOM      1  C   UNL d   1      -2.181   0.161   1.585  0.00  0.00     0.124 A 
ATOM      2  C1  UNL d   1      -1.025  -0.097   2.308  0.00  0.00     0.062 A 
ATOM      3  C2  UNL d   1       0.212  -0.114   1.670  0.00  0.00     0.162 A 
ATOM      4  C3  UNL d   1       0.299   0.129   0.299  0.00  0.00    -0.034 A 
ATOM      5  C4  UNL d   1      -0.868   0.387  -0.422  0.00  0.00     0.162 A 
ATOM      6  C5  UNL d   1      -2.101   0.403   0.221  0.00  0.00     0.062 A 
ATOM      7  F   UNL d   1      -3.217   0.653  -0.480  0.00  0.00    -0.097 F 
ATOM      8  F1  UNL d   1      -0.820   0.625  -1.741  0.00  0.00    -0.096 F 
ATOM      9  I   UNL d   1       2.146   0.105  -0.659  0.00  0.00    -0.060 I 
ATOM     10  F2  UNL d   1       1.312  -0.366   2.394  0.00  0.00    -0.096 F 
ATOM     11  F3  UNL d   1      -1.099  -0.332   3.626  0.00  0.00    -0.097 F 
ATOM     12  F4  UNL d   1      -3.370   0.176   2.201  0.00  0.00    -0.092 F 
ENDROOT
TORSDOF 0
ENDMDL
