MODEL 1
REMARK minimizedAffinity 19.2822857
REMARK minimizedRMSD -1
REMARK  0 active torsions:
REMARK  status: ('A' for Active; 'I' for Inactive)
ROOT
ATOM      1  C   UNL d   1      -2.616  -0.655   3.329  0.00  0.00     0.124 A 
ATOM      2  C1  UNL d   1      -1.398  -1.071   3.848  0.00  0.00     0.062 A 
ATOM      3  C2  UNL d   1      -0.209  -0.710   3.220  0.00  0.00     0.162 A 
ATOM      4  C3  UNL d   1      -0.233   0.073   2.066  0.00  0.00    -0.034 A 
ATOM      5  C4  UNL d   1      -1.462   0.488   1.550  0.00  0.00     0.162 A 
ATOM      6  C5  UNL d   1      -2.647   0.124   2.181  0.00  0.00     0.062 A 
ATOM      7  F   UNL d   1      -3.823   0.527   1.678  0.00  0.00    -0.097 F 
ATOM      8  F1  UNL d   1      -1.520   1.242   0.442  0.00  0.00    -0.096 F 
ATOM      9  I   UNL d   1       1.542   0.616   1.124  0.00  0.00    -0.060 I 
ATOM     10  F2  UNL d   1       0.953  -1.127   3.743  0.00  0.00    -0.096 F 
ATOM     11  F3  UNL d   1      -1.365  -1.825   4.956  0.00  0.00    -0.097 F 
ATOM     12  F4  UNL d   1      -3.758  -1.005   3.934  0.00  0.00    -0.092 F 
ENDROOT
TORSDOF 0
ENDMDL
