MODEL 1
REMARK minimizedAffinity 12.2038145
REMARK minimizedRMSD -1
REMARK  0 active torsions:
REMARK  status: ('A' for Active; 'I' for Inactive)
ROOT
ATOM      1  C   UNL d   1      -0.619  -0.903  -0.838  0.00  0.00     0.124 A 
ATOM      2  C1  UNL d   1       0.457  -0.849   0.037  0.00  0.00     0.062 A 
ATOM      3  C2  UNL d   1       0.240  -0.774   1.410  0.00  0.00     0.162 A 
ATOM      4  C3  UNL d   1      -1.060  -0.754   1.917  0.00  0.00    -0.034 A 
ATOM      5  C4  UNL d   1      -2.137  -0.808   1.030  0.00  0.00     0.162 A 
ATOM      6  C5  UNL d   1      -1.914  -0.882  -0.341  0.00  0.00     0.062 A 
ATOM      7  F   UNL d   1      -2.955  -0.934  -1.185  0.00  0.00    -0.097 F 
ATOM      8  F1  UNL d   1      -3.399  -0.790   1.483  0.00  0.00    -0.096 F 
ATOM      9  I   UNL d   1      -1.389  -0.643   3.969  0.00  0.00    -0.060 I 
ATOM     10  F2  UNL d   1       1.298  -0.724   2.233  0.00  0.00    -0.096 F 
ATOM     11  F3  UNL d   1       1.710  -0.868  -0.440  0.00  0.00    -0.097 F 
ATOM     12  F4  UNL d   1      -0.407  -0.974  -2.158  0.00  0.00    -0.092 F 
ENDROOT
TORSDOF 0
ENDMDL
