MODEL 1
REMARK minimizedAffinity 9.4652853
REMARK minimizedRMSD -1
REMARK  0 active torsions:
REMARK  status: ('A' for Active; 'I' for Inactive)
ROOT
ATOM      1  C   UNL d   1       0.186  -0.288   1.594  0.00  0.00     0.124 A 
ATOM      2  C1  UNL d   1       0.293  -0.488   0.225  0.00  0.00     0.062 A 
ATOM      3  C2  UNL d   1      -0.853  -0.593  -0.559  0.00  0.00     0.162 A 
ATOM      4  C3  UNL d   1      -2.116  -0.497   0.025  0.00  0.00    -0.034 A 
ATOM      5  C4  UNL d   1      -2.216  -0.296   1.403  0.00  0.00     0.162 A 
ATOM      6  C5  UNL d   1      -1.068  -0.192   2.182  0.00  0.00     0.062 A 
ATOM      7  F   UNL d   1      -1.173   0.002   3.504  0.00  0.00    -0.097 F 
ATOM      8  F1  UNL d   1      -3.414  -0.199   1.996  0.00  0.00    -0.096 F 
ATOM      9  I   UNL d   1      -3.831  -0.653  -1.143  0.00  0.00    -0.060 I 
ATOM     10  F2  UNL d   1      -0.720  -0.786  -1.879  0.00  0.00    -0.096 F 
ATOM     11  F3  UNL d   1       1.503  -0.582  -0.345  0.00  0.00    -0.097 F 
ATOM     12  F4  UNL d   1       1.290  -0.188   2.346  0.00  0.00    -0.092 F 
ENDROOT
TORSDOF 0
ENDMDL
