MODEL 1
REMARK minimizedAffinity 14.2400665
REMARK minimizedRMSD -1
REMARK  0 active torsions:
REMARK  status: ('A' for Active; 'I' for Inactive)
ROOT
ATOM      1  C   UNL d   1      -1.855  -0.059   1.789  0.00  0.00     0.124 A 
ATOM      2  C1  UNL d   1      -0.653  -0.207   2.467  0.00  0.00     0.062 A 
ATOM      3  C2  UNL d   1       0.546  -0.270   1.763  0.00  0.00     0.162 A 
ATOM      4  C3  UNL d   1       0.549  -0.183   0.371  0.00  0.00    -0.034 A 
ATOM      5  C4  UNL d   1      -0.664  -0.035  -0.305  0.00  0.00     0.162 A 
ATOM      6  C5  UNL d   1      -1.859   0.027   0.404  0.00  0.00     0.062 A 
ATOM      7  F   UNL d   1      -3.019   0.170  -0.253  0.00  0.00    -0.097 F 
ATOM      8  F1  UNL d   1      -0.697   0.052  -1.643  0.00  0.00    -0.096 F 
ATOM      9  I   UNL d   1       2.339  -0.276  -0.687  0.00  0.00    -0.060 I 
ATOM     10  F2  UNL d   1       1.692  -0.413   2.444  0.00  0.00    -0.096 F 
ATOM     11  F3  UNL d   1      -0.646  -0.291   3.806  0.00  0.00    -0.097 F 
ATOM     12  F4  UNL d   1      -3.006  -0.000   2.470  0.00  0.00    -0.092 F 
ENDROOT
TORSDOF 0
ENDMDL
