MODEL 1
REMARK minimizedAffinity 7.30879021
REMARK minimizedRMSD -1
REMARK  0 active torsions:
REMARK  status: ('A' for Active; 'I' for Inactive)
ROOT
ATOM      1  C   UNL d   1      -0.451  -0.506   4.055  0.00  0.00     0.124 A 
ATOM      2  C1  UNL d   1       0.479  -0.392   3.031  0.00  0.00     0.062 A 
ATOM      3  C2  UNL d   1       0.079   0.027   1.766  0.00  0.00     0.162 A 
ATOM      4  C3  UNL d   1      -1.258   0.336   1.517  0.00  0.00    -0.034 A 
ATOM      5  C4  UNL d   1      -2.188   0.218   2.551  0.00  0.00     0.162 A 
ATOM      6  C5  UNL d   1      -1.783  -0.201   3.815  0.00  0.00     0.062 A 
ATOM      7  F   UNL d   1      -2.683  -0.311   4.803  0.00  0.00    -0.097 F 
ATOM      8  F1  UNL d   1      -3.481   0.507   2.347  0.00  0.00    -0.096 F 
ATOM      9  I   UNL d   1      -1.860   0.962  -0.374  0.00  0.00    -0.060 I 
ATOM     10  F2  UNL d   1       1.000   0.128   0.795  0.00  0.00    -0.096 F 
ATOM     11  F3  UNL d   1       1.767  -0.687   3.261  0.00  0.00    -0.097 F 
ATOM     12  F4  UNL d   1      -0.063  -0.910   5.272  0.00  0.00    -0.092 F 
ENDROOT
TORSDOF 0
ENDMDL
