MODEL 1
REMARK minimizedAffinity 0.180830389
REMARK minimizedRMSD -1
REMARK  1 active torsions:
REMARK  status: ('A' for Active; 'I' for Inactive)
REMARK    1  A    between atoms: C1_2  and  C2_3 
ROOT
ATOM      1  C2  UNL d   1      -5.942   4.514   2.811  0.00  0.00    -0.073 A 
ATOM      2  C3  UNL d   1      -5.999   5.805   3.347  0.00  0.00    -0.002 A 
ATOM      3  C4  UNL d   1      -5.949   5.997   4.728  0.00  0.00     0.004 A 
ATOM      4  C5  UNL d   1      -5.835   4.903   5.586  0.00  0.00    -0.004 A 
ATOM      5  C6  UNL d   1      -5.766   3.606   5.069  0.00  0.00    -0.075 A 
ATOM      6  C7  UNL d   1      -5.646   2.418   5.978  0.00  0.00     0.076 C 
ATOM      7  C8  UNL d   1      -5.819   3.420   3.680  0.00  0.00     0.001 A 
ENDROOT
BRANCH   1   8
ATOM      8  C1  UNL d   1      -5.989   4.301   1.320  0.00  0.00     0.053 C 
ATOM      9  C   UNL d   1      -5.244   5.391   0.565  0.00  0.00     0.018 C 
ENDBRANCH   1   8
TORSDOF 1
ENDMDL
