MODEL 1
REMARK minimizedAffinity 0.096757181
REMARK minimizedRMSD -1
REMARK  1 active torsions:
REMARK  status: ('A' for Active; 'I' for Inactive)
REMARK    1  A    between atoms: C1_2  and  C2_3 
ROOT
ATOM      1  C2  UNL d   1      -4.977   4.125   4.385  0.00  0.00    -0.073 A 
ATOM      2  C3  UNL d   1      -5.551   5.399   4.303  0.00  0.00    -0.002 A 
ATOM      3  C4  UNL d   1      -6.000   5.892   3.077  0.00  0.00     0.004 A 
ATOM      4  C5  UNL d   1      -5.886   5.116   1.924  0.00  0.00    -0.004 A 
ATOM      5  C6  UNL d   1      -5.326   3.836   1.988  0.00  0.00    -0.075 A 
ATOM      6  C7  UNL d   1      -5.195   2.990   0.756  0.00  0.00     0.076 C 
ATOM      7  C8  UNL d   1      -4.875   3.349   3.222  0.00  0.00     0.001 A 
ENDROOT
BRANCH   1   8
ATOM      8  C1  UNL d   1      -4.497   3.586   5.708  0.00  0.00     0.053 C 
ATOM      9  C   UNL d   1      -3.080   3.039   5.620  0.00  0.00     0.018 C 
ENDBRANCH   1   8
TORSDOF 1
ENDMDL
