MODEL 1
REMARK minimizedAffinity -3.24718761
REMARK minimizedRMSD -1
REMARK  1 active torsions:
REMARK  status: ('A' for Active; 'I' for Inactive)
REMARK    1  A    between atoms: C1_2  and  C2_3 
ROOT
ATOM      1  C2  UNL d   1      -5.289   4.861   2.784  0.00  0.00    -0.073 A 
ATOM      2  C3  UNL d   1      -5.955   5.920   3.412  0.00  0.00    -0.002 A 
ATOM      3  C4  UNL d   1      -6.000   5.998   4.805  0.00  0.00     0.004 A 
ATOM      4  C5  UNL d   1      -5.374   5.024   5.583  0.00  0.00    -0.004 A 
ATOM      5  C6  UNL d   1      -4.693   3.965   4.974  0.00  0.00    -0.075 A 
ATOM      6  C7  UNL d   1      -4.017   2.908   5.796  0.00  0.00     0.076 C 
ATOM      7  C8  UNL d   1      -4.655   3.892   3.575  0.00  0.00     0.001 A 
ENDROOT
BRANCH   1   8
ATOM      8  C1  UNL d   1      -5.233   4.777   1.281  0.00  0.00     0.053 C 
ATOM      9  C   UNL d   1      -5.846   6.000   0.618  0.00  0.00     0.018 C 
ENDBRANCH   1   8
TORSDOF 1
ENDMDL
