MODEL 1
REMARK minimizedAffinity -2.11919641
REMARK minimizedRMSD -1
REMARK  1 active torsions:
REMARK  status: ('A' for Active; 'I' for Inactive)
REMARK    1  A    between atoms: C1_2  and  C2_3 
ROOT
ATOM      1  C2  UNL d   1      -5.878   4.472   2.636  0.00  0.00    -0.073 A 
ATOM      2  C3  UNL d   1      -5.983   5.769   3.153  0.00  0.00    -0.002 A 
ATOM      3  C4  UNL d   1      -5.864   5.991   4.526  0.00  0.00     0.004 A 
ATOM      4  C5  UNL d   1      -5.633   4.923   5.393  0.00  0.00    -0.004 A 
ATOM      5  C6  UNL d   1      -5.514   3.622   4.894  0.00  0.00    -0.075 A 
ATOM      6  C7  UNL d   1      -5.269   2.463   5.813  0.00  0.00     0.076 C 
ATOM      7  C8  UNL d   1      -5.637   3.407   3.514  0.00  0.00     0.001 A 
ENDROOT
BRANCH   1   8
ATOM      8  C1  UNL d   1      -5.999   4.228   1.154  0.00  0.00     0.053 C 
ATOM      9  C   UNL d   1      -4.879   4.895   0.373  0.00  0.00     0.018 C 
ENDBRANCH   1   8
TORSDOF 1
ENDMDL
