MODEL 1
REMARK minimizedAffinity -2.48437166
REMARK minimizedRMSD -1
REMARK  1 active torsions:
REMARK  status: ('A' for Active; 'I' for Inactive)
REMARK    1  A    between atoms: C1_2  and  C2_3 
ROOT
ATOM      1  C2  UNL d   1      -5.514   5.090   2.241  0.00  0.00    -0.073 A 
ATOM      2  C3  UNL d   1      -4.662   4.014   1.967  0.00  0.00    -0.002 A 
ATOM      3  C4  UNL d   1      -4.239   3.171   2.996  0.00  0.00     0.004 A 
ATOM      4  C5  UNL d   1      -4.667   3.391   4.305  0.00  0.00    -0.004 A 
ATOM      5  C6  UNL d   1      -5.528   4.453   4.596  0.00  0.00    -0.075 A 
ATOM      6  C7  UNL d   1      -5.997   4.704   5.999  0.00  0.00     0.076 C 
ATOM      7  C8  UNL d   1      -5.947   5.297   3.559  0.00  0.00     0.001 A 
ENDROOT
BRANCH   1   8
ATOM      8  C1  UNL d   1      -5.979   5.999   1.133  0.00  0.00     0.053 C 
ATOM      9  C   UNL d   1      -5.945   5.311  -0.222  0.00  0.00     0.018 C 
ENDBRANCH   1   8
TORSDOF 1
ENDMDL
