MODEL 1
REMARK minimizedAffinity -2.31648111
REMARK minimizedRMSD -1
REMARK  1 active torsions:
REMARK  status: ('A' for Active; 'I' for Inactive)
REMARK    1  A    between atoms: C1_2  and  C2_3 
ROOT
ATOM      1  C2  UNL d   1      -5.909   4.753   3.042  0.00  0.00    -0.073 A 
ATOM      2  C3  UNL d   1      -5.999   5.971   3.726  0.00  0.00    -0.002 A 
ATOM      3  C4  UNL d   1      -5.983   6.000   5.121  0.00  0.00     0.004 A 
ATOM      4  C5  UNL d   1      -5.869   4.814   5.846  0.00  0.00    -0.004 A 
ATOM      5  C6  UNL d   1      -5.766   3.588   5.181  0.00  0.00    -0.075 A 
ATOM      6  C7  UNL d   1      -5.645   2.302   5.946  0.00  0.00     0.076 C 
ATOM      7  C8  UNL d   1      -5.786   3.567   3.780  0.00  0.00     0.001 A 
ENDROOT
BRANCH   1   8
ATOM      8  C1  UNL d   1      -5.919   4.718   1.536  0.00  0.00     0.053 C 
ATOM      9  C   UNL d   1      -5.064   5.822   0.934  0.00  0.00     0.018 C 
ENDBRANCH   1   8
TORSDOF 1
ENDMDL
