MODEL 1
REMARK minimizedAffinity 9.39960194
REMARK minimizedRMSD -1
REMARK  1 active torsions:
REMARK  status: ('A' for Active; 'I' for Inactive)
REMARK    1  A    between atoms: C1_2  and  C2_3 
ROOT
ATOM      1  C2  UNL d   1       2.904   2.919   0.482  0.00  0.00    -0.073 A 
ATOM      2  C3  UNL d   1       3.763   3.868  -0.083  0.00  0.00    -0.002 A 
ATOM      3  C4  UNL d   1       4.343   3.639  -1.332  0.00  0.00     0.004 A 
ATOM      4  C5  UNL d   1       4.066   2.464  -2.030  0.00  0.00    -0.004 A 
ATOM      5  C6  UNL d   1       3.201   1.508  -1.487  0.00  0.00    -0.075 A 
ATOM      6  C7  UNL d   1       2.895   0.238  -2.224  0.00  0.00     0.076 C 
ATOM      7  C8  UNL d   1       2.624   1.744  -0.231  0.00  0.00     0.001 A 
ENDROOT
BRANCH   1   8
ATOM      8  C1  UNL d   1       2.270   3.165   1.827  0.00  0.00     0.053 C 
ATOM      9  C   UNL d   1       3.245   2.925   2.969  0.00  0.00     0.018 C 
ENDBRANCH   1   8
TORSDOF 1
ENDMDL
