MODEL 1
REMARK minimizedAffinity 0.60388279
REMARK minimizedRMSD -1
REMARK  1 active torsions:
REMARK  status: ('A' for Active; 'I' for Inactive)
REMARK    1  A    between atoms: C1_2  and  C2_3 
ROOT
ATOM      1  C2  UNL d   1      -5.249   5.281   2.418  0.00  0.00    -0.073 A 
ATOM      2  C3  UNL d   1      -4.485   5.999   3.345  0.00  0.00    -0.002 A 
ATOM      3  C4  UNL d   1      -3.936   5.355   4.455  0.00  0.00     0.004 A 
ATOM      4  C5  UNL d   1      -4.138   3.988   4.645  0.00  0.00    -0.004 A 
ATOM      5  C6  UNL d   1      -4.888   3.251   3.723  0.00  0.00    -0.075 A 
ATOM      6  C7  UNL d   1      -5.117   1.781   3.915  0.00  0.00     0.076 C 
ATOM      7  C8  UNL d   1      -5.439   3.905   2.613  0.00  0.00     0.001 A 
ENDROOT
BRANCH   1   8
ATOM      8  C1  UNL d   1      -5.839   5.970   1.215  0.00  0.00     0.053 C 
ATOM      9  C   UNL d   1      -4.875   5.990   0.040  0.00  0.00     0.018 C 
ENDBRANCH   1   8
TORSDOF 1
ENDMDL
