MODEL 1
REMARK minimizedAffinity -1.91541517
REMARK minimizedRMSD -1
REMARK  1 active torsions:
REMARK  status: ('A' for Active; 'I' for Inactive)
REMARK    1  A    between atoms: C1_2  and  C2_3 
ROOT
ATOM      1  C2  UNL d   1      -5.886   5.262   3.176  0.00  0.00    -0.073 A 
ATOM      2  C3  UNL d   1      -5.927   5.974   4.381  0.00  0.00    -0.002 A 
ATOM      3  C4  UNL d   1      -5.986   5.296   5.599  0.00  0.00     0.004 A 
ATOM      4  C5  UNL d   1      -5.998   3.901   5.626  0.00  0.00    -0.004 A 
ATOM      5  C6  UNL d   1      -5.945   3.172   4.433  0.00  0.00    -0.075 A 
ATOM      6  C7  UNL d   1      -5.959   1.672   4.445  0.00  0.00     0.076 C 
ATOM      7  C8  UNL d   1      -5.889   3.861   3.214  0.00  0.00     0.001 A 
ENDROOT
BRANCH   1   8
ATOM      8  C1  UNL d   1      -5.815   5.991   1.859  0.00  0.00     0.053 C 
ATOM      9  C   UNL d   1      -4.408   5.994   1.284  0.00  0.00     0.018 C 
ENDBRANCH   1   8
TORSDOF 1
ENDMDL
