MODEL 1
REMARK minimizedAffinity -2.322263
REMARK minimizedRMSD -1
REMARK  1 active torsions:
REMARK  status: ('A' for Active; 'I' for Inactive)
REMARK    1  A    between atoms: C1_2  and  C2_3 
ROOT
ATOM      1  C2  UNL d   1      -5.962   4.755   3.086  0.00  0.00    -0.073 A 
ATOM      2  C3  UNL d   1      -5.969   5.975   3.772  0.00  0.00    -0.002 A 
ATOM      3  C4  UNL d   1      -5.991   6.000   5.167  0.00  0.00     0.004 A 
ATOM      4  C5  UNL d   1      -5.999   4.807   5.890  0.00  0.00    -0.004 A 
ATOM      5  C6  UNL d   1      -5.980   3.578   5.223  0.00  0.00    -0.075 A 
ATOM      6  C7  UNL d   1      -5.991   2.286   5.987  0.00  0.00     0.076 C 
ATOM      7  C8  UNL d   1      -5.961   3.562   3.822  0.00  0.00     0.001 A 
ENDROOT
BRANCH   1   8
ATOM      8  C1  UNL d   1      -5.931   4.724   1.580  0.00  0.00     0.053 C 
ATOM      9  C   UNL d   1      -5.238   5.945   0.998  0.00  0.00     0.018 C 
ENDBRANCH   1   8
TORSDOF 1
ENDMDL
