MODEL 1
REMARK minimizedAffinity -3.51840043
REMARK minimizedRMSD -1
REMARK  1 active torsions:
REMARK  status: ('A' for Active; 'I' for Inactive)
REMARK    1  A    between atoms: C1_2  and  C2_3 
ROOT
ATOM      1  C2  UNL d   1      -5.721   4.460   2.480  0.00  0.00    -0.073 A 
ATOM      2  C3  UNL d   1      -5.224   3.188   2.788  0.00  0.00    -0.002 A 
ATOM      3  C4  UNL d   1      -4.973   2.831   4.114  0.00  0.00     0.004 A 
ATOM      4  C5  UNL d   1      -5.221   3.738   5.144  0.00  0.00    -0.004 A 
ATOM      5  C6  UNL d   1      -5.729   5.009   4.858  0.00  0.00    -0.075 A 
ATOM      6  C7  UNL d   1      -5.999   5.997   5.954  0.00  0.00     0.076 C 
ATOM      7  C8  UNL d   1      -5.976   5.361   3.524  0.00  0.00     0.001 A 
ENDROOT
BRANCH   1   8
ATOM      8  C1  UNL d   1      -6.000   4.848   1.051  0.00  0.00     0.053 C 
ATOM      9  C   UNL d   1      -5.115   5.995   0.589  0.00  0.00     0.018 C 
ENDBRANCH   1   8
TORSDOF 1
ENDMDL
