MODEL 1
REMARK minimizedAffinity -3.66745734
REMARK minimizedRMSD -1
REMARK  1 active torsions:
REMARK  status: ('A' for Active; 'I' for Inactive)
REMARK    1  A    between atoms: C1_2  and  C2_3 
ROOT
ATOM      1  C2  UNL d   1      -5.545   4.913   2.882  0.00  0.00    -0.073 A 
ATOM      2  C3  UNL d   1      -4.775   5.975   3.369  0.00  0.00    -0.002 A 
ATOM      3  C4  UNL d   1      -4.362   5.994   4.701  0.00  0.00     0.004 A 
ATOM      4  C5  UNL d   1      -4.707   4.949   5.558  0.00  0.00    -0.004 A 
ATOM      5  C6  UNL d   1      -5.466   3.873   5.088  0.00  0.00    -0.075 A 
ATOM      6  C7  UNL d   1      -5.848   2.742   5.998  0.00  0.00     0.076 C 
ATOM      7  C8  UNL d   1      -5.880   3.862   3.749  0.00  0.00     0.001 A 
ENDROOT
BRANCH   1   8
ATOM      8  C1  UNL d   1      -5.989   4.885   1.443  0.00  0.00     0.053 C 
ATOM      9  C   UNL d   1      -5.318   5.972   0.618  0.00  0.00     0.018 C 
ENDBRANCH   1   8
TORSDOF 1
ENDMDL
