MODEL 1
REMARK minimizedAffinity -2.35288906
REMARK minimizedRMSD -1
REMARK  1 active torsions:
REMARK  status: ('A' for Active; 'I' for Inactive)
REMARK    1  A    between atoms: C1_2  and  C2_3 
ROOT
ATOM      1  C2  UNL d   1      -5.274   4.790   2.615  0.00  0.00    -0.073 A 
ATOM      2  C3  UNL d   1      -5.764   5.948   3.230  0.00  0.00    -0.002 A 
ATOM      3  C4  UNL d   1      -6.000   5.970   4.606  0.00  0.00     0.004 A 
ATOM      4  C5  UNL d   1      -5.742   4.839   5.380  0.00  0.00    -0.004 A 
ATOM      5  C6  UNL d   1      -5.241   3.676   4.786  0.00  0.00    -0.075 A 
ATOM      6  C7  UNL d   1      -4.960   2.450   5.604  0.00  0.00     0.076 C 
ATOM      7  C8  UNL d   1      -5.009   3.661   3.404  0.00  0.00     0.001 A 
ENDROOT
BRANCH   1   8
ATOM      8  C1  UNL d   1      -5.012   4.764   1.132  0.00  0.00     0.053 C 
ATOM      9  C   UNL d   1      -5.928   5.712   0.374  0.00  0.00     0.018 C 
ENDBRANCH   1   8
TORSDOF 1
ENDMDL
