MODEL 1
REMARK minimizedAffinity 0.0311306529
REMARK minimizedRMSD -1
REMARK  0 active torsions:
REMARK  status: ('A' for Active; 'I' for Inactive)
ROOT
ATOM      1  C1  DEN d   1      -3.402   5.973  -2.025  0.00  0.00     0.130 A 
ATOM      2  C2  DEN d   1      -4.855   5.977  -2.173  0.00  0.00    -0.031 A 
ATOM      3  C3  DEN d   1      -5.166   5.970  -3.617  0.00  0.00     0.027 A 
ATOM      4  C4  DEN d   1      -3.549   5.950  -5.626  0.00  0.00     0.027 A 
ATOM      5  C5  DEN d   1      -2.223   5.955  -6.000  0.00  0.00    -0.003 A 
ATOM      6  C6  DEN d   1      -1.206   6.000  -5.083  0.00  0.00     0.001 A 
ATOM      7  C7  DEN d   1      -1.498   5.996  -3.745  0.00  0.00     0.017 A 
ATOM      8  C8  DEN d   1      -2.832   5.999  -3.360  0.00  0.00    -0.094 A 
ATOM      9  C9  DEN d   1      -3.846   5.941  -4.302  0.00  0.00    -0.072 A 
ENDROOT
TORSDOF 0
ENDMDL
