MODEL 1
REMARK minimizedAffinity 7.72213793
REMARK minimizedRMSD -1
REMARK  0 active torsions:
REMARK  status: ('A' for Active; 'I' for Inactive)
ROOT
ATOM      1  C1  DEN d   1      -3.587   0.483   5.987  0.00  0.00     0.130 A 
ATOM      2  C2  DEN d   1      -2.466   1.195   5.379  0.00  0.00    -0.031 A 
ATOM      3  C3  DEN d   1      -2.411   0.825   3.951  0.00  0.00     0.027 A 
ATOM      4  C4  DEN d   1      -3.947  -0.770   2.628  0.00  0.00     0.027 A 
ATOM      5  C5  DEN d   1      -5.029  -1.617   2.717  0.00  0.00    -0.003 A 
ATOM      6  C6  DEN d   1      -5.681  -1.847   3.899  0.00  0.00     0.001 A 
ATOM      7  C7  DEN d   1      -5.283  -1.189   5.033  0.00  0.00     0.017 A 
ATOM      8  C8  DEN d   1      -4.188  -0.339   4.952  0.00  0.00    -0.094 A 
ATOM      9  C9  DEN d   1      -3.550  -0.110   3.745  0.00  0.00    -0.072 A 
ENDROOT
TORSDOF 0
ENDMDL
