MODEL 1
REMARK minimizedAffinity 6.03577948
REMARK minimizedRMSD -1
REMARK  0 active torsions:
REMARK  status: ('A' for Active; 'I' for Inactive)
ROOT
ATOM      1  C1  DEN d   1      -3.131   0.501   5.314  0.00  0.00     0.130 A 
ATOM      2  C2  DEN d   1      -2.021   1.278   4.770  0.00  0.00    -0.031 A 
ATOM      3  C3  DEN d   1      -1.862   0.914   3.348  0.00  0.00     0.027 A 
ATOM      4  C4  DEN d   1      -3.223  -0.766   1.942  0.00  0.00     0.027 A 
ATOM      5  C5  DEN d   1      -4.258  -1.674   1.970  0.00  0.00    -0.003 A 
ATOM      6  C6  DEN d   1      -4.962  -1.944   3.114  0.00  0.00     0.001 A 
ATOM      7  C7  DEN d   1      -4.669  -1.265   4.267  0.00  0.00     0.017 A 
ATOM      8  C8  DEN d   1      -3.622  -0.353   4.248  0.00  0.00    -0.094 A 
ATOM      9  C9  DEN d   1      -2.931  -0.085   3.079  0.00  0.00    -0.072 A 
ENDROOT
TORSDOF 0
ENDMDL
