MODEL 1
REMARK minimizedAffinity 18.2683601
REMARK minimizedRMSD -1
REMARK  0 active torsions:
REMARK  status: ('A' for Active; 'I' for Inactive)
ROOT
ATOM      1  C1  DEN d   1      -5.778  -1.526  -2.592  0.00  0.00     0.130 A 
ATOM      2  C2  DEN d   1      -5.994  -0.985  -3.931  0.00  0.00    -0.031 A 
ATOM      3  C3  DEN d   1      -5.998   0.488  -3.833  0.00  0.00     0.027 A 
ATOM      4  C4  DEN d   1      -5.688   1.977  -1.750  0.00  0.00     0.027 A 
ATOM      5  C5  DEN d   1      -5.487   1.974  -0.388  0.00  0.00    -0.003 A 
ATOM      6  C6  DEN d   1      -5.403   0.813   0.335  0.00  0.00     0.001 A 
ATOM      7  C7  DEN d   1      -5.476  -0.394  -0.309  0.00  0.00     0.017 A 
ATOM      8  C8  DEN d   1      -5.686  -0.398  -1.682  0.00  0.00    -0.094 A 
ATOM      9  C9  DEN d   1      -5.756   0.785  -2.396  0.00  0.00    -0.072 A 
ENDROOT
TORSDOF 0
ENDMDL
