MODEL 1
REMARK minimizedAffinity 20.4841309
REMARK minimizedRMSD -1
REMARK  0 active torsions:
REMARK  status: ('A' for Active; 'I' for Inactive)
ROOT
ATOM      1  C1  DEN d   1       3.607   0.111   1.968  0.00  0.00     0.130 A 
ATOM      2  C2  DEN d   1       3.285   1.049   0.897  0.00  0.00    -0.031 A 
ATOM      3  C3  DEN d   1       1.855   0.890   0.564  0.00  0.00     0.027 A 
ATOM      4  C4  DEN d   1       0.117  -0.708   1.602  0.00  0.00     0.027 A 
ATOM      5  C5  DEN d   1      -0.077  -1.702   2.536  0.00  0.00    -0.003 A 
ATOM      6  C6  DEN d   1       0.942  -2.182   3.315  0.00  0.00     0.001 A 
ATOM      7  C7  DEN d   1       2.193  -1.635   3.207  0.00  0.00     0.017 A 
ATOM      8  C8  DEN d   1       2.399  -0.638   2.263  0.00  0.00    -0.094 A 
ATOM      9  C9  DEN d   1       1.353  -0.158   1.493  0.00  0.00    -0.072 A 
ENDROOT
TORSDOF 0
ENDMDL
