MODEL 1
REMARK minimizedAffinity 16.9899292
REMARK minimizedRMSD -1
REMARK  0 active torsions:
REMARK  status: ('A' for Active; 'I' for Inactive)
ROOT
ATOM      1  C1  DEN d   1       3.926   1.204  -0.862  0.00  0.00     0.130 A 
ATOM      2  C2  DEN d   1       3.005   0.945   0.241  0.00  0.00    -0.031 A 
ATOM      3  C3  DEN d   1       1.704   1.558  -0.096  0.00  0.00     0.027 A 
ATOM      4  C4  DEN d   1       1.029   2.871  -2.210  0.00  0.00     0.027 A 
ATOM      5  C5  DEN d   1       1.474   3.357  -3.420  0.00  0.00    -0.003 A 
ATOM      6  C6  DEN d   1       2.766   3.191  -3.843  0.00  0.00     0.001 A 
ATOM      7  C7  DEN d   1       3.647   2.482  -3.070  0.00  0.00     0.017 A 
ATOM      8  C8  DEN d   1       3.208   1.995  -1.846  0.00  0.00    -0.094 A 
ATOM      9  C9  DEN d   1       1.894   2.163  -1.442  0.00  0.00    -0.072 A 
ENDROOT
TORSDOF 0
ENDMDL
