MODEL 1
REMARK minimizedAffinity 6.26218271
REMARK minimizedRMSD -1
REMARK  0 active torsions:
REMARK  status: ('A' for Active; 'I' for Inactive)
ROOT
ATOM      1  C1  DEN d   1      -4.523  -4.530   2.105  0.00  0.00     0.130 A 
ATOM      2  C2  DEN d   1      -4.500  -3.081   1.920  0.00  0.00    -0.031 A 
ATOM      3  C3  DEN d   1      -4.972  -2.454   3.170  0.00  0.00     0.027 A 
ATOM      4  C4  DEN d   1      -5.727  -3.577   5.366  0.00  0.00     0.027 A 
ATOM      5  C5  DEN d   1      -5.930  -4.785   5.997  0.00  0.00    -0.003 A 
ATOM      6  C6  DEN d   1      -5.712  -5.982   5.369  0.00  0.00     0.001 A 
ATOM      7  C7  DEN d   1      -5.234  -5.999   4.085  0.00  0.00     0.017 A 
ATOM      8  C8  DEN d   1      -5.035  -4.785   3.440  0.00  0.00    -0.094 A 
ATOM      9  C9  DEN d   1      -5.249  -3.585   4.096  0.00  0.00    -0.072 A 
ENDROOT
TORSDOF 0
ENDMDL
