MODEL 1
REMARK minimizedAffinity 18.8233833
REMARK minimizedRMSD -1
REMARK  0 active torsions:
REMARK  status: ('A' for Active; 'I' for Inactive)
ROOT
ATOM      1  C1  DEN d   1       3.148   0.824   1.205  0.00  0.00     0.130 A 
ATOM      2  C2  DEN d   1       2.476   0.779  -0.091  0.00  0.00    -0.031 A 
ATOM      3  C3  DEN d   1       3.128   1.763  -0.978  0.00  0.00     0.027 A 
ATOM      4  C4  DEN d   1       5.105   3.341  -0.474  0.00  0.00     0.027 A 
ATOM      5  C5  DEN d   1       5.999   3.748   0.492  0.00  0.00    -0.003 A 
ATOM      6  C6  DEN d   1       5.983   3.238   1.763  0.00  0.00     0.001 A 
ATOM      7  C7  DEN d   1       5.083   2.258   2.089  0.00  0.00     0.017 A 
ATOM      8  C8  DEN d   1       4.174   1.847   1.123  0.00  0.00    -0.094 A 
ATOM      9  C9  DEN d   1       4.215   2.366  -0.160  0.00  0.00    -0.072 A 
ENDROOT
TORSDOF 0
ENDMDL
