MODEL 1
REMARK minimizedAffinity 5.14071083
REMARK minimizedRMSD -1
REMARK  0 active torsions:
REMARK  status: ('A' for Active; 'I' for Inactive)
ROOT
ATOM      1  C1  DEN d   1      -5.187   5.940  -2.676  0.00  0.00     0.130 A 
ATOM      2  C2  DEN d   1      -4.412   5.859  -1.441  0.00  0.00    -0.031 A 
ATOM      3  C3  DEN d   1      -2.980   5.835  -1.801  0.00  0.00     0.027 A 
ATOM      4  C4  DEN d   1      -1.894   5.920  -4.139  0.00  0.00     0.027 A 
ATOM      5  C5  DEN d   1      -2.145   5.981  -5.492  0.00  0.00    -0.003 A 
ATOM      6  C6  DEN d   1      -3.418   5.998  -5.998  0.00  0.00     0.001 A 
ATOM      7  C7  DEN d   1      -4.488   5.999  -5.144  0.00  0.00     0.017 A 
ATOM      8  C8  DEN d   1      -4.243   5.930  -3.779  0.00  0.00    -0.094 A 
ATOM      9  C9  DEN d   1      -2.949   5.926  -3.286  0.00  0.00    -0.072 A 
ENDROOT
TORSDOF 0
ENDMDL
