MODEL 1
REMARK minimizedAffinity 20.9305153
REMARK minimizedRMSD -1
REMARK  0 active torsions:
REMARK  status: ('A' for Active; 'I' for Inactive)
ROOT
ATOM      1  C1  DEN d   1       4.580   3.694  -5.675  0.00  0.00     0.130 A 
ATOM      2  C2  DEN d   1       3.207   3.198  -5.711  0.00  0.00    -0.031 A 
ATOM      3  C3  DEN d   1       2.624   3.370  -4.366  0.00  0.00     0.027 A 
ATOM      4  C4  DEN d   1       3.706   4.357  -2.242  0.00  0.00     0.027 A 
ATOM      5  C5  DEN d   1       4.858   4.901  -1.719  0.00  0.00    -0.003 A 
ATOM      6  C6  DEN d   1       5.999   5.048  -2.461  0.00  0.00     0.001 A 
ATOM      7  C7  DEN d   1       6.000   4.688  -3.783  0.00  0.00     0.017 A 
ATOM      8  C8  DEN d   1       4.844   4.133  -4.317  0.00  0.00    -0.094 A 
ATOM      9  C9  DEN d   1       3.697   4.003  -3.553  0.00  0.00    -0.072 A 
ENDROOT
TORSDOF 0
ENDMDL
