MODEL 1
REMARK minimizedAffinity 13.8120785
REMARK minimizedRMSD -1
REMARK  0 active torsions:
REMARK  status: ('A' for Active; 'I' for Inactive)
ROOT
ATOM      1  C1  DEN d   1       2.941   4.798  -2.067  0.00  0.00     0.130 A 
ATOM      2  C2  DEN d   1       1.709   4.064  -2.342  0.00  0.00    -0.031 A 
ATOM      3  C3  DEN d   1       1.941   3.208  -3.523  0.00  0.00     0.027 A 
ATOM      4  C4  DEN d   1       4.079   2.946  -4.941  0.00  0.00     0.027 A 
ATOM      5  C5  DEN d   1       5.379   3.372  -5.102  0.00  0.00    -0.003 A 
ATOM      6  C6  DEN d   1       5.942   4.320  -4.290  0.00  0.00     0.001 A 
ATOM      7  C7  DEN d   1       5.217   4.842  -3.251  0.00  0.00     0.017 A 
ATOM      8  C8  DEN d   1       3.904   4.423  -3.087  0.00  0.00    -0.094 A 
ATOM      9  C9  DEN d   1       3.356   3.454  -3.911  0.00  0.00    -0.072 A 
ENDROOT
TORSDOF 0
ENDMDL
