MODEL 1
REMARK minimizedAffinity -2.10697985
REMARK minimizedRMSD -1
REMARK  0 active torsions:
REMARK  status: ('A' for Active; 'I' for Inactive)
ROOT
ATOM      1  C   UNL d   1       0.577  -1.956   1.445  0.00  0.00     0.077 C 
ATOM      2  C1  UNL d   1       0.302  -0.558   0.978  0.00  0.00    -0.074 A 
ATOM      3  C2  UNL d   1      -0.989  -0.022   1.036  0.00  0.00    -0.005 A 
ATOM      4  C3  UNL d   1      -1.228   1.283   0.607  0.00  0.00     0.006 A 
ATOM      5  C4  UNL d   1      -0.181   2.065   0.117  0.00  0.00    -0.005 A 
ATOM      6  C5  UNL d   1       1.116   1.547   0.053  0.00  0.00    -0.074 A 
ATOM      7  C6  UNL d   1       2.254   2.377  -0.462  0.00  0.00     0.077 C 
ATOM      8  C7  UNL d   1       1.350   0.236   0.492  0.00  0.00    -0.001 A 
ENDROOT
TORSDOF 0
ENDMDL
