MODEL 1
REMARK minimizedAffinity 4.33462811
REMARK minimizedRMSD -1
REMARK  0 active torsions:
REMARK  status: ('A' for Active; 'I' for Inactive)
ROOT
ATOM      1  C   UNL d   1       0.475  -1.174   2.603  0.00  0.00     0.077 C 
ATOM      2  C1  UNL d   1       1.309  -2.232   3.263  0.00  0.00    -0.074 A 
ATOM      3  C2  UNL d   1       0.723  -3.393   3.776  0.00  0.00    -0.005 A 
ATOM      4  C3  UNL d   1       1.513  -4.372   4.379  0.00  0.00     0.006 A 
ATOM      5  C4  UNL d   1       2.894  -4.200   4.475  0.00  0.00    -0.005 A 
ATOM      6  C5  UNL d   1       3.498  -3.045   3.968  0.00  0.00    -0.074 A 
ATOM      7  C6  UNL d   1       4.982  -2.848   4.054  0.00  0.00     0.077 C 
ATOM      8  C7  UNL d   1       2.699  -2.069   3.357  0.00  0.00    -0.001 A 
ENDROOT
TORSDOF 0
ENDMDL
