MODEL 1
REMARK minimizedAffinity 0.639194191
REMARK minimizedRMSD -1
REMARK  0 active torsions:
REMARK  status: ('A' for Active; 'I' for Inactive)
ROOT
ATOM      1  C   UNL d   1       2.135   1.100   1.443  0.00  0.00     0.077 C 
ATOM      2  C1  UNL d   1       1.506  -0.151   1.979  0.00  0.00    -0.074 A 
ATOM      3  C2  UNL d   1       0.491  -0.804   1.272  0.00  0.00    -0.005 A 
ATOM      4  C3  UNL d   1      -0.079  -1.973   1.778  0.00  0.00     0.006 A 
ATOM      5  C4  UNL d   1       0.359  -2.499   2.994  0.00  0.00    -0.005 A 
ATOM      6  C5  UNL d   1       1.373  -1.860   3.714  0.00  0.00    -0.074 A 
ATOM      7  C6  UNL d   1       1.863  -2.417   5.018  0.00  0.00     0.077 C 
ATOM      8  C7  UNL d   1       1.946  -0.690   3.196  0.00  0.00    -0.001 A 
ENDROOT
TORSDOF 0
ENDMDL
