MODEL 1
REMARK minimizedAffinity 5.76017141
REMARK minimizedRMSD -1
REMARK  0 active torsions:
REMARK  status: ('A' for Active; 'I' for Inactive)
ROOT
ATOM      1  C   UNL d   1       2.514  -4.141   3.990  0.00  0.00     0.077 C 
ATOM      2  C1  UNL d   1       2.049  -3.243   2.883  0.00  0.00    -0.074 A 
ATOM      3  C2  UNL d   1       1.776  -1.891   3.119  0.00  0.00    -0.005 A 
ATOM      4  C3  UNL d   1       1.353  -1.066   2.077  0.00  0.00     0.006 A 
ATOM      5  C4  UNL d   1       1.199  -1.583   0.790  0.00  0.00    -0.005 A 
ATOM      6  C5  UNL d   1       1.467  -2.931   0.535  0.00  0.00    -0.074 A 
ATOM      7  C6  UNL d   1       1.316  -3.500  -0.845  0.00  0.00     0.077 C 
ATOM      8  C7  UNL d   1       1.899  -3.752   1.585  0.00  0.00    -0.001 A 
ENDROOT
TORSDOF 0
ENDMDL
