MODEL 1
REMARK minimizedAffinity 0.937080443
REMARK minimizedRMSD -1
REMARK  0 active torsions:
REMARK  status: ('A' for Active; 'I' for Inactive)
ROOT
ATOM      1  C   UNL d   1      -6.000   0.437  -0.653  0.00  0.00     0.077 C 
ATOM      2  C1  UNL d   1      -5.370   1.640  -0.017  0.00  0.00    -0.074 A 
ATOM      3  C2  UNL d   1      -4.280   1.507   0.850  0.00  0.00    -0.005 A 
ATOM      4  C3  UNL d   1      -3.698   2.636   1.426  0.00  0.00     0.006 A 
ATOM      5  C4  UNL d   1      -4.199   3.907   1.143  0.00  0.00    -0.005 A 
ATOM      6  C5  UNL d   1      -5.288   4.060   0.279  0.00  0.00    -0.074 A 
ATOM      7  C6  UNL d   1      -5.833   5.420  -0.044  0.00  0.00     0.077 C 
ATOM      8  C7  UNL d   1      -5.863   2.921  -0.302  0.00  0.00    -0.001 A 
ENDROOT
TORSDOF 0
ENDMDL
