MODEL 1
REMARK minimizedAffinity 3.40272212
REMARK minimizedRMSD -1
REMARK  0 active torsions:
REMARK  status: ('A' for Active; 'I' for Inactive)
ROOT
ATOM      1  C   UNL d   1      -6.000   0.463  -1.510  0.00  0.00     0.077 C 
ATOM      2  C1  UNL d   1      -5.898   1.457  -0.392  0.00  0.00    -0.074 A 
ATOM      3  C2  UNL d   1      -5.694   1.038   0.927  0.00  0.00    -0.005 A 
ATOM      4  C3  UNL d   1      -5.592   1.975   1.955  0.00  0.00     0.006 A 
ATOM      5  C4  UNL d   1      -5.694   3.338   1.676  0.00  0.00    -0.005 A 
ATOM      6  C5  UNL d   1      -5.897   3.776   0.363  0.00  0.00    -0.074 A 
ATOM      7  C6  UNL d   1      -5.999   5.238   0.044  0.00  0.00     0.077 C 
ATOM      8  C7  UNL d   1      -5.992   2.829  -0.665  0.00  0.00    -0.001 A 
ENDROOT
TORSDOF 0
ENDMDL
