MODEL 1
REMARK minimizedAffinity 0.764609218
REMARK minimizedRMSD -1
REMARK  0 active torsions:
REMARK  status: ('A' for Active; 'I' for Inactive)
ROOT
ATOM      1  C   UNL d   1      -4.884   3.449   2.009  0.00  0.00     0.077 C 
ATOM      2  C1  UNL d   1      -5.266   2.549   0.871  0.00  0.00    -0.074 A 
ATOM      3  C2  UNL d   1      -5.469   1.180   1.075  0.00  0.00    -0.005 A 
ATOM      4  C3  UNL d   1      -5.834   0.357   0.009  0.00  0.00     0.006 A 
ATOM      5  C4  UNL d   1      -6.000   0.894  -1.268  0.00  0.00    -0.005 A 
ATOM      6  C5  UNL d   1      -5.802   2.261  -1.490  0.00  0.00    -0.074 A 
ATOM      7  C6  UNL d   1      -5.986   2.855  -2.855  0.00  0.00     0.077 C 
ATOM      8  C7  UNL d   1      -5.442   3.082  -0.413  0.00  0.00    -0.001 A 
ENDROOT
TORSDOF 0
ENDMDL
