MODEL 1
REMARK minimizedAffinity 1.60233843
REMARK minimizedRMSD -1
REMARK  0 active torsions:
REMARK  status: ('A' for Active; 'I' for Inactive)
ROOT
ATOM      1  C   UNL d   1       1.839  -2.313   3.172  0.00  0.00     0.077 C 
ATOM      2  C1  UNL d   1       2.003  -0.824   3.096  0.00  0.00    -0.074 A 
ATOM      3  C2  UNL d   1       1.804  -0.021   4.223  0.00  0.00    -0.005 A 
ATOM      4  C3  UNL d   1       1.969   1.362   4.140  0.00  0.00     0.006 A 
ATOM      5  C4  UNL d   1       2.335   1.954   2.930  0.00  0.00    -0.005 A 
ATOM      6  C5  UNL d   1       2.539   1.167   1.793  0.00  0.00    -0.074 A 
ATOM      7  C6  UNL d   1       2.942   1.786   0.488  0.00  0.00     0.077 C 
ATOM      8  C7  UNL d   1       2.378  -0.222   1.886  0.00  0.00    -0.001 A 
ENDROOT
TORSDOF 0
ENDMDL
