MODEL 1
REMARK minimizedAffinity 2.00360799
REMARK minimizedRMSD -1
REMARK  0 active torsions:
REMARK  status: ('A' for Active; 'I' for Inactive)
ROOT
ATOM      1  C   UNL d   1      -5.997   1.161  -2.176  0.00  0.00     0.077 C 
ATOM      2  C1  UNL d   1      -5.608   2.045  -1.029  0.00  0.00    -0.074 A 
ATOM      3  C2  UNL d   1      -4.876   1.541   0.051  0.00  0.00    -0.005 A 
ATOM      4  C3  UNL d   1      -4.513   2.377   1.106  0.00  0.00     0.006 A 
ATOM      5  C4  UNL d   1      -4.877   3.725   1.092  0.00  0.00    -0.005 A 
ATOM      6  C5  UNL d   1      -5.607   4.247   0.020  0.00  0.00    -0.074 A 
ATOM      7  C6  UNL d   1      -5.998   5.695  -0.016  0.00  0.00     0.077 C 
ATOM      8  C7  UNL d   1      -5.962   3.401  -1.040  0.00  0.00    -0.001 A 
ENDROOT
TORSDOF 0
ENDMDL
