MODEL 1
REMARK minimizedAffinity 19.8743477
REMARK minimizedRMSD -1
REMARK  0 active torsions:
REMARK  status: ('A' for Active; 'I' for Inactive)
ROOT
ATOM      1  C   UNL d   1      -3.936   0.794   3.782  0.00  0.00     0.020 A 
ATOM      2  C1  UNL d   1      -3.948   2.181   3.638  0.00  0.00     0.020 A 
ATOM      3  C2  UNL d   1      -2.745   2.879   3.506  0.00  0.00     0.034 A 
ATOM      4  C3  UNL d   1      -1.527   2.191   3.519  0.00  0.00     0.017 A 
ATOM      5  C4  UNL d   1      -1.516   0.799   3.663  0.00  0.00     0.017 A 
ATOM      6  C5  UNL d   1      -2.723   0.105   3.794  0.00  0.00     0.034 A 
ATOM      7 Cl   UNL d   1      -0.052  -0.119   3.687  0.00  0.00    -0.070 Cl
ATOM      8 Cl1  UNL d   1      -0.079   3.118   3.351  0.00  0.00    -0.070 Cl
ENDROOT
TORSDOF 0
ENDMDL
