MODEL 1
REMARK minimizedAffinity 20.460413
REMARK minimizedRMSD -1
REMARK  0 active torsions:
REMARK  status: ('A' for Active; 'I' for Inactive)
ROOT
ATOM      1  C   UNL d   1       0.063  -3.925  -4.384  0.00  0.00     0.020 A 
ATOM      2  C1  UNL d   1      -0.103  -5.302  -4.240  0.00  0.00     0.020 A 
ATOM      3  C2  UNL d   1      -1.196  -5.803  -3.530  0.00  0.00     0.034 A 
ATOM      4  C3  UNL d   1      -2.127  -4.926  -2.961  0.00  0.00     0.017 A 
ATOM      5  C4  UNL d   1      -1.959  -3.544  -3.105  0.00  0.00     0.017 A 
ATOM      6  C5  UNL d   1      -0.863  -3.048  -3.817  0.00  0.00     0.034 A 
ATOM      7 Cl   UNL d   1      -3.066  -2.401  -2.431  0.00  0.00    -0.070 Cl
ATOM      8 Cl1  UNL d   1      -3.455  -5.615  -2.096  0.00  0.00    -0.070 Cl
ENDROOT
TORSDOF 0
ENDMDL
