MODEL 1
REMARK minimizedAffinity 14.2130747
REMARK minimizedRMSD -1
REMARK  0 active torsions:
REMARK  status: ('A' for Active; 'I' for Inactive)
ROOT
ATOM      1  C   UNL d   1      -5.594   3.731   5.936  0.00  0.00     0.020 A 
ATOM      2  C1  UNL d   1      -4.688   4.147   4.961  0.00  0.00     0.020 A 
ATOM      3  C2  UNL d   1      -4.173   3.225   4.048  0.00  0.00     0.034 A 
ATOM      4  C3  UNL d   1      -4.562   1.882   4.108  0.00  0.00     0.017 A 
ATOM      5  C4  UNL d   1      -5.472   1.465   5.087  0.00  0.00     0.017 A 
ATOM      6  C5  UNL d   1      -5.985   2.393   5.999  0.00  0.00     0.034 A 
ATOM      7 Cl   UNL d   1      -6.000  -0.175   5.224  0.00  0.00    -0.070 Cl
ATOM      8 Cl1  UNL d   1      -3.885   0.796   2.947  0.00  0.00    -0.070 Cl
ENDROOT
TORSDOF 0
ENDMDL
