MODEL 1
REMARK minimizedAffinity 6.68987846
REMARK minimizedRMSD -1
REMARK  0 active torsions:
REMARK  status: ('A' for Active; 'I' for Inactive)
ROOT
ATOM      1  C   UNL d   1      -2.376  -5.753   1.068  0.00  0.00     0.020 A 
ATOM      2  C1  UNL d   1      -1.360  -5.601   2.011  0.00  0.00     0.020 A 
ATOM      3  C2  UNL d   1      -0.771  -4.350   2.206  0.00  0.00     0.034 A 
ATOM      4  C3  UNL d   1      -1.197  -3.246   1.458  0.00  0.00     0.017 A 
ATOM      5  C4  UNL d   1      -2.216  -3.400   0.512  0.00  0.00     0.017 A 
ATOM      6  C5  UNL d   1      -2.803  -4.655   0.320  0.00  0.00     0.034 A 
ATOM      7 Cl   UNL d   1      -2.795  -2.085  -0.449  0.00  0.00    -0.070 Cl
ATOM      8 Cl1  UNL d   1      -0.424  -1.729   1.752  0.00  0.00    -0.070 Cl
ENDROOT
TORSDOF 0
ENDMDL
