MODEL 1
REMARK minimizedAffinity 15.9133863
REMARK minimizedRMSD -1
REMARK  0 active torsions:
REMARK  status: ('A' for Active; 'I' for Inactive)
ROOT
ATOM      1  C   UNL d   1      -3.009  -2.059  -1.926  0.00  0.00     0.020 A 
ATOM      2  C1  UNL d   1      -4.367  -1.877  -2.184  0.00  0.00     0.020 A 
ATOM      3  C2  UNL d   1      -5.173  -2.975  -2.493  0.00  0.00     0.034 A 
ATOM      4  C3  UNL d   1      -4.621  -4.260  -2.545  0.00  0.00     0.017 A 
ATOM      5  C4  UNL d   1      -3.258  -4.442  -2.287  0.00  0.00     0.017 A 
ATOM      6  C5  UNL d   1      -2.456  -3.339  -1.978  0.00  0.00     0.034 A 
ATOM      7 Cl   UNL d   1      -2.505  -5.997  -2.332  0.00  0.00    -0.070 Cl
ATOM      8 Cl1  UNL d   1      -5.676  -5.572  -2.934  0.00  0.00    -0.070 Cl
ENDROOT
TORSDOF 0
ENDMDL
