MODEL 1
REMARK minimizedAffinity 19.6252918
REMARK minimizedRMSD -1
REMARK  0 active torsions:
REMARK  status: ('A' for Active; 'I' for Inactive)
ROOT
ATOM      1  C   UNL d   1      -3.982  -2.667  -3.705  0.00  0.00     0.020 A 
ATOM      2  C1  UNL d   1      -2.962  -2.646  -2.755  0.00  0.00     0.020 A 
ATOM      3  C2  UNL d   1      -2.867  -3.668  -1.809  0.00  0.00     0.034 A 
ATOM      4  C3  UNL d   1      -3.793  -4.718  -1.811  0.00  0.00     0.017 A 
ATOM      5  C4  UNL d   1      -4.817  -4.739  -2.765  0.00  0.00     0.017 A 
ATOM      6  C5  UNL d   1      -4.907  -3.712  -3.710  0.00  0.00     0.034 A 
ATOM      7 Cl   UNL d   1      -5.997  -6.000  -2.831  0.00  0.00    -0.070 Cl
ATOM      8 Cl1  UNL d   1      -3.615  -5.949  -0.612  0.00  0.00    -0.070 Cl
ENDROOT
TORSDOF 0
ENDMDL
