MODEL 1
REMARK minimizedAffinity 13.4904127
REMARK minimizedRMSD -1
REMARK  0 active torsions:
REMARK  status: ('A' for Active; 'I' for Inactive)
ROOT
ATOM      1  C   UNL d   1      -4.893   3.744   1.902  0.00  0.00     0.020 A 
ATOM      2  C1  UNL d   1      -5.706   4.877   1.874  0.00  0.00     0.020 A 
ATOM      3  C2  UNL d   1      -5.996   5.557   3.058  0.00  0.00     0.034 A 
ATOM      4  C3  UNL d   1      -5.475   5.105   4.276  0.00  0.00     0.017 A 
ATOM      5  C4  UNL d   1      -4.660   3.967   4.303  0.00  0.00     0.017 A 
ATOM      6  C5  UNL d   1      -4.372   3.290   3.114  0.00  0.00     0.034 A 
ATOM      7 Cl   UNL d   1      -3.980   3.349   5.767  0.00  0.00    -0.070 Cl
ATOM      8 Cl1  UNL d   1      -5.876   5.995   5.702  0.00  0.00    -0.070 Cl
ENDROOT
TORSDOF 0
ENDMDL
