MODEL 1
REMARK minimizedAffinity 3.91768527
REMARK minimizedRMSD -1
REMARK  0 active torsions:
REMARK  status: ('A' for Active; 'I' for Inactive)
ROOT
ATOM      1  C   UNL d   1       1.777   1.578   1.505  0.00  0.00     0.020 A 
ATOM      2  C1  UNL d   1       2.181   0.475   2.256  0.00  0.00     0.020 A 
ATOM      3  C2  UNL d   1       3.312  -0.251   1.878  0.00  0.00     0.034 A 
ATOM      4  C3  UNL d   1       4.043   0.125   0.745  0.00  0.00     0.017 A 
ATOM      5  C4  UNL d   1       3.637   1.232  -0.008  0.00  0.00     0.017 A 
ATOM      6  C5  UNL d   1       2.504   1.955   0.375  0.00  0.00     0.034 A 
ATOM      7 Cl   UNL d   1       4.488   1.756  -1.418  0.00  0.00    -0.070 Cl
ATOM      8 Cl1  UNL d   1       5.432  -0.819   0.336  0.00  0.00    -0.070 Cl
ENDROOT
TORSDOF 0
ENDMDL
