MODEL 1
REMARK minimizedAffinity 12.5912809
REMARK minimizedRMSD -1
REMARK  0 active torsions:
REMARK  status: ('A' for Active; 'I' for Inactive)
ROOT
ATOM      1  C   UNL d   1      -0.620  -1.686   3.360  0.00  0.00     0.020 A 
ATOM      2  C1  UNL d   1      -0.427  -0.791   2.308  0.00  0.00     0.020 A 
ATOM      3  C2  UNL d   1      -0.976  -1.061   1.052  0.00  0.00     0.034 A 
ATOM      4  C3  UNL d   1      -1.721  -2.228   0.846  0.00  0.00     0.017 A 
ATOM      5  C4  UNL d   1      -1.914  -3.125   1.903  0.00  0.00     0.017 A 
ATOM      6  C5  UNL d   1      -1.363  -2.850   3.158  0.00  0.00     0.034 A 
ATOM      7 Cl   UNL d   1      -2.822  -4.585   1.724  0.00  0.00    -0.070 Cl
ATOM      8 Cl1  UNL d   1      -2.370  -2.497  -0.732  0.00  0.00    -0.070 Cl
ENDROOT
TORSDOF 0
ENDMDL
