MODEL 1
REMARK minimizedAffinity 14.0973949
REMARK minimizedRMSD -1
REMARK  0 active torsions:
REMARK  status: ('A' for Active; 'I' for Inactive)
ROOT
ATOM      1  C   UNL d   1       3.224  -0.237  -0.076  0.00  0.00     0.020 A 
ATOM      2  C1  UNL d   1       3.194   0.962  -0.787  0.00  0.00     0.020 A 
ATOM      3  C2  UNL d   1       2.483   2.053  -0.286  0.00  0.00     0.034 A 
ATOM      4  C3  UNL d   1       1.798   1.949   0.930  0.00  0.00     0.017 A 
ATOM      5  C4  UNL d   1       1.828   0.745   1.644  0.00  0.00     0.017 A 
ATOM      6  C5  UNL d   1       2.542  -0.345   1.137  0.00  0.00     0.034 A 
ATOM      7 Cl   UNL d   1       1.008   0.540   3.151  0.00  0.00    -0.070 Cl
ATOM      8 Cl1  UNL d   1       0.939   3.339   1.491  0.00  0.00    -0.070 Cl
ENDROOT
TORSDOF 0
ENDMDL
