MODEL 1
REMARK minimizedAffinity 12.6222324
REMARK minimizedRMSD -1
REMARK  0 active torsions:
REMARK  status: ('A' for Active; 'I' for Inactive)
ROOT
ATOM      1  C   UNL d   1      -4.673   5.230   5.998  0.00  0.00     0.020 A 
ATOM      2  C1  UNL d   1      -5.624   6.000   5.331  0.00  0.00     0.020 A 
ATOM      3  C2  UNL d   1      -5.998   5.673   4.025  0.00  0.00     0.034 A 
ATOM      4  C3  UNL d   1      -5.419   4.572   3.383  0.00  0.00     0.017 A 
ATOM      5  C4  UNL d   1      -4.463   3.800   4.053  0.00  0.00     0.017 A 
ATOM      6  C5  UNL d   1      -4.093   4.132   5.360  0.00  0.00     0.034 A 
ATOM      7 Cl   UNL d   1      -3.705   2.427   3.326  0.00  0.00    -0.070 Cl
ATOM      8 Cl1  UNL d   1      -5.927   4.225   1.768  0.00  0.00    -0.070 Cl
ENDROOT
TORSDOF 0
ENDMDL
