MODEL 1
REMARK minimizedAffinity 5.82899761
REMARK minimizedRMSD -1
REMARK  0 active torsions:
REMARK  status: ('A' for Active; 'I' for Inactive)
ROOT
ATOM      1  C   UNL d   1      -2.123  -4.862  -2.313  0.00  0.00     0.020 A 
ATOM      2  C1  UNL d   1      -2.146  -3.577  -2.855  0.00  0.00     0.020 A 
ATOM      3  C2  UNL d   1      -3.353  -3.022  -3.283  0.00  0.00     0.034 A 
ATOM      4  C3  UNL d   1      -4.543  -3.751  -3.169  0.00  0.00     0.017 A 
ATOM      5  C4  UNL d   1      -4.519  -5.040  -2.624  0.00  0.00     0.017 A 
ATOM      6  C5  UNL d   1      -3.307  -5.591  -2.197  0.00  0.00     0.034 A 
ATOM      7 Cl   UNL d   1      -5.945  -6.000  -2.451  0.00  0.00    -0.070 Cl
ATOM      8 Cl1  UNL d   1      -6.000  -3.002  -3.719  0.00  0.00    -0.070 Cl
ENDROOT
TORSDOF 0
ENDMDL
