MODEL 1
REMARK minimizedAffinity 14.6703911
REMARK minimizedRMSD -1
REMARK  0 active torsions:
REMARK  status: ('A' for Active; 'I' for Inactive)
ROOT
ATOM      1  C   UNL d   1      -2.129  -5.287  -2.814  0.00  0.00     0.020 A 
ATOM      2  C1  UNL d   1      -2.112  -3.965  -3.257  0.00  0.00     0.020 A 
ATOM      3  C2  UNL d   1      -3.307  -3.250  -3.365  0.00  0.00     0.034 A 
ATOM      4  C3  UNL d   1      -4.523  -3.857  -3.030  0.00  0.00     0.017 A 
ATOM      5  C4  UNL d   1      -4.538  -5.184  -2.586  0.00  0.00     0.017 A 
ATOM      6  C5  UNL d   1      -3.339  -5.895  -2.479  0.00  0.00     0.034 A 
ATOM      7 Cl   UNL d   1      -6.000  -6.000  -2.154  0.00  0.00    -0.070 Cl
ATOM      8 Cl1  UNL d   1      -5.962  -2.913  -3.188  0.00  0.00    -0.070 Cl
ENDROOT
TORSDOF 0
ENDMDL
