MODEL 1
REMARK minimizedAffinity 4.44066095
REMARK minimizedRMSD -1
REMARK  0 active torsions:
REMARK  status: ('A' for Active; 'I' for Inactive)
ROOT
ATOM      1  C   UNL d   1      -5.732   6.000   0.197  0.00  0.00     0.020 A 
ATOM      2  C1  UNL d   1      -5.098   4.905  -0.389  0.00  0.00     0.020 A 
ATOM      3  C2  UNL d   1      -4.731   3.809   0.395  0.00  0.00     0.034 A 
ATOM      4  C3  UNL d   1      -4.998   3.805   1.769  0.00  0.00     0.017 A 
ATOM      5  C4  UNL d   1      -5.634   4.904   2.356  0.00  0.00     0.017 A 
ATOM      6  C5  UNL d   1      -6.000   5.999   1.567  0.00  0.00     0.034 A 
ATOM      7 Cl   UNL d   1      -5.996   4.973   4.045  0.00  0.00    -0.070 Cl
ATOM      8 Cl1  UNL d   1      -4.516   2.416   2.677  0.00  0.00    -0.070 Cl
ENDROOT
TORSDOF 0
ENDMDL
