MODEL 1
REMARK minimizedAffinity 9.50356674
REMARK minimizedRMSD -1
REMARK  0 active torsions:
REMARK  status: ('A' for Active; 'I' for Inactive)
ROOT
ATOM      1  C   UNL d   1       3.742   1.840  -2.833  0.00  0.00     0.020 A 
ATOM      2  C1  UNL d   1       5.095   1.995  -3.136  0.00  0.00     0.020 A 
ATOM      3  C2  UNL d   1       5.491   2.907  -4.117  0.00  0.00     0.034 A 
ATOM      4  C3  UNL d   1       4.534   3.667  -4.798  0.00  0.00     0.017 A 
ATOM      5  C4  UNL d   1       3.177   3.512  -4.494  0.00  0.00     0.017 A 
ATOM      6  C5  UNL d   1       2.786   2.597  -3.511  0.00  0.00     0.034 A 
ATOM      7 Cl   UNL d   1       1.938   4.415  -5.292  0.00  0.00    -0.070 Cl
ATOM      8 Cl1  UNL d   1       5.095   4.776  -5.999  0.00  0.00    -0.070 Cl
ENDROOT
TORSDOF 0
ENDMDL
