MODEL 1
REMARK minimizedAffinity 9.8934145
REMARK minimizedRMSD -1
REMARK  0 active torsions:
REMARK  status: ('A' for Active; 'I' for Inactive)
ROOT
ATOM      1  C   UNL d   1       5.244   1.871  -3.002  0.00  0.00     0.020 A 
ATOM      2  C1  UNL d   1       3.889   1.818  -2.679  0.00  0.00     0.020 A 
ATOM      3  C2  UNL d   1       2.972   2.600  -3.384  0.00  0.00     0.034 A 
ATOM      4  C3  UNL d   1       3.409   3.439  -4.416  0.00  0.00     0.017 A 
ATOM      5  C4  UNL d   1       4.770   3.492  -4.739  0.00  0.00     0.017 A 
ATOM      6  C5  UNL d   1       5.684   2.706  -4.030  0.00  0.00     0.034 A 
ATOM      7 Cl   UNL d   1       5.384   4.503  -5.999  0.00  0.00    -0.070 Cl
ATOM      8 Cl1  UNL d   1       2.220   4.378  -5.246  0.00  0.00    -0.070 Cl
ENDROOT
TORSDOF 0
ENDMDL
