MODEL 1
REMARK minimizedAffinity 8.47452927
REMARK minimizedRMSD -1
REMARK  0 active torsions:
REMARK  status: ('A' for Active; 'I' for Inactive)
ROOT
ATOM      1  C   UNL d   1       2.820  -0.123   0.299  0.00  0.00     0.020 A 
ATOM      2  C1  UNL d   1       2.958   0.954  -0.576  0.00  0.00     0.020 A 
ATOM      3  C2  UNL d   1       2.288   2.152  -0.321  0.00  0.00     0.034 A 
ATOM      4  C3  UNL d   1       1.476   2.277   0.812  0.00  0.00     0.017 A 
ATOM      5  C4  UNL d   1       1.337   1.196   1.690  0.00  0.00     0.017 A 
ATOM      6  C5  UNL d   1       2.011  -0.002   1.430  0.00  0.00     0.034 A 
ATOM      7 Cl   UNL d   1       0.353   1.274   3.109  0.00  0.00    -0.070 Cl
ATOM      8 Cl1  UNL d   1       0.677   3.788   1.066  0.00  0.00    -0.070 Cl
ENDROOT
TORSDOF 0
ENDMDL
