MODEL 1
REMARK minimizedAffinity 1.55189943
REMARK minimizedRMSD -1
REMARK  0 active torsions:
REMARK  status: ('A' for Active; 'I' for Inactive)
ROOT
ATOM      1  C   UNL d   1       4.018   5.649  -5.997  0.00  0.00     0.020 A 
ATOM      2  C1  UNL d   1       5.396   5.602  -5.790  0.00  0.00     0.020 A 
ATOM      3  C2  UNL d   1       5.987   4.441  -5.288  0.00  0.00     0.034 A 
ATOM      4  C3  UNL d   1       5.200   3.322  -4.991  0.00  0.00     0.017 A 
ATOM      5  C4  UNL d   1       3.817   3.370  -5.200  0.00  0.00     0.017 A 
ATOM      6  C5  UNL d   1       3.230   4.535  -5.703  0.00  0.00     0.034 A 
ATOM      7 Cl   UNL d   1       2.781   2.029  -4.858  0.00  0.00    -0.070 Cl
ATOM      8 Cl1  UNL d   1       5.998   1.919  -4.374  0.00  0.00    -0.070 Cl
ENDROOT
TORSDOF 0
ENDMDL
