MODEL 1
REMARK minimizedAffinity -5.16753817
REMARK minimizedRMSD -1
REMARK  2 active torsions:
REMARK  status: ('A' for Active; 'I' for Inactive)
REMARK    1  A    between atoms: C1_2  and  C2_3 
REMARK    2  A    between atoms: C2_3  and  C3_4 
ROOT
ATOM      1  C3  UNL d   1      -0.511   0.307  -1.733  0.00  0.00    -0.075 A 
ATOM      2  C4  UNL d   1      -0.588   0.126  -3.121  0.00  0.00     0.002 A 
ATOM      3  C5  UNL d   1      -1.823  -0.046  -3.746  0.00  0.00     0.002 A 
ATOM      4  C6  UNL d   1      -2.994  -0.050  -2.991  0.00  0.00    -0.004 A 
ATOM      5  C7  UNL d   1      -2.928   0.113  -1.609  0.00  0.00     0.002 A 
ATOM      6  C8  UNL d   1      -1.693   0.290  -0.982  0.00  0.00     0.002 A 
ENDROOT
BRANCH   1   7
ATOM      7  C2  UNL d   1       0.821   0.524  -1.055  0.00  0.00     0.056 C 
BRANCH   7   8
ATOM      8  C1  UNL d   1       0.727   0.694   0.465  0.00  0.00     0.007 C 
ATOM      9  C   UNL d   1       2.016   0.335   1.191  0.00  0.00     0.009 C 
ENDBRANCH   7   8
ENDBRANCH   1   7
TORSDOF 2
ENDMDL
