MODEL 1
REMARK minimizedAffinity -4.36691809
REMARK minimizedRMSD -1
REMARK  2 active torsions:
REMARK  status: ('A' for Active; 'I' for Inactive)
REMARK    1  A    between atoms: C1_2  and  C2_3 
REMARK    2  A    between atoms: C2_3  and  C3_4 
ROOT
ATOM      1  C3  UNL d   1       0.482  -0.096   0.825  0.00  0.00    -0.075 A 
ATOM      2  C4  UNL d   1       0.020  -1.314   1.344  0.00  0.00     0.002 A 
ATOM      3  C5  UNL d   1       0.786  -2.026   2.268  0.00  0.00     0.002 A 
ATOM      4  C6  UNL d   1       2.024  -1.536   2.676  0.00  0.00    -0.004 A 
ATOM      5  C7  UNL d   1       2.501  -0.335   2.154  0.00  0.00     0.002 A 
ATOM      6  C8  UNL d   1       1.735   0.381   1.233  0.00  0.00     0.002 A 
ENDROOT
BRANCH   1   7
ATOM      7  C2  UNL d   1      -0.354   0.694  -0.153  0.00  0.00     0.056 C 
BRANCH   7   8
ATOM      8  C1  UNL d   1      -1.857   0.666   0.147  0.00  0.00     0.007 C 
ATOM      9  C   UNL d   1      -2.720   0.727  -1.106  0.00  0.00     0.009 C 
ENDBRANCH   7   8
ENDBRANCH   1   7
TORSDOF 2
ENDMDL
