MODEL 1
REMARK minimizedAffinity -3.03853106
REMARK minimizedRMSD -1
REMARK  2 active torsions:
REMARK  status: ('A' for Active; 'I' for Inactive)
REMARK    1  A    between atoms: C1_2  and  C2_3 
REMARK    2  A    between atoms: C2_3  and  C3_4 
ROOT
ATOM      1  C3  UNL d   1      -2.125   0.410  -1.068  0.00  0.00    -0.075 A 
ATOM      2  C4  UNL d   1      -2.336  -0.866  -1.611  0.00  0.00     0.002 A 
ATOM      3  C5  UNL d   1      -3.049  -1.021  -2.800  0.00  0.00     0.002 A 
ATOM      4  C6  UNL d   1      -3.568   0.094  -3.455  0.00  0.00    -0.004 A 
ATOM      5  C7  UNL d   1      -3.378   1.365  -2.916  0.00  0.00     0.002 A 
ATOM      6  C8  UNL d   1      -2.661   1.523  -1.729  0.00  0.00     0.002 A 
ENDROOT
BRANCH   1   7
ATOM      7  C2  UNL d   1      -1.329   0.587   0.203  0.00  0.00     0.056 C 
BRANCH   7   8
ATOM      8  C1  UNL d   1       0.088   0.007   0.137  0.00  0.00     0.007 C 
ATOM      9  C   UNL d   1       1.163   1.069  -0.054  0.00  0.00     0.009 C 
ENDBRANCH   7   8
ENDBRANCH   1   7
TORSDOF 2
ENDMDL
