MODEL 1
REMARK minimizedAffinity -4.10975027
REMARK minimizedRMSD -1
REMARK  2 active torsions:
REMARK  status: ('A' for Active; 'I' for Inactive)
REMARK    1  A    between atoms: C1_2  and  C2_3 
REMARK    2  A    between atoms: C2_3  and  C3_4 
ROOT
ATOM      1  C3  UNL d   1      -0.414   0.210   0.232  0.00  0.00    -0.075 A 
ATOM      2  C4  UNL d   1       0.676  -0.629   0.506  0.00  0.00     0.002 A 
ATOM      3  C5  UNL d   1       1.870  -0.101   0.999  0.00  0.00     0.002 A 
ATOM      4  C6  UNL d   1       1.993   1.270   1.213  0.00  0.00    -0.004 A 
ATOM      5  C7  UNL d   1       0.923   2.115   0.929  0.00  0.00     0.002 A 
ATOM      6  C8  UNL d   1      -0.274   1.589   0.440  0.00  0.00     0.002 A 
ENDROOT
BRANCH   1   7
ATOM      7  C2  UNL d   1      -1.718  -0.358  -0.273  0.00  0.00     0.056 C 
BRANCH   7   8
ATOM      8  C1  UNL d   1      -2.184   0.239  -1.605  0.00  0.00     0.007 C 
ATOM      9  C   UNL d   1      -2.915  -0.763  -2.489  0.00  0.00     0.009 C 
ENDBRANCH   7   8
ENDBRANCH   1   7
TORSDOF 2
ENDMDL
