MODEL 1
REMARK minimizedAffinity -5.00690222
REMARK minimizedRMSD -1
REMARK  2 active torsions:
REMARK  status: ('A' for Active; 'I' for Inactive)
REMARK    1  A    between atoms: C1_2  and  C2_3 
REMARK    2  A    between atoms: C2_3  and  C3_4 
ROOT
ATOM      1  C3  UNL d   1      -1.247  -0.118  -1.154  0.00  0.00    -0.075 A 
ATOM      2  C4  UNL d   1      -1.577  -1.315  -1.805  0.00  0.00     0.002 A 
ATOM      3  C5  UNL d   1      -2.398  -1.305  -2.933  0.00  0.00     0.002 A 
ATOM      4  C6  UNL d   1      -2.907  -0.102  -3.417  0.00  0.00    -0.004 A 
ATOM      5  C7  UNL d   1      -2.599   1.092  -2.769  0.00  0.00     0.002 A 
ATOM      6  C8  UNL d   1      -1.774   1.085  -1.642  0.00  0.00     0.002 A 
ENDROOT
BRANCH   1   7
ATOM      7  C2  UNL d   1      -0.335  -0.119   0.050  0.00  0.00     0.056 C 
BRANCH   7   8
ATOM      8  C1  UNL d   1       0.762   0.950   0.002  0.00  0.00     0.007 C 
ATOM      9  C   UNL d   1       1.991   0.586   0.825  0.00  0.00     0.009 C 
ENDBRANCH   7   8
ENDBRANCH   1   7
TORSDOF 2
ENDMDL
