MODEL 1
REMARK minimizedAffinity -3.68366385
REMARK minimizedRMSD -1
REMARK  2 active torsions:
REMARK  status: ('A' for Active; 'I' for Inactive)
REMARK    1  A    between atoms: C1_2  and  C2_3 
REMARK    2  A    between atoms: C2_3  and  C3_4 
ROOT
ATOM      1  C3  UNL d   1      -0.339   0.284   0.191  0.00  0.00    -0.075 A 
ATOM      2  C4  UNL d   1       0.457  -0.566   0.973  0.00  0.00     0.002 A 
ATOM      3  C5  UNL d   1       1.774  -0.222   1.279  0.00  0.00     0.002 A 
ATOM      4  C6  UNL d   1       2.314   0.969   0.800  0.00  0.00    -0.004 A 
ATOM      5  C7  UNL d   1       1.539   1.814   0.008  0.00  0.00     0.002 A 
ATOM      6  C8  UNL d   1       0.219   1.473  -0.296  0.00  0.00     0.002 A 
ENDROOT
BRANCH   1   7
ATOM      7  C2  UNL d   1      -1.774  -0.069  -0.119  0.00  0.00     0.056 C 
BRANCH   7   8
ATOM      8  C1  UNL d   1      -2.271   0.468  -1.465  0.00  0.00     0.007 C 
ATOM      9  C   UNL d   1      -2.476  -0.623  -2.508  0.00  0.00     0.009 C 
ENDBRANCH   7   8
ENDBRANCH   1   7
TORSDOF 2
ENDMDL
