MODEL 1
REMARK minimizedAffinity -4.31021118
REMARK minimizedRMSD -1
REMARK  2 active torsions:
REMARK  status: ('A' for Active; 'I' for Inactive)
REMARK    1  A    between atoms: C1_2  and  C2_3 
REMARK    2  A    between atoms: C2_3  and  C3_4 
ROOT
ATOM      1  C3  UNL d   1      -1.735   0.479  -0.506  0.00  0.00    -0.075 A 
ATOM      2  C4  UNL d   1      -0.520   1.177  -0.556  0.00  0.00     0.002 A 
ATOM      3  C5  UNL d   1       0.544   0.806   0.267  0.00  0.00     0.002 A 
ATOM      4  C6  UNL d   1       0.404  -0.258   1.155  0.00  0.00    -0.004 A 
ATOM      5  C7  UNL d   1      -0.804  -0.948   1.224  0.00  0.00     0.002 A 
ATOM      6  C8  UNL d   1      -1.869  -0.582   0.399  0.00  0.00     0.002 A 
ENDROOT
BRANCH   1   7
ATOM      7  C2  UNL d   1      -2.880   0.857  -1.415  0.00  0.00     0.056 C 
BRANCH   7   8
ATOM      8  C1  UNL d   1      -2.637   0.532  -2.893  0.00  0.00     0.007 C 
ATOM      9  C   UNL d   1      -2.548  -0.962  -3.172  0.00  0.00     0.009 C 
ENDBRANCH   7   8
ENDBRANCH   1   7
TORSDOF 2
ENDMDL
