MODEL 1
REMARK minimizedAffinity 6.92055321
REMARK minimizedRMSD -1
REMARK  0 active torsions:
REMARK  status: ('A' for Active; 'I' for Inactive)
ROOT
ATOM      1  C   UNL d   1      -1.323  -0.906  -0.539  0.00  0.00     0.023 A 
ATOM      2  C1  UNL d   1      -1.277  -1.424  -1.834  0.00  0.00     0.003 A 
ATOM      3  C2  UNL d   1      -0.222  -2.254  -2.218  0.00  0.00     0.048 A 
ATOM      4  C3  UNL d   1       0.782  -2.564  -1.303  0.00  0.00     0.023 A 
ATOM      5  C4  UNL d   1       0.740  -2.050  -0.006  0.00  0.00     0.048 A 
ATOM      6  C5  UNL d   1      -0.316  -1.219   0.374  0.00  0.00     0.003 A 
ATOM      7  I   UNL d   1       2.353  -3.800  -1.872  0.00  0.00    -0.146 I 
ENDROOT
TORSDOF 0
ENDMDL
