MODEL 1
REMARK minimizedAffinity 7.08149815
REMARK minimizedRMSD -1
REMARK  0 active torsions:
REMARK  status: ('A' for Active; 'I' for Inactive)
ROOT
ATOM      1  C   UNL d   1       5.776  -3.779   4.600  0.00  0.00     0.023 A 
ATOM      2  C1  UNL d   1       4.499  -3.881   5.152  0.00  0.00     0.003 A 
ATOM      3  C2  UNL d   1       3.443  -3.145   4.611  0.00  0.00     0.048 A 
ATOM      4  C3  UNL d   1       3.670  -2.310   3.518  0.00  0.00     0.023 A 
ATOM      5  C4  UNL d   1       4.946  -2.205   2.962  0.00  0.00     0.048 A 
ATOM      6  C5  UNL d   1       6.000  -2.942   3.506  0.00  0.00     0.003 A 
ATOM      7  I   UNL d   1       2.100  -1.214   2.711  0.00  0.00    -0.146 I 
ENDROOT
TORSDOF 0
ENDMDL
