MODEL 1
REMARK minimizedAffinity 9.25406647
REMARK minimizedRMSD -1
REMARK  0 active torsions:
REMARK  status: ('A' for Active; 'I' for Inactive)
ROOT
ATOM      1  C   UNL d   1       2.609   1.808   1.049  0.00  0.00     0.023 A 
ATOM      2  C1  UNL d   1       2.927   0.644   0.348  0.00  0.00     0.003 A 
ATOM      3  C2  UNL d   1       2.920  -0.590   1.002  0.00  0.00     0.048 A 
ATOM      4  C3  UNL d   1       2.593  -0.653   2.356  0.00  0.00     0.023 A 
ATOM      5  C4  UNL d   1       2.273   0.508   3.061  0.00  0.00     0.048 A 
ATOM      6  C5  UNL d   1       2.282   1.740   2.403  0.00  0.00     0.003 A 
ATOM      7  I   UNL d   1       2.581  -2.489   3.330  0.00  0.00    -0.146 I 
ENDROOT
TORSDOF 0
ENDMDL
