MODEL 1
REMARK minimizedAffinity 1.43732095
REMARK minimizedRMSD -1
REMARK  0 active torsions:
REMARK  status: ('A' for Active; 'I' for Inactive)
ROOT
ATOM      1  C   UNL d   1       2.848  -1.078   3.664  0.00  0.00     0.023 A 
ATOM      2  C1  UNL d   1       2.170  -2.296   3.618  0.00  0.00     0.003 A 
ATOM      3  C2  UNL d   1       1.592  -2.730   2.423  0.00  0.00     0.048 A 
ATOM      4  C3  UNL d   1       1.697  -1.942   1.278  0.00  0.00     0.023 A 
ATOM      5  C4  UNL d   1       2.375  -0.722   1.319  0.00  0.00     0.048 A 
ATOM      6  C5  UNL d   1       2.950  -0.292   2.516  0.00  0.00     0.003 A 
ATOM      7  I   UNL d   1       0.838  -2.586  -0.502  0.00  0.00    -0.146 I 
ENDROOT
TORSDOF 0
ENDMDL
