MODEL 1
REMARK minimizedAffinity 6.13075924
REMARK minimizedRMSD -1
REMARK  0 active torsions:
REMARK  status: ('A' for Active; 'I' for Inactive)
ROOT
ATOM      1  C   UNL d   1      -2.208  -1.115   0.085  0.00  0.00     0.023 A 
ATOM      2  C1  UNL d   1      -0.936  -1.053   0.656  0.00  0.00     0.003 A 
ATOM      3  C2  UNL d   1       0.157  -1.609  -0.011  0.00  0.00     0.048 A 
ATOM      4  C3  UNL d   1      -0.027  -2.225  -1.249  0.00  0.00     0.023 A 
ATOM      5  C4  UNL d   1      -1.298  -2.288  -1.824  0.00  0.00     0.048 A 
ATOM      6  C5  UNL d   1      -2.388  -1.731  -1.153  0.00  0.00     0.003 A 
ATOM      7  I   UNL d   1       1.599  -3.053  -2.243  0.00  0.00    -0.146 I 
ENDROOT
TORSDOF 0
ENDMDL
