MODEL 1
REMARK minimizedAffinity 6.92661524
REMARK minimizedRMSD -1
REMARK  0 active torsions:
REMARK  status: ('A' for Active; 'I' for Inactive)
ROOT
ATOM      1  C   UNL d   1       6.000   5.999  -3.279  0.00  0.00     0.023 A 
ATOM      2  C1  UNL d   1       4.894   5.540  -3.994  0.00  0.00     0.003 A 
ATOM      3  C2  UNL d   1       3.764   5.079  -3.316  0.00  0.00     0.048 A 
ATOM      4  C3  UNL d   1       3.746   5.081  -1.922  0.00  0.00     0.023 A 
ATOM      5  C4  UNL d   1       4.849   5.541  -1.201  0.00  0.00     0.048 A 
ATOM      6  C5  UNL d   1       5.977   6.000  -1.884  0.00  0.00     0.003 A 
ATOM      7  I   UNL d   1       2.065   4.395  -0.910  0.00  0.00    -0.146 I 
ENDROOT
TORSDOF 0
ENDMDL
