MODEL 1
REMARK minimizedAffinity 3.57508016
REMARK minimizedRMSD -1
REMARK  0 active torsions:
REMARK  status: ('A' for Active; 'I' for Inactive)
ROOT
ATOM      1  C   UNL d   1      -1.557  -1.374  -2.151  0.00  0.00     0.023 A 
ATOM      2  C1  UNL d   1      -0.265  -1.895  -2.230  0.00  0.00     0.003 A 
ATOM      3  C2  UNL d   1       0.573  -1.861  -1.114  0.00  0.00     0.048 A 
ATOM      4  C3  UNL d   1       0.112  -1.306   0.080  0.00  0.00     0.023 A 
ATOM      5  C4  UNL d   1      -1.180  -0.785   0.164  0.00  0.00     0.048 A 
ATOM      6  C5  UNL d   1      -2.014  -0.820  -0.955  0.00  0.00     0.003 A 
ATOM      7  I   UNL d   1       1.357  -1.254   1.743  0.00  0.00    -0.146 I 
ENDROOT
TORSDOF 0
ENDMDL
