MODEL 1
REMARK minimizedAffinity 5.77696753
REMARK minimizedRMSD -1
REMARK  0 active torsions:
REMARK  status: ('A' for Active; 'I' for Inactive)
ROOT
ATOM      1  C   UNL d   1       2.261  -1.132   3.706  0.00  0.00     0.023 A 
ATOM      2  C1  UNL d   1       2.202  -0.023   2.862  0.00  0.00     0.003 A 
ATOM      3  C2  UNL d   1       1.447  -0.077   1.689  0.00  0.00     0.048 A 
ATOM      4  C3  UNL d   1       0.752  -1.242   1.366  0.00  0.00     0.023 A 
ATOM      5  C4  UNL d   1       0.807  -2.354   2.209  0.00  0.00     0.048 A 
ATOM      6  C5  UNL d   1       1.565  -2.296   3.380  0.00  0.00     0.003 A 
ATOM      7  I   UNL d   1      -0.373  -1.324  -0.379  0.00  0.00    -0.146 I 
ENDROOT
TORSDOF 0
ENDMDL
