MODEL 1
REMARK minimizedAffinity 4.2229476
REMARK minimizedRMSD -1
REMARK  0 active torsions:
REMARK  status: ('A' for Active; 'I' for Inactive)
ROOT
ATOM      1  C   UNL d   1       3.025   1.886   2.069  0.00  0.00     0.023 A 
ATOM      2  C1  UNL d   1       2.486   1.526   3.304  0.00  0.00     0.003 A 
ATOM      3  C2  UNL d   1       2.145   0.196   3.558  0.00  0.00     0.048 A 
ATOM      4  C3  UNL d   1       2.347  -0.769   2.572  0.00  0.00     0.023 A 
ATOM      5  C4  UNL d   1       2.887  -0.414   1.335  0.00  0.00     0.048 A 
ATOM      6  C5  UNL d   1       3.225   0.917   1.085  0.00  0.00     0.003 A 
ATOM      7  I   UNL d   1       1.840  -2.750   2.947  0.00  0.00    -0.146 I 
ENDROOT
TORSDOF 0
ENDMDL
