MODEL 1
REMARK minimizedAffinity -3.08642077
REMARK minimizedRMSD -1
REMARK  0 active torsions:
REMARK  status: ('A' for Active; 'I' for Inactive)
ROOT
ATOM      1  C2' OXE d   1      -0.714  -1.062  -0.809  0.00  0.00     0.078 C 
ATOM      2  C1' OXE d   1      -1.327  -0.417   1.853  0.00  0.00     0.078 C 
ATOM      3  C1  OXE d   1      -0.285   0.416   1.150  0.00  0.00    -0.078 A 
ATOM      4  C2  OXE d   1       0.043   0.064  -0.137  0.00  0.00    -0.078 A 
ATOM      5  C3  OXE d   1       0.958   0.833  -0.850  0.00  0.00     0.003 A 
ATOM      6  C4  OXE d   1       1.660   1.866  -0.218  0.00  0.00    -0.002 A 
ATOM      7  C5  OXE d   1       1.370   2.216   1.105  0.00  0.00    -0.002 A 
ATOM      8  C6  OXE d   1       0.372   1.530   1.788  0.00  0.00     0.003 A 
ENDROOT
TORSDOF 0
ENDMDL
