MODEL 1
REMARK minimizedAffinity -2.16786981
REMARK minimizedRMSD -1
REMARK  0 active torsions:
REMARK  status: ('A' for Active; 'I' for Inactive)
ROOT
ATOM      1  C2' OXE d   1      -0.192  -1.275  -1.356  0.00  0.00     0.078 C 
ATOM      2  C1' OXE d   1       2.349  -0.163  -0.926  0.00  0.00     0.078 C 
ATOM      3  C1  OXE d   1       1.207   0.346  -0.083  0.00  0.00    -0.078 A 
ATOM      4  C2  OXE d   1      -0.042  -0.171  -0.333  0.00  0.00    -0.078 A 
ATOM      5  C3  OXE d   1      -1.121   0.224   0.453  0.00  0.00     0.003 A 
ATOM      6  C4  OXE d   1      -0.976   1.254   1.391  0.00  0.00    -0.002 A 
ATOM      7  C5  OXE d   1       0.280   1.821   1.633  0.00  0.00    -0.002 A 
ATOM      8  C6  OXE d   1       1.387   1.350   0.936  0.00  0.00     0.003 A 
ENDROOT
TORSDOF 0
ENDMDL
