MODEL 1
REMARK minimizedAffinity -5.16210747
REMARK minimizedRMSD -1
REMARK  0 active torsions:
REMARK  status: ('A' for Active; 'I' for Inactive)
ROOT
ATOM      1  C2' OXE d   1      -1.304   0.633   1.606  0.00  0.00     0.078 C 
ATOM      2  C1' OXE d   1       0.912   2.251   1.014  0.00  0.00     0.078 C 
ATOM      3  C1  OXE d   1       0.921   0.832   0.503  0.00  0.00    -0.078 A 
ATOM      4  C2  OXE d   1      -0.147   0.033   0.837  0.00  0.00    -0.078 A 
ATOM      5  C3  OXE d   1      -0.215  -1.267   0.346  0.00  0.00     0.003 A 
ATOM      6  C4  OXE d   1       0.864  -1.817  -0.356  0.00  0.00    -0.002 A 
ATOM      7  C5  OXE d   1       1.979  -1.033  -0.673  0.00  0.00    -0.002 A 
ATOM      8  C6  OXE d   1       2.004   0.303  -0.288  0.00  0.00     0.003 A 
ENDROOT
TORSDOF 0
ENDMDL
