MODEL 1
REMARK minimizedAffinity -2.51299548
REMARK minimizedRMSD -1
REMARK  0 active torsions:
REMARK  status: ('A' for Active; 'I' for Inactive)
ROOT
ATOM      1  C2' OXE d   1       2.895  -0.193  -0.677  0.00  0.00     0.078 C 
ATOM      2  C1' OXE d   1       1.679   1.903   0.740  0.00  0.00     0.078 C 
ATOM      3  C1  OXE d   1       0.803   0.766   0.276  0.00  0.00    -0.078 A 
ATOM      4  C2  OXE d   1       1.398  -0.232  -0.457  0.00  0.00    -0.078 A 
ATOM      5  C3  OXE d   1       0.647  -1.331  -0.863  0.00  0.00     0.003 A 
ATOM      6  C4  OXE d   1      -0.739  -1.355  -0.665  0.00  0.00    -0.002 A 
ATOM      7  C5  OXE d   1      -1.372  -0.329   0.045  0.00  0.00    -0.002 A 
ATOM      8  C6  OXE d   1      -0.610   0.715   0.558  0.00  0.00     0.003 A 
ENDROOT
TORSDOF 0
ENDMDL
