MODEL 1
REMARK minimizedAffinity -3.08713198
REMARK minimizedRMSD -1
REMARK  0 active torsions:
REMARK  status: ('A' for Active; 'I' for Inactive)
ROOT
ATOM      1  C2' OXE d   1       2.088   1.057  -0.664  0.00  0.00     0.078 C 
ATOM      2  C1' OXE d   1       1.586   3.044   1.253  0.00  0.00     0.078 C 
ATOM      3  C1  OXE d   1       0.666   1.850   1.220  0.00  0.00    -0.078 A 
ATOM      4  C2  OXE d   1       0.891   0.905   0.249  0.00  0.00    -0.078 A 
ATOM      5  C3  OXE d   1       0.106  -0.244   0.209  0.00  0.00     0.003 A 
ATOM      6  C4  OXE d   1      -1.006  -0.372   1.051  0.00  0.00    -0.002 A 
ATOM      7  C5  OXE d   1      -1.277   0.598   2.021  0.00  0.00    -0.002 A 
ATOM      8  C6  OXE d   1      -0.428   1.691   2.147  0.00  0.00     0.003 A 
ENDROOT
TORSDOF 0
ENDMDL
