MODEL 1
REMARK minimizedAffinity -3.82507253
REMARK minimizedRMSD -1
REMARK  0 active torsions:
REMARK  status: ('A' for Active; 'I' for Inactive)
ROOT
ATOM      1  C2' OXE d   1       2.945   0.829  -0.543  0.00  0.00     0.078 C 
ATOM      2  C1' OXE d   1       1.341   2.558   0.979  0.00  0.00     0.078 C 
ATOM      3  C1  OXE d   1       0.740   1.247   0.538  0.00  0.00    -0.078 A 
ATOM      4  C2  OXE d   1       1.516   0.428  -0.246  0.00  0.00    -0.078 A 
ATOM      5  C3  OXE d   1       1.029  -0.817  -0.635  0.00  0.00     0.003 A 
ATOM      6  C4  OXE d   1      -0.297  -1.176  -0.364  0.00  0.00    -0.002 A 
ATOM      7  C5  OXE d   1      -1.117  -0.338   0.399  0.00  0.00    -0.002 A 
ATOM      8  C6  OXE d   1      -0.602   0.855   0.893  0.00  0.00     0.003 A 
ENDROOT
TORSDOF 0
ENDMDL
