MODEL 1
REMARK minimizedAffinity -5.49505806
REMARK minimizedRMSD -1
REMARK  0 active torsions:
REMARK  status: ('A' for Active; 'I' for Inactive)
ROOT
ATOM      1  C2' OXE d   1       1.776   0.561  -0.840  0.00  0.00     0.078 C 
ATOM      2  C1' OXE d   1      -0.614  -0.901  -0.671  0.00  0.00     0.078 C 
ATOM      3  C1  OXE d   1      -0.426   0.253   0.282  0.00  0.00    -0.078 A 
ATOM      4  C2  OXE d   1       0.766   0.934   0.223  0.00  0.00    -0.078 A 
ATOM      5  C3  OXE d   1       0.969   2.041   1.042  0.00  0.00     0.003 A 
ATOM      6  C4  OXE d   1       0.033   2.373   2.030  0.00  0.00    -0.002 A 
ATOM      7  C5  OXE d   1      -1.170   1.668   2.133  0.00  0.00    -0.002 A 
ATOM      8  C6  OXE d   1      -1.434   0.635   1.241  0.00  0.00     0.003 A 
ENDROOT
TORSDOF 0
ENDMDL
