MODEL 1
REMARK minimizedAffinity -4.6684494
REMARK minimizedRMSD -1
REMARK  0 active torsions:
REMARK  status: ('A' for Active; 'I' for Inactive)
ROOT
ATOM      1  C2' OXE d   1       0.931   2.908   0.991  0.00  0.00     0.078 C 
ATOM      2  C1' OXE d   1      -1.142   1.556   2.315  0.00  0.00     0.078 C 
ATOM      3  C1  OXE d   1      -0.473   0.857   1.159  0.00  0.00    -0.078 A 
ATOM      4  C2  OXE d   1       0.509   1.545   0.487  0.00  0.00    -0.078 A 
ATOM      5  C3  OXE d   1       1.196   0.926  -0.553  0.00  0.00     0.003 A 
ATOM      6  C4  OXE d   1       0.793  -0.331  -1.020  0.00  0.00    -0.002 A 
ATOM      7  C5  OXE d   1      -0.231  -1.033  -0.375  0.00  0.00    -0.002 A 
ATOM      8  C6  OXE d   1      -0.844  -0.472   0.740  0.00  0.00     0.003 A 
ENDROOT
TORSDOF 0
ENDMDL
