MODEL 1
REMARK minimizedAffinity -2.83364606
REMARK minimizedRMSD -1
REMARK  0 active torsions:
REMARK  status: ('A' for Active; 'I' for Inactive)
ROOT
ATOM      1  C2' OXE d   1       2.270  -0.310  -0.799  0.00  0.00     0.078 C 
ATOM      2  C1' OXE d   1      -0.400  -0.815  -1.506  0.00  0.00     0.078 C 
ATOM      3  C1  OXE d   1      -0.143   0.125  -0.356  0.00  0.00    -0.078 A 
ATOM      4  C2  OXE d   1       1.165   0.330   0.014  0.00  0.00    -0.078 A 
ATOM      5  C3  OXE d   1       1.460   1.230   1.033  0.00  0.00     0.003 A 
ATOM      6  C4  OXE d   1       0.432   1.810   1.787  0.00  0.00    -0.002 A 
ATOM      7  C5  OXE d   1      -0.907   1.584   1.453  0.00  0.00    -0.002 A 
ATOM      8  C6  OXE d   1      -1.211   0.779   0.360  0.00  0.00     0.003 A 
ENDROOT
TORSDOF 0
ENDMDL
