MODEL 1
REMARK minimizedAffinity -2.42590022
REMARK minimizedRMSD -1
REMARK  0 active torsions:
REMARK  status: ('A' for Active; 'I' for Inactive)
ROOT
ATOM      1  C2' OXE d   1       0.086  -1.301  -0.745  0.00  0.00     0.078 C 
ATOM      2  C1' OXE d   1       2.562   0.007  -0.944  0.00  0.00     0.078 C 
ATOM      3  C1  OXE d   1       1.505   0.632  -0.068  0.00  0.00    -0.078 A 
ATOM      4  C2  OXE d   1       0.280   0.010  -0.014  0.00  0.00    -0.078 A 
ATOM      5  C3  OXE d   1      -0.712   0.514   0.822  0.00  0.00     0.003 A 
ATOM      6  C4  OXE d   1      -0.528   1.733   1.486  0.00  0.00    -0.002 A 
ATOM      7  C5  OXE d   1       0.698   2.403   1.413  0.00  0.00    -0.002 A 
ATOM      8  C6  OXE d   1       1.737   1.845   0.675  0.00  0.00     0.003 A 
ENDROOT
TORSDOF 0
ENDMDL
