MODEL 1
REMARK minimizedAffinity -3.47828913
REMARK minimizedRMSD -1
REMARK  0 active torsions:
REMARK  status: ('A' for Active; 'I' for Inactive)
ROOT
ATOM      1  C2' OXE d   1       2.287   1.195  -0.762  0.00  0.00     0.078 C 
ATOM      2  C1' OXE d   1       1.070   2.980   1.031  0.00  0.00     0.078 C 
ATOM      3  C1  OXE d   1       0.369   1.673   0.753  0.00  0.00    -0.078 A 
ATOM      4  C2  OXE d   1       0.948   0.826  -0.161  0.00  0.00    -0.078 A 
ATOM      5  C3  OXE d   1       0.372  -0.415  -0.412  0.00  0.00     0.003 A 
ATOM      6  C4  OXE d   1      -0.872  -0.744   0.140  0.00  0.00    -0.002 A 
ATOM      7  C5  OXE d   1      -1.499   0.121   1.043  0.00  0.00    -0.002 A 
ATOM      8  C6  OXE d   1      -0.873   1.312   1.392  0.00  0.00     0.003 A 
ENDROOT
TORSDOF 0
ENDMDL
