MODEL 1
REMARK minimizedAffinity -4.62652683
REMARK minimizedRMSD -1
REMARK  0 active torsions:
REMARK  status: ('A' for Active; 'I' for Inactive)
ROOT
ATOM      1  C2' OXE d   1      -0.473  -0.821  -0.748  0.00  0.00     0.078 C 
ATOM      2  C1' OXE d   1      -1.444  -0.265   1.827  0.00  0.00     0.078 C 
ATOM      3  C1  OXE d   1      -0.502   0.732   1.200  0.00  0.00    -0.078 A 
ATOM      4  C2  OXE d   1       0.005   0.429  -0.041  0.00  0.00    -0.078 A 
ATOM      5  C3  OXE d   1       0.835   1.340  -0.688  0.00  0.00     0.003 A 
ATOM      6  C4  OXE d   1       1.280   2.490  -0.024  0.00  0.00    -0.002 A 
ATOM      7  C5  OXE d   1       0.808   2.797   1.256  0.00  0.00    -0.002 A 
ATOM      8  C6  OXE d   1      -0.115   1.953   1.864  0.00  0.00     0.003 A 
ENDROOT
TORSDOF 0
ENDMDL
