MODEL 1
REMARK minimizedAffinity -5.02983952
REMARK minimizedRMSD -1
REMARK  0 active torsions:
REMARK  status: ('A' for Active; 'I' for Inactive)
ROOT
ATOM      1  C2' OXE d   1      -1.435   1.402   1.753  0.00  0.00     0.078 C 
ATOM      2  C1' OXE d   1       1.108   2.431   1.157  0.00  0.00     0.078 C 
ATOM      3  C1  OXE d   1       0.714   1.119   0.525  0.00  0.00    -0.078 A 
ATOM      4  C2  OXE d   1      -0.514   0.600   0.860  0.00  0.00    -0.078 A 
ATOM      5  C3  OXE d   1      -0.949  -0.580   0.263  0.00  0.00     0.003 A 
ATOM      6  C4  OXE d   1      -0.087  -1.321  -0.555  0.00  0.00    -0.002 A 
ATOM      7  C5  OXE d   1       1.183  -0.830  -0.876  0.00  0.00    -0.002 A 
ATOM      8  C6  OXE d   1       1.582   0.406  -0.379  0.00  0.00     0.003 A 
ENDROOT
TORSDOF 0
ENDMDL
