MODEL 1
REMARK minimizedAffinity -4.70938921
REMARK minimizedRMSD -1
REMARK  0 active torsions:
REMARK  status: ('A' for Active; 'I' for Inactive)
ROOT
ATOM      1  C2' OXE d   1      -0.253  -1.292  -0.126  0.00  0.00     0.078 C 
ATOM      2  C1' OXE d   1       2.178  -0.090  -0.852  0.00  0.00     0.078 C 
ATOM      3  C1  OXE d   1       1.206   0.725  -0.036  0.00  0.00    -0.078 A 
ATOM      4  C2  OXE d   1      -0.000   0.146   0.275  0.00  0.00    -0.078 A 
ATOM      5  C3  OXE d   1      -0.910   0.833   1.073  0.00  0.00     0.003 A 
ATOM      6  C4  OXE d   1      -0.673   2.166   1.431  0.00  0.00    -0.002 A 
ATOM      7  C5  OXE d   1       0.532   2.789   1.091  0.00  0.00    -0.002 A 
ATOM      8  C6  OXE d   1       1.498   2.070   0.396  0.00  0.00     0.003 A 
ENDROOT
TORSDOF 0
ENDMDL
