MODEL 1
REMARK minimizedAffinity -5.51913929
REMARK minimizedRMSD -1
REMARK  0 active torsions:
REMARK  status: ('A' for Active; 'I' for Inactive)
ROOT
ATOM      1  C2' OXE d   1      -1.911   0.066   1.931  0.00  0.00     0.078 C 
ATOM      2  C1' OXE d   1      -0.867  -0.935  -0.475  0.00  0.00     0.078 C 
ATOM      3  C1  OXE d   1      -0.244   0.314   0.096  0.00  0.00    -0.078 A 
ATOM      4  C2  OXE d   1      -0.792   0.824   1.249  0.00  0.00    -0.078 A 
ATOM      5  C3  OXE d   1      -0.220   1.943   1.847  0.00  0.00     0.003 A 
ATOM      6  C4  OXE d   1       0.808   2.643   1.204  0.00  0.00    -0.002 A 
ATOM      7  C5  OXE d   1       1.354   2.164   0.009  0.00  0.00    -0.002 A 
ATOM      8  C6  OXE d   1       0.868   0.980  -0.535  0.00  0.00     0.003 A 
ENDROOT
TORSDOF 0
ENDMDL
