MODEL 1
REMARK minimizedAffinity -4.05571318
REMARK minimizedRMSD -1
REMARK  0 active torsions:
REMARK  status: ('A' for Active; 'I' for Inactive)
ROOT
ATOM      1  C2' OXE d   1       2.080  -0.860  -0.412  0.00  0.00     0.078 C 
ATOM      2  C1' OXE d   1      -0.721  -0.819  -0.230  0.00  0.00     0.078 C 
ATOM      3  C1  OXE d   1       0.030   0.412   0.210  0.00  0.00    -0.078 A 
ATOM      4  C2  OXE d   1       1.403   0.366   0.161  0.00  0.00    -0.078 A 
ATOM      5  C3  OXE d   1       2.143   1.494   0.504  0.00  0.00     0.003 A 
ATOM      6  C4  OXE d   1       1.509   2.621   1.043  0.00  0.00    -0.002 A 
ATOM      7  C5  OXE d   1       0.115   2.673   1.139  0.00  0.00    -0.002 A 
ATOM      8  C6  OXE d   1      -0.640   1.596   0.688  0.00  0.00     0.003 A 
ENDROOT
TORSDOF 0
ENDMDL
