MODEL 1
REMARK minimizedAffinity -6.52987576
REMARK minimizedRMSD -1
REMARK  0 active torsions:
REMARK  status: ('A' for Active; 'I' for Inactive)
ROOT
ATOM      1  C2' OXE d   1       0.512  -0.590  -0.255  0.00  0.00     0.078 C 
ATOM      2  C1' OXE d   1      -1.039   1.125   1.337  0.00  0.00     0.078 C 
ATOM      3  C1  OXE d   1       0.393   1.517   1.069  0.00  0.00    -0.078 A 
ATOM      4  C2  OXE d   1       1.157   0.649   0.327  0.00  0.00    -0.078 A 
ATOM      5  C3  OXE d   1       2.468   0.988   0.005  0.00  0.00     0.003 A 
ATOM      6  C4  OXE d   1       3.061   2.130   0.556  0.00  0.00    -0.002 A 
ATOM      7  C5  OXE d   1       2.311   3.008   1.346  0.00  0.00    -0.002 A 
ATOM      8  C6  OXE d   1       0.967   2.738   1.577  0.00  0.00     0.003 A 
ENDROOT
TORSDOF 0
ENDMDL
