MODEL 1
REMARK minimizedAffinity -3.78040123
REMARK minimizedRMSD -1
REMARK  0 active torsions:
REMARK  status: ('A' for Active; 'I' for Inactive)
ROOT
ATOM      1  C2' OXE d   1       1.358   2.868   1.096  0.00  0.00     0.078 C 
ATOM      2  C1' OXE d   1      -0.489   1.706   2.861  0.00  0.00     0.078 C 
ATOM      3  C1  OXE d   1      -0.183   0.972   1.579  0.00  0.00    -0.078 A 
ATOM      4  C2  OXE d   1       0.687   1.571   0.700  0.00  0.00    -0.078 A 
ATOM      5  C3  OXE d   1       1.045   0.912  -0.472  0.00  0.00     0.003 A 
ATOM      6  C4  OXE d   1       0.412  -0.283  -0.836  0.00  0.00    -0.002 A 
ATOM      7  C5  OXE d   1      -0.507  -0.890   0.027  0.00  0.00    -0.002 A 
ATOM      8  C6  OXE d   1      -0.783  -0.299   1.254  0.00  0.00     0.003 A 
ENDROOT
TORSDOF 0
ENDMDL
