MODEL 1
REMARK minimizedAffinity -0.0910366327
REMARK minimizedRMSD -1
REMARK  0 active torsions:
REMARK  status: ('A' for Active; 'I' for Inactive)
ROOT
ATOM      1  C4' PXY d   1       2.214  -1.630   0.455  0.00  0.00     0.077 C 
ATOM      2  C1' PXY d   1      -1.259   2.586   2.347  0.00  0.00     0.077 C 
ATOM      3  C1  PXY d   1      -0.358   1.476   1.843  0.00  0.00    -0.082 A 
ATOM      4  C2  PXY d   1       0.634   1.042   2.604  0.00  0.00     0.003 A 
ATOM      5  C3  PXY d   1       1.479   0.062   2.150  0.00  0.00     0.003 A 
ATOM      6  C4  PXY d   1       1.273  -0.518   0.927  0.00  0.00    -0.082 A 
ATOM      7  C5  PXY d   1       0.257  -0.088   0.149  0.00  0.00     0.003 A 
ATOM      8  C6  PXY d   1      -0.564   0.937   0.611  0.00  0.00     0.003 A 
ENDROOT
TORSDOF 0
ENDMDL
