MODEL 1
REMARK minimizedAffinity 0.959324837
REMARK minimizedRMSD -1
REMARK  0 active torsions:
REMARK  status: ('A' for Active; 'I' for Inactive)
ROOT
ATOM      1  C4' PXY d   1       1.300   0.692  -3.679  0.00  0.00     0.077 C 
ATOM      2  C1' PXY d   1      -2.391  -3.150  -1.436  0.00  0.00     0.077 C 
ATOM      3  C1  PXY d   1      -1.423  -2.136  -2.013  0.00  0.00    -0.082 A 
ATOM      4  C2  PXY d   1      -1.326  -1.998  -3.326  0.00  0.00     0.003 A 
ATOM      5  C3  PXY d   1      -0.433  -1.108  -3.865  0.00  0.00     0.003 A 
ATOM      6  C4  PXY d   1       0.330  -0.313  -3.052  0.00  0.00    -0.082 A 
ATOM      7  C5  PXY d   1       0.229  -0.440  -1.712  0.00  0.00     0.003 A 
ATOM      8  C6  PXY d   1      -0.654  -1.378  -1.185  0.00  0.00     0.003 A 
ENDROOT
TORSDOF 0
ENDMDL
