MODEL 1
REMARK minimizedAffinity -3.3008759
REMARK minimizedRMSD -1
REMARK  0 active torsions:
REMARK  status: ('A' for Active; 'I' for Inactive)
ROOT
ATOM      1  C4' PXY d   1      -1.837  -2.526  -1.236  0.00  0.00     0.077 C 
ATOM      2  C1' PXY d   1      -0.862   1.819   2.450  0.00  0.00     0.077 C 
ATOM      3  C1  PXY d   1      -1.108   0.684   1.476  0.00  0.00    -0.082 A 
ATOM      4  C2  PXY d   1      -2.290   0.089   1.450  0.00  0.00     0.003 A 
ATOM      5  C3  PXY d   1      -2.519  -0.960   0.598  0.00  0.00     0.003 A 
ATOM      6  C4  PXY d   1      -1.547  -1.369  -0.275  0.00  0.00    -0.082 A 
ATOM      7  C5  PXY d   1      -0.342  -0.760  -0.263  0.00  0.00     0.003 A 
ATOM      8  C6  PXY d   1      -0.116   0.276   0.639  0.00  0.00     0.003 A 
ENDROOT
TORSDOF 0
ENDMDL
