MODEL 1
REMARK minimizedAffinity -2.21570683
REMARK minimizedRMSD -1
REMARK  0 active torsions:
REMARK  status: ('A' for Active; 'I' for Inactive)
ROOT
ATOM      1  C4' PXY d   1      -0.376  -1.628  -1.607  0.00  0.00     0.077 C 
ATOM      2  C1' PXY d   1      -0.356   1.977   2.912  0.00  0.00     0.077 C 
ATOM      3  C1  PXY d   1      -0.349   1.036   1.724  0.00  0.00    -0.082 A 
ATOM      4  C2  PXY d   1      -1.496   0.626   1.207  0.00  0.00     0.003 A 
ATOM      5  C3  PXY d   1      -1.509  -0.251   0.153  0.00  0.00     0.003 A 
ATOM      6  C4  PXY d   1      -0.334  -0.670  -0.413  0.00  0.00    -0.082 A 
ATOM      7  C5  PXY d   1       0.840  -0.248   0.101  0.00  0.00     0.003 A 
ATOM      8  C6  PXY d   1       0.831   0.609   1.198  0.00  0.00     0.003 A 
ENDROOT
TORSDOF 0
ENDMDL
