MODEL 1
REMARK minimizedAffinity -0.665891171
REMARK minimizedRMSD -1
REMARK  0 active torsions:
REMARK  status: ('A' for Active; 'I' for Inactive)
ROOT
ATOM      1  C4' PXY d   1      -1.785  -0.817  -5.656  0.00  0.00     0.077 C 
ATOM      2  C1' PXY d   1       2.994   1.749  -3.658  0.00  0.00     0.077 C 
ATOM      3  C1  PXY d   1       1.738   1.087  -4.190  0.00  0.00    -0.082 A 
ATOM      4  C2  PXY d   1       1.155   0.130  -3.485  0.00  0.00     0.003 A 
ATOM      5  C3  PXY d   1       0.037  -0.502  -3.966  0.00  0.00     0.003 A 
ATOM      6  C4  PXY d   1      -0.521  -0.114  -5.155  0.00  0.00    -0.082 A 
ATOM      7  C5  PXY d   1       0.062   0.869  -5.874  0.00  0.00     0.003 A 
ATOM      8  C6  PXY d   1       1.220   1.469  -5.388  0.00  0.00     0.003 A 
ENDROOT
TORSDOF 0
ENDMDL
