MODEL 1
REMARK minimizedAffinity -0.740500748
REMARK minimizedRMSD -1
REMARK  0 active torsions:
REMARK  status: ('A' for Active; 'I' for Inactive)
ROOT
ATOM      1  C4' PXY d   1       0.736  -0.996  -2.402  0.00  0.00     0.077 C 
ATOM      2  C1' PXY d   1       0.038   0.685   3.085  0.00  0.00     0.077 C 
ATOM      3  C1  PXY d   1       0.226   0.233   1.650  0.00  0.00    -0.082 A 
ATOM      4  C2  PXY d   1       0.326   1.135   0.688  0.00  0.00     0.003 A 
ATOM      5  C3  PXY d   1       0.464   0.743  -0.619  0.00  0.00     0.003 A 
ATOM      6  C4  PXY d   1       0.555  -0.585  -0.938  0.00  0.00    -0.082 A 
ATOM      7  C5  PXY d   1       0.464  -1.512   0.040  0.00  0.00     0.003 A 
ATOM      8  C6  PXY d   1       0.283  -1.094   1.355  0.00  0.00     0.003 A 
ENDROOT
TORSDOF 0
ENDMDL
