MODEL 1
REMARK minimizedAffinity 5.43536091
REMARK minimizedRMSD -1
REMARK  0 active torsions:
REMARK  status: ('A' for Active; 'I' for Inactive)
ROOT
ATOM      1  O1  BZF d   1      -2.768   0.926   2.019  0.00  0.00    -0.204 OA
ATOM      2  C2  BZF d   1      -3.716   1.039   3.018  0.00  0.00     0.174 A 
ATOM      3  C3  BZF d   1      -3.157   1.487   4.160  0.00  0.00    -0.012 A 
ATOM      4  C3A BZF d   1      -1.790   1.752   3.831  0.00  0.00    -0.107 A 
ATOM      5  C4  BZF d   1      -0.728   2.231   4.544  0.00  0.00     0.055 A 
ATOM      6  C5  BZF d   1       0.491   2.302   3.947  0.00  0.00    -0.016 A 
ATOM      7  C6  BZF d   1       0.684   1.898   2.642  0.00  0.00     0.022 A 
ATOM      8  C7  BZF d   1      -0.340   1.421   1.893  0.00  0.00     0.029 A 
ATOM      9  C7A BZF d   1      -1.579   1.379   2.483  0.00  0.00     0.058 A 
ENDROOT
TORSDOF 0
ENDMDL
