MODEL 1
REMARK minimizedAffinity 25.8238888
REMARK minimizedRMSD -1
REMARK  0 active torsions:
REMARK  status: ('A' for Active; 'I' for Inactive)
ROOT
ATOM      1  O1  BZF d   1      -1.507   5.238  -3.857  0.00  0.00    -0.204 OA
ATOM      2  C2  BZF d   1      -1.885   6.000  -4.946  0.00  0.00     0.174 A 
ATOM      3  C3  BZF d   1      -2.275   5.212  -5.969  0.00  0.00    -0.012 A 
ATOM      4  C3A BZF d   1      -2.221   3.877  -5.457  0.00  0.00    -0.107 A 
ATOM      5  C4  BZF d   1      -2.507   2.654  -5.993  0.00  0.00     0.055 A 
ATOM      6  C5  BZF d   1      -2.277   1.538  -5.252  0.00  0.00    -0.016 A 
ATOM      7  C6  BZF d   1      -1.758   1.608  -3.976  0.00  0.00     0.022 A 
ATOM      8  C7  BZF d   1      -1.463   2.799  -3.400  0.00  0.00     0.029 A 
ATOM      9  C7A BZF d   1      -1.725   3.930  -4.134  0.00  0.00     0.058 A 
ENDROOT
TORSDOF 0
ENDMDL
