MODEL 1
REMARK minimizedAffinity 23.3031578
REMARK minimizedRMSD -1
REMARK  0 active torsions:
REMARK  status: ('A' for Active; 'I' for Inactive)
ROOT
ATOM      1  O1  BZF d   1       0.298   0.220   2.438  0.00  0.00    -0.204 OA
ATOM      2  C2  BZF d   1       0.473   1.336   3.234  0.00  0.00     0.174 A 
ATOM      3  C3  BZF d   1       1.517   2.073   2.803  0.00  0.00    -0.012 A 
ATOM      4  C3A BZF d   1       1.969   1.422   1.611  0.00  0.00    -0.107 A 
ATOM      5  C4  BZF d   1       2.968   1.688   0.718  0.00  0.00     0.055 A 
ATOM      6  C5  BZF d   1       3.194   0.815  -0.299  0.00  0.00    -0.016 A 
ATOM      7  C6  BZF d   1       2.446  -0.334  -0.449  0.00  0.00     0.022 A 
ATOM      8  C7  BZF d   1       1.442  -0.638   0.410  0.00  0.00     0.029 A 
ATOM      9  C7A BZF d   1       1.189   0.259   1.419  0.00  0.00     0.058 A 
ENDROOT
TORSDOF 0
ENDMDL
