MODEL 1
REMARK minimizedAffinity 16.9081039
REMARK minimizedRMSD -1
REMARK  0 active torsions:
REMARK  status: ('A' for Active; 'I' for Inactive)
ROOT
ATOM      1  O1  BZF d   1      -3.467   1.866   3.100  0.00  0.00    -0.204 OA
ATOM      2  C2  BZF d   1      -3.938   0.864   3.927  0.00  0.00     0.174 A 
ATOM      3  C3  BZF d   1      -2.932   0.059   4.324  0.00  0.00    -0.012 A 
ATOM      4  C3A BZF d   1      -1.745   0.645   3.780  0.00  0.00    -0.107 A 
ATOM      5  C4  BZF d   1      -0.421   0.313   3.841  0.00  0.00     0.055 A 
ATOM      6  C5  BZF d   1       0.478   1.052   3.140  0.00  0.00    -0.016 A 
ATOM      7  C6  BZF d   1       0.089   2.125   2.364  0.00  0.00     0.022 A 
ATOM      8  C7  BZF d   1      -1.212   2.495   2.277  0.00  0.00     0.029 A 
ATOM      9  C7A BZF d   1      -2.119   1.771   3.011  0.00  0.00     0.058 A 
ENDROOT
TORSDOF 0
ENDMDL
