MODEL 1
REMARK minimizedAffinity 12.5776939
REMARK minimizedRMSD -1
REMARK  0 active torsions:
REMARK  status: ('A' for Active; 'I' for Inactive)
ROOT
ATOM      1  O1  BZF d   1      -5.304   3.365  -5.972  0.00  0.00    -0.204 OA
ATOM      2  C2  BZF d   1      -5.992   4.563  -5.992  0.00  0.00     0.174 A 
ATOM      3  C3  BZF d   1      -5.138   5.606  -5.949  0.00  0.00    -0.012 A 
ATOM      4  C3A BZF d   1      -3.831   5.025  -5.992  0.00  0.00    -0.107 A 
ATOM      5  C4  BZF d   1      -2.570   5.549  -5.994  0.00  0.00     0.055 A 
ATOM      6  C5  BZF d   1      -1.505   4.705  -5.968  0.00  0.00    -0.016 A 
ATOM      7  C6  BZF d   1      -1.664   3.335  -5.934  0.00  0.00     0.022 A 
ATOM      8  C7  BZF d   1      -2.895   2.769  -5.936  0.00  0.00     0.029 A 
ATOM      9  C7A BZF d   1      -3.973   3.618  -5.996  0.00  0.00     0.058 A 
ENDROOT
TORSDOF 0
ENDMDL
