MODEL 1
REMARK minimizedAffinity 25.8830833
REMARK minimizedRMSD -1
REMARK  0 active torsions:
REMARK  status: ('A' for Active; 'I' for Inactive)
ROOT
ATOM      1  O1  BZF d   1      -4.466   0.090   2.854  0.00  0.00    -0.204 OA
ATOM      2  C2  BZF d   1      -3.649  -0.920   3.324  0.00  0.00     0.174 A 
ATOM      3  C3  BZF d   1      -3.166  -0.615   4.545  0.00  0.00    -0.012 A 
ATOM      4  C3A BZF d   1      -3.789   0.624   4.898  0.00  0.00    -0.107 A 
ATOM      5  C4  BZF d   1      -3.723   1.428   6.000  0.00  0.00     0.055 A 
ATOM      6  C5  BZF d   1      -4.399   2.607   5.999  0.00  0.00    -0.016 A 
ATOM      7  C6  BZF d   1      -5.146   3.014   4.913  0.00  0.00     0.022 A 
ATOM      8  C7  BZF d   1      -5.245   2.249   3.799  0.00  0.00     0.029 A 
ATOM      9  C7A BZF d   1      -4.590   1.042   3.810  0.00  0.00     0.058 A 
ENDROOT
TORSDOF 0
ENDMDL
