MODEL 1
REMARK minimizedAffinity 12.4691839
REMARK minimizedRMSD -1
REMARK  0 active torsions:
REMARK  status: ('A' for Active; 'I' for Inactive)
ROOT
ATOM      1  O1  BZF d   1      -1.201   4.693  -3.396  0.00  0.00    -0.204 OA
ATOM      2  C2  BZF d   1      -1.445   5.980  -3.833  0.00  0.00     0.174 A 
ATOM      3  C3  BZF d   1      -2.264   5.975  -4.904  0.00  0.00    -0.012 A 
ATOM      4  C3A BZF d   1      -2.625   4.604  -5.096  0.00  0.00    -0.107 A 
ATOM      5  C4  BZF d   1      -3.429   3.961  -5.992  0.00  0.00     0.055 A 
ATOM      6  C5  BZF d   1      -3.510   2.605  -5.953  0.00  0.00    -0.016 A 
ATOM      7  C6  BZF d   1      -2.798   1.861  -5.035  0.00  0.00     0.022 A 
ATOM      8  C7  BZF d   1      -1.991   2.455  -4.123  0.00  0.00     0.029 A 
ATOM      9  C7A BZF d   1      -1.932   3.827  -4.138  0.00  0.00     0.058 A 
ENDROOT
TORSDOF 0
ENDMDL
