MODEL 1
REMARK minimizedAffinity 19.3322506
REMARK minimizedRMSD -1
REMARK  0 active torsions:
REMARK  status: ('A' for Active; 'I' for Inactive)
ROOT
ATOM      1  O1  BZF d   1      -2.898   0.542  -4.127  0.00  0.00    -0.204 OA
ATOM      2  C2  BZF d   1      -2.166   1.677  -3.836  0.00  0.00     0.174 A 
ATOM      3  C3  BZF d   1      -0.952   1.351  -3.346  0.00  0.00    -0.012 A 
ATOM      4  C3A BZF d   1      -0.889  -0.076  -3.417  0.00  0.00    -0.107 A 
ATOM      5  C4  BZF d   1       0.071  -0.991  -3.091  0.00  0.00     0.055 A 
ATOM      6  C5  BZF d   1      -0.209  -2.315  -3.212  0.00  0.00    -0.016 A 
ATOM      7  C6  BZF d   1      -1.439  -2.759  -3.652  0.00  0.00     0.022 A 
ATOM      8  C7  BZF d   1      -2.421  -1.890  -3.992  0.00  0.00     0.029 A 
ATOM      9  C7A BZF d   1      -2.130  -0.551  -3.902  0.00  0.00     0.058 A 
ENDROOT
TORSDOF 0
ENDMDL
