MODEL 1
REMARK minimizedAffinity 23.2063465
REMARK minimizedRMSD -1
REMARK  0 active torsions:
REMARK  status: ('A' for Active; 'I' for Inactive)
ROOT
ATOM      1  O1  BZF d   1       1.517   4.773   0.265  0.00  0.00    -0.204 OA
ATOM      2  C2  BZF d   1       1.299   5.585  -0.831  0.00  0.00     0.174 A 
ATOM      3  C3  BZF d   1       1.862   5.057  -1.937  0.00  0.00    -0.012 A 
ATOM      4  C3A BZF d   1       2.392   3.794  -1.524  0.00  0.00    -0.107 A 
ATOM      5  C4  BZF d   1       3.056   2.796  -2.177  0.00  0.00     0.055 A 
ATOM      6  C5  BZF d   1       3.501   1.725  -1.469  0.00  0.00    -0.016 A 
ATOM      7  C6  BZF d   1       3.304   1.622  -0.107  0.00  0.00     0.022 A 
ATOM      8  C7  BZF d   1       2.646   2.585   0.584  0.00  0.00     0.029 A 
ATOM      9  C7A BZF d   1       2.167   3.653  -0.135  0.00  0.00     0.058 A 
ENDROOT
TORSDOF 0
ENDMDL
