MODEL 1
REMARK minimizedAffinity 23.6480503
REMARK minimizedRMSD -1
REMARK  0 active torsions:
REMARK  status: ('A' for Active; 'I' for Inactive)
ROOT
ATOM      1  O1  BZF d   1       3.762   2.198  -1.549  0.00  0.00    -0.204 OA
ATOM      2  C2  BZF d   1       4.333   2.111  -0.294  0.00  0.00     0.174 A 
ATOM      3  C3  BZF d   1       3.910   1.004   0.349  0.00  0.00    -0.012 A 
ATOM      4  C3A BZF d   1       3.090   0.310  -0.597  0.00  0.00    -0.107 A 
ATOM      5  C4  BZF d   1       2.396  -0.865  -0.554  0.00  0.00     0.055 A 
ATOM      6  C5  BZF d   1       1.636  -1.223  -1.622  0.00  0.00    -0.016 A 
ATOM      7  C6  BZF d   1       1.542  -0.428  -2.745  0.00  0.00     0.022 A 
ATOM      8  C7  BZF d   1       2.216   0.745  -2.836  0.00  0.00     0.029 A 
ATOM      9  C7A BZF d   1       3.011   1.093  -1.772  0.00  0.00     0.058 A 
ENDROOT
TORSDOF 0
ENDMDL
