MODEL 1
REMARK minimizedAffinity 5.24959087
REMARK minimizedRMSD -1
REMARK  0 active torsions:
REMARK  status: ('A' for Active; 'I' for Inactive)
ROOT
ATOM      1  O1  BZF d   1      -1.131   3.759  -3.737  0.00  0.00    -0.204 OA
ATOM      2  C2  BZF d   1      -0.625   4.942  -3.234  0.00  0.00     0.174 A 
ATOM      3  C3  BZF d   1      -1.296   6.000  -3.735  0.00  0.00    -0.012 A 
ATOM      4  C3A BZF d   1      -2.342   5.438  -4.534  0.00  0.00    -0.107 A 
ATOM      5  C4  BZF d   1      -3.350   5.982  -5.277  0.00  0.00     0.055 A 
ATOM      6  C5  BZF d   1      -4.158   5.159  -5.996  0.00  0.00    -0.016 A 
ATOM      7  C6  BZF d   1      -3.982   3.790  -6.000  0.00  0.00     0.022 A 
ATOM      8  C7  BZF d   1      -2.999   3.205  -5.274  0.00  0.00     0.029 A 
ATOM      9  C7A BZF d   1      -2.202   4.031  -4.520  0.00  0.00     0.058 A 
ENDROOT
TORSDOF 0
ENDMDL
