MODEL 1
REMARK minimizedAffinity 16.369524
REMARK minimizedRMSD -1
REMARK  0 active torsions:
REMARK  status: ('A' for Active; 'I' for Inactive)
ROOT
ATOM      1  O1  BZF d   1      -1.735   4.513  -3.533  0.00  0.00    -0.204 OA
ATOM      2  C2  BZF d   1      -1.655   3.366  -4.299  0.00  0.00     0.174 A 
ATOM      3  C3  BZF d   1      -0.429   2.812  -4.203  0.00  0.00    -0.012 A 
ATOM      4  C3A BZF d   1       0.273   3.615  -3.250  0.00  0.00    -0.107 A 
ATOM      5  C4  BZF d   1       1.531   3.559  -2.720  0.00  0.00     0.055 A 
ATOM      6  C5  BZF d   1       1.933   4.537  -1.867  0.00  0.00    -0.016 A 
ATOM      7  C6  BZF d   1       1.106   5.587  -1.526  0.00  0.00     0.022 A 
ATOM      8  C7  BZF d   1      -0.152   5.683  -2.021  0.00  0.00     0.029 A 
ATOM      9  C7A BZF d   1      -0.572   4.678  -2.858  0.00  0.00     0.058 A 
ENDROOT
TORSDOF 0
ENDMDL
