MODEL 1
REMARK minimizedAffinity 14.3701391
REMARK minimizedRMSD -1
REMARK  0 active torsions:
REMARK  status: ('A' for Active; 'I' for Inactive)
ROOT
ATOM      1  O1  BZF d   1      -5.220   2.954   3.779  0.00  0.00    -0.204 OA
ATOM      2  C2  BZF d   1      -5.461   3.596   4.978  0.00  0.00     0.174 A 
ATOM      3  C3  BZF d   1      -4.876   2.938   5.999  0.00  0.00    -0.012 A 
ATOM      4  C3A BZF d   1      -4.152   1.865   5.390  0.00  0.00    -0.107 A 
ATOM      5  C4  BZF d   1      -3.355   0.871   5.882  0.00  0.00     0.055 A 
ATOM      6  C5  BZF d   1      -2.858  -0.061   5.028  0.00  0.00    -0.016 A 
ATOM      7  C6  BZF d   1      -3.140  -0.032   3.678  0.00  0.00     0.022 A 
ATOM      8  C7  BZF d   1      -3.920   0.937   3.142  0.00  0.00     0.029 A 
ATOM      9  C7A BZF d   1      -4.398   1.899   3.998  0.00  0.00     0.058 A 
ENDROOT
TORSDOF 0
ENDMDL
