MODEL 1
REMARK minimizedAffinity 4.71019602
REMARK minimizedRMSD -1
REMARK  0 active torsions:
REMARK  status: ('A' for Active; 'I' for Inactive)
ROOT
ATOM      1  O1  BZF d   1      -3.672   2.437  -5.999  0.00  0.00    -0.204 OA
ATOM      2  C2  BZF d   1      -2.960   1.512  -5.261  0.00  0.00     0.174 A 
ATOM      3  C3  BZF d   1      -2.137   2.128  -4.387  0.00  0.00    -0.012 A 
ATOM      4  C3A BZF d   1      -2.416   3.524  -4.528  0.00  0.00    -0.107 A 
ATOM      5  C4  BZF d   1      -1.930   4.645  -3.918  0.00  0.00     0.055 A 
ATOM      6  C5  BZF d   1      -2.359   5.864  -4.337  0.00  0.00    -0.016 A 
ATOM      7  C6  BZF d   1      -3.269   6.000  -5.365  0.00  0.00     0.022 A 
ATOM      8  C7  BZF d   1      -3.783   4.917  -5.997  0.00  0.00     0.029 A 
ATOM      9  C7A BZF d   1      -3.376   3.682  -5.554  0.00  0.00     0.058 A 
ENDROOT
TORSDOF 0
ENDMDL
