MODEL 1
REMARK minimizedAffinity 16.21698
REMARK minimizedRMSD -1
REMARK  0 active torsions:
REMARK  status: ('A' for Active; 'I' for Inactive)
ROOT
ATOM      1  O1  BZF d   1      -2.487   4.503  -3.834  0.00  0.00    -0.204 OA
ATOM      2  C2  BZF d   1      -2.958   5.147  -4.961  0.00  0.00     0.174 A 
ATOM      3  C3  BZF d   1      -3.053   4.290  -5.998  0.00  0.00    -0.012 A 
ATOM      4  C3A BZF d   1      -2.701   3.011  -5.462  0.00  0.00    -0.107 A 
ATOM      5  C4  BZF d   1      -2.623   1.758  -5.999  0.00  0.00     0.055 A 
ATOM      6  C5  BZF d   1      -2.177   0.734  -5.224  0.00  0.00    -0.016 A 
ATOM      7  C6  BZF d   1      -1.796   0.929  -3.913  0.00  0.00     0.022 A 
ATOM      8  C7  BZF d   1      -1.860   2.153  -3.335  0.00  0.00     0.029 A 
ATOM      9  C7A BZF d   1      -2.342   3.183  -4.105  0.00  0.00     0.058 A 
ENDROOT
TORSDOF 0
ENDMDL
