MODEL 1
REMARK minimizedAffinity 14.2496777
REMARK minimizedRMSD -1
REMARK  0 active torsions:
REMARK  status: ('A' for Active; 'I' for Inactive)
ROOT
ATOM      1  O1  BZF d   1      -4.689   0.751   2.954  0.00  0.00    -0.204 OA
ATOM      2  C2  BZF d   1      -3.752  -0.169   3.382  0.00  0.00     0.174 A 
ATOM      3  C3  BZF d   1      -3.194   0.222   4.546  0.00  0.00    -0.012 A 
ATOM      4  C3A BZF d   1      -3.889   1.418   4.913  0.00  0.00    -0.107 A 
ATOM      5  C4  BZF d   1      -3.798   2.267   5.978  0.00  0.00     0.055 A 
ATOM      6  C5  BZF d   1      -4.571   3.385   5.999  0.00  0.00    -0.016 A 
ATOM      7  C6  BZF d   1      -5.439   3.687   4.971  0.00  0.00     0.022 A 
ATOM      8  C7  BZF d   1      -5.567   2.873   3.895  0.00  0.00     0.029 A 
ATOM      9  C7A BZF d   1      -4.812   1.725   3.887  0.00  0.00     0.058 A 
ENDROOT
TORSDOF 0
ENDMDL
