MODEL 1
REMARK minimizedAffinity 17.2233067
REMARK minimizedRMSD -1
REMARK  0 active torsions:
REMARK  status: ('A' for Active; 'I' for Inactive)
ROOT
ATOM      1  O1  BZF d   1      -3.606  -2.368  -5.191  0.00  0.00    -0.204 OA
ATOM      2  C2  BZF d   1      -4.759  -3.005  -5.608  0.00  0.00     0.174 A 
ATOM      3  C3  BZF d   1      -4.908  -4.187  -4.976  0.00  0.00    -0.012 A 
ATOM      4  C3A BZF d   1      -3.825  -4.254  -4.042  0.00  0.00    -0.107 A 
ATOM      5  C4  BZF d   1      -3.442  -5.180  -3.115  0.00  0.00     0.055 A 
ATOM      6  C5  BZF d   1      -2.294  -4.977  -2.415  0.00  0.00    -0.016 A 
ATOM      7  C6  BZF d   1      -1.505  -3.864  -2.621  0.00  0.00     0.022 A 
ATOM      8  C7  BZF d   1      -1.848  -2.916  -3.526  0.00  0.00     0.029 A 
ATOM      9  C7A BZF d   1      -3.023  -3.102  -4.212  0.00  0.00     0.058 A 
ENDROOT
TORSDOF 0
ENDMDL
