MODEL 1
REMARK minimizedAffinity -4.28827572
REMARK minimizedRMSD -1
REMARK  1 active torsions:
REMARK  status: ('A' for Active; 'I' for Inactive)
REMARK    1  A    between atoms: C1_2  and  C2_3 
ROOT
ATOM      1  C2  UNL d   1       0.056   0.127  -0.050  0.00  0.00    -0.076 A 
ATOM      2  C3  UNL d   1       1.102   0.487   0.817  0.00  0.00     0.004 A 
ATOM      3  C4  UNL d   1       0.838   0.976   2.096  0.00  0.00    -0.003 A 
ATOM      4  C5  UNL d   1      -0.476   1.113   2.528  0.00  0.00     0.000 A 
ATOM      5  C6  UNL d   1      -1.526   0.745   1.687  0.00  0.00     0.000 A 
ATOM      6  C7  UNL d   1      -1.277   0.235   0.402  0.00  0.00    -0.073 A 
ATOM      7  C8  UNL d   1      -2.448  -0.141  -0.465  0.00  0.00     0.078 C 
ENDROOT
BRANCH   1   8
ATOM      8  C1  UNL d   1       0.402  -0.372  -1.435  0.00  0.00     0.053 C 
ATOM      9  C   UNL d   1       1.442   0.498  -2.124  0.00  0.00     0.018 C 
ENDBRANCH   1   8
TORSDOF 1
ENDMDL
