MODEL 1
REMARK minimizedAffinity -5.00349474
REMARK minimizedRMSD -1
REMARK  1 active torsions:
REMARK  status: ('A' for Active; 'I' for Inactive)
REMARK    1  A    between atoms: C1_2  and  C2_3 
ROOT
ATOM      1  C2  UNL d   1      -0.098  -0.093   0.025  0.00  0.00    -0.076 A 
ATOM      2  C3  UNL d   1       0.972   0.121   0.912  0.00  0.00     0.004 A 
ATOM      3  C4  UNL d   1       0.774   0.760   2.134  0.00  0.00    -0.003 A 
ATOM      4  C5  UNL d   1      -0.498   1.195   2.491  0.00  0.00     0.000 A 
ATOM      5  C6  UNL d   1      -1.574   0.975   1.632  0.00  0.00     0.000 A 
ATOM      6  C7  UNL d   1      -1.394   0.317   0.403  0.00  0.00    -0.073 A 
ATOM      7  C8  UNL d   1      -2.589   0.112  -0.488  0.00  0.00     0.078 C 
ENDROOT
BRANCH   1   8
ATOM      8  C1  UNL d   1       0.183  -0.768  -1.299  0.00  0.00     0.053 C 
ATOM      9  C   UNL d   1       1.267  -0.059  -2.095  0.00  0.00     0.018 C 
ENDBRANCH   1   8
TORSDOF 1
ENDMDL
