MODEL 1
REMARK minimizedAffinity -1.57426929
REMARK minimizedRMSD -1
REMARK  1 active torsions:
REMARK  status: ('A' for Active; 'I' for Inactive)
REMARK    1  A    between atoms: C1_2  and  C2_3 
ROOT
ATOM      1  C2  UNL d   1       0.321  -0.494  -2.034  0.00  0.00    -0.076 A 
ATOM      2  C3  UNL d   1      -0.134   0.081  -3.233  0.00  0.00     0.004 A 
ATOM      3  C4  UNL d   1       0.754   0.689  -4.119  0.00  0.00    -0.003 A 
ATOM      4  C5  UNL d   1       2.111   0.730  -3.821  0.00  0.00     0.000 A 
ATOM      5  C6  UNL d   1       2.583   0.149  -2.645  0.00  0.00     0.000 A 
ATOM      6  C7  UNL d   1       1.703  -0.481  -1.748  0.00  0.00    -0.073 A 
ATOM      7  C8  UNL d   1       2.266  -1.087  -0.491  0.00  0.00     0.078 C 
ENDROOT
BRANCH   1   8
ATOM      8  C1  UNL d   1      -0.691  -1.115  -1.098  0.00  0.00     0.053 C 
ATOM      9  C   UNL d   1      -1.300  -0.100  -0.142  0.00  0.00     0.018 C 
ENDBRANCH   1   8
TORSDOF 1
ENDMDL
