MODEL 1
REMARK minimizedAffinity -4.94091082
REMARK minimizedRMSD -1
REMARK  1 active torsions:
REMARK  status: ('A' for Active; 'I' for Inactive)
REMARK    1  A    between atoms: C1_2  and  C2_3 
ROOT
ATOM      1  C2  UNL d   1      -0.196   0.069   0.038  0.00  0.00    -0.076 A 
ATOM      2  C3  UNL d   1       0.836   0.455   0.912  0.00  0.00     0.004 A 
ATOM      3  C4  UNL d   1       0.556   0.886   2.207  0.00  0.00    -0.003 A 
ATOM      4  C5  UNL d   1      -0.761   0.939   2.650  0.00  0.00     0.000 A 
ATOM      5  C6  UNL d   1      -1.796   0.544   1.804  0.00  0.00     0.000 A 
ATOM      6  C7  UNL d   1      -1.529   0.090   0.500  0.00  0.00    -0.073 A 
ATOM      7  C8  UNL d   1      -2.684  -0.318  -0.372  0.00  0.00     0.078 C 
ENDROOT
BRANCH   1   8
ATOM      8  C1  UNL d   1       0.167  -0.365  -1.364  0.00  0.00     0.053 C 
ATOM      9  C   UNL d   1       0.694   0.783  -2.211  0.00  0.00     0.018 C 
ENDBRANCH   1   8
TORSDOF 1
ENDMDL
