MODEL 1
REMARK minimizedAffinity -3.47345686
REMARK minimizedRMSD -1
REMARK  1 active torsions:
REMARK  status: ('A' for Active; 'I' for Inactive)
REMARK    1  A    between atoms: C1_2  and  C2_3 
ROOT
ATOM      1  C2  UNL d   1       0.294   0.713   0.957  0.00  0.00    -0.076 A 
ATOM      2  C3  UNL d   1      -0.686   0.520  -0.032  0.00  0.00     0.004 A 
ATOM      3  C4  UNL d   1      -0.480  -0.373  -1.082  0.00  0.00    -0.003 A 
ATOM      4  C5  UNL d   1       0.709  -1.089  -1.160  0.00  0.00     0.000 A 
ATOM      5  C6  UNL d   1       1.685  -0.924  -0.178  0.00  0.00     0.000 A 
ATOM      6  C7  UNL d   1       1.487  -0.039   0.896  0.00  0.00    -0.073 A 
ATOM      7  C8  UNL d   1       2.576   0.104   1.924  0.00  0.00     0.078 C 
ENDROOT
BRANCH   1   8
ATOM      8  C1  UNL d   1       0.026   1.715   2.056  0.00  0.00     0.053 C 
ATOM      9  C   UNL d   1      -0.848   1.146   3.163  0.00  0.00     0.018 C 
ENDBRANCH   1   8
TORSDOF 1
ENDMDL
