MODEL 1
REMARK minimizedAffinity 5.41427946
REMARK minimizedRMSD -1
REMARK  0 active torsions:
REMARK  status: ('A' for Active; 'I' for Inactive)
ROOT
ATOM      1  C   UNL d   1      -0.508   2.297  -0.760  0.00  0.00     0.077 C 
ATOM      2  C1  UNL d   1      -1.021   0.925  -1.083  0.00  0.00    -0.074 A 
ATOM      3  C2  UNL d   1      -2.375   0.610  -0.932  0.00  0.00    -0.005 A 
ATOM      4  C3  UNL d   1      -2.839  -0.667  -1.246  0.00  0.00     0.006 A 
ATOM      5  C4  UNL d   1      -1.955  -1.641  -1.713  0.00  0.00    -0.005 A 
ATOM      6  C5  UNL d   1      -0.598  -1.344  -1.872  0.00  0.00    -0.074 A 
ATOM      7  C6  UNL d   1       0.363  -2.375  -2.382  0.00  0.00     0.077 C 
ATOM      8  C7  UNL d   1      -0.141  -0.056  -1.561  0.00  0.00    -0.001 A 
ENDROOT
TORSDOF 0
ENDMDL
