MODEL 1
REMARK minimizedAffinity 1.61507881
REMARK minimizedRMSD -1
REMARK  0 active torsions:
REMARK  status: ('A' for Active; 'I' for Inactive)
ROOT
ATOM      1  C   UNL d   1      -2.033   1.075   0.729  0.00  0.00     0.077 C 
ATOM      2  C1  UNL d   1      -0.963   2.093   0.993  0.00  0.00    -0.074 A 
ATOM      3  C2  UNL d   1      -0.668   3.085   0.052  0.00  0.00    -0.005 A 
ATOM      4  C3  UNL d   1       0.323   4.031   0.316  0.00  0.00     0.006 A 
ATOM      5  C4  UNL d   1       1.028   3.994   1.520  0.00  0.00    -0.005 A 
ATOM      6  C5  UNL d   1       0.746   3.009   2.472  0.00  0.00    -0.074 A 
ATOM      7  C6  UNL d   1       1.487   2.961   3.775  0.00  0.00     0.077 C 
ATOM      8  C7  UNL d   1      -0.256   2.067   2.203  0.00  0.00    -0.001 A 
ENDROOT
TORSDOF 0
ENDMDL
