MODEL 1
REMARK minimizedAffinity 7.63429308
REMARK minimizedRMSD -1
REMARK  0 active torsions:
REMARK  status: ('A' for Active; 'I' for Inactive)
ROOT
ATOM      1  C   UNL d   1      -4.275  -0.386  -1.144  0.00  0.00     0.077 C 
ATOM      2  C1  UNL d   1      -2.787  -0.236  -1.266  0.00  0.00    -0.074 A 
ATOM      3  C2  UNL d   1      -1.997  -1.284  -1.750  0.00  0.00    -0.005 A 
ATOM      4  C3  UNL d   1      -0.616  -1.127  -1.867  0.00  0.00     0.006 A 
ATOM      5  C4  UNL d   1      -0.012   0.077  -1.501  0.00  0.00    -0.005 A 
ATOM      6  C5  UNL d   1      -0.787   1.136  -1.016  0.00  0.00    -0.074 A 
ATOM      7  C6  UNL d   1      -0.155   2.439  -0.628  0.00  0.00     0.077 C 
ATOM      8  C7  UNL d   1      -2.174   0.973  -0.908  0.00  0.00    -0.001 A 
ENDROOT
TORSDOF 0
ENDMDL
