MODEL 1
REMARK minimizedAffinity 7.49271584
REMARK minimizedRMSD -1
REMARK  0 active torsions:
REMARK  status: ('A' for Active; 'I' for Inactive)
ROOT
ATOM      1  C   UNL d   1      -0.185   1.077   2.981  0.00  0.00     0.077 C 
ATOM      2  C1  UNL d   1       0.163   2.318   2.215  0.00  0.00    -0.074 A 
ATOM      3  C2  UNL d   1       1.099   3.231   2.712  0.00  0.00    -0.005 A 
ATOM      4  C3  UNL d   1       1.420   4.376   1.983  0.00  0.00     0.006 A 
ATOM      5  C4  UNL d   1       0.810   4.620   0.752  0.00  0.00    -0.005 A 
ATOM      6  C5  UNL d   1      -0.128   3.718   0.239  0.00  0.00    -0.074 A 
ATOM      7  C6  UNL d   1      -0.786   3.960  -1.087  0.00  0.00     0.077 C 
ATOM      8  C7  UNL d   1      -0.440   2.566   0.973  0.00  0.00    -0.001 A 
ENDROOT
TORSDOF 0
ENDMDL
