MODEL 1
REMARK minimizedAffinity 2.08956385
REMARK minimizedRMSD -1
REMARK  0 active torsions:
REMARK  status: ('A' for Active; 'I' for Inactive)
ROOT
ATOM      1  C   UNL d   1      -4.340  -1.048   2.646  0.00  0.00     0.077 C 
ATOM      2  C1  UNL d   1      -4.143  -0.598   1.228  0.00  0.00    -0.074 A 
ATOM      3  C2  UNL d   1      -4.587   0.659   0.805  0.00  0.00    -0.005 A 
ATOM      4  C3  UNL d   1      -4.388   1.067  -0.514  0.00  0.00     0.006 A 
ATOM      5  C4  UNL d   1      -3.745   0.224  -1.421  0.00  0.00    -0.005 A 
ATOM      6  C5  UNL d   1      -3.293  -1.036  -1.016  0.00  0.00    -0.074 A 
ATOM      7  C6  UNL d   1      -2.592  -1.950  -1.975  0.00  0.00     0.077 C 
ATOM      8  C7  UNL d   1      -3.491  -1.436   0.313  0.00  0.00    -0.001 A 
ENDROOT
TORSDOF 0
ENDMDL
