MODEL 1
REMARK minimizedAffinity 5.39871597
REMARK minimizedRMSD -1
REMARK  0 active torsions:
REMARK  status: ('A' for Active; 'I' for Inactive)
ROOT
ATOM      1  C   UNL d   1       5.999  -1.952  -1.651  0.00  0.00     0.077 C 
ATOM      2  C1  UNL d   1       4.682  -2.588  -1.318  0.00  0.00    -0.074 A 
ATOM      3  C2  UNL d   1       3.887  -2.094  -0.279  0.00  0.00    -0.005 A 
ATOM      4  C3  UNL d   1       2.660  -2.690   0.013  0.00  0.00     0.006 A 
ATOM      5  C4  UNL d   1       2.216  -3.784  -0.732  0.00  0.00    -0.005 A 
ATOM      6  C5  UNL d   1       2.997  -4.290  -1.776  0.00  0.00    -0.074 A 
ATOM      7  C6  UNL d   1       2.530  -5.459  -2.592  0.00  0.00     0.077 C 
ATOM      8  C7  UNL d   1       4.225  -3.682  -2.067  0.00  0.00    -0.001 A 
ENDROOT
TORSDOF 0
ENDMDL
