MODEL 1
REMARK minimizedAffinity -0.310537517
REMARK minimizedRMSD -1
REMARK  1 active torsions:
REMARK  status: ('A' for Active; 'I' for Inactive)
REMARK    1  A    between atoms: C1_2  and  C2_3 
ROOT
ATOM      1  C2  UNL d   1       1.744  -0.084   0.756  0.00  0.00    -0.073 A 
ATOM      2  C3  UNL d   1       1.264   0.491  -0.426  0.00  0.00    -0.002 A 
ATOM      3  C4  UNL d   1       0.054   0.065  -0.975  0.00  0.00     0.004 A 
ATOM      4  C5  UNL d   1      -0.691  -0.933  -0.346  0.00  0.00    -0.004 A 
ATOM      5  C6  UNL d   1      -0.233  -1.511   0.842  0.00  0.00    -0.075 A 
ATOM      6  C7  UNL d   1      -1.020  -2.587   1.530  0.00  0.00     0.076 C 
ATOM      7  C8  UNL d   1       0.985  -1.080   1.386  0.00  0.00     0.001 A 
ENDROOT
BRANCH   1   8
ATOM      8  C1  UNL d   1       3.047   0.377   1.356  0.00  0.00     0.053 C 
ATOM      9  C   UNL d   1       2.837   1.165   2.639  0.00  0.00     0.018 C 
ENDBRANCH   1   8
TORSDOF 1
ENDMDL
