MODEL 1
REMARK minimizedAffinity -1.78343415
REMARK minimizedRMSD -1
REMARK  1 active torsions:
REMARK  status: ('A' for Active; 'I' for Inactive)
REMARK    1  A    between atoms: C1_2  and  C2_3 
ROOT
ATOM      1  C2  UNL d   1       2.041   0.734   1.335  0.00  0.00    -0.073 A 
ATOM      2  C3  UNL d   1       2.684  -0.509   1.326  0.00  0.00    -0.002 A 
ATOM      3  C4  UNL d   1       2.104  -1.599   0.675  0.00  0.00     0.004 A 
ATOM      4  C5  UNL d   1       0.880  -1.455   0.022  0.00  0.00    -0.004 A 
ATOM      5  C6  UNL d   1       0.227  -0.219   0.010  0.00  0.00    -0.075 A 
ATOM      6  C7  UNL d   1      -1.092  -0.049  -0.685  0.00  0.00     0.076 C 
ATOM      7  C8  UNL d   1       0.815   0.870   0.668  0.00  0.00     0.001 A 
ENDROOT
BRANCH   1   8
ATOM      8  C1  UNL d   1       2.667   1.915   2.031  0.00  0.00     0.053 C 
ATOM      9  C   UNL d   1       2.550   1.813   3.543  0.00  0.00     0.018 C 
ENDBRANCH   1   8
TORSDOF 1
ENDMDL
