MODEL 1
REMARK minimizedAffinity -2.48658419
REMARK minimizedRMSD -1
REMARK  1 active torsions:
REMARK  status: ('A' for Active; 'I' for Inactive)
REMARK    1  A    between atoms: C1_2  and  C2_3 
ROOT
ATOM      1  C2  UNL d   1      -0.991   1.674   0.514  0.00  0.00    -0.073 A 
ATOM      2  C3  UNL d   1      -1.064   0.476  -0.206  0.00  0.00    -0.002 A 
ATOM      3  C4  UNL d   1       0.022  -0.400  -0.228  0.00  0.00     0.004 A 
ATOM      4  C5  UNL d   1       1.187  -0.092   0.473  0.00  0.00    -0.004 A 
ATOM      5  C6  UNL d   1       1.275   1.095   1.209  0.00  0.00    -0.075 A 
ATOM      6  C7  UNL d   1       2.522   1.442   1.967  0.00  0.00     0.076 C 
ATOM      7  C8  UNL d   1       0.181   1.971   1.224  0.00  0.00     0.001 A 
ENDROOT
BRANCH   1   8
ATOM      8  C1  UNL d   1      -2.164   2.620   0.546  0.00  0.00     0.053 C 
ATOM      9  C   UNL d   1      -2.301   3.312   1.893  0.00  0.00     0.018 C 
ENDBRANCH   1   8
TORSDOF 1
ENDMDL
