MODEL 1
REMARK minimizedAffinity -0.616369724
REMARK minimizedRMSD -1
REMARK  1 active torsions:
REMARK  status: ('A' for Active; 'I' for Inactive)
REMARK    1  A    between atoms: C1_2  and  C2_3 
ROOT
ATOM      1  C2  UNL d   1      -0.622   0.758   0.179  0.00  0.00    -0.073 A 
ATOM      2  C3  UNL d   1      -1.434  -0.311   0.575  0.00  0.00    -0.002 A 
ATOM      3  C4  UNL d   1      -0.870  -1.553   0.871  0.00  0.00     0.004 A 
ATOM      4  C5  UNL d   1       0.510  -1.736   0.781  0.00  0.00    -0.004 A 
ATOM      5  C6  UNL d   1       1.339  -0.677   0.398  0.00  0.00    -0.075 A 
ATOM      6  C7  UNL d   1       2.825  -0.859   0.294  0.00  0.00     0.076 C 
ATOM      7  C8  UNL d   1       0.765   0.566   0.100  0.00  0.00     0.001 A 
ENDROOT
BRANCH   1   8
ATOM      8  C1  UNL d   1      -1.226   2.102  -0.135  0.00  0.00     0.053 C 
ATOM      9  C   UNL d   1      -1.876   2.735   1.086  0.00  0.00     0.018 C 
ENDBRANCH   1   8
TORSDOF 1
ENDMDL
