MODEL 1
REMARK minimizedAffinity -2.5885601
REMARK minimizedRMSD -1
REMARK  1 active torsions:
REMARK  status: ('A' for Active; 'I' for Inactive)
REMARK    1  A    between atoms: C1_2  and  C2_3 
ROOT
ATOM      1  C2  UNL d   1      -1.109  -0.575  -0.872  0.00  0.00    -0.073 A 
ATOM      2  C3  UNL d   1      -1.650  -1.495   0.034  0.00  0.00    -0.002 A 
ATOM      3  C4  UNL d   1      -0.821  -2.174   0.928  0.00  0.00     0.004 A 
ATOM      4  C5  UNL d   1       0.553  -1.936   0.930  0.00  0.00    -0.004 A 
ATOM      5  C6  UNL d   1       1.111  -1.012   0.041  0.00  0.00    -0.075 A 
ATOM      6  C7  UNL d   1       2.587  -0.746   0.029  0.00  0.00     0.076 C 
ATOM      7  C8  UNL d   1       0.272  -0.336  -0.856  0.00  0.00     0.001 A 
ENDROOT
BRANCH   1   8
ATOM      8  C1  UNL d   1      -2.001   0.165  -1.835  0.00  0.00     0.053 C 
ATOM      9  C   UNL d   1      -3.129  -0.711  -2.356  0.00  0.00     0.018 C 
ENDBRANCH   1   8
TORSDOF 1
ENDMDL
