MODEL 1
REMARK minimizedAffinity -2.35509801
REMARK minimizedRMSD -1
REMARK  0 active torsions:
REMARK  status: ('A' for Active; 'I' for Inactive)
ROOT
ATOM      1  O1  BZF d   1      -0.352   1.302   0.714  0.00  0.00    -0.204 OA
ATOM      2  C2  BZF d   1      -1.183   0.655  -0.180  0.00  0.00     0.174 A 
ATOM      3  C3  BZF d   1      -0.693  -0.561  -0.495  0.00  0.00    -0.012 A 
ATOM      4  C3A BZF d   1       0.473  -0.719   0.319  0.00  0.00    -0.107 A 
ATOM      5  C4  BZF d   1       1.384  -1.726   0.469  0.00  0.00     0.055 A 
ATOM      6  C5  BZF d   1       2.448  -1.536   1.293  0.00  0.00    -0.016 A 
ATOM      7  C6  BZF d   1       2.635  -0.353   1.976  0.00  0.00     0.022 A 
ATOM      8  C7  BZF d   1       1.756   0.673   1.863  0.00  0.00     0.029 A 
ATOM      9  C7A BZF d   1       0.662   0.472   1.057  0.00  0.00     0.058 A 
ENDROOT
TORSDOF 0
ENDMDL
