MODEL 1
REMARK minimizedAffinity -4.82005024
REMARK minimizedRMSD -1
REMARK  0 active torsions:
REMARK  status: ('A' for Active; 'I' for Inactive)
ROOT
ATOM      1  O1  BZF d   1      -0.605   0.208   0.172  0.00  0.00    -0.204 OA
ATOM      2  C2  BZF d   1      -0.345   1.497  -0.251  0.00  0.00     0.174 A 
ATOM      3  C3  BZF d   1       0.916   1.858   0.063  0.00  0.00    -0.012 A 
ATOM      4  C3A BZF d   1       1.509   0.691   0.641  0.00  0.00    -0.107 A 
ATOM      5  C4  BZF d   1       2.751   0.416   1.138  0.00  0.00     0.055 A 
ATOM      6  C5  BZF d   1       2.984  -0.800   1.698  0.00  0.00    -0.016 A 
ATOM      7  C6  BZF d   1       1.999  -1.761   1.783  0.00  0.00     0.022 A 
ATOM      8  C7  BZF d   1       0.753  -1.537   1.299  0.00  0.00     0.029 A 
ATOM      9  C7A BZF d   1       0.523  -0.321   0.703  0.00  0.00     0.058 A 
ENDROOT
TORSDOF 0
ENDMDL
