MODEL 1
REMARK minimizedAffinity 0.176455408
REMARK minimizedRMSD -1
REMARK  0 active torsions:
REMARK  status: ('A' for Active; 'I' for Inactive)
ROOT
ATOM      1  O1  BZF d   1       1.182  -2.060   2.753  0.00  0.00    -0.204 OA
ATOM      2  C2  BZF d   1       2.136  -2.122   3.751  0.00  0.00     0.174 A 
ATOM      3  C3  BZF d   1       2.982  -1.075   3.670  0.00  0.00    -0.012 A 
ATOM      4  C3A BZF d   1       2.473  -0.262   2.608  0.00  0.00    -0.107 A 
ATOM      5  C4  BZF d   1       2.872   0.924   2.060  0.00  0.00     0.055 A 
ATOM      6  C5  BZF d   1       2.199   1.414   0.985  0.00  0.00    -0.016 A 
ATOM      7  C6  BZF d   1       1.129   0.743   0.431  0.00  0.00     0.022 A 
ATOM      8  C7  BZF d   1       0.693  -0.434   0.943  0.00  0.00     0.029 A 
ATOM      9  C7A BZF d   1       1.350  -0.915   2.050  0.00  0.00     0.058 A 
ENDROOT
TORSDOF 0
ENDMDL
