MODEL 1
REMARK minimizedAffinity 6.40058517
REMARK minimizedRMSD -1
REMARK  0 active torsions:
REMARK  status: ('A' for Active; 'I' for Inactive)
ROOT
ATOM      1  O1  BZF d   1       1.518  -0.911   2.919  0.00  0.00    -0.204 OA
ATOM      2  C2  BZF d   1       2.584  -0.412   3.642  0.00  0.00     0.174 A 
ATOM      3  C3  BZF d   1       3.077   0.701   3.061  0.00  0.00    -0.012 A 
ATOM      4  C3A BZF d   1       2.210   0.963   1.954  0.00  0.00    -0.107 A 
ATOM      5  C4  BZF d   1       2.172   1.942   1.002  0.00  0.00     0.055 A 
ATOM      6  C5  BZF d   1       1.240   1.869   0.016  0.00  0.00    -0.016 A 
ATOM      7  C6  BZF d   1       0.335   0.830  -0.052  0.00  0.00     0.022 A 
ATOM      8  C7  BZF d   1       0.330  -0.162   0.872  0.00  0.00     0.029 A 
ATOM      9  C7A BZF d   1       1.250  -0.073   1.888  0.00  0.00     0.058 A 
ENDROOT
TORSDOF 0
ENDMDL
