MODEL 1
REMARK minimizedAffinity 8.18519688
REMARK minimizedRMSD -1
REMARK  0 active torsions:
REMARK  status: ('A' for Active; 'I' for Inactive)
ROOT
ATOM      1  O1  BZF d   1       1.303   1.007   0.708  0.00  0.00    -0.204 OA
ATOM      2  C2  BZF d   1       2.272   1.705   1.402  0.00  0.00     0.174 A 
ATOM      3  C3  BZF d   1       2.638   1.037   2.516  0.00  0.00    -0.012 A 
ATOM      4  C3A BZF d   1       1.914  -0.196   2.469  0.00  0.00    -0.107 A 
ATOM      5  C4  BZF d   1       1.866  -1.288   3.288  0.00  0.00     0.055 A 
ATOM      6  C5  BZF d   1       1.001  -2.295   2.997  0.00  0.00    -0.016 A 
ATOM      7  C6  BZF d   1       0.167  -2.241   1.899  0.00  0.00     0.022 A 
ATOM      8  C7  BZF d   1       0.183  -1.181   1.054  0.00  0.00     0.029 A 
ATOM      9  C7A BZF d   1       1.079  -0.177   1.328  0.00  0.00     0.058 A 
ENDROOT
TORSDOF 0
ENDMDL
