MODEL 1
REMARK minimizedAffinity 11.2555609
REMARK minimizedRMSD -1
REMARK  0 active torsions:
REMARK  status: ('A' for Active; 'I' for Inactive)
ROOT
ATOM      1  O1  BZF d   1       4.455  -1.554  -3.021  0.00  0.00    -0.204 OA
ATOM      2  C2  BZF d   1       3.255  -1.103  -2.506  0.00  0.00     0.174 A 
ATOM      3  C3  BZF d   1       2.841   0.004  -3.155  0.00  0.00    -0.012 A 
ATOM      4  C3A BZF d   1       3.798   0.208  -4.199  0.00  0.00    -0.107 A 
ATOM      5  C4  BZF d   1       3.922   1.139  -5.190  0.00  0.00     0.055 A 
ATOM      6  C5  BZF d   1       5.013   1.101  -6.000  0.00  0.00    -0.016 A 
ATOM      7  C6  BZF d   1       6.000   0.150  -5.844  0.00  0.00     0.022 A 
ATOM      8  C7  BZF d   1       5.919  -0.797  -4.878  0.00  0.00     0.029 A 
ATOM      9  C7A BZF d   1       4.802  -0.781  -4.079  0.00  0.00     0.058 A 
ENDROOT
TORSDOF 0
ENDMDL
