MODEL 1
REMARK minimizedAffinity 1.98233342
REMARK minimizedRMSD -1
REMARK  0 active torsions:
REMARK  status: ('A' for Active; 'I' for Inactive)
ROOT
ATOM      1  O1  BZF d   1       2.178  -1.225  -5.935  0.00  0.00    -0.204 OA
ATOM      2  C2  BZF d   1       2.370  -2.593  -5.930  0.00  0.00     0.174 A 
ATOM      3  C3  BZF d   1       3.683  -2.892  -5.998  0.00  0.00    -0.012 A 
ATOM      4  C3A BZF d   1       4.359  -1.632  -5.955  0.00  0.00    -0.107 A 
ATOM      5  C4  BZF d   1       5.676  -1.272  -5.971  0.00  0.00     0.055 A 
ATOM      6  C5  BZF d   1       6.000   0.048  -5.991  0.00  0.00    -0.016 A 
ATOM      7  C6  BZF d   1       5.034   1.033  -5.999  0.00  0.00     0.022 A 
ATOM      8  C7  BZF d   1       3.714   0.724  -5.978  0.00  0.00     0.029 A 
ATOM      9  C7A BZF d   1       3.384  -0.608  -5.925  0.00  0.00     0.058 A 
ENDROOT
TORSDOF 0
ENDMDL
