MODEL 1
REMARK minimizedAffinity -0.153749049
REMARK minimizedRMSD -1
REMARK  0 active torsions:
REMARK  status: ('A' for Active; 'I' for Inactive)
ROOT
ATOM      1  O1  BZF d   1       5.328  -3.235  -5.948  0.00  0.00    -0.204 OA
ATOM      2  C2  BZF d   1       4.115  -3.896  -5.942  0.00  0.00     0.174 A 
ATOM      3  C3  BZF d   1       3.092  -3.019  -5.903  0.00  0.00    -0.012 A 
ATOM      4  C3A BZF d   1       3.702  -1.727  -5.977  0.00  0.00    -0.107 A 
ATOM      5  C4  BZF d   1       3.206  -0.454  -5.997  0.00  0.00     0.055 A 
ATOM      6  C5  BZF d   1       4.073   0.592  -6.000  0.00  0.00    -0.016 A 
ATOM      7  C6  BZF d   1       5.439   0.404  -5.978  0.00  0.00     0.022 A 
ATOM      8  C7  BZF d   1       5.978  -0.840  -5.963  0.00  0.00     0.029 A 
ATOM      9  C7A BZF d   1       5.105  -1.900  -5.994  0.00  0.00     0.058 A 
ENDROOT
TORSDOF 0
ENDMDL
