MODEL 1
REMARK minimizedAffinity 8.52384758
REMARK minimizedRMSD -1
REMARK  1 active torsions:
REMARK  status: ('A' for Active; 'I' for Inactive)
REMARK    1  A    between atoms: C1_2  and  C2_3 
ROOT
ATOM      1  C2  UNL d   1      -2.191  -0.023   1.987  0.00  0.00    -0.073 A 
ATOM      2  C3  UNL d   1      -3.489  -0.505   2.188  0.00  0.00    -0.002 A 
ATOM      3  C4  UNL d   1      -3.803  -1.225   3.341  0.00  0.00     0.004 A 
ATOM      4  C5  UNL d   1      -2.826  -1.464   4.307  0.00  0.00    -0.004 A 
ATOM      5  C6  UNL d   1      -1.526  -0.980   4.130  0.00  0.00    -0.075 A 
ATOM      6  C7  UNL d   1      -0.462  -1.231   5.159  0.00  0.00     0.076 C 
ATOM      7  C8  UNL d   1      -1.217  -0.260   2.968  0.00  0.00     0.001 A 
ENDROOT
BRANCH   1   8
ATOM      8  C1  UNL d   1      -1.849   0.761   0.746  0.00  0.00     0.053 C 
ATOM      9  C   UNL d   1      -1.883  -0.106  -0.503  0.00  0.00     0.018 C 
ENDBRANCH   1   8
TORSDOF 1
ENDMDL
