MODEL 1
REMARK minimizedAffinity 0.314332992
REMARK minimizedRMSD -1
REMARK  1 active torsions:
REMARK  status: ('A' for Active; 'I' for Inactive)
REMARK    1  A    between atoms: C1_2  and  C2_3 
ROOT
ATOM      1  C2  UNL d   1      -1.525  -0.402   3.010  0.00  0.00    -0.073 A 
ATOM      2  C3  UNL d   1      -2.342  -1.167   3.850  0.00  0.00    -0.002 A 
ATOM      3  C4  UNL d   1      -1.776  -1.995   4.820  0.00  0.00     0.004 A 
ATOM      4  C5  UNL d   1      -0.391  -2.061   4.965  0.00  0.00    -0.004 A 
ATOM      5  C6  UNL d   1       0.442  -1.294   4.143  0.00  0.00    -0.075 A 
ATOM      6  C7  UNL d   1       1.935  -1.356   4.285  0.00  0.00     0.076 C 
ATOM      7  C8  UNL d   1      -0.134  -0.468   3.169  0.00  0.00     0.001 A 
ENDROOT
BRANCH   1   8
ATOM      8  C1  UNL d   1      -2.132   0.498   1.964  0.00  0.00     0.053 C 
ATOM      9  C   UNL d   1      -1.565   0.227   0.580  0.00  0.00     0.018 C 
ENDBRANCH   1   8
TORSDOF 1
ENDMDL
