MODEL 1
REMARK minimizedAffinity 6.55747557
REMARK minimizedRMSD -1
REMARK  1 active torsions:
REMARK  status: ('A' for Active; 'I' for Inactive)
REMARK    1  A    between atoms: C1_2  and  C2_3 
ROOT
ATOM      1  C2  UNL d   1       0.558  -0.073   0.347  0.00  0.00    -0.073 A 
ATOM      2  C3  UNL d   1      -0.031  -0.467  -0.860  0.00  0.00    -0.002 A 
ATOM      3  C4  UNL d   1      -1.420  -0.486  -0.993  0.00  0.00     0.004 A 
ATOM      4  C5  UNL d   1      -2.232  -0.106   0.074  0.00  0.00    -0.004 A 
ATOM      5  C6  UNL d   1      -1.662   0.302   1.285  0.00  0.00    -0.075 A 
ATOM      6  C7  UNL d   1      -2.523   0.711   2.444  0.00  0.00     0.076 C 
ATOM      7  C8  UNL d   1      -0.267   0.316   1.412  0.00  0.00     0.001 A 
ENDROOT
BRANCH   1   8
ATOM      8  C1  UNL d   1       2.058  -0.044   0.493  0.00  0.00     0.053 C 
ATOM      9  C   UNL d   1       2.558   1.308   0.975  0.00  0.00     0.018 C 
ENDBRANCH   1   8
TORSDOF 1
ENDMDL
