MODEL 1
REMARK minimizedAffinity 7.55272961
REMARK minimizedRMSD -1
REMARK  1 active torsions:
REMARK  status: ('A' for Active; 'I' for Inactive)
REMARK    1  A    between atoms: C1_2  and  C2_3 
ROOT
ATOM      1  C2  UNL d   1       0.428  -0.471   0.275  0.00  0.00    -0.073 A 
ATOM      2  C3  UNL d   1      -0.159  -0.942  -0.905  0.00  0.00    -0.002 A 
ATOM      3  C4  UNL d   1      -1.545  -0.904  -1.067  0.00  0.00     0.004 A 
ATOM      4  C5  UNL d   1      -2.356  -0.389  -0.056  0.00  0.00    -0.004 A 
ATOM      5  C6  UNL d   1      -1.787   0.098   1.126  0.00  0.00    -0.075 A 
ATOM      6  C7  UNL d   1      -2.646   0.653   2.224  0.00  0.00     0.076 C 
ATOM      7  C8  UNL d   1      -0.395   0.053   1.282  0.00  0.00     0.001 A 
ENDROOT
BRANCH   1   8
ATOM      8  C1  UNL d   1       1.924  -0.504   0.452  0.00  0.00     0.053 C 
ATOM      9  C   UNL d   1       2.464   0.814   0.983  0.00  0.00     0.018 C 
ENDBRANCH   1   8
TORSDOF 1
ENDMDL
