MODEL 1
REMARK minimizedAffinity -0.621515453
REMARK minimizedRMSD -1
REMARK  1 active torsions:
REMARK  status: ('A' for Active; 'I' for Inactive)
REMARK    1  A    between atoms: C1_2  and  C2_3 
ROOT
ATOM      1  C2  UNL d   1      -1.445  -0.489   3.182  0.00  0.00    -0.073 A 
ATOM      2  C3  UNL d   1      -2.352  -1.259   3.920  0.00  0.00    -0.002 A 
ATOM      3  C4  UNL d   1      -1.893  -2.157   4.885  0.00  0.00     0.004 A 
ATOM      4  C5  UNL d   1      -0.526  -2.289   5.127  0.00  0.00    -0.004 A 
ATOM      5  C6  UNL d   1       0.396  -1.520   4.409  0.00  0.00    -0.075 A 
ATOM      6  C7  UNL d   1       1.870  -1.651   4.657  0.00  0.00     0.076 C 
ATOM      7  C8  UNL d   1      -0.073  -0.622   3.440  0.00  0.00     0.001 A 
ENDROOT
BRANCH   1   8
ATOM      8  C1  UNL d   1      -1.936   0.486   2.144  0.00  0.00     0.053 C 
ATOM      9  C   UNL d   1      -1.239   0.293   0.806  0.00  0.00     0.018 C 
ENDBRANCH   1   8
TORSDOF 1
ENDMDL
