MODEL 1
REMARK minimizedAffinity 2.44322944
REMARK minimizedRMSD -1
REMARK  1 active torsions:
REMARK  status: ('A' for Active; 'I' for Inactive)
REMARK    1  A    between atoms: C1_2  and  C2_3 
ROOT
ATOM      1  C2  UNL d   1      -1.174  -0.062   0.514  0.00  0.00    -0.073 A 
ATOM      2  C3  UNL d   1      -0.091   0.182  -0.339  0.00  0.00    -0.002 A 
ATOM      3  C4  UNL d   1       1.216  -0.021   0.106  0.00  0.00     0.004 A 
ATOM      4  C5  UNL d   1       1.454  -0.476   1.403  0.00  0.00    -0.004 A 
ATOM      5  C6  UNL d   1       0.385  -0.737   2.266  0.00  0.00    -0.075 A 
ATOM      6  C7  UNL d   1       0.623  -1.225   3.664  0.00  0.00     0.076 C 
ATOM      7  C8  UNL d   1      -0.925  -0.528   1.813  0.00  0.00     0.001 A 
ENDROOT
BRANCH   1   8
ATOM      8  C1  UNL d   1      -2.587   0.149   0.036  0.00  0.00     0.053 C 
ATOM      9  C   UNL d   1      -3.176  -1.112  -0.577  0.00  0.00     0.018 C 
ENDBRANCH   1   8
TORSDOF 1
ENDMDL
