MODEL 1
REMARK minimizedAffinity -1.4261167
REMARK minimizedRMSD -1
REMARK  1 active torsions:
REMARK  status: ('A' for Active; 'I' for Inactive)
REMARK    1  A    between atoms: C1_2  and  C2_3 
ROOT
ATOM      1  C2  UNL d   1       0.547  -0.228   1.670  0.00  0.00    -0.073 A 
ATOM      2  C3  UNL d   1       0.078  -0.322   2.985  0.00  0.00    -0.002 A 
ATOM      3  C4  UNL d   1      -1.283  -0.183   3.260  0.00  0.00     0.004 A 
ATOM      4  C5  UNL d   1      -2.189   0.044   2.224  0.00  0.00    -0.004 A 
ATOM      5  C6  UNL d   1      -1.741   0.130   0.902  0.00  0.00    -0.075 A 
ATOM      6  C7  UNL d   1      -2.703   0.376  -0.224  0.00  0.00     0.076 C 
ATOM      7  C8  UNL d   1      -0.373  -0.008   0.634  0.00  0.00     0.001 A 
ENDROOT
BRANCH   1   8
ATOM      8  C1  UNL d   1       2.015  -0.383   1.367  0.00  0.00     0.053 C 
ATOM      9  C   UNL d   1       2.420   0.366   0.108  0.00  0.00     0.018 C 
ENDBRANCH   1   8
TORSDOF 1
ENDMDL
