MODEL 1
REMARK minimizedAffinity 12.4987288
REMARK minimizedRMSD -1
REMARK  0 active torsions:
REMARK  status: ('A' for Active; 'I' for Inactive)
ROOT
ATOM      1  C2' OXE d   1      -5.903  -2.247  -3.074  0.00  0.00     0.078 C 
ATOM      2  C1' OXE d   1      -5.607  -2.129  -5.863  0.00  0.00     0.078 C 
ATOM      3  C1  OXE d   1      -5.729  -3.491  -5.225  0.00  0.00    -0.078 A 
ATOM      4  C2  OXE d   1      -5.827  -3.541  -3.855  0.00  0.00    -0.078 A 
ATOM      5  C3  OXE d   1      -5.996  -4.768  -3.221  0.00  0.00     0.003 A 
ATOM      6  C4  OXE d   1      -5.914  -5.960  -3.950  0.00  0.00    -0.002 A 
ATOM      7  C5  OXE d   1      -5.775  -5.933  -5.342  0.00  0.00    -0.002 A 
ATOM      8  C6  OXE d   1      -5.724  -4.708  -5.998  0.00  0.00     0.003 A 
ENDROOT
TORSDOF 0
ENDMDL
