MODEL 1
REMARK minimizedAffinity 8.88282585
REMARK minimizedRMSD -1
REMARK  0 active torsions:
REMARK  status: ('A' for Active; 'I' for Inactive)
ROOT
ATOM      1  C2' OXE d   1       1.161  -0.569   1.976  0.00  0.00     0.078 C 
ATOM      2  C1' OXE d   1       2.887  -2.682   1.316  0.00  0.00     0.078 C 
ATOM      3  C1  OXE d   1       2.456  -2.549   2.755  0.00  0.00    -0.078 A 
ATOM      4  C2  OXE d   1       1.649  -1.485   3.078  0.00  0.00    -0.078 A 
ATOM      5  C3  OXE d   1       1.178  -1.347   4.381  0.00  0.00     0.003 A 
ATOM      6  C4  OXE d   1       1.642  -2.193   5.395  0.00  0.00    -0.002 A 
ATOM      7  C5  OXE d   1       2.496  -3.259   5.096  0.00  0.00    -0.002 A 
ATOM      8  C6  OXE d   1       2.878  -3.476   3.776  0.00  0.00     0.003 A 
ENDROOT
TORSDOF 0
ENDMDL
