MODEL 1
REMARK minimizedAffinity 7.57167959
REMARK minimizedRMSD -1
REMARK  0 active torsions:
REMARK  status: ('A' for Active; 'I' for Inactive)
ROOT
ATOM      1  C2' OXE d   1       2.405  -2.212   1.580  0.00  0.00     0.078 C 
ATOM      2  C1' OXE d   1       3.145  -4.476   3.065  0.00  0.00     0.078 C 
ATOM      3  C1  OXE d   1       2.622  -3.280   3.820  0.00  0.00    -0.078 A 
ATOM      4  C2  OXE d   1       2.306  -2.160   3.089  0.00  0.00    -0.078 A 
ATOM      5  C3  OXE d   1       1.767  -1.048   3.730  0.00  0.00     0.003 A 
ATOM      6  C4  OXE d   1       1.688  -1.005   5.127  0.00  0.00    -0.002 A 
ATOM      7  C5  OXE d   1       2.041  -2.120   5.893  0.00  0.00    -0.002 A 
ATOM      8  C6  OXE d   1       2.469  -3.279   5.254  0.00  0.00     0.003 A 
ENDROOT
TORSDOF 0
ENDMDL
