MODEL 1
REMARK minimizedAffinity 2.18387413
REMARK minimizedRMSD -1
REMARK  0 active torsions:
REMARK  status: ('A' for Active; 'I' for Inactive)
ROOT
ATOM      1  C2' OXE d   1      -3.354   1.157  -3.370  0.00  0.00     0.078 C 
ATOM      2  C1' OXE d   1      -3.609   2.582  -5.775  0.00  0.00     0.078 C 
ATOM      3  C1  OXE d   1      -3.882   3.319  -4.488  0.00  0.00    -0.078 A 
ATOM      4  C2  OXE d   1      -3.800   2.602  -3.319  0.00  0.00    -0.078 A 
ATOM      5  C3  OXE d   1      -3.989   3.247  -2.100  0.00  0.00     0.003 A 
ATOM      6  C4  OXE d   1      -4.411   4.581  -2.061  0.00  0.00    -0.002 A 
ATOM      7  C5  OXE d   1      -4.539   5.319  -3.243  0.00  0.00    -0.002 A 
ATOM      8  C6  OXE d   1      -4.238   4.717  -4.459  0.00  0.00     0.003 A 
ENDROOT
TORSDOF 0
ENDMDL
