MODEL 1
REMARK minimizedAffinity 12.0158091
REMARK minimizedRMSD -1
REMARK  0 active torsions:
REMARK  status: ('A' for Active; 'I' for Inactive)
ROOT
ATOM      1  C2' OXE d   1       0.484  -0.429   1.493  0.00  0.00     0.078 C 
ATOM      2  C1' OXE d   1      -1.744  -2.040   0.927  0.00  0.00     0.078 C 
ATOM      3  C1  OXE d   1      -1.529  -0.813   0.077  0.00  0.00    -0.078 A 
ATOM      4  C2  OXE d   1      -0.462  -0.005   0.391  0.00  0.00    -0.078 A 
ATOM      5  C3  OXE d   1      -0.187   1.109  -0.396  0.00  0.00     0.003 A 
ATOM      6  C4  OXE d   1      -1.073   1.500  -1.407  0.00  0.00    -0.002 A 
ATOM      7  C5  OXE d   1      -2.187   0.713  -1.718  0.00  0.00    -0.002 A 
ATOM      8  C6  OXE d   1      -2.405  -0.467  -1.015  0.00  0.00     0.003 A 
ENDROOT
TORSDOF 0
ENDMDL
