MODEL 1
REMARK minimizedAffinity 4.50594282
REMARK minimizedRMSD -1
REMARK  0 active torsions:
REMARK  status: ('A' for Active; 'I' for Inactive)
ROOT
ATOM      1  C2' OXE d   1      -3.689   1.478  -3.241  0.00  0.00     0.078 C 
ATOM      2  C1' OXE d   1      -4.682   3.727  -1.887  0.00  0.00     0.078 C 
ATOM      3  C1  OXE d   1      -4.294   3.893  -3.335  0.00  0.00    -0.078 A 
ATOM      4  C2  OXE d   1      -3.765   2.799  -3.976  0.00  0.00    -0.078 A 
ATOM      5  C3  OXE d   1      -3.442   2.882  -5.328  0.00  0.00     0.003 A 
ATOM      6  C4  OXE d   1      -3.506   4.109  -5.998  0.00  0.00    -0.002 A 
ATOM      7  C5  OXE d   1      -4.004   5.246  -5.352  0.00  0.00    -0.002 A 
ATOM      8  C6  OXE d   1      -4.441   5.144  -4.035  0.00  0.00     0.003 A 
ENDROOT
TORSDOF 0
ENDMDL
