MODEL 1
REMARK minimizedAffinity 7.08500242
REMARK minimizedRMSD -1
REMARK  0 active torsions:
REMARK  status: ('A' for Active; 'I' for Inactive)
ROOT
ATOM      1  C2' OXE d   1       0.882  -0.476   1.938  0.00  0.00     0.078 C 
ATOM      2  C1' OXE d   1       1.271   0.978   4.307  0.00  0.00     0.078 C 
ATOM      3  C1  OXE d   1       1.815  -0.427   4.247  0.00  0.00    -0.078 A 
ATOM      4  C2  OXE d   1       1.580  -1.148   3.101  0.00  0.00    -0.078 A 
ATOM      5  C3  OXE d   1       2.108  -2.429   2.972  0.00  0.00     0.003 A 
ATOM      6  C4  OXE d   1       2.743  -3.047   4.057  0.00  0.00    -0.002 A 
ATOM      7  C5  OXE d   1       2.958  -2.344   5.247  0.00  0.00    -0.002 A 
ATOM      8  C6  OXE d   1       2.539  -1.022   5.343  0.00  0.00     0.003 A 
ENDROOT
TORSDOF 0
ENDMDL
