MODEL 1
REMARK minimizedAffinity 7.45458651
REMARK minimizedRMSD -1
REMARK  0 active torsions:
REMARK  status: ('A' for Active; 'I' for Inactive)
ROOT
ATOM      1  C2' OXE d   1       1.131  -0.358   2.712  0.00  0.00     0.078 C 
ATOM      2  C1' OXE d   1       2.699  -2.526   1.860  0.00  0.00     0.078 C 
ATOM      3  C1  OXE d   1       2.317  -2.464   3.318  0.00  0.00    -0.078 A 
ATOM      4  C2  OXE d   1       1.589  -1.376   3.735  0.00  0.00    -0.078 A 
ATOM      5  C3  OXE d   1       1.163  -1.297   5.058  0.00  0.00     0.003 A 
ATOM      6  C4  OXE d   1       1.600  -2.237   6.000  0.00  0.00    -0.002 A 
ATOM      7  C5  OXE d   1       2.375  -3.332   5.604  0.00  0.00    -0.002 A 
ATOM      8  C6  OXE d   1       2.705  -3.483   4.262  0.00  0.00     0.003 A 
ENDROOT
TORSDOF 0
ENDMDL
