MODEL 1
REMARK minimizedAffinity 3.12063074
REMARK minimizedRMSD -1
REMARK  0 active torsions:
REMARK  status: ('A' for Active; 'I' for Inactive)
ROOT
ATOM      1  N1  IND d   1       5.283  -0.624   3.022  0.00  0.00    -0.196 N 
ATOM      2  C2  IND d   1       6.000   0.405   2.478  0.00  0.00     0.054 A 
ATOM      3  C3  IND d   1       5.302   0.986   1.476  0.00  0.00    -0.031 A 
ATOM      4  C4  IND d   1       2.924   0.478   0.630  0.00  0.00     0.051 A 
ATOM      5  C5  IND d   1       1.887  -0.397   0.792  0.00  0.00    -0.031 A 
ATOM      6  C6  IND d   1       1.929  -1.412   1.726  0.00  0.00     0.015 A 
ATOM      7  C7  IND d   1       3.009  -1.582   2.545  0.00  0.00    -0.016 A 
ATOM      8  C8  IND d   1       4.067  -0.700   2.379  0.00  0.00    -0.047 A 
ATOM      9  C9  IND d   1       4.048   0.305   1.403  0.00  0.00    -0.096 A 
ATOM     10  HN1 IND d   1       5.546  -1.137   3.660  0.00  0.00     0.298 HD
ENDROOT
TORSDOF 0
ENDMDL
