MODEL 1
REMARK minimizedAffinity 11.5707798
REMARK minimizedRMSD -1
REMARK  0 active torsions:
REMARK  status: ('A' for Active; 'I' for Inactive)
ROOT
ATOM      1  N1  IND d   1       4.180  -0.593   3.041  0.00  0.00    -0.196 N 
ATOM      2  C2  IND d   1       5.369   0.081   2.994  0.00  0.00     0.054 A 
ATOM      3  C3  IND d   1       5.365   0.972   1.977  0.00  0.00    -0.031 A 
ATOM      4  C4  IND d   1       3.478   1.565   0.329  0.00  0.00     0.051 A 
ATOM      5  C5  IND d   1       2.218   1.191  -0.045  0.00  0.00    -0.031 A 
ATOM      6  C6  IND d   1       1.532   0.186   0.605  0.00  0.00     0.015 A 
ATOM      7  C7  IND d   1       2.079  -0.479   1.666  0.00  0.00    -0.016 A 
ATOM      8  C8  IND d   1       3.362  -0.108   2.044  0.00  0.00    -0.047 A 
ATOM      9  C9  IND d   1       4.079   0.883   1.361  0.00  0.00    -0.096 A 
ATOM     10  HN1 IND d   1       3.977  -1.215   3.599  0.00  0.00     0.298 HD
ENDROOT
TORSDOF 0
ENDMDL
