MODEL 1
REMARK minimizedAffinity 3.56937027
REMARK minimizedRMSD -1
REMARK  0 active torsions:
REMARK  status: ('A' for Active; 'I' for Inactive)
ROOT
ATOM      1  N1  IND d   1       4.175  -0.596   3.315  0.00  0.00    -0.196 N 
ATOM      2  C2  IND d   1       5.421  -0.136   2.993  0.00  0.00     0.054 A 
ATOM      3  C3  IND d   1       5.375   0.595   1.857  0.00  0.00    -0.031 A 
ATOM      4  C4  IND d   1       3.344   1.249   0.415  0.00  0.00     0.051 A 
ATOM      5  C5  IND d   1       2.001   1.035   0.287  0.00  0.00    -0.031 A 
ATOM      6  C6  IND d   1       1.298   0.253   1.181  0.00  0.00     0.015 A 
ATOM      7  C7  IND d   1       1.914  -0.338   2.248  0.00  0.00    -0.016 A 
ATOM      8  C8  IND d   1       3.280  -0.129   2.377  0.00  0.00    -0.047 A 
ATOM      9  C9  IND d   1       4.006   0.629   1.449  0.00  0.00    -0.096 A 
ATOM     10  HN1 IND d   1       3.982  -1.094   3.989  0.00  0.00     0.298 HD
ENDROOT
TORSDOF 0
ENDMDL
