MODEL 1
REMARK minimizedAffinity 5.58812809
REMARK minimizedRMSD -1
REMARK  0 active torsions:
REMARK  status: ('A' for Active; 'I' for Inactive)
ROOT
ATOM      1  N1  IND d   1       3.196  -1.563   3.155  0.00  0.00    -0.196 N 
ATOM      2  C2  IND d   1       1.850  -1.392   2.984  0.00  0.00     0.054 A 
ATOM      3  C3  IND d   1       1.609  -0.321   2.195  0.00  0.00    -0.031 A 
ATOM      4  C4  IND d   1       3.272   1.233   0.992  0.00  0.00     0.051 A 
ATOM      5  C5  IND d   1       4.608   1.496   0.874  0.00  0.00    -0.031 A 
ATOM      6  C6  IND d   1       5.561   0.736   1.520  0.00  0.00     0.015 A 
ATOM      7  C7  IND d   1       5.212  -0.328   2.304  0.00  0.00    -0.016 A 
ATOM      8  C8  IND d   1       3.856  -0.593   2.432  0.00  0.00    -0.047 A 
ATOM      9  C9  IND d   1       2.882   0.200   1.813  0.00  0.00    -0.096 A 
ATOM     10  HN1 IND d   1       3.567  -2.173   3.633  0.00  0.00     0.298 HD
ENDROOT
TORSDOF 0
ENDMDL
