MODEL 1
REMARK minimizedAffinity 8.26719379
REMARK minimizedRMSD -1
REMARK  0 active torsions:
REMARK  status: ('A' for Active; 'I' for Inactive)
ROOT
ATOM      1  N1  IND d   1       5.680   0.679  -2.799  0.00  0.00    -0.196 N 
ATOM      2  C2  IND d   1       6.000   0.418  -1.496  0.00  0.00     0.054 A 
ATOM      3  C3  IND d   1       5.093  -0.423  -0.948  0.00  0.00    -0.031 A 
ATOM      4  C4  IND d   1       3.064  -1.574  -2.036  0.00  0.00     0.051 A 
ATOM      5  C5  IND d   1       2.345  -1.618  -3.198  0.00  0.00    -0.031 A 
ATOM      6  C6  IND d   1       2.710  -0.886  -4.309  0.00  0.00     0.015 A 
ATOM      7  C7  IND d   1       3.819  -0.088  -4.304  0.00  0.00    -0.016 A 
ATOM      8  C8  IND d   1       4.547  -0.035  -3.124  0.00  0.00    -0.047 A 
ATOM      9  C9  IND d   1       4.158  -0.743  -1.979  0.00  0.00    -0.096 A 
ATOM     10  HN1 IND d   1       6.113   1.201  -3.327  0.00  0.00     0.298 HD
ENDROOT
TORSDOF 0
ENDMDL
