MODEL 1
REMARK minimizedAffinity 4.6736412
REMARK minimizedRMSD -1
REMARK  0 active torsions:
REMARK  status: ('A' for Active; 'I' for Inactive)
ROOT
ATOM      1  N1  IND d   1      -5.883   4.965   4.727  0.00  0.00    -0.196 N 
ATOM      2  C2  IND d   1      -5.999   4.480   6.000  0.00  0.00     0.054 A 
ATOM      3  C3  IND d   1      -5.992   3.128   5.989  0.00  0.00    -0.031 A 
ATOM      4  C4  IND d   1      -5.700   1.508   4.009  0.00  0.00     0.051 A 
ATOM      5  C5  IND d   1      -5.597   1.480   2.647  0.00  0.00    -0.031 A 
ATOM      6  C6  IND d   1      -5.580   2.636   1.893  0.00  0.00     0.015 A 
ATOM      7  C7  IND d   1      -5.655   3.869   2.478  0.00  0.00    -0.016 A 
ATOM      8  C8  IND d   1      -5.768   3.901   3.860  0.00  0.00    -0.047 A 
ATOM      9  C9  IND d   1      -5.828   2.730   4.627  0.00  0.00    -0.096 A 
ATOM     10  HN1 IND d   1      -5.882   5.796   4.505  0.00  0.00     0.298 HD
ENDROOT
TORSDOF 0
ENDMDL
