MODEL 1
REMARK minimizedAffinity 5.45031214
REMARK minimizedRMSD -1
REMARK  0 active torsions:
REMARK  status: ('A' for Active; 'I' for Inactive)
ROOT
ATOM      1  N1  IND d   1       5.138   1.257   0.760  0.00  0.00    -0.196 N 
ATOM      2  C2  IND d   1       4.290   2.045   0.033  0.00  0.00     0.054 A 
ATOM      3  C3  IND d   1       3.005   1.692   0.265  0.00  0.00    -0.031 A 
ATOM      4  C4  IND d   1       2.062  -0.081   1.875  0.00  0.00     0.051 A 
ATOM      5  C5  IND d   1       2.448  -1.077   2.726  0.00  0.00    -0.031 A 
ATOM      6  C6  IND d   1       3.778  -1.351   2.973  0.00  0.00     0.015 A 
ATOM      7  C7  IND d   1       4.775  -0.626   2.383  0.00  0.00    -0.016 A 
ATOM      8  C8  IND d   1       4.386   0.382   1.513  0.00  0.00    -0.047 A 
ATOM      9  C9  IND d   1       3.039   0.636   1.226  0.00  0.00    -0.096 A 
ATOM     10  HN1 IND d   1       5.997   1.301   0.749  0.00  0.00     0.298 HD
ENDROOT
TORSDOF 0
ENDMDL
