MODEL 1
REMARK minimizedAffinity 5.41103792
REMARK minimizedRMSD -1
REMARK  0 active torsions:
REMARK  status: ('A' for Active; 'I' for Inactive)
ROOT
ATOM      1  N1  IND d   1       4.183  -0.815   3.270  0.00  0.00    -0.196 N 
ATOM      2  C2  IND d   1       5.356  -0.222   2.894  0.00  0.00     0.054 A 
ATOM      3  C3  IND d   1       5.167   0.535   1.790  0.00  0.00    -0.031 A 
ATOM      4  C4  IND d   1       2.997   1.027   0.495  0.00  0.00     0.051 A 
ATOM      5  C5  IND d   1       1.675   0.683   0.438  0.00  0.00    -0.031 A 
ATOM      6  C6  IND d   1       1.110  -0.193   1.343  0.00  0.00     0.015 A 
ATOM      7  C7  IND d   1       1.846  -0.752   2.349  0.00  0.00    -0.016 A 
ATOM      8  C8  IND d   1       3.190  -0.411   2.405  0.00  0.00    -0.047 A 
ATOM      9  C9  IND d   1       3.779   0.445   1.465  0.00  0.00    -0.096 A 
ATOM     10  HN1 IND d   1       4.083  -1.350   3.936  0.00  0.00     0.298 HD
ENDROOT
TORSDOF 0
ENDMDL
