MODEL 1
REMARK minimizedAffinity 7.30787373
REMARK minimizedRMSD -1
REMARK  0 active torsions:
REMARK  status: ('A' for Active; 'I' for Inactive)
ROOT
ATOM      1  N1  IND d   1      -4.704   3.889   5.999  0.00  0.00    -0.196 N 
ATOM      2  C2  IND d   1      -5.631   3.748   5.005  0.00  0.00     0.054 A 
ATOM      3  C3  IND d   1      -5.049   3.898   3.794  0.00  0.00    -0.031 A 
ATOM      4  C4  IND d   1      -2.572   4.279   3.206  0.00  0.00     0.051 A 
ATOM      5  C5  IND d   1      -1.353   4.512   3.778  0.00  0.00    -0.031 A 
ATOM      6  C6  IND d   1      -1.184   4.546   5.147  0.00  0.00     0.015 A 
ATOM      7  C7  IND d   1      -2.231   4.338   5.999  0.00  0.00    -0.016 A 
ATOM      8  C8  IND d   1      -3.472   4.109   5.422  0.00  0.00    -0.047 A 
ATOM      9  C9  IND d   1      -3.658   4.114   4.034  0.00  0.00    -0.096 A 
ATOM     10  HN1 IND d   1      -4.863   3.847   6.843  0.00  0.00     0.298 HD
ENDROOT
TORSDOF 0
ENDMDL
