MODEL 1
REMARK minimizedAffinity 15.2087088
REMARK minimizedRMSD -1
REMARK  0 active torsions:
REMARK  status: ('A' for Active; 'I' for Inactive)
ROOT
ATOM      1  N1  IND d   1       3.653  -0.649   2.852  0.00  0.00    -0.196 N 
ATOM      2  C2  IND d   1       3.474  -1.905   3.362  0.00  0.00     0.054 A 
ATOM      3  C3  IND d   1       2.268  -2.394   2.996  0.00  0.00    -0.031 A 
ATOM      4  C4  IND d   1       0.471  -1.347   1.478  0.00  0.00     0.051 A 
ATOM      5  C5  IND d   1       0.166  -0.197   0.805  0.00  0.00    -0.031 A 
ATOM      6  C6  IND d   1       1.026   0.881   0.777  0.00  0.00     0.015 A 
ATOM      7  C7  IND d   1       2.234   0.846   1.414  0.00  0.00    -0.016 A 
ATOM      8  C8  IND d   1       2.544  -0.317   2.105  0.00  0.00    -0.047 A 
ATOM      9  C9  IND d   1       1.657  -1.399   2.172  0.00  0.00    -0.096 A 
ATOM     10  HN1 IND d   1       4.342  -0.150   2.977  0.00  0.00     0.298 HD
ENDROOT
TORSDOF 0
ENDMDL
