MODEL 1
REMARK minimizedAffinity -0.861733377
REMARK minimizedRMSD -1
REMARK  0 active torsions:
REMARK  status: ('A' for Active; 'I' for Inactive)
ROOT
ATOM      1  N1  IND d   1       5.030  -0.514   2.949  0.00  0.00    -0.196 N 
ATOM      2  C2  IND d   1       5.891   0.363   2.349  0.00  0.00     0.054 A 
ATOM      3  C3  IND d   1       5.294   0.961   1.294  0.00  0.00    -0.031 A 
ATOM      4  C4  IND d   1       2.879   0.728   0.433  0.00  0.00     0.051 A 
ATOM      5  C5  IND d   1       1.728   0.020   0.633  0.00  0.00    -0.031 A 
ATOM      6  C6  IND d   1       1.615  -0.920   1.637  0.00  0.00     0.015 A 
ATOM      7  C7  IND d   1       2.651  -1.179   2.489  0.00  0.00    -0.016 A 
ATOM      8  C8  IND d   1       3.824  -0.467   2.285  0.00  0.00    -0.047 A 
ATOM      9  C9  IND d   1       3.958   0.458   1.241  0.00  0.00    -0.096 A 
ATOM     10  HN1 IND d   1       5.212  -1.011   3.626  0.00  0.00     0.298 HD
ENDROOT
TORSDOF 0
ENDMDL
