MODEL 1
REMARK minimizedAffinity 5.37772036
REMARK minimizedRMSD -1
REMARK  0 active torsions:
REMARK  status: ('A' for Active; 'I' for Inactive)
ROOT
ATOM      1  N1  IND d   1       4.101  -0.708   3.297  0.00  0.00    -0.196 N 
ATOM      2  C2  IND d   1       5.359  -0.226   3.067  0.00  0.00     0.054 A 
ATOM      3  C3  IND d   1       5.374   0.536   1.950  0.00  0.00    -0.031 A 
ATOM      4  C4  IND d   1       3.429   1.207   0.402  0.00  0.00     0.051 A 
ATOM      5  C5  IND d   1       2.099   0.983   0.185  0.00  0.00    -0.031 A 
ATOM      6  C6  IND d   1       1.352   0.168   1.012  0.00  0.00     0.015 A 
ATOM      7  C7  IND d   1       1.908  -0.445   2.099  0.00  0.00    -0.016 A 
ATOM      8  C8  IND d   1       3.260  -0.225   2.319  0.00  0.00    -0.047 A 
ATOM      9  C9  IND d   1       4.033   0.566   1.458  0.00  0.00    -0.096 A 
ATOM     10  HN1 IND d   1       3.873  -1.227   3.944  0.00  0.00     0.298 HD
ENDROOT
TORSDOF 0
ENDMDL
