MODEL 1
REMARK minimizedAffinity 7.4263382
REMARK minimizedRMSD -1
REMARK  0 active torsions:
REMARK  status: ('A' for Active; 'I' for Inactive)
ROOT
ATOM      1  N1  IND d   1       4.787  -0.782   3.478  0.00  0.00    -0.196 N 
ATOM      2  C2  IND d   1       6.000  -0.358   3.011  0.00  0.00     0.054 A 
ATOM      3  C3  IND d   1       5.846   0.333   1.860  0.00  0.00    -0.031 A 
ATOM      4  C4  IND d   1       3.686   0.976   0.615  0.00  0.00     0.051 A 
ATOM      5  C5  IND d   1       2.333   0.784   0.636  0.00  0.00    -0.031 A 
ATOM      6  C6  IND d   1       1.716   0.048   1.627  0.00  0.00     0.015 A 
ATOM      7  C7  IND d   1       2.431  -0.517   2.645  0.00  0.00    -0.016 A 
ATOM      8  C8  IND d   1       3.806  -0.330   2.623  0.00  0.00    -0.047 A 
ATOM      9  C9  IND d   1       4.442   0.380   1.596  0.00  0.00    -0.096 A 
ATOM     10  HN1 IND d   1       4.658  -1.252   4.187  0.00  0.00     0.298 HD
ENDROOT
TORSDOF 0
ENDMDL
