MODEL 1
REMARK minimizedAffinity 15.2706366
REMARK minimizedRMSD -1
REMARK  0 active torsions:
REMARK  status: ('A' for Active; 'I' for Inactive)
ROOT
ATOM      1  N1  IND d   1      -4.875   2.444   1.514  0.00  0.00    -0.196 N 
ATOM      2  C2  IND d   1      -5.793   2.475   2.527  0.00  0.00     0.054 A 
ATOM      3  C3  IND d   1      -6.000   1.231   3.013  0.00  0.00    -0.031 A 
ATOM      4  C4  IND d   1      -4.866  -0.987   2.365  0.00  0.00     0.051 A 
ATOM      5  C5  IND d   1      -3.988  -1.526   1.467  0.00  0.00    -0.031 A 
ATOM      6  C6  IND d   1      -3.345  -0.753   0.521  0.00  0.00     0.015 A 
ATOM      7  C7  IND d   1      -3.550   0.596   0.446  0.00  0.00    -0.016 A 
ATOM      8  C8  IND d   1      -4.446   1.145   1.352  0.00  0.00    -0.047 A 
ATOM      9  C9  IND d   1      -5.133   0.359   2.285  0.00  0.00    -0.096 A 
ATOM     10  HN1 IND d   1      -4.611   3.122   1.056  0.00  0.00     0.298 HD
ENDROOT
TORSDOF 0
ENDMDL
