MODEL 1
REMARK minimizedAffinity 7.25267792
REMARK minimizedRMSD -1
REMARK  0 active torsions:
REMARK  status: ('A' for Active; 'I' for Inactive)
ROOT
ATOM      1  N1  IND d   1      -3.769  -1.136   3.836  0.00  0.00    -0.196 N 
ATOM      2  C2  IND d   1      -3.291  -0.570   4.985  0.00  0.00     0.054 A 
ATOM      3  C3  IND d   1      -3.315  -1.467   5.996  0.00  0.00    -0.031 A 
ATOM      4  C4  IND d   1      -4.003  -3.948   5.966  0.00  0.00     0.051 A 
ATOM      5  C5  IND d   1      -4.543  -4.906   5.155  0.00  0.00    -0.031 A 
ATOM      6  C6  IND d   1      -4.856  -4.653   3.836  0.00  0.00     0.015 A 
ATOM      7  C7  IND d   1      -4.630  -3.429   3.272  0.00  0.00    -0.016 A 
ATOM      8  C8  IND d   1      -4.088  -2.451   4.095  0.00  0.00    -0.047 A 
ATOM      9  C9  IND d   1      -3.808  -2.690   5.446  0.00  0.00    -0.096 A 
ATOM     10  HN1 IND d   1      -3.856  -0.738   3.079  0.00  0.00     0.298 HD
ENDROOT
TORSDOF 0
ENDMDL
