MODEL 1
REMARK minimizedAffinity 9.38447475
REMARK minimizedRMSD -1
REMARK  0 active torsions:
REMARK  status: ('A' for Active; 'I' for Inactive)
ROOT
ATOM      1  N1  IND d   1      -4.499   3.132   1.582  0.00  0.00    -0.196 N 
ATOM      2  C2  IND d   1      -5.580   3.160   2.419  0.00  0.00     0.054 A 
ATOM      3  C3  IND d   1      -5.998   1.904   2.691  0.00  0.00    -0.031 A 
ATOM      4  C4  IND d   1      -4.994  -0.349   1.953  0.00  0.00     0.051 A 
ATOM      5  C5  IND d   1      -4.024  -0.886   1.153  0.00  0.00    -0.031 A 
ATOM      6  C6  IND d   1      -3.144  -0.095   0.443  0.00  0.00     0.015 A 
ATOM      7  C7  IND d   1      -3.193   1.268   0.516  0.00  0.00    -0.016 A 
ATOM      8  C8  IND d   1      -4.181   1.817   1.322  0.00  0.00    -0.047 A 
ATOM      9  C9  IND d   1      -5.104   1.020   2.011  0.00  0.00    -0.096 A 
ATOM     10  HN1 IND d   1      -4.088   3.820   1.271  0.00  0.00     0.298 HD
ENDROOT
TORSDOF 0
ENDMDL
