MODEL 1
REMARK minimizedAffinity 6.02377987
REMARK minimizedRMSD -1
REMARK  0 active torsions:
REMARK  status: ('A' for Active; 'I' for Inactive)
ROOT
ATOM      1  N1  IND d   1      -3.762  -0.063   4.714  0.00  0.00    -0.196 N 
ATOM      2  C2  IND d   1      -3.795  -0.534   5.997  0.00  0.00     0.054 A 
ATOM      3  C3  IND d   1      -3.912  -1.881   6.000  0.00  0.00    -0.031 A 
ATOM      4  C4  IND d   1      -3.963  -3.523   4.018  0.00  0.00     0.051 A 
ATOM      5  C5  IND d   1      -3.996  -3.562   2.652  0.00  0.00    -0.031 A 
ATOM      6  C6  IND d   1      -3.949  -2.414   1.888  0.00  0.00     0.015 A 
ATOM      7  C7  IND d   1      -3.855  -1.179   2.464  0.00  0.00    -0.016 A 
ATOM      8  C8  IND d   1      -3.828  -1.135   3.851  0.00  0.00    -0.047 A 
ATOM      9  C9  IND d   1      -3.919  -2.294   4.632  0.00  0.00    -0.096 A 
ATOM     10  HN1 IND d   1      -3.708   0.764   4.485  0.00  0.00     0.298 HD
ENDROOT
TORSDOF 0
ENDMDL
