MODEL 1
REMARK minimizedAffinity 3.52458
REMARK minimizedRMSD -1
REMARK  0 active torsions:
REMARK  status: ('A' for Active; 'I' for Inactive)
ROOT
ATOM      1  N1  IND d   1      -5.255   4.020   4.808  0.00  0.00    -0.196 N 
ATOM      2  C2  IND d   1      -4.647   3.660   5.978  0.00  0.00     0.054 A 
ATOM      3  C3  IND d   1      -4.422   2.327   6.000  0.00  0.00    -0.031 A 
ATOM      4  C4  IND d   1      -4.875   0.562   4.182  0.00  0.00     0.051 A 
ATOM      5  C5  IND d   1      -5.451   0.405   2.953  0.00  0.00    -0.031 A 
ATOM      6  C6  IND d   1      -6.000   1.467   2.264  0.00  0.00     0.015 A 
ATOM      7  C7  IND d   1      -5.983   2.733   2.776  0.00  0.00    -0.016 A 
ATOM      8  C8  IND d   1      -5.405   2.895   4.027  0.00  0.00    -0.047 A 
ATOM      9  C9  IND d   1      -4.884   1.814   4.750  0.00  0.00    -0.096 A 
ATOM     10  HN1 IND d   1      -5.502   4.816   4.595  0.00  0.00     0.298 HD
ENDROOT
TORSDOF 0
ENDMDL
