MODEL 1
REMARK minimizedAffinity -4.26401377
REMARK minimizedRMSD -1
REMARK  2 active torsions:
REMARK  status: ('A' for Active; 'I' for Inactive)
REMARK    1  A    between atoms: C1_2  and  C2_3 
REMARK    2  A    between atoms: C2_3  and  C3_4 
ROOT
ATOM      1  C3  UNL d   1       0.056   0.150  -0.597  0.00  0.00    -0.075 A 
ATOM      2  C4  UNL d   1       0.288  -0.003   0.777  0.00  0.00     0.002 A 
ATOM      3  C5  UNL d   1      -0.417   0.765   1.704  0.00  0.00     0.002 A 
ATOM      4  C6  UNL d   1      -1.353   1.701   1.270  0.00  0.00    -0.004 A 
ATOM      5  C7  UNL d   1      -1.579   1.873  -0.094  0.00  0.00     0.002 A 
ATOM      6  C8  UNL d   1      -0.878   1.103  -1.024  0.00  0.00     0.002 A 
ENDROOT
BRANCH   1   7
ATOM      7  C2  UNL d   1       0.795  -0.699  -1.605  0.00  0.00     0.056 C 
BRANCH   7   8
ATOM      8  C1  UNL d   1       0.714  -2.205  -1.330  0.00  0.00     0.007 C 
ATOM      9  C   UNL d   1      -0.611  -2.822  -1.757  0.00  0.00     0.009 C 
ENDBRANCH   7   8
ENDBRANCH   1   7
TORSDOF 2
ENDMDL
