MODEL 1
REMARK minimizedAffinity -4.80381727
REMARK minimizedRMSD -1
REMARK  2 active torsions:
REMARK  status: ('A' for Active; 'I' for Inactive)
REMARK    1  A    between atoms: C1_2  and  C2_3 
REMARK    2  A    between atoms: C2_3  and  C3_4 
ROOT
ATOM      1  C3  UNL d   1       0.000   0.057  -0.036  0.00  0.00    -0.075 A 
ATOM      2  C4  UNL d   1      -0.533   1.076  -0.838  0.00  0.00     0.002 A 
ATOM      3  C5  UNL d   1      -0.967   2.273  -0.267  0.00  0.00     0.002 A 
ATOM      4  C6  UNL d   1      -0.882   2.462   1.110  0.00  0.00    -0.004 A 
ATOM      5  C7  UNL d   1      -0.369   1.450   1.919  0.00  0.00     0.002 A 
ATOM      6  C8  UNL d   1       0.069   0.253   1.350  0.00  0.00     0.002 A 
ENDROOT
BRANCH   1   7
ATOM      7  C2  UNL d   1       0.499  -1.230  -0.651  0.00  0.00     0.056 C 
BRANCH   7   8
ATOM      8  C1  UNL d   1      -0.521  -1.921  -1.562  0.00  0.00     0.007 C 
ATOM      9  C   UNL d   1      -0.581  -3.429  -1.359  0.00  0.00     0.009 C 
ENDBRANCH   7   8
ENDBRANCH   1   7
TORSDOF 2
ENDMDL
