MODEL 1
REMARK minimizedAffinity -4.55670643
REMARK minimizedRMSD -1
REMARK  2 active torsions:
REMARK  status: ('A' for Active; 'I' for Inactive)
REMARK    1  A    between atoms: C1_2  and  C2_3 
REMARK    2  A    between atoms: C2_3  and  C3_4 
ROOT
ATOM      1  C3  UNL d   1       0.186  -0.591  -0.087  0.00  0.00    -0.075 A 
ATOM      2  C4  UNL d   1       0.262  -0.406   1.301  0.00  0.00     0.002 A 
ATOM      3  C5  UNL d   1       0.074   0.860   1.858  0.00  0.00     0.002 A 
ATOM      4  C6  UNL d   1      -0.182   1.955   1.036  0.00  0.00    -0.004 A 
ATOM      5  C7  UNL d   1      -0.244   1.785  -0.345  0.00  0.00     0.002 A 
ATOM      6  C8  UNL d   1      -0.060   0.520  -0.905  0.00  0.00     0.002 A 
ENDROOT
BRANCH   1   7
ATOM      7  C2  UNL d   1       0.360  -1.963  -0.694  0.00  0.00     0.056 C 
BRANCH   7   8
ATOM      8  C1  UNL d   1      -0.951  -2.614  -1.148  0.00  0.00     0.007 C 
ATOM      9  C   UNL d   1      -1.087  -4.063  -0.700  0.00  0.00     0.009 C 
ENDBRANCH   7   8
ENDBRANCH   1   7
TORSDOF 2
ENDMDL
