MODEL 1
REMARK minimizedAffinity -1.18397927
REMARK minimizedRMSD -1
REMARK  2 active torsions:
REMARK  status: ('A' for Active; 'I' for Inactive)
REMARK    1  A    between atoms: C1_2  and  C2_3 
REMARK    2  A    between atoms: C2_3  and  C3_4 
ROOT
ATOM      1  C3  UNL d   1       0.383   0.352   0.452  0.00  0.00    -0.075 A 
ATOM      2  C4  UNL d   1       0.665   1.144   1.575  0.00  0.00     0.002 A 
ATOM      3  C5  UNL d   1      -0.069   2.304   1.825  0.00  0.00     0.002 A 
ATOM      4  C6  UNL d   1      -1.085   2.691   0.954  0.00  0.00    -0.004 A 
ATOM      5  C7  UNL d   1      -1.362   1.920  -0.173  0.00  0.00     0.002 A 
ATOM      6  C8  UNL d   1      -0.632   0.757  -0.424  0.00  0.00     0.002 A 
ENDROOT
BRANCH   1   7
ATOM      7  C2  UNL d   1       1.154  -0.921   0.192  0.00  0.00     0.056 C 
BRANCH   7   8
ATOM      8  C1  UNL d   1       0.602  -1.758  -0.967  0.00  0.00     0.007 C 
ATOM      9  C   UNL d   1       0.946  -3.237  -0.856  0.00  0.00     0.009 C 
ENDBRANCH   7   8
ENDBRANCH   1   7
TORSDOF 2
ENDMDL
