MODEL 1
REMARK minimizedAffinity 5.3574729
REMARK minimizedRMSD -1
REMARK  0 active torsions:
REMARK  status: ('A' for Active; 'I' for Inactive)
ROOT
ATOM      1  C   UNL d   1       3.419   4.003  -5.977  0.00  0.00     0.023 A 
ATOM      2  C1  UNL d   1       2.480   2.971  -5.983  0.00  0.00     0.003 A 
ATOM      3  C2  UNL d   1       1.116   3.267  -5.989  0.00  0.00     0.048 A 
ATOM      4  C3  UNL d   1       0.696   4.597  -5.989  0.00  0.00     0.023 A 
ATOM      5  C4  UNL d   1       1.632   5.633  -5.983  0.00  0.00     0.048 A 
ATOM      6  C5  UNL d   1       2.995   5.332  -5.977  0.00  0.00     0.003 A 
ATOM      7  I   UNL d   1      -1.334   5.039  -5.997  0.00  0.00    -0.146 I 
ENDROOT
TORSDOF 0
ENDMDL
