MODEL 1
REMARK minimizedAffinity -2.14722681
REMARK minimizedRMSD -1
REMARK  0 active torsions:
REMARK  status: ('A' for Active; 'I' for Inactive)
ROOT
ATOM      1  C   UNL d   1       0.582   2.592  -5.977  0.00  0.00     0.023 A 
ATOM      2  C1  UNL d   1       1.724   1.790  -5.969  0.00  0.00     0.003 A 
ATOM      3  C2  UNL d   1       2.991   2.376  -5.975  0.00  0.00     0.048 A 
ATOM      4  C3  UNL d   1       3.110   3.766  -5.989  0.00  0.00     0.023 A 
ATOM      5  C4  UNL d   1       1.971   4.572  -5.996  0.00  0.00     0.048 A 
ATOM      6  C5  UNL d   1       0.706   3.982  -5.991  0.00  0.00     0.003 A 
ATOM      7  I   UNL d   1       4.995   4.641  -5.999  0.00  0.00    -0.146 I 
ENDROOT
TORSDOF 0
ENDMDL
