MODEL 1
REMARK minimizedAffinity 13.9518147
REMARK minimizedRMSD -1
REMARK  0 active torsions:
REMARK  status: ('A' for Active; 'I' for Inactive)
ROOT
ATOM      1  C   UNL d   1       3.864   2.675  -5.385  0.00  0.00     0.023 A 
ATOM      2  C1  UNL d   1       2.916   1.725  -5.005  0.00  0.00     0.003 A 
ATOM      3  C2  UNL d   1       1.555   2.023  -5.088  0.00  0.00     0.048 A 
ATOM      4  C3  UNL d   1       1.148   3.273  -5.552  0.00  0.00     0.023 A 
ATOM      5  C4  UNL d   1       2.092   4.227  -5.934  0.00  0.00     0.048 A 
ATOM      6  C5  UNL d   1       3.453   3.924  -5.849  0.00  0.00     0.003 A 
ATOM      7  I   UNL d   1      -0.879   3.719  -5.677  0.00  0.00    -0.146 I 
ENDROOT
TORSDOF 0
ENDMDL
