MODEL 1
REMARK minimizedAffinity -0.995115817
REMARK minimizedRMSD -1
REMARK  0 active torsions:
REMARK  status: ('A' for Active; 'I' for Inactive)
ROOT
ATOM      1  C   UNL d   1      -3.934   3.899  -5.999  0.00  0.00     0.023 A 
ATOM      2  C1  UNL d   1      -3.367   2.625  -5.997  0.00  0.00     0.003 A 
ATOM      3  C2  UNL d   1      -1.979   2.477  -5.997  0.00  0.00     0.048 A 
ATOM      4  C3  UNL d   1      -1.163   3.608  -5.998  0.00  0.00     0.023 A 
ATOM      5  C4  UNL d   1      -1.726   4.885  -5.999  0.00  0.00     0.048 A 
ATOM      6  C5  UNL d   1      -3.115   5.028  -6.000  0.00  0.00     0.003 A 
ATOM      7  I   UNL d   1       0.904   3.391  -5.998  0.00  0.00    -0.146 I 
ENDROOT
TORSDOF 0
ENDMDL
