MODEL 1
REMARK minimizedAffinity 5.26095819
REMARK minimizedRMSD -1
REMARK  0 active torsions:
REMARK  status: ('A' for Active; 'I' for Inactive)
ROOT
ATOM      1  C   UNL d   1       1.612   2.596  -0.505  0.00  0.00     0.023 A 
ATOM      2  C1  UNL d   1       1.312   2.628   0.857  0.00  0.00     0.003 A 
ATOM      3  C2  UNL d   1       0.467   1.663   1.410  0.00  0.00     0.048 A 
ATOM      4  C3  UNL d   1      -0.073   0.669   0.596  0.00  0.00     0.023 A 
ATOM      5  C4  UNL d   1       0.225   0.632  -0.767  0.00  0.00     0.048 A 
ATOM      6  C5  UNL d   1       1.069   1.599  -1.316  0.00  0.00     0.003 A 
ATOM      7  I   UNL d   1      -1.331  -0.768   1.417  0.00  0.00    -0.146 I 
ENDROOT
TORSDOF 0
ENDMDL
