MODEL 1
REMARK minimizedAffinity 7.27960014
REMARK minimizedRMSD -1
REMARK  0 active torsions:
REMARK  status: ('A' for Active; 'I' for Inactive)
ROOT
ATOM      1  C   UNL d   1       2.197  -3.367  -4.099  0.00  0.00     0.023 A 
ATOM      2  C1  UNL d   1       1.089  -4.109  -4.510  0.00  0.00     0.003 A 
ATOM      3  C2  UNL d   1      -0.103  -4.046  -3.786  0.00  0.00     0.048 A 
ATOM      4  C3  UNL d   1      -0.181  -3.239  -2.652  0.00  0.00     0.023 A 
ATOM      5  C4  UNL d   1       0.924  -2.494  -2.237  0.00  0.00     0.048 A 
ATOM      6  C5  UNL d   1       2.114  -2.561  -2.963  0.00  0.00     0.003 A 
ATOM      7  I   UNL d   1      -1.955  -3.144  -1.572  0.00  0.00    -0.146 I 
ENDROOT
TORSDOF 0
ENDMDL
