MODEL 1
REMARK minimizedAffinity 3.6035769
REMARK minimizedRMSD -1
REMARK  0 active torsions:
REMARK  status: ('A' for Active; 'I' for Inactive)
ROOT
ATOM      1  C   UNL d   1      -2.998   3.928  -5.976  0.00  0.00     0.023 A 
ATOM      2  C1  UNL d   1      -2.724   2.560  -5.978  0.00  0.00     0.003 A 
ATOM      3  C2  UNL d   1      -1.402   2.111  -5.985  0.00  0.00     0.048 A 
ATOM      4  C3  UNL d   1      -0.358   3.036  -5.989  0.00  0.00     0.023 A 
ATOM      5  C4  UNL d   1      -0.627   4.406  -5.986  0.00  0.00     0.048 A 
ATOM      6  C5  UNL d   1      -1.951   4.849  -5.980  0.00  0.00     0.003 A 
ATOM      7  I   UNL d   1       1.611   2.371  -6.000  0.00  0.00    -0.146 I 
ENDROOT
TORSDOF 0
ENDMDL
