MODEL 1
REMARK minimizedAffinity 7.58088636
REMARK minimizedRMSD -1
REMARK  0 active torsions:
REMARK  status: ('A' for Active; 'I' for Inactive)
ROOT
ATOM      1  C   UNL d   1      -2.721   4.993  -5.961  0.00  0.00     0.023 A 
ATOM      2  C1  UNL d   1      -1.756   6.000  -5.949  0.00  0.00     0.003 A 
ATOM      3  C2  UNL d   1      -0.399   5.669  -5.958  0.00  0.00     0.048 A 
ATOM      4  C3  UNL d   1      -0.015   4.329  -5.981  0.00  0.00     0.023 A 
ATOM      5  C4  UNL d   1      -0.977   3.318  -5.995  0.00  0.00     0.048 A 
ATOM      6  C5  UNL d   1      -2.332   3.653  -5.984  0.00  0.00     0.003 A 
ATOM      7  I   UNL d   1       2.004   3.834  -5.996  0.00  0.00    -0.146 I 
ENDROOT
TORSDOF 0
ENDMDL
