MODEL 1
REMARK minimizedAffinity 3.17541504
REMARK minimizedRMSD -1
REMARK  0 active torsions:
REMARK  status: ('A' for Active; 'I' for Inactive)
ROOT
ATOM      1  C   UNL d   1       3.852   4.086   1.137  0.00  0.00     0.023 A 
ATOM      2  C1  UNL d   1       3.333   3.493   2.287  0.00  0.00     0.003 A 
ATOM      3  C2  UNL d   1       2.148   2.756   2.221  0.00  0.00     0.048 A 
ATOM      4  C3  UNL d   1       1.489   2.616   1.000  0.00  0.00     0.023 A 
ATOM      5  C4  UNL d   1       2.006   3.207  -0.154  0.00  0.00     0.048 A 
ATOM      6  C5  UNL d   1       3.190   3.944  -0.082  0.00  0.00     0.003 A 
ATOM      7  I   UNL d   1      -0.274   1.520   0.898  0.00  0.00    -0.146 I 
ENDROOT
TORSDOF 0
ENDMDL
