MODEL 1
REMARK minimizedAffinity -2.5561161
REMARK minimizedRMSD -1
REMARK  0 active torsions:
REMARK  status: ('A' for Active; 'I' for Inactive)
ROOT
ATOM      1  C   UNL d   1      -5.277   4.659  -5.990  0.00  0.00     0.023 A 
ATOM      2  C1  UNL d   1      -4.360   5.711  -5.989  0.00  0.00     0.003 A 
ATOM      3  C2  UNL d   1      -2.990   5.444  -5.990  0.00  0.00     0.048 A 
ATOM      4  C3  UNL d   1      -2.543   4.123  -5.994  0.00  0.00     0.023 A 
ATOM      5  C4  UNL d   1      -3.456   3.068  -5.996  0.00  0.00     0.048 A 
ATOM      6  C5  UNL d   1      -4.826   3.340  -5.994  0.00  0.00     0.003 A 
ATOM      7  I   UNL d   1      -0.503   3.723  -5.997  0.00  0.00    -0.146 I 
ENDROOT
TORSDOF 0
ENDMDL
