MODEL 1
REMARK minimizedAffinity 4.56625938
REMARK minimizedRMSD -1
REMARK  0 active torsions:
REMARK  status: ('A' for Active; 'I' for Inactive)
ROOT
ATOM      1  C   UNL d   1       4.020   2.976  -5.948  0.00  0.00     0.023 A 
ATOM      2  C1  UNL d   1       3.514   4.276  -5.981  0.00  0.00     0.003 A 
ATOM      3  C2  UNL d   1       2.134   4.489  -5.996  0.00  0.00     0.048 A 
ATOM      4  C3  UNL d   1       1.265   3.399  -5.977  0.00  0.00     0.023 A 
ATOM      5  C4  UNL d   1       1.767   2.097  -5.943  0.00  0.00     0.048 A 
ATOM      6  C5  UNL d   1       3.147   1.888  -5.929  0.00  0.00     0.003 A 
ATOM      7  I   UNL d   1      -0.789   3.714  -6.000  0.00  0.00    -0.146 I 
ENDROOT
TORSDOF 0
ENDMDL
