MODEL 1
REMARK minimizedAffinity 8.28141689
REMARK minimizedRMSD -1
REMARK  0 active torsions:
REMARK  status: ('A' for Active; 'I' for Inactive)
ROOT
ATOM      1  C   UNL d   1      -2.936   3.495  -5.998  0.00  0.00     0.023 A 
ATOM      2  C1  UNL d   1      -2.375   2.218  -5.998  0.00  0.00     0.003 A 
ATOM      3  C2  UNL d   1      -0.987   2.063  -5.999  0.00  0.00     0.048 A 
ATOM      4  C3  UNL d   1      -0.166   3.191  -5.999  0.00  0.00     0.023 A 
ATOM      5  C4  UNL d   1      -0.723   4.471  -5.998  0.00  0.00     0.048 A 
ATOM      6  C5  UNL d   1      -2.111   4.620  -5.998  0.00  0.00     0.003 A 
ATOM      7  I   UNL d   1       1.900   2.964  -6.000  0.00  0.00    -0.146 I 
ENDROOT
TORSDOF 0
ENDMDL
