MODEL 1
REMARK minimizedAffinity -1.06903684
REMARK minimizedRMSD -1
REMARK  0 active torsions:
REMARK  status: ('A' for Active; 'I' for Inactive)
ROOT
ATOM      1  C   UNL d   1      -4.697   4.384  -6.000  0.00  0.00     0.023 A 
ATOM      2  C1  UNL d   1      -3.749   5.407  -5.996  0.00  0.00     0.003 A 
ATOM      3  C2  UNL d   1      -2.387   5.098  -5.990  0.00  0.00     0.048 A 
ATOM      4  C3  UNL d   1      -1.980   3.764  -5.990  0.00  0.00     0.023 A 
ATOM      5  C4  UNL d   1      -2.926   2.737  -5.995  0.00  0.00     0.048 A 
ATOM      6  C5  UNL d   1      -4.286   3.051  -6.000  0.00  0.00     0.003 A 
ATOM      7  I   UNL d   1       0.046   3.302  -5.982  0.00  0.00    -0.146 I 
ENDROOT
TORSDOF 0
ENDMDL
