MODEL 1
REMARK minimizedAffinity -1.01499772
REMARK minimizedRMSD -1
REMARK  0 active torsions:
REMARK  status: ('A' for Active; 'I' for Inactive)
ROOT
ATOM      1  C   UNL d   1       1.719   4.201  -5.982  0.00  0.00     0.023 A 
ATOM      2  C1  UNL d   1       1.483   2.826  -5.990  0.00  0.00     0.003 A 
ATOM      3  C2  UNL d   1       0.174   2.341  -5.994  0.00  0.00     0.048 A 
ATOM      4  C3  UNL d   1      -0.895   3.236  -5.991  0.00  0.00     0.023 A 
ATOM      5  C4  UNL d   1      -0.665   4.612  -5.983  0.00  0.00     0.048 A 
ATOM      6  C5  UNL d   1       0.646   5.093  -5.978  0.00  0.00     0.003 A 
ATOM      7  I   UNL d   1      -2.845   2.515  -5.997  0.00  0.00    -0.146 I 
ENDROOT
TORSDOF 0
ENDMDL
