MODEL 1
REMARK minimizedAffinity 3.61125994
REMARK minimizedRMSD -1
REMARK  0 active torsions:
REMARK  status: ('A' for Active; 'I' for Inactive)
ROOT
ATOM      1  C   UNL d   1       3.236   2.626  -5.987  0.00  0.00     0.023 A 
ATOM      2  C1  UNL d   1       2.350   1.549  -5.974  0.00  0.00     0.003 A 
ATOM      3  C2  UNL d   1       0.973   1.775  -5.972  0.00  0.00     0.048 A 
ATOM      4  C3  UNL d   1       0.487   3.082  -5.985  0.00  0.00     0.023 A 
ATOM      5  C4  UNL d   1       1.369   4.164  -5.999  0.00  0.00     0.048 A 
ATOM      6  C5  UNL d   1       2.746   3.932  -6.000  0.00  0.00     0.003 A 
ATOM      7  I   UNL d   1      -1.564   3.422  -5.983  0.00  0.00    -0.146 I 
ENDROOT
TORSDOF 0
ENDMDL
