MODEL 1
REMARK minimizedAffinity 0.511337698
REMARK minimizedRMSD -1
REMARK  0 active torsions:
REMARK  status: ('A' for Active; 'I' for Inactive)
ROOT
ATOM      1  C   UNL d   1      -4.870   1.392   1.510  0.00  0.00     0.023 A 
ATOM      2  C1  UNL d   1      -3.953   1.022   2.494  0.00  0.00     0.003 A 
ATOM      3  C2  UNL d   1      -2.815   0.289   2.151  0.00  0.00     0.048 A 
ATOM      4  C3  UNL d   1      -2.599  -0.070   0.822  0.00  0.00     0.023 A 
ATOM      5  C4  UNL d   1      -3.513   0.298  -0.167  0.00  0.00     0.048 A 
ATOM      6  C5  UNL d   1      -4.650   1.030   0.180  0.00  0.00     0.003 A 
ATOM      7  I   UNL d   1      -0.906  -1.161   0.309  0.00  0.00    -0.146 I 
ENDROOT
TORSDOF 0
ENDMDL
