MODEL 1
REMARK minimizedAffinity -4.50975037
REMARK minimizedRMSD -1
REMARK  0 active torsions:
REMARK  status: ('A' for Active; 'I' for Inactive)
ROOT
ATOM      1  C   UNL d   1      -1.868  -0.754   2.249  0.00  0.00     0.023 A 
ATOM      2  C1  UNL d   1      -2.257  -0.911   0.919  0.00  0.00     0.003 A 
ATOM      3  C2  UNL d   1      -1.292  -1.016  -0.085  0.00  0.00     0.048 A 
ATOM      4  C3  UNL d   1       0.061  -0.965   0.249  0.00  0.00     0.023 A 
ATOM      5  C4  UNL d   1       0.455  -0.809   1.579  0.00  0.00     0.048 A 
ATOM      6  C5  UNL d   1      -0.513  -0.703   2.579  0.00  0.00     0.003 A 
ATOM      7  I   UNL d   1       1.499  -1.121  -1.243  0.00  0.00    -0.146 I 
ENDROOT
TORSDOF 0
ENDMDL
