MODEL 1
REMARK minimizedAffinity 1.72591746
REMARK minimizedRMSD -1
REMARK  0 active torsions:
REMARK  status: ('A' for Active; 'I' for Inactive)
ROOT
ATOM      1  C   UNL d   1      -0.495  -0.079   1.180  0.00  0.00     0.023 A 
ATOM      2  C1  UNL d   1      -1.395  -0.250   2.232  0.00  0.00     0.003 A 
ATOM      3  C2  UNL d   1      -2.566  -0.985   2.038  0.00  0.00     0.048 A 
ATOM      4  C3  UNL d   1      -2.831  -1.548   0.789  0.00  0.00     0.023 A 
ATOM      5  C4  UNL d   1      -1.932  -1.380  -0.266  0.00  0.00     0.048 A 
ATOM      6  C5  UNL d   1      -0.763  -0.643  -0.067  0.00  0.00     0.003 A 
ATOM      7  I   UNL d   1      -4.573  -2.642   0.498  0.00  0.00    -0.146 I 
ENDROOT
TORSDOF 0
ENDMDL
