MODEL 1
REMARK minimizedAffinity -0.170592129
REMARK minimizedRMSD -1
REMARK  0 active torsions:
REMARK  status: ('A' for Active; 'I' for Inactive)
ROOT
ATOM      1  C   UNL d   1      -3.062   0.130   0.136  0.00  0.00     0.023 A 
ATOM      2  C1  UNL d   1      -2.125  -0.708  -0.469  0.00  0.00     0.003 A 
ATOM      3  C2  UNL d   1      -1.030  -1.174   0.262  0.00  0.00     0.048 A 
ATOM      4  C3  UNL d   1      -0.880  -0.801   1.597  0.00  0.00     0.023 A 
ATOM      5  C4  UNL d   1      -1.816   0.037   2.206  0.00  0.00     0.048 A 
ATOM      6  C5  UNL d   1      -2.908   0.502   1.471  0.00  0.00     0.003 A 
ATOM      7  I   UNL d   1       0.748  -1.494   2.687  0.00  0.00    -0.146 I 
ENDROOT
TORSDOF 0
ENDMDL
