MODEL 1
REMARK minimizedAffinity -2.21742916
REMARK minimizedRMSD -1
REMARK  0 active torsions:
REMARK  status: ('A' for Active; 'I' for Inactive)
ROOT
ATOM      1  C   UNL d   1      -3.371  -0.015   0.597  0.00  0.00     0.023 A 
ATOM      2  C1  UNL d   1      -2.973   0.310   1.894  0.00  0.00     0.003 A 
ATOM      3  C2  UNL d   1      -1.678   0.014   2.323  0.00  0.00     0.048 A 
ATOM      4  C3  UNL d   1      -0.785  -0.606   1.449  0.00  0.00     0.023 A 
ATOM      5  C4  UNL d   1      -1.178  -0.931   0.150  0.00  0.00     0.048 A 
ATOM      6  C5  UNL d   1      -2.474  -0.634  -0.274  0.00  0.00     0.003 A 
ATOM      7  I   UNL d   1       1.144  -1.047   2.086  0.00  0.00    -0.146 I 
ENDROOT
TORSDOF 0
ENDMDL
