MODEL 1
REMARK minimizedAffinity -2.81099653
REMARK minimizedRMSD -1
REMARK  0 active torsions:
REMARK  status: ('A' for Active; 'I' for Inactive)
ROOT
ATOM      1  C   UNL d   1       1.278  -1.504   1.601  0.00  0.00     0.023 A 
ATOM      2  C1  UNL d   1       0.682  -0.810   2.654  0.00  0.00     0.003 A 
ATOM      3  C2  UNL d   1      -0.644  -0.383   2.549  0.00  0.00     0.048 A 
ATOM      4  C3  UNL d   1      -1.368  -0.655   1.389  0.00  0.00     0.023 A 
ATOM      5  C4  UNL d   1      -0.776  -1.350   0.333  0.00  0.00     0.048 A 
ATOM      6  C5  UNL d   1       0.550  -1.774   0.442  0.00  0.00     0.003 A 
ATOM      7  I   UNL d   1      -3.341  -0.022   1.231  0.00  0.00    -0.146 I 
ENDROOT
TORSDOF 0
ENDMDL
