MODEL 1
REMARK minimizedAffinity -3.41841555
REMARK minimizedRMSD -1
REMARK  0 active torsions:
REMARK  status: ('A' for Active; 'I' for Inactive)
ROOT
ATOM      1  C   UNL d   1      -0.331  -0.653  -0.835  0.00  0.00     0.020 A 
ATOM      2  C1  UNL d   1       0.847   0.049  -0.580  0.00  0.00     0.020 A 
ATOM      3  C2  UNL d   1       1.003   0.736   0.626  0.00  0.00     0.034 A 
ATOM      4  C3  UNL d   1      -0.020   0.723   1.581  0.00  0.00     0.017 A 
ATOM      5  C4  UNL d   1      -1.202   0.018   1.324  0.00  0.00     0.017 A 
ATOM      6  C5  UNL d   1      -1.353  -0.668   0.115  0.00  0.00     0.034 A 
ATOM      7 Cl   UNL d   1      -2.509  -0.044   2.454  0.00  0.00    -0.070 Cl
ATOM      8 Cl1  UNL d   1       0.241   1.594   3.050  0.00  0.00    -0.070 Cl
ENDROOT
TORSDOF 0
ENDMDL
