MODEL 1
REMARK minimizedAffinity -1.54254627
REMARK minimizedRMSD -1
REMARK  0 active torsions:
REMARK  status: ('A' for Active; 'I' for Inactive)
ROOT
ATOM      1  C   UNL d   1       0.009  -1.500  -0.715  0.00  0.00     0.020 A 
ATOM      2  C1  UNL d   1       0.726  -0.536  -1.423  0.00  0.00     0.020 A 
ATOM      3  C2  UNL d   1       0.644   0.807  -1.052  0.00  0.00     0.034 A 
ATOM      4  C3  UNL d   1      -0.157   1.191   0.030  0.00  0.00     0.017 A 
ATOM      5  C4  UNL d   1      -0.876   0.223   0.740  0.00  0.00     0.017 A 
ATOM      6  C5  UNL d   1      -0.790  -1.121   0.364  0.00  0.00     0.034 A 
ATOM      7 Cl   UNL d   1      -1.884   0.619   2.087  0.00  0.00    -0.070 Cl
ATOM      8 Cl1  UNL d   1      -0.211   2.870   0.435  0.00  0.00    -0.070 Cl
ENDROOT
TORSDOF 0
ENDMDL
