MODEL 1
REMARK minimizedAffinity -3.36928487
REMARK minimizedRMSD -1
REMARK  0 active torsions:
REMARK  status: ('A' for Active; 'I' for Inactive)
ROOT
ATOM      1  C   UNL d   1      -0.465  -1.116  -0.648  0.00  0.00     0.020 A 
ATOM      2  C1  UNL d   1      -1.650  -0.581  -0.144  0.00  0.00     0.020 A 
ATOM      3  C2  UNL d   1      -1.628   0.192   1.019  0.00  0.00     0.034 A 
ATOM      4  C3  UNL d   1      -0.419   0.431   1.682  0.00  0.00     0.017 A 
ATOM      5  C4  UNL d   1       0.770  -0.106   1.176  0.00  0.00     0.017 A 
ATOM      6  C5  UNL d   1       0.742  -0.879   0.011  0.00  0.00     0.034 A 
ATOM      7 Cl   UNL d   1       2.300   0.146   1.939  0.00  0.00    -0.070 Cl
ATOM      8 Cl1  UNL d   1      -0.466   1.396   3.115  0.00  0.00    -0.070 Cl
ENDROOT
TORSDOF 0
ENDMDL
