MODEL 1
REMARK minimizedAffinity -4.05615091
REMARK minimizedRMSD -1
REMARK  0 active torsions:
REMARK  status: ('A' for Active; 'I' for Inactive)
ROOT
ATOM      1  C   UNL d   1       1.172  -0.569  -3.067  0.00  0.00     0.020 A 
ATOM      2  C1  UNL d   1       0.541   0.452  -3.778  0.00  0.00     0.020 A 
ATOM      3  C2  UNL d   1      -0.305   1.343  -3.116  0.00  0.00     0.034 A 
ATOM      4  C3  UNL d   1      -0.524   1.216  -1.739  0.00  0.00     0.017 A 
ATOM      5  C4  UNL d   1       0.109   0.191  -1.027  0.00  0.00     0.017 A 
ATOM      6  C5  UNL d   1       0.956  -0.699  -1.695  0.00  0.00     0.034 A 
ATOM      7 Cl   UNL d   1      -0.112  -0.030   0.673  0.00  0.00    -0.070 Cl
ATOM      8 Cl1  UNL d   1      -1.583   2.354  -0.985  0.00  0.00    -0.070 Cl
ENDROOT
TORSDOF 0
ENDMDL
