MODEL 1
REMARK minimizedAffinity -5.10335875
REMARK minimizedRMSD -1
REMARK  0 active torsions:
REMARK  status: ('A' for Active; 'I' for Inactive)
ROOT
ATOM      1  C   UNL d   1      -1.118   1.873   0.883  0.00  0.00     0.020 A 
ATOM      2  C1  UNL d   1      -0.961   0.855   1.823  0.00  0.00     0.020 A 
ATOM      3  C2  UNL d   1      -0.210  -0.279   1.506  0.00  0.00     0.034 A 
ATOM      4  C3  UNL d   1       0.387  -0.398   0.245  0.00  0.00     0.017 A 
ATOM      5  C4  UNL d   1       0.229   0.624  -0.698  0.00  0.00     0.017 A 
ATOM      6  C5  UNL d   1      -0.524   1.758  -0.374  0.00  0.00     0.034 A 
ATOM      7 Cl   UNL d   1       0.935   0.549  -2.273  0.00  0.00    -0.070 Cl
ATOM      8 Cl1  UNL d   1       1.301  -1.827  -0.079  0.00  0.00    -0.070 Cl
ENDROOT
TORSDOF 0
ENDMDL
