MODEL 1
REMARK minimizedAffinity -3.9639473
REMARK minimizedRMSD -1
REMARK  0 active torsions:
REMARK  status: ('A' for Active; 'I' for Inactive)
ROOT
ATOM      1  C   UNL d   1       1.483  -1.287   1.065  0.00  0.00     0.020 A 
ATOM      2  C1  UNL d   1       0.922  -1.850  -0.081  0.00  0.00     0.020 A 
ATOM      3  C2  UNL d   1      -0.384  -1.521  -0.452  0.00  0.00     0.034 A 
ATOM      4  C3  UNL d   1      -1.132  -0.627   0.322  0.00  0.00     0.017 A 
ATOM      5  C4  UNL d   1      -0.567  -0.062   1.472  0.00  0.00     0.017 A 
ATOM      6  C5  UNL d   1       0.740  -0.395   1.839  0.00  0.00     0.034 A 
ATOM      7 Cl   UNL d   1      -1.428   1.049   2.478  0.00  0.00    -0.070 Cl
ATOM      8 Cl1  UNL d   1      -2.740  -0.265  -0.196  0.00  0.00    -0.070 Cl
ENDROOT
TORSDOF 0
ENDMDL
