MODEL 1
REMARK minimizedAffinity -4.66008234
REMARK minimizedRMSD -1
REMARK  0 active torsions:
REMARK  status: ('A' for Active; 'I' for Inactive)
ROOT
ATOM      1  C   UNL d   1      -1.362   0.539   2.278  0.00  0.00     0.020 A 
ATOM      2  C1  UNL d   1      -0.448   0.113   3.241  0.00  0.00     0.020 A 
ATOM      3  C2  UNL d   1       0.782  -0.419   2.850  0.00  0.00     0.034 A 
ATOM      4  C3  UNL d   1       1.102  -0.527   1.492  0.00  0.00     0.017 A 
ATOM      5  C4  UNL d   1       0.185  -0.099   0.525  0.00  0.00     0.017 A 
ATOM      6  C5  UNL d   1      -1.046   0.433   0.923  0.00  0.00     0.034 A 
ATOM      7 Cl   UNL d   1       0.509  -0.201  -1.169  0.00  0.00    -0.070 Cl
ATOM      8 Cl1  UNL d   1       2.642  -1.194   1.080  0.00  0.00    -0.070 Cl
ENDROOT
TORSDOF 0
ENDMDL
