MODEL 1
REMARK minimizedAffinity -1.47025597
REMARK minimizedRMSD -1
REMARK  0 active torsions:
REMARK  status: ('A' for Active; 'I' for Inactive)
ROOT
ATOM      1  C   UNL d   1       0.520  -0.115  -1.626  0.00  0.00     0.020 A 
ATOM      2  C1  UNL d   1      -0.766   0.373  -1.399  0.00  0.00     0.020 A 
ATOM      3  C2  UNL d   1      -1.211   0.590  -0.094  0.00  0.00     0.034 A 
ATOM      4  C3  UNL d   1      -0.368   0.321   0.991  0.00  0.00     0.017 A 
ATOM      5  C4  UNL d   1       0.923  -0.169   0.763  0.00  0.00     0.017 A 
ATOM      6  C5  UNL d   1       1.363  -0.385  -0.547  0.00  0.00     0.034 A 
ATOM      7 Cl   UNL d   1       2.020  -0.525   2.050  0.00  0.00    -0.070 Cl
ATOM      8 Cl1  UNL d   1      -0.983   0.613   2.579  0.00  0.00    -0.070 Cl
ENDROOT
TORSDOF 0
ENDMDL
