MODEL 1
REMARK minimizedAffinity 7.46003723
REMARK minimizedRMSD -1
REMARK  0 active torsions:
REMARK  status: ('A' for Active; 'I' for Inactive)
ROOT
ATOM      1  C   UNL d   1       0.031   1.386   1.953  0.00  0.00     0.020 A 
ATOM      2  C1  UNL d   1      -0.016   2.456   1.060  0.00  0.00     0.020 A 
ATOM      3  C2  UNL d   1       0.486   2.306  -0.235  0.00  0.00     0.034 A 
ATOM      4  C3  UNL d   1       1.037   1.085  -0.639  0.00  0.00     0.017 A 
ATOM      5  C4  UNL d   1       1.083   0.012   0.258  0.00  0.00     0.017 A 
ATOM      6  C5  UNL d   1       0.580   0.167   1.553  0.00  0.00     0.034 A 
ATOM      7 Cl   UNL d   1       1.748  -1.526  -0.168  0.00  0.00    -0.070 Cl
ATOM      8 Cl1  UNL d   1       1.638   0.970  -2.255  0.00  0.00    -0.070 Cl
ENDROOT
TORSDOF 0
ENDMDL
