MODEL 1
REMARK minimizedAffinity 5.31200027
REMARK minimizedRMSD -1
REMARK  0 active torsions:
REMARK  status: ('A' for Active; 'I' for Inactive)
ROOT
ATOM      1  C   UNL d   1      -0.286   1.436   0.209  0.00  0.00     0.020 A 
ATOM      2  C1  UNL d   1      -0.250   1.141   1.571  0.00  0.00     0.020 A 
ATOM      3  C2  UNL d   1       0.256   2.077   2.475  0.00  0.00     0.034 A 
ATOM      4  C3  UNL d   1       0.729   3.312   2.019  0.00  0.00     0.017 A 
ATOM      5  C4  UNL d   1       0.693   3.607   0.651  0.00  0.00     0.017 A 
ATOM      6  C5  UNL d   1       0.185   2.667  -0.250  0.00  0.00     0.034 A 
ATOM      7 Cl   UNL d   1       1.259   5.110   0.012  0.00  0.00    -0.070 Cl
ATOM      8 Cl1  UNL d   1       1.341   4.422   3.193  0.00  0.00    -0.070 Cl
ENDROOT
TORSDOF 0
ENDMDL
