MODEL 1
REMARK minimizedAffinity 12.2556248
REMARK minimizedRMSD -1
REMARK  0 active torsions:
REMARK  status: ('A' for Active; 'I' for Inactive)
ROOT
ATOM      1  C   UNL d   1       0.167   2.087   1.701  0.00  0.00     0.020 A 
ATOM      2  C1  UNL d   1       0.041   2.845   0.538  0.00  0.00     0.020 A 
ATOM      3  C2  UNL d   1       0.292   2.263  -0.706  0.00  0.00     0.034 A 
ATOM      4  C3  UNL d   1       0.670   0.918  -0.790  0.00  0.00     0.017 A 
ATOM      5  C4  UNL d   1       0.796   0.157   0.378  0.00  0.00     0.017 A 
ATOM      6  C5  UNL d   1       0.544   0.746   1.621  0.00  0.00     0.034 A 
ATOM      7 Cl   UNL d   1       1.258  -1.508   0.354  0.00  0.00    -0.070 Cl
ATOM      8 Cl1  UNL d   1       0.964   0.263  -2.362  0.00  0.00    -0.070 Cl
ENDROOT
TORSDOF 0
ENDMDL
