MODEL 1
REMARK minimizedAffinity -1.38979757
REMARK minimizedRMSD -1
REMARK  0 active torsions:
REMARK  status: ('A' for Active; 'I' for Inactive)
ROOT
ATOM      1  C   UNL d   1      -4.469   1.344  -5.775  0.00  0.00     0.020 A 
ATOM      2  C1  UNL d   1      -5.770   1.845  -5.777  0.00  0.00     0.020 A 
ATOM      3  C2  UNL d   1      -5.987   3.223  -5.847  0.00  0.00     0.034 A 
ATOM      4  C3  UNL d   1      -4.902   4.104  -5.915  0.00  0.00     0.017 A 
ATOM      5  C4  UNL d   1      -3.596   3.599  -5.913  0.00  0.00     0.017 A 
ATOM      6  C5  UNL d   1      -3.385   2.219  -5.843  0.00  0.00     0.034 A 
ATOM      7 Cl   UNL d   1      -2.206   4.624  -5.994  0.00  0.00    -0.070 Cl
ATOM      8 Cl1  UNL d   1      -5.244   5.796  -5.999  0.00  0.00    -0.070 Cl
ENDROOT
TORSDOF 0
ENDMDL
