MODEL 1
REMARK minimizedAffinity 6.2776227
REMARK minimizedRMSD -1
REMARK  0 active torsions:
REMARK  status: ('A' for Active; 'I' for Inactive)
ROOT
ATOM      1  C   UNL d   1      -5.998   1.726  -5.353  0.00  0.00     0.020 A 
ATOM      2  C1  UNL d   1      -5.960   2.979  -5.962  0.00  0.00     0.020 A 
ATOM      3  C2  UNL d   1      -4.994   3.912  -5.580  0.00  0.00     0.034 A 
ATOM      4  C3  UNL d   1      -4.063   3.593  -4.585  0.00  0.00     0.017 A 
ATOM      5  C4  UNL d   1      -4.102   2.335  -3.974  0.00  0.00     0.017 A 
ATOM      6  C5  UNL d   1      -5.071   1.404  -4.362  0.00  0.00     0.034 A 
ATOM      7 Cl   UNL d   1      -2.986   1.868  -2.740  0.00  0.00    -0.070 Cl
ATOM      8 Cl1  UNL d   1      -2.896   4.795  -4.162  0.00  0.00    -0.070 Cl
ENDROOT
TORSDOF 0
ENDMDL
