MODEL 1
REMARK minimizedAffinity 10.0623322
REMARK minimizedRMSD -1
REMARK  0 active torsions:
REMARK  status: ('A' for Active; 'I' for Inactive)
ROOT
ATOM      1  C   UNL d   1      -5.641   0.351  -4.993  0.00  0.00     0.020 A 
ATOM      2  C1  UNL d   1      -5.999   1.247  -5.999  0.00  0.00     0.020 A 
ATOM      3  C2  UNL d   1      -5.546   2.567  -5.953  0.00  0.00     0.034 A 
ATOM      4  C3  UNL d   1      -4.732   2.995  -4.898  0.00  0.00     0.017 A 
ATOM      5  C4  UNL d   1      -4.372   2.094  -3.888  0.00  0.00     0.017 A 
ATOM      6  C5  UNL d   1      -4.829   0.774  -3.940  0.00  0.00     0.034 A 
ATOM      7 Cl   UNL d   1      -3.371   2.548  -2.555  0.00  0.00    -0.070 Cl
ATOM      8 Cl1  UNL d   1      -4.207   4.641  -4.904  0.00  0.00    -0.070 Cl
ENDROOT
TORSDOF 0
ENDMDL
