MODEL 1
REMARK minimizedAffinity 0.308049619
REMARK minimizedRMSD -1
REMARK  0 active torsions:
REMARK  status: ('A' for Active; 'I' for Inactive)
ROOT
ATOM      1  C   UNL d   1      -5.999   2.462  -5.472  0.00  0.00     0.020 A 
ATOM      2  C1  UNL d   1      -5.992   3.770  -5.955  0.00  0.00     0.020 A 
ATOM      3  C2  UNL d   1      -4.798   4.492  -5.999  0.00  0.00     0.034 A 
ATOM      4  C3  UNL d   1      -3.605   3.907  -5.559  0.00  0.00     0.017 A 
ATOM      5  C4  UNL d   1      -3.613   2.594  -5.074  0.00  0.00     0.017 A 
ATOM      6  C5  UNL d   1      -4.811   1.875  -5.032  0.00  0.00     0.034 A 
ATOM      7 Cl   UNL d   1      -2.181   1.804  -4.513  0.00  0.00    -0.070 Cl
ATOM      8 Cl1  UNL d   1      -2.165   4.858  -5.642  0.00  0.00    -0.070 Cl
ENDROOT
TORSDOF 0
ENDMDL
