MODEL 1
REMARK minimizedAffinity 9.27295971
REMARK minimizedRMSD -1
REMARK  0 active torsions:
REMARK  status: ('A' for Active; 'I' for Inactive)
ROOT
ATOM      1  C   UNL d   1      -4.937   2.983  -5.536  0.00  0.00     0.020 A 
ATOM      2  C1  UNL d   1      -5.779   1.972  -5.998  0.00  0.00     0.020 A 
ATOM      3  C2  UNL d   1      -5.999   0.835  -5.217  0.00  0.00     0.034 A 
ATOM      4  C3  UNL d   1      -5.378   0.707  -3.969  0.00  0.00     0.017 A 
ATOM      5  C4  UNL d   1      -4.533   1.723  -3.506  0.00  0.00     0.017 A 
ATOM      6  C5  UNL d   1      -4.316   2.858  -4.293  0.00  0.00     0.034 A 
ATOM      7 Cl   UNL d   1      -3.731   1.636  -1.978  0.00  0.00    -0.070 Cl
ATOM      8 Cl1  UNL d   1      -5.696  -0.725  -3.056  0.00  0.00    -0.070 Cl
ENDROOT
TORSDOF 0
ENDMDL
