MODEL 1
REMARK minimizedAffinity 3.04831338
REMARK minimizedRMSD -1
REMARK  0 active torsions:
REMARK  status: ('A' for Active; 'I' for Inactive)
ROOT
ATOM      1  C   UNL d   1      -6.000   1.982  -5.532  0.00  0.00     0.020 A 
ATOM      2  C1  UNL d   1      -5.573   1.243  -4.429  0.00  0.00     0.020 A 
ATOM      3  C2  UNL d   1      -4.373   1.568  -3.793  0.00  0.00     0.034 A 
ATOM      4  C3  UNL d   1      -3.596   2.635  -4.260  0.00  0.00     0.017 A 
ATOM      5  C4  UNL d   1      -4.025   3.375  -5.367  0.00  0.00     0.017 A 
ATOM      6  C5  UNL d   1      -5.227   3.046  -6.000  0.00  0.00     0.034 A 
ATOM      7 Cl   UNL d   1      -3.120   4.705  -6.000  0.00  0.00    -0.070 Cl
ATOM      8 Cl1  UNL d   1      -2.123   2.981  -3.425  0.00  0.00    -0.070 Cl
ENDROOT
TORSDOF 0
ENDMDL
