MODEL 1
REMARK minimizedAffinity 1.84298849
REMARK minimizedRMSD -1
REMARK  0 active torsions:
REMARK  status: ('A' for Active; 'I' for Inactive)
ROOT
ATOM      1  C   UNL d   1      -2.252   4.364  -5.420  0.00  0.00     0.020 A 
ATOM      2  C1  UNL d   1      -1.565   3.601  -4.476  0.00  0.00     0.020 A 
ATOM      3  C2  UNL d   1      -2.247   2.641  -3.725  0.00  0.00     0.034 A 
ATOM      4  C3  UNL d   1      -3.619   2.441  -3.917  0.00  0.00     0.017 A 
ATOM      5  C4  UNL d   1      -4.307   3.207  -4.865  0.00  0.00     0.017 A 
ATOM      6  C5  UNL d   1      -3.620   4.167  -5.614  0.00  0.00     0.034 A 
ATOM      7 Cl   UNL d   1      -6.000   3.017  -5.157  0.00  0.00    -0.070 Cl
ATOM      8 Cl1  UNL d   1      -4.397   1.236  -2.953  0.00  0.00    -0.070 Cl
ENDROOT
TORSDOF 0
ENDMDL
