MODEL 1
REMARK minimizedAffinity 0.71043545
REMARK minimizedRMSD -1
REMARK  0 active torsions:
REMARK  status: ('A' for Active; 'I' for Inactive)
ROOT
ATOM      1  C   UNL d   1      -4.857   3.219  -5.460  0.00  0.00     0.020 A 
ATOM      2  C1  UNL d   1      -5.683   2.233  -5.999  0.00  0.00     0.020 A 
ATOM      3  C2  UNL d   1      -5.998   1.099  -5.247  0.00  0.00     0.034 A 
ATOM      4  C3  UNL d   1      -5.488   0.948  -3.953  0.00  0.00     0.017 A 
ATOM      5  C4  UNL d   1      -4.660   1.938  -3.413  0.00  0.00     0.017 A 
ATOM      6  C5  UNL d   1      -4.347   3.072  -4.170  0.00  0.00     0.034 A 
ATOM      7 Cl   UNL d   1      -3.992   1.823  -1.823  0.00  0.00    -0.070 Cl
ATOM      8 Cl1  UNL d   1      -5.920  -0.479  -3.080  0.00  0.00    -0.070 Cl
ENDROOT
TORSDOF 0
ENDMDL
