MODEL 1
REMARK minimizedAffinity 5.74948931
REMARK minimizedRMSD -1
REMARK  0 active torsions:
REMARK  status: ('A' for Active; 'I' for Inactive)
ROOT
ATOM      1  C   UNL d   1      -5.994   1.468  -5.566  0.00  0.00     0.020 A 
ATOM      2  C1  UNL d   1      -5.097   0.971  -4.621  0.00  0.00     0.020 A 
ATOM      3  C2  UNL d   1      -4.113   1.805  -4.086  0.00  0.00     0.034 A 
ATOM      4  C3  UNL d   1      -4.024   3.141  -4.496  0.00  0.00     0.017 A 
ATOM      5  C4  UNL d   1      -4.924   3.639  -5.444  0.00  0.00     0.017 A 
ATOM      6  C5  UNL d   1      -5.908   2.799  -5.976  0.00  0.00     0.034 A 
ATOM      7 Cl   UNL d   1      -4.876   5.275  -5.998  0.00  0.00    -0.070 Cl
ATOM      8 Cl1  UNL d   1      -2.782   4.115  -3.792  0.00  0.00    -0.070 Cl
ENDROOT
TORSDOF 0
ENDMDL
