MODEL 1
REMARK minimizedAffinity 3.87458324
REMARK minimizedRMSD -1
REMARK  0 active torsions:
REMARK  status: ('A' for Active; 'I' for Inactive)
ROOT
ATOM      1  C   UNL d   1       0.263   2.773   1.006  0.00  0.00     0.020 A 
ATOM      2  C1  UNL d   1       0.052   1.697   1.867  0.00  0.00     0.020 A 
ATOM      3  C2  UNL d   1       0.153   0.389   1.389  0.00  0.00     0.034 A 
ATOM      4  C3  UNL d   1       0.466   0.153   0.045  0.00  0.00     0.017 A 
ATOM      5  C4  UNL d   1       0.678   1.234  -0.819  0.00  0.00     0.017 A 
ATOM      6  C5  UNL d   1       0.575   2.542  -0.334  0.00  0.00     0.034 A 
ATOM      7 Cl   UNL d   1       1.069   1.022  -2.489  0.00  0.00    -0.070 Cl
ATOM      8 Cl1  UNL d   1       0.576  -1.490  -0.478  0.00  0.00    -0.070 Cl
ENDROOT
TORSDOF 0
ENDMDL
