MODEL 1
REMARK minimizedAffinity 5.51482725
REMARK minimizedRMSD -1
REMARK  0 active torsions:
REMARK  status: ('A' for Active; 'I' for Inactive)
ROOT
ATOM      1  C   UNL d   1      -0.266   2.344  -0.466  0.00  0.00     0.020 A 
ATOM      2  C1  UNL d   1       0.207   2.829   0.752  0.00  0.00     0.020 A 
ATOM      3  C2  UNL d   1       0.704   1.944   1.711  0.00  0.00     0.034 A 
ATOM      4  C3  UNL d   1       0.729   0.568   1.453  0.00  0.00     0.017 A 
ATOM      5  C4  UNL d   1       0.254   0.082   0.230  0.00  0.00     0.017 A 
ATOM      6  C5  UNL d   1      -0.243   0.973  -0.727  0.00  0.00     0.034 A 
ATOM      7 Cl   UNL d   1       0.252  -1.602  -0.160  0.00  0.00    -0.070 Cl
ATOM      8 Cl1  UNL d   1       1.357  -0.468   2.684  0.00  0.00    -0.070 Cl
ENDROOT
TORSDOF 0
ENDMDL
