MODEL 1
REMARK minimizedAffinity 2.68793344
REMARK minimizedRMSD -1
REMARK  0 active torsions:
REMARK  status: ('A' for Active; 'I' for Inactive)
ROOT
ATOM      1  C   UNL d   1      -5.996   4.028  -5.687  0.00  0.00     0.020 A 
ATOM      2  C1  UNL d   1      -6.000   2.872  -4.908  0.00  0.00     0.020 A 
ATOM      3  C2  UNL d   1      -4.796   2.341  -4.441  0.00  0.00     0.034 A 
ATOM      4  C3  UNL d   1      -3.583   2.966  -4.753  0.00  0.00     0.017 A 
ATOM      5  C4  UNL d   1      -3.580   4.127  -5.535  0.00  0.00     0.017 A 
ATOM      6  C5  UNL d   1      -4.789   4.654  -6.000  0.00  0.00     0.034 A 
ATOM      7 Cl   UNL d   1      -2.124   4.955  -5.961  0.00  0.00    -0.070 Cl
ATOM      8 Cl1  UNL d   1      -2.132   2.255  -4.142  0.00  0.00    -0.070 Cl
ENDROOT
TORSDOF 0
ENDMDL
