MODEL 1
REMARK minimizedAffinity 3.0879581
REMARK minimizedRMSD -1
REMARK  0 active torsions:
REMARK  status: ('A' for Active; 'I' for Inactive)
ROOT
ATOM      1  C   UNL d   1      -4.886   4.888  -5.123  0.00  0.00     0.020 A 
ATOM      2  C1  UNL d   1      -5.806   4.313  -5.999  0.00  0.00     0.020 A 
ATOM      3  C2  UNL d   1      -5.999   2.930  -6.000  0.00  0.00     0.034 A 
ATOM      4  C3  UNL d   1      -5.271   2.117  -5.123  0.00  0.00     0.017 A 
ATOM      5  C4  UNL d   1      -4.348   2.695  -4.245  0.00  0.00     0.017 A 
ATOM      6  C5  UNL d   1      -4.159   4.081  -4.248  0.00  0.00     0.034 A 
ATOM      7 Cl   UNL d   1      -3.413   1.757  -3.134  0.00  0.00    -0.070 Cl
ATOM      8 Cl1  UNL d   1      -5.561   0.415  -5.179  0.00  0.00    -0.070 Cl
ENDROOT
TORSDOF 0
ENDMDL
