MODEL 1
REMARK minimizedAffinity -0.155792058
REMARK minimizedRMSD -1
REMARK  0 active torsions:
REMARK  status: ('A' for Active; 'I' for Inactive)
ROOT
ATOM      1  C   UNL d   1      -1.045   0.357   1.812  0.00  0.00     0.124 A 
ATOM      2  C1  UNL d   1       0.204  -0.231   1.666  0.00  0.00     0.062 A 
ATOM      3  C2  UNL d   1       0.691  -0.533   0.398  0.00  0.00     0.162 A 
ATOM      4  C3  UNL d   1      -0.071  -0.248  -0.735  0.00  0.00    -0.034 A 
ATOM      5  C4  UNL d   1      -1.327   0.342  -0.580  0.00  0.00     0.162 A 
ATOM      6  C5  UNL d   1      -1.809   0.642   0.690  0.00  0.00     0.062 A 
ATOM      7  F   UNL d   1      -3.016   1.209   0.829  0.00  0.00    -0.097 F 
ATOM      8  F1  UNL d   1      -2.085   0.630  -1.648  0.00  0.00    -0.096 F 
ATOM      9  I   UNL d   1       0.654  -0.698  -2.633  0.00  0.00    -0.060 I 
ATOM     10  F2  UNL d   1       1.902  -1.100   0.286  0.00  0.00    -0.096 F 
ATOM     11  F3  UNL d   1       0.944  -0.508   2.749  0.00  0.00    -0.097 F 
ATOM     12  F4  UNL d   1      -1.512   0.646   3.034  0.00  0.00    -0.092 F 
ENDROOT
TORSDOF 0
ENDMDL
