MODEL 1
REMARK minimizedAffinity 0.386256576
REMARK minimizedRMSD -1
REMARK  0 active torsions:
REMARK  status: ('A' for Active; 'I' for Inactive)
ROOT
ATOM      1  C   UNL d   1       0.989   0.463  -3.212  0.00  0.00     0.124 A 
ATOM      2  C1  UNL d   1       0.049   1.000  -2.343  0.00  0.00     0.062 A 
ATOM      3  C2  UNL d   1      -0.092   0.484  -1.059  0.00  0.00     0.162 A 
ATOM      4  C3  UNL d   1       0.711  -0.576  -0.634  0.00  0.00    -0.034 A 
ATOM      5  C4  UNL d   1       1.653  -1.111  -1.513  0.00  0.00     0.162 A 
ATOM      6  C5  UNL d   1       1.790  -0.592  -2.797  0.00  0.00     0.062 A 
ATOM      7  F   UNL d   1       2.699  -1.112  -3.635  0.00  0.00    -0.097 F 
ATOM      8  F1  UNL d   1       2.441  -2.130  -1.138  0.00  0.00    -0.096 F 
ATOM      9  I   UNL d   1       0.503  -1.350   1.287  0.00  0.00    -0.060 I 
ATOM     10  F2  UNL d   1      -1.008   1.022  -0.240  0.00  0.00    -0.096 F 
ATOM     11  F3  UNL d   1      -0.726   2.018  -2.743  0.00  0.00    -0.097 F 
ATOM     12  F4  UNL d   1       1.122   0.961  -4.448  0.00  0.00    -0.092 F 
ENDROOT
TORSDOF 0
ENDMDL
