MODEL 1
REMARK minimizedAffinity 0.827367604
REMARK minimizedRMSD -1
REMARK  0 active torsions:
REMARK  status: ('A' for Active; 'I' for Inactive)
ROOT
ATOM      1  C   UNL d   1      -1.674   0.599   2.200  0.00  0.00     0.124 A 
ATOM      2  C1  UNL d   1      -0.320   0.311   2.099  0.00  0.00     0.062 A 
ATOM      3  C2  UNL d   1       0.280   0.191   0.849  0.00  0.00     0.162 A 
ATOM      4  C3  UNL d   1      -0.475   0.361  -0.312  0.00  0.00    -0.034 A 
ATOM      5  C4  UNL d   1      -1.836   0.649  -0.203  0.00  0.00     0.162 A 
ATOM      6  C5  UNL d   1      -2.431   0.768   1.049  0.00  0.00     0.062 A 
ATOM      7  F   UNL d   1      -3.739   1.046   1.144  0.00  0.00    -0.097 F 
ATOM      8  F1  UNL d   1      -2.591   0.818  -1.299  0.00  0.00    -0.096 F 
ATOM      9  I   UNL d   1       0.418   0.182  -2.184  0.00  0.00    -0.060 I 
ATOM     10  F2  UNL d   1       1.590  -0.087   0.782  0.00  0.00    -0.096 F 
ATOM     11  F3  UNL d   1       0.413   0.147   3.210  0.00  0.00    -0.097 F 
ATOM     12  F4  UNL d   1      -2.248   0.713   3.404  0.00  0.00    -0.092 F 
ENDROOT
TORSDOF 0
ENDMDL
