MODEL 1
REMARK minimizedAffinity -2.69527555
REMARK minimizedRMSD -1
REMARK  0 active torsions:
REMARK  status: ('A' for Active; 'I' for Inactive)
ROOT
ATOM      1  C   UNL d   1      -1.692   0.540   2.613  0.00  0.00     0.124 A 
ATOM      2  C1  UNL d   1      -0.348   0.207   2.520  0.00  0.00     0.062 A 
ATOM      3  C2  UNL d   1       0.245   0.032   1.273  0.00  0.00     0.162 A 
ATOM      4  C3  UNL d   1      -0.505   0.190   0.108  0.00  0.00    -0.034 A 
ATOM      5  C4  UNL d   1      -1.857   0.525   0.209  0.00  0.00     0.162 A 
ATOM      6  C5  UNL d   1      -2.445   0.699   1.458  0.00  0.00     0.062 A 
ATOM      7  F   UNL d   1      -3.744   1.020   1.546  0.00  0.00    -0.097 F 
ATOM      8  F1  UNL d   1      -2.608   0.685  -0.890  0.00  0.00    -0.096 F 
ATOM      9  I   UNL d   1       0.378  -0.070  -1.759  0.00  0.00    -0.060 I 
ATOM     10  F2  UNL d   1       1.546  -0.290   1.213  0.00  0.00    -0.096 F 
ATOM     11  F3  UNL d   1       0.382   0.052   3.634  0.00  0.00    -0.097 F 
ATOM     12  F4  UNL d   1      -2.260   0.707   3.814  0.00  0.00    -0.092 F 
ENDROOT
TORSDOF 0
ENDMDL
