MODEL 1
REMARK minimizedAffinity -0.660148621
REMARK minimizedRMSD -1
REMARK  0 active torsions:
REMARK  status: ('A' for Active; 'I' for Inactive)
ROOT
ATOM      1  C   UNL d   1      -1.515   0.544   2.125  0.00  0.00     0.124 A 
ATOM      2  C1  UNL d   1      -2.239   0.812   0.971  0.00  0.00     0.062 A 
ATOM      3  C2  UNL d   1      -1.669   0.593  -0.279  0.00  0.00     0.162 A 
ATOM      4  C3  UNL d   1      -0.367   0.102  -0.383  0.00  0.00    -0.034 A 
ATOM      5  C4  UNL d   1       0.355  -0.164   0.782  0.00  0.00     0.162 A 
ATOM      6  C5  UNL d   1      -0.220   0.057   2.029  0.00  0.00     0.062 A 
ATOM      7  F   UNL d   1       0.481  -0.203   3.143  0.00  0.00    -0.097 F 
ATOM      8  F1  UNL d   1       1.608  -0.637   0.718  0.00  0.00    -0.096 F 
ATOM      9  I   UNL d   1       0.489  -0.228  -2.251  0.00  0.00    -0.060 I 
ATOM     10  F2  UNL d   1      -2.391   0.860  -1.378  0.00  0.00    -0.096 F 
ATOM     11  F3  UNL d   1      -3.491   1.284   1.061  0.00  0.00    -0.097 F 
ATOM     12  F4  UNL d   1      -2.066   0.757   3.327  0.00  0.00    -0.092 F 
ENDROOT
TORSDOF 0
ENDMDL
