MODEL 1
REMARK minimizedAffinity -0.712526739
REMARK minimizedRMSD -1
REMARK  0 active torsions:
REMARK  status: ('A' for Active; 'I' for Inactive)
ROOT
ATOM      1  C   UNL d   1       0.477  -1.004  -3.085  0.00  0.00     0.124 A 
ATOM      2  C1  UNL d   1      -0.321  -0.031  -2.498  0.00  0.00     0.062 A 
ATOM      3  C2  UNL d   1      -0.143   0.307  -1.160  0.00  0.00     0.162 A 
ATOM      4  C3  UNL d   1       0.840  -0.327  -0.399  0.00  0.00    -0.034 A 
ATOM      5  C4  UNL d   1       1.638  -1.305  -0.996  0.00  0.00     0.162 A 
ATOM      6  C5  UNL d   1       1.455  -1.639  -2.334  0.00  0.00     0.062 A 
ATOM      7  F   UNL d   1       2.227  -2.579  -2.899  0.00  0.00    -0.097 F 
ATOM      8  F1  UNL d   1       2.592  -1.934  -0.294  0.00  0.00    -0.096 F 
ATOM      9  I   UNL d   1       1.111   0.176   1.602  0.00  0.00    -0.060 I 
ATOM     10  F2  UNL d   1      -0.928   1.250  -0.619  0.00  0.00    -0.096 F 
ATOM     11  F3  UNL d   1      -1.268   0.583  -3.222  0.00  0.00    -0.097 F 
ATOM     12  F4  UNL d   1       0.302  -1.328  -4.373  0.00  0.00    -0.092 F 
ENDROOT
TORSDOF 0
ENDMDL
