MODEL 1
REMARK minimizedAffinity 4.09678698
REMARK minimizedRMSD -1
REMARK  0 active torsions:
REMARK  status: ('A' for Active; 'I' for Inactive)
ROOT
ATOM      1  C   UNL d   1      -0.717   0.533   1.964  0.00  0.00     0.124 A 
ATOM      2  C1  UNL d   1       0.631   0.215   1.875  0.00  0.00     0.062 A 
ATOM      3  C2  UNL d   1       1.195  -0.103   0.643  0.00  0.00     0.162 A 
ATOM      4  C3  UNL d   1       0.412  -0.103  -0.511  0.00  0.00    -0.034 A 
ATOM      5  C4  UNL d   1      -0.944   0.218  -0.413  0.00  0.00     0.162 A 
ATOM      6  C5  UNL d   1      -1.503   0.534   0.821  0.00  0.00     0.062 A 
ATOM      7  F   UNL d   1      -2.806   0.842   0.905  0.00  0.00    -0.097 F 
ATOM      8  F1  UNL d   1      -1.726   0.228  -1.503  0.00  0.00    -0.096 F 
ATOM      9  I   UNL d   1       1.251  -0.577  -2.355  0.00  0.00    -0.060 I 
ATOM     10  F2  UNL d   1       2.500  -0.406   0.587  0.00  0.00    -0.096 F 
ATOM     11  F3  UNL d   1       1.392   0.212   2.979  0.00  0.00    -0.097 F 
ATOM     12  F4  UNL d   1      -1.258   0.837   3.151  0.00  0.00    -0.092 F 
ENDROOT
TORSDOF 0
ENDMDL
