MODEL 1
REMARK minimizedAffinity 0.35477972
REMARK minimizedRMSD -1
REMARK  0 active torsions:
REMARK  status: ('A' for Active; 'I' for Inactive)
ROOT
ATOM      1  C   UNL d   1       0.913  -0.670   1.001  0.00  0.00     0.124 A 
ATOM      2  C1  UNL d   1       1.656  -1.598   0.286  0.00  0.00     0.062 A 
ATOM      3  C2  UNL d   1       1.679  -1.555  -1.105  0.00  0.00     0.162 A 
ATOM      4  C3  UNL d   1       0.956  -0.579  -1.791  0.00  0.00    -0.034 A 
ATOM      5  C4  UNL d   1       0.209   0.350  -1.065  0.00  0.00     0.162 A 
ATOM      6  C5  UNL d   1       0.190   0.303   0.325  0.00  0.00     0.062 A 
ATOM      7  F   UNL d   1      -0.530   1.201   1.015  0.00  0.00    -0.097 F 
ATOM      8  F1  UNL d   1      -0.498   1.302  -1.692  0.00  0.00    -0.096 F 
ATOM      9  I   UNL d   1       0.987  -0.511  -3.871  0.00  0.00    -0.060 I 
ATOM     10  F2  UNL d   1       2.407  -2.465  -1.770  0.00  0.00    -0.096 F 
ATOM     11  F3  UNL d   1       2.355  -2.540   0.937  0.00  0.00    -0.097 F 
ATOM     12  F4  UNL d   1       0.892  -0.714   2.340  0.00  0.00    -0.092 F 
ENDROOT
TORSDOF 0
ENDMDL
