MODEL 1
REMARK minimizedAffinity -3.80253983
REMARK minimizedRMSD -1
REMARK  0 active torsions:
REMARK  status: ('A' for Active; 'I' for Inactive)
ROOT
ATOM      1  C   UNL d   1       0.075  -0.812  -2.522  0.00  0.00     0.124 A 
ATOM      2  C1  UNL d   1      -0.873   0.024  -1.948  0.00  0.00     0.062 A 
ATOM      3  C2  UNL d   1      -0.911   0.195  -0.568  0.00  0.00     0.162 A 
ATOM      4  C3  UNL d   1       0.002  -0.471   0.250  0.00  0.00    -0.034 A 
ATOM      5  C4  UNL d   1       0.951  -1.312  -0.334  0.00  0.00     0.162 A 
ATOM      6  C5  UNL d   1       0.985  -1.479  -1.715  0.00  0.00     0.062 A 
ATOM      7  F   UNL d   1       1.901  -2.288  -2.267  0.00  0.00    -0.097 F 
ATOM      8  F1  UNL d   1       1.844  -1.968   0.422  0.00  0.00    -0.096 F 
ATOM      9  I   UNL d   1      -0.053  -0.219   2.315  0.00  0.00    -0.060 I 
ATOM     10  F2  UNL d   1      -1.837   1.010  -0.041  0.00  0.00    -0.096 F 
ATOM     11  F3  UNL d   1      -1.754   0.669  -2.726  0.00  0.00    -0.097 F 
ATOM     12  F4  UNL d   1       0.109  -0.976  -3.851  0.00  0.00    -0.092 F 
ENDROOT
TORSDOF 0
ENDMDL
