MODEL 1
REMARK minimizedAffinity -2.50852942
REMARK minimizedRMSD -1
REMARK  0 active torsions:
REMARK  status: ('A' for Active; 'I' for Inactive)
ROOT
ATOM      1  C   UNL d   1      -1.363   0.606   2.207  0.00  0.00     0.124 A 
ATOM      2  C1  UNL d   1      -2.085   0.790   1.036  0.00  0.00     0.062 A 
ATOM      3  C2  UNL d   1      -1.440   0.756  -0.196  0.00  0.00     0.162 A 
ATOM      4  C3  UNL d   1      -0.064   0.536  -0.265  0.00  0.00    -0.034 A 
ATOM      5  C4  UNL d   1       0.656   0.352   0.917  0.00  0.00     0.162 A 
ATOM      6  C5  UNL d   1       0.006   0.387   2.147  0.00  0.00     0.062 A 
ATOM      7  F   UNL d   1       0.705   0.209   3.277  0.00  0.00    -0.097 F 
ATOM      8  F1  UNL d   1       1.979   0.138   0.887  0.00  0.00    -0.096 F 
ATOM      9  I   UNL d   1       0.904   0.485  -2.107  0.00  0.00    -0.060 I 
ATOM     10  F2  UNL d   1      -2.163   0.937  -1.312  0.00  0.00    -0.096 F 
ATOM     11  F3  UNL d   1      -3.408   1.002   1.092  0.00  0.00    -0.097 F 
ATOM     12  F4  UNL d   1      -1.986   0.640   3.392  0.00  0.00    -0.092 F 
ENDROOT
TORSDOF 0
ENDMDL
