MODEL 1
REMARK minimizedAffinity 0.769247949
REMARK minimizedRMSD -1
REMARK  0 active torsions:
REMARK  status: ('A' for Active; 'I' for Inactive)
ROOT
ATOM      1  C   UNL d   1      -1.156   0.351   2.111  0.00  0.00     0.124 A 
ATOM      2  C1  UNL d   1       0.186   0.009   2.018  0.00  0.00     0.062 A 
ATOM      3  C2  UNL d   1       0.782  -0.155   0.771  0.00  0.00     0.162 A 
ATOM      4  C3  UNL d   1       0.037   0.024  -0.394  0.00  0.00    -0.034 A 
ATOM      5  C4  UNL d   1      -1.313   0.367  -0.293  0.00  0.00     0.162 A 
ATOM      6  C5  UNL d   1      -1.904   0.530   0.956  0.00  0.00     0.062 A 
ATOM      7  F   UNL d   1      -3.201   0.860   1.044  0.00  0.00    -0.097 F 
ATOM      8  F1  UNL d   1      -2.059   0.547  -1.393  0.00  0.00    -0.096 F 
ATOM      9  I   UNL d   1       0.924  -0.219  -2.261  0.00  0.00    -0.060 I 
ATOM     10  F2  UNL d   1       2.081  -0.485   0.711  0.00  0.00    -0.096 F 
ATOM     11  F3  UNL d   1       0.911  -0.165   3.133  0.00  0.00    -0.097 F 
ATOM     12  F4  UNL d   1      -1.727   0.507   3.313  0.00  0.00    -0.092 F 
ENDROOT
TORSDOF 0
ENDMDL
