MODEL 1
REMARK minimizedAffinity 2.31236863
REMARK minimizedRMSD -1
REMARK  0 active torsions:
REMARK  status: ('A' for Active; 'I' for Inactive)
ROOT
ATOM      1  C   UNL d   1      -1.307   0.461   2.300  0.00  0.00     0.124 A 
ATOM      2  C1  UNL d   1      -2.011   0.694   1.127  0.00  0.00     0.062 A 
ATOM      3  C2  UNL d   1      -1.374   0.586  -0.106  0.00  0.00     0.162 A 
ATOM      4  C3  UNL d   1      -0.023   0.242  -0.172  0.00  0.00    -0.034 A 
ATOM      5  C4  UNL d   1       0.679   0.010   1.012  0.00  0.00     0.162 A 
ATOM      6  C5  UNL d   1       0.037   0.120   2.242  0.00  0.00     0.062 A 
ATOM      7  F   UNL d   1       0.719  -0.106   3.374  0.00  0.00    -0.097 F 
ATOM      8  F1  UNL d   1       1.978  -0.323   0.985  0.00  0.00    -0.096 F 
ATOM      9  I   UNL d   1       0.933   0.079  -2.013  0.00  0.00    -0.060 I 
ATOM     10  F2  UNL d   1      -2.079   0.816  -1.223  0.00  0.00    -0.096 F 
ATOM     11  F3  UNL d   1      -3.309   1.026   1.181  0.00  0.00    -0.097 F 
ATOM     12  F4  UNL d   1      -1.922   0.567   3.485  0.00  0.00    -0.092 F 
ENDROOT
TORSDOF 0
ENDMDL
