MODEL 1
REMARK minimizedAffinity -1.09879005
REMARK minimizedRMSD -1
REMARK  0 active torsions:
REMARK  status: ('A' for Active; 'I' for Inactive)
ROOT
ATOM      1  C   UNL d   1      -1.535   0.414   2.180  0.00  0.00     0.124 A 
ATOM      2  C1  UNL d   1      -0.227  -0.030   2.049  0.00  0.00     0.062 A 
ATOM      3  C2  UNL d   1       0.363  -0.107   0.791  0.00  0.00     0.162 A 
ATOM      4  C3  UNL d   1      -0.355   0.262  -0.347  0.00  0.00    -0.034 A 
ATOM      5  C4  UNL d   1      -1.671   0.706  -0.207  0.00  0.00     0.162 A 
ATOM      6  C5  UNL d   1      -2.256   0.782   1.053  0.00  0.00     0.062 A 
ATOM      7  F   UNL d   1      -3.520   1.210   1.178  0.00  0.00    -0.097 F 
ATOM      8  F1  UNL d   1      -2.389   1.068  -1.280  0.00  0.00    -0.096 F 
ATOM      9  I   UNL d   1       0.524   0.148  -2.230  0.00  0.00    -0.060 I 
ATOM     10  F2  UNL d   1       1.629  -0.539   0.694  0.00  0.00    -0.096 F 
ATOM     11  F3  UNL d   1       0.471  -0.386   3.137  0.00  0.00    -0.097 F 
ATOM     12  F4  UNL d   1      -2.101   0.487   3.392  0.00  0.00    -0.092 F 
ENDROOT
TORSDOF 0
ENDMDL
