MODEL 1
REMARK minimizedAffinity -0.892852008
REMARK minimizedRMSD -1
REMARK  0 active torsions:
REMARK  status: ('A' for Active; 'I' for Inactive)
ROOT
ATOM      1  C   UNL d   1      -1.415   0.497   2.197  0.00  0.00     0.124 A 
ATOM      2  C1  UNL d   1      -0.054   0.232   2.251  0.00  0.00     0.062 A 
ATOM      3  C2  UNL d   1       0.689   0.147   1.077  0.00  0.00     0.162 A 
ATOM      4  C3  UNL d   1       0.073   0.328  -0.161  0.00  0.00    -0.034 A 
ATOM      5  C4  UNL d   1      -1.297   0.593  -0.207  0.00  0.00     0.162 A 
ATOM      6  C5  UNL d   1      -2.035   0.678   0.969  0.00  0.00     0.062 A 
ATOM      7  F   UNL d   1      -3.351   0.934   0.915  0.00  0.00    -0.097 F 
ATOM      8  F1  UNL d   1      -1.922   0.773  -1.380  0.00  0.00    -0.096 F 
ATOM      9  I   UNL d   1       1.180   0.201  -1.919  0.00  0.00    -0.060 I 
ATOM     10  F2  UNL d   1       2.003  -0.111   1.158  0.00  0.00    -0.096 F 
ATOM     11  F3  UNL d   1       0.547   0.056   3.436  0.00  0.00    -0.097 F 
ATOM     12  F4  UNL d   1      -2.128   0.578   3.328  0.00  0.00    -0.092 F 
ENDROOT
TORSDOF 0
ENDMDL
