MODEL 1
REMARK minimizedAffinity -4.70712852
REMARK minimizedRMSD -1
REMARK  0 active torsions:
REMARK  status: ('A' for Active; 'I' for Inactive)
ROOT
ATOM      1  C   UNL d   1      -0.729   0.081   0.612  0.00  0.00     0.124 A 
ATOM      2  C1  UNL d   1      -1.098   0.396  -0.689  0.00  0.00     0.062 A 
ATOM      3  C2  UNL d   1      -0.235   0.123  -1.746  0.00  0.00     0.162 A 
ATOM      4  C3  UNL d   1       1.005  -0.470  -1.508  0.00  0.00    -0.034 A 
ATOM      5  C4  UNL d   1       1.369  -0.783  -0.197  0.00  0.00     0.162 A 
ATOM      6  C5  UNL d   1       0.503  -0.508   0.856  0.00  0.00     0.062 A 
ATOM      7  F   UNL d   1       0.861  -0.813   2.112  0.00  0.00    -0.097 F 
ATOM      8  F1  UNL d   1       2.554  -1.354   0.067  0.00  0.00    -0.096 F 
ATOM      9  I   UNL d   1       2.298  -0.881  -3.087  0.00  0.00    -0.060 I 
ATOM     10  F2  UNL d   1      -0.617   0.438  -2.993  0.00  0.00    -0.096 F 
ATOM     11  F3  UNL d   1      -2.287   0.966  -0.928  0.00  0.00    -0.097 F 
ATOM     12  F4  UNL d   1      -1.561   0.346   1.627  0.00  0.00    -0.092 F 
ENDROOT
TORSDOF 0
ENDMDL
