MODEL 1
REMARK minimizedAffinity 7.70071888
REMARK minimizedRMSD -1
REMARK  1 active torsions:
REMARK  status: ('A' for Active; 'I' for Inactive)
REMARK    1  A    between atoms: C1_2  and  C2_3 
ROOT
ATOM      1  C2  UNL d   1       0.395   3.314  -0.209  0.00  0.00    -0.073 A 
ATOM      2  C3  UNL d   1       1.262   4.412  -0.169  0.00  0.00    -0.002 A 
ATOM      3  C4  UNL d   1       1.123   5.454  -1.088  0.00  0.00     0.004 A 
ATOM      4  C5  UNL d   1       0.114   5.412  -2.049  0.00  0.00    -0.004 A 
ATOM      5  C6  UNL d   1      -0.770   4.329  -2.097  0.00  0.00    -0.075 A 
ATOM      6  C7  UNL d   1      -1.861   4.269  -3.126  0.00  0.00     0.076 C 
ATOM      7  C8  UNL d   1      -0.623   3.286  -1.173  0.00  0.00     0.001 A 
ENDROOT
BRANCH   1   8
ATOM      8  C1  UNL d   1       0.537   2.191   0.785  0.00  0.00     0.053 C 
ATOM      9  C   UNL d   1       0.409   2.678   2.219  0.00  0.00     0.018 C 
ENDBRANCH   1   8
TORSDOF 1
ENDMDL
