MODEL 1
REMARK minimizedAffinity 8.20451069
REMARK minimizedRMSD -1
REMARK  1 active torsions:
REMARK  status: ('A' for Active; 'I' for Inactive)
REMARK    1  A    between atoms: C1_2  and  C2_3 
ROOT
ATOM      1  C2  UNL d   1       0.098   3.215  -0.173  0.00  0.00    -0.073 A 
ATOM      2  C3  UNL d   1       1.171   4.092   0.025  0.00  0.00    -0.002 A 
ATOM      3  C4  UNL d   1       1.314   5.223  -0.779  0.00  0.00     0.004 A 
ATOM      4  C5  UNL d   1       0.386   5.493  -1.784  0.00  0.00    -0.004 A 
ATOM      5  C6  UNL d   1      -0.699   4.635  -1.990  0.00  0.00    -0.075 A 
ATOM      6  C7  UNL d   1      -1.706   4.909  -3.069  0.00  0.00     0.076 C 
ATOM      7  C8  UNL d   1      -0.835   3.499  -1.180  0.00  0.00     0.001 A 
ENDROOT
BRANCH   1   8
ATOM      8  C1  UNL d   1      -0.065   1.996   0.698  0.00  0.00     0.053 C 
ATOM      9  C   UNL d   1       0.258   2.289   2.154  0.00  0.00     0.018 C 
ENDBRANCH   1   8
TORSDOF 1
ENDMDL
