MODEL 1
REMARK minimizedAffinity 8.06420803
REMARK minimizedRMSD -1
REMARK  1 active torsions:
REMARK  status: ('A' for Active; 'I' for Inactive)
REMARK    1  A    between atoms: C1_2  and  C2_3 
ROOT
ATOM      1  C2  UNL d   1       0.350   3.111   0.457  0.00  0.00    -0.073 A 
ATOM      2  C3  UNL d   1       1.474   3.627  -0.198  0.00  0.00    -0.002 A 
ATOM      3  C4  UNL d   1       1.341   4.257  -1.436  0.00  0.00     0.004 A 
ATOM      4  C5  UNL d   1       0.084   4.383  -2.028  0.00  0.00    -0.004 A 
ATOM      5  C6  UNL d   1      -1.052   3.884  -1.384  0.00  0.00    -0.075 A 
ATOM      6  C7  UNL d   1      -2.411   4.010  -2.008  0.00  0.00     0.076 C 
ATOM      7  C8  UNL d   1      -0.910   3.250  -0.142  0.00  0.00     0.001 A 
ENDROOT
BRANCH   1   8
ATOM      8  C1  UNL d   1       0.488   2.436   1.797  0.00  0.00     0.053 C 
ATOM      9  C   UNL d   1       1.929   2.426   2.285  0.00  0.00     0.018 C 
ENDBRANCH   1   8
TORSDOF 1
ENDMDL
