MODEL 1
REMARK minimizedAffinity 10.9150629
REMARK minimizedRMSD -1
REMARK  1 active torsions:
REMARK  status: ('A' for Active; 'I' for Inactive)
REMARK    1  A    between atoms: C1_2  and  C2_3 
ROOT
ATOM      1  C2  UNL d   1       1.027   2.558   2.898  0.00  0.00    -0.073 A 
ATOM      2  C3  UNL d   1       2.336   3.048   2.951  0.00  0.00    -0.002 A 
ATOM      3  C4  UNL d   1       2.941   3.567   1.805  0.00  0.00     0.004 A 
ATOM      4  C5  UNL d   1       2.242   3.608   0.599  0.00  0.00    -0.004 A 
ATOM      5  C6  UNL d   1       0.928   3.134   0.529  0.00  0.00    -0.075 A 
ATOM      6  C7  UNL d   1       0.163   3.168  -0.761  0.00  0.00     0.076 C 
ATOM      7  C8  UNL d   1       0.329   2.612   1.683  0.00  0.00     0.001 A 
ENDROOT
BRANCH   1   8
ATOM      8  C1  UNL d   1       0.367   2.003   4.134  0.00  0.00     0.053 C 
ATOM      9  C   UNL d   1       0.774   0.562   4.399  0.00  0.00     0.018 C 
ENDBRANCH   1   8
TORSDOF 1
ENDMDL
