MODEL 1
REMARK minimizedAffinity 11.0775146
REMARK minimizedRMSD -1
REMARK  1 active torsions:
REMARK  status: ('A' for Active; 'I' for Inactive)
REMARK    1  A    between atoms: C1_2  and  C2_3 
ROOT
ATOM      1  C2  UNL d   1       4.530  -4.962  -2.807  0.00  0.00    -0.073 A 
ATOM      2  C3  UNL d   1       4.666  -5.998  -1.876  0.00  0.00    -0.002 A 
ATOM      3  C4  UNL d   1       5.110  -5.728  -0.581  0.00  0.00     0.004 A 
ATOM      4  C5  UNL d   1       5.416  -4.421  -0.202  0.00  0.00    -0.004 A 
ATOM      5  C6  UNL d   1       5.275  -3.370  -1.115  0.00  0.00    -0.075 A 
ATOM      6  C7  UNL d   1       5.602  -1.959  -0.723  0.00  0.00     0.076 C 
ATOM      7  C8  UNL d   1       4.831  -3.650  -2.414  0.00  0.00     0.001 A 
ENDROOT
BRANCH   1   8
ATOM      8  C1  UNL d   1       4.044  -5.248  -4.204  0.00  0.00     0.053 C 
ATOM      9  C   UNL d   1       5.107  -4.949  -5.250  0.00  0.00     0.018 C 
ENDBRANCH   1   8
TORSDOF 1
ENDMDL
