MODEL 1
REMARK minimizedAffinity 8.59619999
REMARK minimizedRMSD -1
REMARK  1 active torsions:
REMARK  status: ('A' for Active; 'I' for Inactive)
REMARK    1  A    between atoms: C1_2  and  C2_3 
ROOT
ATOM      1  C2  UNL d   1       3.755  -3.446  -0.806  0.00  0.00    -0.073 A 
ATOM      2  C3  UNL d   1       3.234  -2.257  -0.283  0.00  0.00    -0.002 A 
ATOM      3  C4  UNL d   1       1.867  -2.137  -0.030  0.00  0.00     0.004 A 
ATOM      4  C5  UNL d   1       1.009  -3.206  -0.289  0.00  0.00    -0.004 A 
ATOM      5  C6  UNL d   1       1.512  -4.406  -0.801  0.00  0.00    -0.075 A 
ATOM      6  C7  UNL d   1       0.602  -5.564  -1.087  0.00  0.00     0.076 C 
ATOM      7  C8  UNL d   1       2.886  -4.518  -1.055  0.00  0.00     0.001 A 
ENDROOT
BRANCH   1   8
ATOM      8  C1  UNL d   1       5.231  -3.582  -1.074  0.00  0.00     0.053 C 
ATOM      9  C   UNL d   1       5.641  -5.030  -1.288  0.00  0.00     0.018 C 
ENDBRANCH   1   8
TORSDOF 1
ENDMDL
