MODEL 1
REMARK minimizedAffinity 7.10548496
REMARK minimizedRMSD -1
REMARK  0 active torsions:
REMARK  status: ('A' for Active; 'I' for Inactive)
ROOT
ATOM      1  C   UNL d   1       1.402   2.972   1.142  0.00  0.00     0.023 A 
ATOM      2  C1  UNL d   1       1.752   3.642  -0.031  0.00  0.00     0.003 A 
ATOM      3  C2  UNL d   1       0.757   4.148  -0.871  0.00  0.00     0.048 A 
ATOM      4  C3  UNL d   1      -0.585   3.980  -0.532  0.00  0.00     0.023 A 
ATOM      5  C4  UNL d   1      -0.940   3.311   0.640  0.00  0.00     0.048 A 
ATOM      6  C5  UNL d   1       0.058   2.807   1.477  0.00  0.00     0.003 A 
ATOM      7  I   UNL d   1      -2.067   4.732  -1.781  0.00  0.00    -0.146 I 
ENDROOT
TORSDOF 0
ENDMDL
