MODEL 1
REMARK minimizedAffinity 4.37257528
REMARK minimizedRMSD -1
REMARK  0 active torsions:
REMARK  status: ('A' for Active; 'I' for Inactive)
ROOT
ATOM      1  C   UNL d   1      -0.935   5.213  -2.388  0.00  0.00     0.023 A 
ATOM      2  C1  UNL d   1       0.361   4.841  -2.032  0.00  0.00     0.003 A 
ATOM      3  C2  UNL d   1       0.578   4.069  -0.888  0.00  0.00     0.048 A 
ATOM      4  C3  UNL d   1      -0.506   3.673  -0.106  0.00  0.00     0.023 A 
ATOM      5  C4  UNL d   1      -1.805   4.042  -0.460  0.00  0.00     0.048 A 
ATOM      6  C5  UNL d   1      -2.017   4.814  -1.603  0.00  0.00     0.003 A 
ATOM      7  I   UNL d   1      -0.186   2.524   1.596  0.00  0.00    -0.146 I 
ENDROOT
TORSDOF 0
ENDMDL
