MODEL 1
REMARK minimizedAffinity 8.77540874
REMARK minimizedRMSD -1
REMARK  0 active torsions:
REMARK  status: ('A' for Active; 'I' for Inactive)
ROOT
ATOM      1  C   UNL d   1      -5.853   3.401  -3.653  0.00  0.00     0.023 A 
ATOM      2  C1  UNL d   1      -5.956   2.223  -2.913  0.00  0.00     0.003 A 
ATOM      3  C2  UNL d   1      -5.995   0.988  -3.565  0.00  0.00     0.048 A 
ATOM      4  C3  UNL d   1      -5.929   0.939  -4.957  0.00  0.00     0.023 A 
ATOM      5  C4  UNL d   1      -5.824   2.115  -5.701  0.00  0.00     0.048 A 
ATOM      6  C5  UNL d   1      -5.787   3.347  -5.045  0.00  0.00     0.003 A 
ATOM      7  I   UNL d   1      -5.986  -0.897  -5.929  0.00  0.00    -0.146 I 
ENDROOT
TORSDOF 0
ENDMDL
