MODEL 1
REMARK minimizedAffinity 4.16821718
REMARK minimizedRMSD -1
REMARK  0 active torsions:
REMARK  status: ('A' for Active; 'I' for Inactive)
ROOT
ATOM      1  C   UNL d   1      -0.397   4.119  -0.151  0.00  0.00     0.023 A 
ATOM      2  C1  UNL d   1      -1.425   4.429  -1.041  0.00  0.00     0.003 A 
ATOM      3  C2  UNL d   1      -1.126   4.969  -2.294  0.00  0.00     0.048 A 
ATOM      4  C3  UNL d   1       0.203   5.195  -2.650  0.00  0.00     0.023 A 
ATOM      5  C4  UNL d   1       1.235   4.885  -1.763  0.00  0.00     0.048 A 
ATOM      6  C5  UNL d   1       0.931   4.347  -0.511  0.00  0.00     0.003 A 
ATOM      7  I   UNL d   1       0.650   5.998  -4.514  0.00  0.00    -0.146 I 
ENDROOT
TORSDOF 0
ENDMDL
