MODEL 1
REMARK minimizedAffinity 4.6351366
REMARK minimizedRMSD -1
REMARK  0 active torsions:
REMARK  status: ('A' for Active; 'I' for Inactive)
ROOT
ATOM      1  C   UNL d   1       1.790   2.396   2.968  0.00  0.00     0.023 A 
ATOM      2  C1  UNL d   1       0.487   2.066   2.594  0.00  0.00     0.003 A 
ATOM      3  C2  UNL d   1      -0.015   2.488   1.361  0.00  0.00     0.048 A 
ATOM      4  C3  UNL d   1       0.792   3.237   0.506  0.00  0.00     0.023 A 
ATOM      5  C4  UNL d   1       2.097   3.569   0.875  0.00  0.00     0.048 A 
ATOM      6  C5  UNL d   1       2.594   3.146   2.110  0.00  0.00     0.003 A 
ATOM      7  I   UNL d   1       0.048   3.865  -1.330  0.00  0.00    -0.146 I 
ENDROOT
TORSDOF 0
ENDMDL
