MODEL 1
REMARK minimizedAffinity 6.12248659
REMARK minimizedRMSD -1
REMARK  0 active torsions:
REMARK  status: ('A' for Active; 'I' for Inactive)
ROOT
ATOM      1  C   UNL d   1      -4.327   0.736   1.740  0.00  0.00     0.023 A 
ATOM      2  C1  UNL d   1      -3.691  -0.378   2.288  0.00  0.00     0.003 A 
ATOM      3  C2  UNL d   1      -4.168  -0.943   3.473  0.00  0.00     0.048 A 
ATOM      4  C3  UNL d   1      -5.281  -0.389   4.104  0.00  0.00     0.023 A 
ATOM      5  C4  UNL d   1      -5.921   0.725   3.559  0.00  0.00     0.048 A 
ATOM      6  C5  UNL d   1      -5.440   1.287   2.375  0.00  0.00     0.003 A 
ATOM      7  I   UNL d   1      -5.992  -1.228   5.867  0.00  0.00    -0.146 I 
ENDROOT
TORSDOF 0
ENDMDL
