MODEL 1
REMARK minimizedAffinity 2.47914839
REMARK minimizedRMSD -1
REMARK  0 active torsions:
REMARK  status: ('A' for Active; 'I' for Inactive)
ROOT
ATOM      1  C   UNL d   1      -0.839   5.164  -1.854  0.00  0.00     0.023 A 
ATOM      2  C1  UNL d   1      -0.810   5.793  -0.609  0.00  0.00     0.003 A 
ATOM      3  C2  UNL d   1      -0.538   5.052   0.543  0.00  0.00     0.048 A 
ATOM      4  C3  UNL d   1      -0.294   3.683   0.443  0.00  0.00     0.023 A 
ATOM      5  C4  UNL d   1      -0.321   3.050  -0.801  0.00  0.00     0.048 A 
ATOM      6  C5  UNL d   1      -0.595   3.794  -1.950  0.00  0.00     0.003 A 
ATOM      7  I   UNL d   1       0.112   2.578   2.155  0.00  0.00    -0.146 I 
ENDROOT
TORSDOF 0
ENDMDL
