MODEL 1
REMARK minimizedAffinity 11.5536251
REMARK minimizedRMSD -1
REMARK  0 active torsions:
REMARK  status: ('A' for Active; 'I' for Inactive)
ROOT
ATOM      1  C1  DEN d   1       2.956  -0.593  -1.759  0.00  0.00     0.130 A 
ATOM      2  C2  DEN d   1       2.210  -1.135  -0.627  0.00  0.00    -0.031 A 
ATOM      3  C3  DEN d   1       2.249  -0.140   0.464  0.00  0.00     0.027 A 
ATOM      4  C4  DEN d   1       3.382   2.177   0.507  0.00  0.00     0.027 A 
ATOM      5  C5  DEN d   1       4.144   3.067  -0.217  0.00  0.00    -0.003 A 
ATOM      6  C6  DEN d   1       4.588   2.789  -1.482  0.00  0.00     0.001 A 
ATOM      7  C7  DEN d   1       4.236   1.608  -2.080  0.00  0.00     0.017 A 
ATOM      8  C8  DEN d   1       3.474   0.701  -1.354  0.00  0.00    -0.094 A 
ATOM      9  C9  DEN d   1       3.025   1.007  -0.081  0.00  0.00    -0.072 A 
ENDROOT
TORSDOF 0
ENDMDL
