MODEL 1
REMARK minimizedAffinity 9.12431812
REMARK minimizedRMSD -1
REMARK  0 active torsions:
REMARK  status: ('A' for Active; 'I' for Inactive)
ROOT
ATOM      1  C1  DEN d   1      -4.269   6.000   4.815  0.00  0.00     0.130 A 
ATOM      2  C2  DEN d   1      -5.109   5.850   6.000  0.00  0.00    -0.031 A 
ATOM      3  C3  DEN d   1      -5.937   4.640   5.823  0.00  0.00     0.027 A 
ATOM      4  C4  DEN d   1      -5.995   2.990   3.841  0.00  0.00     0.027 A 
ATOM      5  C5  DEN d   1      -5.470   2.708   2.599  0.00  0.00    -0.003 A 
ATOM      6  C6  DEN d   1      -4.541   3.516   1.999  0.00  0.00     0.001 A 
ATOM      7  C7  DEN d   1      -4.074   4.621   2.660  0.00  0.00     0.017 A 
ATOM      8  C8  DEN d   1      -4.604   4.916   3.909  0.00  0.00    -0.094 A 
ATOM      9  C9  DEN d   1      -5.534   4.080   4.504  0.00  0.00    -0.072 A 
ENDROOT
TORSDOF 0
ENDMDL
