MODEL 1
REMARK minimizedAffinity 12.0134373
REMARK minimizedRMSD -1
REMARK  0 active torsions:
REMARK  status: ('A' for Active; 'I' for Inactive)
ROOT
ATOM      1  C1  DEN d   1       1.911  -2.232  -1.298  0.00  0.00     0.130 A 
ATOM      2  C2  DEN d   1       2.354  -2.469  -2.669  0.00  0.00    -0.031 A 
ATOM      3  C3  DEN d   1       3.065  -1.261  -3.134  0.00  0.00     0.027 A 
ATOM      4  C4  DEN d   1       3.524   0.940  -1.868  0.00  0.00     0.027 A 
ATOM      5  C5  DEN d   1       3.332   1.614  -0.683  0.00  0.00    -0.003 A 
ATOM      6  C6  DEN d   1       2.630   1.071   0.360  0.00  0.00     0.001 A 
ATOM      7  C7  DEN d   1       2.131  -0.201   0.254  0.00  0.00     0.017 A 
ATOM      8  C8  DEN d   1       2.314  -0.884  -0.941  0.00  0.00    -0.094 A 
ATOM      9  C9  DEN d   1       3.038  -0.323  -1.979  0.00  0.00    -0.072 A 
ENDROOT
TORSDOF 0
ENDMDL
