MODEL 1
REMARK minimizedAffinity 12.5081434
REMARK minimizedRMSD -1
REMARK  0 active torsions:
REMARK  status: ('A' for Active; 'I' for Inactive)
ROOT
ATOM      1  C1  DEN d   1       2.659   1.235  -1.492  0.00  0.00     0.130 A 
ATOM      2  C2  DEN d   1       3.523   1.813  -0.466  0.00  0.00    -0.031 A 
ATOM      3  C3  DEN d   1       3.779   0.775   0.553  0.00  0.00     0.027 A 
ATOM      4  C4  DEN d   1       2.931  -1.659   0.639  0.00  0.00     0.027 A 
ATOM      5  C5  DEN d   1       2.160  -2.602  -0.004  0.00  0.00    -0.003 A 
ATOM      6  C6  DEN d   1       1.479  -2.325  -1.160  0.00  0.00     0.001 A 
ATOM      7  C7  DEN d   1       1.593  -1.086  -1.734  0.00  0.00     0.017 A 
ATOM      8  C8  DEN d   1       2.363  -0.128  -1.088  0.00  0.00    -0.094 A 
ATOM      9  C9  DEN d   1       3.052  -0.431   0.073  0.00  0.00    -0.072 A 
ENDROOT
TORSDOF 0
ENDMDL
