MODEL 1
REMARK minimizedAffinity 14.4371347
REMARK minimizedRMSD -1
REMARK  0 active torsions:
REMARK  status: ('A' for Active; 'I' for Inactive)
ROOT
ATOM      1  C1  DEN d   1       4.849   2.138  -0.486  0.00  0.00     0.130 A 
ATOM      2  C2  DEN d   1       5.008   2.286  -1.930  0.00  0.00    -0.031 A 
ATOM      3  C3  DEN d   1       4.000   1.432  -2.591  0.00  0.00     0.027 A 
ATOM      4  C4  DEN d   1       2.214  -0.092  -1.523  0.00  0.00     0.027 A 
ATOM      5  C5  DEN d   1       1.699  -0.554  -0.332  0.00  0.00    -0.003 A 
ATOM      6  C6  DEN d   1       2.216  -0.181   0.881  0.00  0.00     0.001 A 
ATOM      7  C7  DEN d   1       3.251   0.715   0.930  0.00  0.00     0.017 A 
ATOM      8  C8  DEN d   1       3.780   1.180  -0.266  0.00  0.00    -0.094 A 
ATOM      9  C9  DEN d   1       3.236   0.800  -1.482  0.00  0.00    -0.072 A 
ENDROOT
TORSDOF 0
ENDMDL
