MODEL 1
REMARK minimizedAffinity 16.9114151
REMARK minimizedRMSD -1
REMARK  0 active torsions:
REMARK  status: ('A' for Active; 'I' for Inactive)
ROOT
ATOM      1  C1  DEN d   1      -4.759   3.606   1.054  0.00  0.00     0.130 A 
ATOM      2  C2  DEN d   1      -4.215   4.627   0.162  0.00  0.00    -0.031 A 
ATOM      3  C3  DEN d   1      -4.290   4.113  -1.220  0.00  0.00     0.027 A 
ATOM      4  C4  DEN d   1      -5.194   1.849  -2.062  0.00  0.00     0.027 A 
ATOM      5  C5  DEN d   1      -5.749   0.649  -1.677  0.00  0.00    -0.003 A 
ATOM      6  C6  DEN d   1      -5.980   0.339  -0.363  0.00  0.00     0.001 A 
ATOM      7  C7  DEN d   1      -5.695   1.259   0.611  0.00  0.00     0.017 A 
ATOM      8  C8  DEN d   1      -5.129   2.469   0.231  0.00  0.00    -0.094 A 
ATOM      9  C9  DEN d   1      -4.915   2.768  -1.103  0.00  0.00    -0.072 A 
ENDROOT
TORSDOF 0
ENDMDL
