MODEL 1
REMARK minimizedAffinity 22.1468639
REMARK minimizedRMSD -1
REMARK  0 active torsions:
REMARK  status: ('A' for Active; 'I' for Inactive)
ROOT
ATOM      1  C1  DEN d   1      -3.783   3.936   0.773  0.00  0.00     0.130 A 
ATOM      2  C2  DEN d   1      -3.811   5.054  -0.166  0.00  0.00    -0.031 A 
ATOM      3  C3  DEN d   1      -4.317   4.551  -1.459  0.00  0.00     0.027 A 
ATOM      4  C4  DEN d   1      -5.060   2.164  -2.093  0.00  0.00     0.027 A 
ATOM      5  C5  DEN d   1      -5.205   0.874  -1.633  0.00  0.00    -0.003 A 
ATOM      6  C6  DEN d   1      -4.856   0.510  -0.359  0.00  0.00     0.001 A 
ATOM      7  C7  DEN d   1      -4.388   1.456   0.513  0.00  0.00     0.017 A 
ATOM      8  C8  DEN d   1      -4.233   2.758   0.054  0.00  0.00    -0.094 A 
ATOM      9  C9  DEN d   1      -4.602   3.108  -1.233  0.00  0.00    -0.072 A 
ENDROOT
TORSDOF 0
ENDMDL
