MODEL 1
REMARK minimizedAffinity 11.7586317
REMARK minimizedRMSD -1
REMARK  0 active torsions:
REMARK  status: ('A' for Active; 'I' for Inactive)
ROOT
ATOM      1  C1  DEN d   1      -2.346   5.588   3.413  0.00  0.00     0.130 A 
ATOM      2  C2  DEN d   1      -1.541   6.000   4.560  0.00  0.00    -0.031 A 
ATOM      3  C3  DEN d   1      -2.403   5.962   5.758  0.00  0.00     0.027 A 
ATOM      4  C4  DEN d   1      -4.890   5.306   5.949  0.00  0.00     0.027 A 
ATOM      5  C5  DEN d   1      -6.000   4.895   5.244  0.00  0.00    -0.003 A 
ATOM      6  C6  DEN d   1      -5.979   4.721   3.886  0.00  0.00     0.001 A 
ATOM      7  C7  DEN d   1      -4.812   4.915   3.195  0.00  0.00     0.017 A 
ATOM      8  C8  DEN d   1      -3.691   5.336   3.898  0.00  0.00    -0.094 A 
ATOM      9  C9  DEN d   1      -3.729   5.495   5.272  0.00  0.00    -0.072 A 
ENDROOT
TORSDOF 0
ENDMDL
