MODEL 1
REMARK minimizedAffinity 11.5747318
REMARK minimizedRMSD -1
REMARK  0 active torsions:
REMARK  status: ('A' for Active; 'I' for Inactive)
ROOT
ATOM      1  C1  DEN d   1      -3.823   4.486   1.334  0.00  0.00     0.130 A 
ATOM      2  C2  DEN d   1      -4.132   3.102   0.987  0.00  0.00    -0.031 A 
ATOM      3  C3  DEN d   1      -5.035   2.562   2.023  0.00  0.00     0.027 A 
ATOM      4  C4  DEN d   1      -5.986   3.732   4.116  0.00  0.00     0.027 A 
ATOM      5  C5  DEN d   1      -5.999   4.904   4.838  0.00  0.00    -0.003 A 
ATOM      6  C6  DEN d   1      -5.266   6.000   4.465  0.00  0.00     0.001 A 
ATOM      7  C7  DEN d   1      -4.525   5.960   3.314  0.00  0.00     0.017 A 
ATOM      8  C8  DEN d   1      -4.502   4.779   2.584  0.00  0.00    -0.094 A 
ATOM      9  C9  DEN d   1      -5.259   3.686   2.971  0.00  0.00    -0.072 A 
ENDROOT
TORSDOF 0
ENDMDL
