MODEL 1
REMARK minimizedAffinity 13.5476999
REMARK minimizedRMSD -1
REMARK  0 active torsions:
REMARK  status: ('A' for Active; 'I' for Inactive)
ROOT
ATOM      1  C1  DEN d   1      -6.000   5.199   5.331  0.00  0.00     0.130 A 
ATOM      2  C2  DEN d   1      -4.971   5.992   5.998  0.00  0.00    -0.031 A 
ATOM      3  C3  DEN d   1      -3.760   5.972   5.152  0.00  0.00     0.027 A 
ATOM      4  C4  DEN d   1      -3.383   4.801   2.885  0.00  0.00     0.027 A 
ATOM      5  C5  DEN d   1      -3.961   4.001   1.926  0.00  0.00    -0.003 A 
ATOM      6  C6  DEN d   1      -5.238   3.519   2.049  0.00  0.00     0.001 A 
ATOM      7  C7  DEN d   1      -5.994   3.871   3.135  0.00  0.00     0.017 A 
ATOM      8  C8  DEN d   1      -5.415   4.672   4.111  0.00  0.00    -0.094 A 
ATOM      9  C9  DEN d   1      -4.128   5.159   3.962  0.00  0.00    -0.072 A 
ENDROOT
TORSDOF 0
ENDMDL
