MODEL 1
REMARK minimizedAffinity 22.8027401
REMARK minimizedRMSD -1
REMARK  0 active torsions:
REMARK  status: ('A' for Active; 'I' for Inactive)
ROOT
ATOM      1  C1  DEN d   1       3.130   0.597  -1.288  0.00  0.00     0.130 A 
ATOM      2  C2  DEN d   1       3.500   1.403  -0.128  0.00  0.00    -0.031 A 
ATOM      3  C3  DEN d   1       3.381   0.554   1.075  0.00  0.00     0.027 A 
ATOM      4  C4  DEN d   1       2.668  -1.918   1.252  0.00  0.00     0.027 A 
ATOM      5  C5  DEN d   1       2.248  -3.019   0.538  0.00  0.00    -0.003 A 
ATOM      6  C6  DEN d   1       2.062  -2.983  -0.818  0.00  0.00     0.001 A 
ATOM      7  C7  DEN d   1       2.340  -1.834  -1.511  0.00  0.00     0.017 A 
ATOM      8  C8  DEN d   1       2.756  -0.718  -0.798  0.00  0.00    -0.094 A 
ATOM      9  C9  DEN d   1       2.950  -0.778   0.572  0.00  0.00    -0.072 A 
ENDROOT
TORSDOF 0
ENDMDL
