MODEL 1
REMARK minimizedAffinity -4.03577805
REMARK minimizedRMSD -1
REMARK  1 active torsions:
REMARK  status: ('A' for Active; 'I' for Inactive)
REMARK    1  A    between atoms: N_2  and  C1_3 
ROOT
ATOM      1  C1  UNL d   1      -0.809  -1.051   0.521  0.00  0.00     0.143 A 
ATOM      2  C2  UNL d   1      -0.426  -2.003   1.472  0.00  0.00    -0.057 A 
ATOM      3  C3  UNL d   1      -1.219  -3.128   1.735  0.00  0.00     0.033 A 
ATOM      4  C4  UNL d   1      -2.427  -3.305   1.068  0.00  0.00    -0.042 A 
ATOM      5  C5  UNL d   1      -2.840  -2.359   0.137  0.00  0.00     0.033 A 
ATOM      6  C6  UNL d   1      -2.041  -1.242  -0.125  0.00  0.00    -0.057 A 
ENDROOT
BRANCH   1   7
ATOM      7  N   UNL d   1      -0.114   0.137   0.287  0.00  0.00    -0.732 N 
ATOM      8  C   UNL d   1       1.312   0.120   0.039  0.00  0.00     0.284 C 
ATOM      9  H3  UNL d   1      -0.632   0.779  -0.309  0.00  0.00     0.395 HD
ENDBRANCH   1   7
TORSDOF 1
ENDMDL
