MODEL 1
REMARK minimizedAffinity -5.59900284
REMARK minimizedRMSD -1
REMARK  1 active torsions:
REMARK  status: ('A' for Active; 'I' for Inactive)
REMARK    1  A    between atoms: N_2  and  C1_3 
ROOT
ATOM      1  C1  UNL d   1      -0.488  -0.751  -0.213  0.00  0.00     0.143 A 
ATOM      2  C2  UNL d   1      -0.804  -1.493   0.929  0.00  0.00    -0.057 A 
ATOM      3  C3  UNL d   1      -2.110  -1.941   1.166  0.00  0.00     0.033 A 
ATOM      4  C4  UNL d   1      -3.131  -1.628   0.275  0.00  0.00    -0.042 A 
ATOM      5  C5  UNL d   1      -2.845  -0.869  -0.854  0.00  0.00     0.033 A 
ATOM      6  C6  UNL d   1      -1.538  -0.431  -1.089  0.00  0.00    -0.057 A 
ENDROOT
BRANCH   1   7
ATOM      7  N   UNL d   1       0.770  -0.194  -0.455  0.00  0.00    -0.732 N 
ATOM      8  C   UNL d   1       1.937  -0.673   0.253  0.00  0.00     0.284 C 
ATOM      9  H3  UNL d   1       0.930  -0.009  -1.443  0.00  0.00     0.395 HD
ENDBRANCH   1   7
TORSDOF 1
ENDMDL
