MODEL 1
REMARK minimizedAffinity -4.59424925
REMARK minimizedRMSD -1
REMARK  1 active torsions:
REMARK  status: ('A' for Active; 'I' for Inactive)
REMARK    1  A    between atoms: N_2  and  C1_3 
ROOT
ATOM      1  C1  UNL d   1      -1.000  -0.821   0.662  0.00  0.00     0.143 A 
ATOM      2  C2  UNL d   1      -1.881  -0.283  -0.282  0.00  0.00    -0.057 A 
ATOM      3  C3  UNL d   1      -3.096  -0.912  -0.582  0.00  0.00     0.033 A 
ATOM      4  C4  UNL d   1      -3.437  -2.110   0.037  0.00  0.00    -0.042 A 
ATOM      5  C5  UNL d   1      -2.565  -2.676   0.959  0.00  0.00     0.033 A 
ATOM      6  C6  UNL d   1      -1.357  -2.040   1.260  0.00  0.00    -0.057 A 
ENDROOT
BRANCH   1   7
ATOM      7  N   UNL d   1       0.266  -0.296   0.932  0.00  0.00    -0.732 N 
ATOM      8  C   UNL d   1       1.064   0.285  -0.126  0.00  0.00     0.284 C 
ATOM      9  H3  UNL d   1       0.292   0.224   1.806  0.00  0.00     0.395 HD
ENDBRANCH   1   7
TORSDOF 1
ENDMDL
