MODEL 1
REMARK minimizedAffinity -5.11457396
REMARK minimizedRMSD -1
REMARK  1 active torsions:
REMARK  status: ('A' for Active; 'I' for Inactive)
REMARK    1  A    between atoms: N_2  and  C1_3 
ROOT
ATOM      1  C1  UNL d   1      -0.610  -0.406   0.341  0.00  0.00     0.143 A 
ATOM      2  C2  UNL d   1      -0.567  -1.666   0.948  0.00  0.00    -0.057 A 
ATOM      3  C3  UNL d   1      -1.732  -2.417   1.146  0.00  0.00     0.033 A 
ATOM      4  C4  UNL d   1      -2.969  -1.906   0.767  0.00  0.00    -0.042 A 
ATOM      5  C5  UNL d   1      -3.039  -0.645   0.185  0.00  0.00     0.033 A 
ATOM      6  C6  UNL d   1      -1.871   0.097  -0.016  0.00  0.00    -0.057 A 
ENDROOT
BRANCH   1   7
ATOM      7  N   UNL d   1       0.501   0.430   0.206  0.00  0.00    -0.732 N 
ATOM      8  C   UNL d   1       0.855   1.361   1.256  0.00  0.00     0.284 C 
ATOM      9  H3  UNL d   1       1.296  -0.046  -0.214  0.00  0.00     0.395 HD
ENDBRANCH   1   7
TORSDOF 1
ENDMDL
