MODEL 1
REMARK minimizedAffinity -3.34976387
REMARK minimizedRMSD -1
REMARK  1 active torsions:
REMARK  status: ('A' for Active; 'I' for Inactive)
REMARK    1  A    between atoms: N_2  and  C1_3 
ROOT
ATOM      1  C1  UNL d   1      -0.007  -0.053  -0.236  0.00  0.00     0.143 A 
ATOM      2  C2  UNL d   1      -0.657  -0.805   0.749  0.00  0.00    -0.057 A 
ATOM      3  C3  UNL d   1      -1.980  -1.231   0.581  0.00  0.00     0.033 A 
ATOM      4  C4  UNL d   1      -2.688  -0.887  -0.565  0.00  0.00    -0.042 A 
ATOM      5  C5  UNL d   1      -2.070  -0.119  -1.546  0.00  0.00     0.033 A 
ATOM      6  C6  UNL d   1      -0.746   0.297  -1.376  0.00  0.00    -0.057 A 
ENDROOT
BRANCH   1   7
ATOM      7  N   UNL d   1       1.274   0.483  -0.086  0.00  0.00    -0.732 N 
ATOM      8  C   UNL d   1       1.817   0.739   1.232  0.00  0.00     0.284 C 
ATOM      9  H3  UNL d   1       1.943   0.082  -0.740  0.00  0.00     0.395 HD
ENDBRANCH   1   7
TORSDOF 1
ENDMDL
