MODEL 1
REMARK minimizedAffinity -5.59458113
REMARK minimizedRMSD -1
REMARK  1 active torsions:
REMARK  status: ('A' for Active; 'I' for Inactive)
REMARK    1  A    between atoms: N_2  and  C1_3 
ROOT
ATOM      1  C1  UNL d   1      -0.592  -0.692   0.544  0.00  0.00     0.143 A 
ATOM      2  C2  UNL d   1      -1.474   0.074  -0.226  0.00  0.00    -0.057 A 
ATOM      3  C3  UNL d   1      -2.801  -0.326  -0.423  0.00  0.00     0.033 A 
ATOM      4  C4  UNL d   1      -3.263  -1.518   0.125  0.00  0.00    -0.042 A 
ATOM      5  C5  UNL d   1      -2.398  -2.308   0.873  0.00  0.00     0.033 A 
ATOM      6  C6  UNL d   1      -1.075  -1.899   1.072  0.00  0.00    -0.057 A 
ENDROOT
BRANCH   1   7
ATOM      7  N   UNL d   1       0.765  -0.398   0.695  0.00  0.00    -0.732 N 
ATOM      8  C   UNL d   1       1.349   0.750   0.034  0.00  0.00     0.284 C 
ATOM      9  H3  UNL d   1       1.089  -0.537   1.649  0.00  0.00     0.395 HD
ENDBRANCH   1   7
TORSDOF 1
ENDMDL
