MODEL 1
REMARK minimizedAffinity -5.33853912
REMARK minimizedRMSD -1
REMARK  1 active torsions:
REMARK  status: ('A' for Active; 'I' for Inactive)
REMARK    1  A    between atoms: N_2  and  C1_3 
ROOT
ATOM      1  C1  UNL d   1      -0.925  -0.405   0.436  0.00  0.00     0.143 A 
ATOM      2  C2  UNL d   1      -2.199  -0.315  -0.135  0.00  0.00    -0.057 A 
ATOM      3  C3  UNL d   1      -3.219  -1.204   0.223  0.00  0.00     0.033 A 
ATOM      4  C4  UNL d   1      -2.975  -2.220   1.141  0.00  0.00    -0.042 A 
ATOM      5  C5  UNL d   1      -1.709  -2.344   1.703  0.00  0.00     0.033 A 
ATOM      6  C6  UNL d   1      -0.696  -1.449   1.346  0.00  0.00    -0.057 A 
ENDROOT
BRANCH   1   7
ATOM      7  N   UNL d   1       0.159   0.386   0.049  0.00  0.00    -0.732 N 
ATOM      8  C   UNL d   1       1.508   0.027   0.430  0.00  0.00     0.284 C 
ATOM      9  H3  UNL d   1       0.073   0.722  -0.908  0.00  0.00     0.395 HD
ENDBRANCH   1   7
TORSDOF 1
ENDMDL
