MODEL 1
REMARK minimizedAffinity -5.41408443
REMARK minimizedRMSD -1
REMARK  1 active torsions:
REMARK  status: ('A' for Active; 'I' for Inactive)
REMARK    1  A    between atoms: N_2  and  C1_3 
ROOT
ATOM      1  C1  UNL d   1      -0.705  -0.433   0.226  0.00  0.00     0.143 A 
ATOM      2  C2  UNL d   1      -1.067  -1.514   1.038  0.00  0.00    -0.057 A 
ATOM      3  C3  UNL d   1      -2.345  -2.081   0.964  0.00  0.00     0.033 A 
ATOM      4  C4  UNL d   1      -3.296  -1.557   0.095  0.00  0.00    -0.042 A 
ATOM      5  C5  UNL d   1      -2.966  -0.468  -0.704  0.00  0.00     0.033 A 
ATOM      6  C6  UNL d   1      -1.686   0.090  -0.631  0.00  0.00    -0.057 A 
ENDROOT
BRANCH   1   7
ATOM      7  N   UNL d   1       0.517   0.237   0.323  0.00  0.00    -0.732 N 
ATOM      8  C   UNL d   1       1.747  -0.411  -0.079  0.00  0.00     0.284 C 
ATOM      9  H3  UNL d   1       0.449   1.212   0.039  0.00  0.00     0.395 HD
ENDBRANCH   1   7
TORSDOF 1
ENDMDL
