MODEL 1
REMARK minimizedAffinity -5.41084003
REMARK minimizedRMSD -1
REMARK  1 active torsions:
REMARK  status: ('A' for Active; 'I' for Inactive)
REMARK    1  A    between atoms: N_2  and  C1_3 
ROOT
ATOM      1  C1  UNL d   1      -1.034  -0.507  -0.229  0.00  0.00     0.143 A 
ATOM      2  C2  UNL d   1      -2.219  -0.635  -0.962  0.00  0.00    -0.057 A 
ATOM      3  C3  UNL d   1      -3.217  -1.539  -0.579  0.00  0.00     0.033 A 
ATOM      4  C4  UNL d   1      -3.034  -2.357   0.531  0.00  0.00    -0.042 A 
ATOM      5  C5  UNL d   1      -1.854  -2.265   1.261  0.00  0.00     0.033 A 
ATOM      6  C6  UNL d   1      -0.864  -1.355   0.877  0.00  0.00    -0.057 A 
ENDROOT
BRANCH   1   7
ATOM      7  N   UNL d   1       0.036   0.303  -0.614  0.00  0.00    -0.732 N 
ATOM      8  C   UNL d   1       1.302   0.233   0.083  0.00  0.00     0.284 C 
ATOM      9  H3  UNL d   1       0.122   0.377  -1.625  0.00  0.00     0.395 HD
ENDBRANCH   1   7
TORSDOF 1
ENDMDL
