MODEL 1
REMARK minimizedAffinity -5.10189962
REMARK minimizedRMSD -1
REMARK  1 active torsions:
REMARK  status: ('A' for Active; 'I' for Inactive)
REMARK    1  A    between atoms: N_2  and  C1_3 
ROOT
ATOM      1  C1  UNL d   1      -0.498  -0.307  -0.124  0.00  0.00     0.143 A 
ATOM      2  C2  UNL d   1      -1.184  -0.337  -1.343  0.00  0.00    -0.057 A 
ATOM      3  C3  UNL d   1      -2.491  -0.833  -1.429  0.00  0.00     0.033 A 
ATOM      4  C4  UNL d   1      -3.126  -1.336  -0.298  0.00  0.00    -0.042 A 
ATOM      5  C5  UNL d   1      -2.454  -1.339   0.919  0.00  0.00     0.033 A 
ATOM      6  C6  UNL d   1      -1.151  -0.836   1.000  0.00  0.00    -0.057 A 
ENDROOT
BRANCH   1   7
ATOM      7  N   UNL d   1       0.837   0.082   0.007  0.00  0.00    -0.732 N 
ATOM      8  C   UNL d   1       1.205   1.169   0.888  0.00  0.00     0.284 C 
ATOM      9  H3  UNL d   1       1.472  -0.713   0.040  0.00  0.00     0.395 HD
ENDBRANCH   1   7
TORSDOF 1
ENDMDL
