MODEL 1
REMARK minimizedAffinity -4.12750626
REMARK minimizedRMSD -1
REMARK  1 active torsions:
REMARK  status: ('A' for Active; 'I' for Inactive)
REMARK    1  A    between atoms: N_2  and  C1_3 
ROOT
ATOM      1  C1  UNL d   1      -0.569  -0.248  -0.414  0.00  0.00     0.143 A 
ATOM      2  C2  UNL d   1      -1.724  -0.035  -1.173  0.00  0.00    -0.057 A 
ATOM      3  C3  UNL d   1      -2.953  -0.593  -0.799  0.00  0.00     0.033 A 
ATOM      4  C4  UNL d   1      -3.041  -1.400   0.330  0.00  0.00    -0.042 A 
ATOM      5  C5  UNL d   1      -1.901  -1.647   1.086  0.00  0.00     0.033 A 
ATOM      6  C6  UNL d   1      -0.678  -1.081   0.711  0.00  0.00    -0.057 A 
ENDROOT
BRANCH   1   7
ATOM      7  N   UNL d   1       0.701   0.197  -0.788  0.00  0.00    -0.732 N 
ATOM      8  C   UNL d   1       1.774   0.265   0.181  0.00  0.00     0.284 C 
ATOM      9  H3  UNL d   1       0.985  -0.158  -1.698  0.00  0.00     0.395 HD
ENDBRANCH   1   7
TORSDOF 1
ENDMDL
