MODEL 1
REMARK minimizedAffinity -5.63552809
REMARK minimizedRMSD -1
REMARK  0 active torsions:
REMARK  status: ('A' for Active; 'I' for Inactive)
ROOT
ATOM      1  C   UNL d   1       1.541   3.672   0.095  0.00  0.00     0.077 C 
ATOM      2  C1  UNL d   1       0.888   2.321   0.098  0.00  0.00    -0.074 A 
ATOM      3  C2  UNL d   1       1.631   1.163  -0.153  0.00  0.00    -0.005 A 
ATOM      4  C3  UNL d   1       1.012  -0.087  -0.137  0.00  0.00     0.006 A 
ATOM      5  C4  UNL d   1      -0.354  -0.191   0.129  0.00  0.00    -0.005 A 
ATOM      6  C5  UNL d   1      -1.113   0.956   0.383  0.00  0.00    -0.074 A 
ATOM      7  C6  UNL d   1      -2.580   0.862   0.681  0.00  0.00     0.077 C 
ATOM      8  C7  UNL d   1      -0.482   2.208   0.373  0.00  0.00    -0.001 A 
ENDROOT
TORSDOF 0
ENDMDL
