MODEL 1
REMARK minimizedAffinity 1.19123566
REMARK minimizedRMSD -1
REMARK  0 active torsions:
REMARK  status: ('A' for Active; 'I' for Inactive)
ROOT
ATOM      1  C   UNL d   1       2.108   1.992   1.306  0.00  0.00     0.077 C 
ATOM      2  C1  UNL d   1       0.643   1.751   1.090  0.00  0.00    -0.074 A 
ATOM      3  C2  UNL d   1      -0.147   2.684   0.411  0.00  0.00    -0.005 A 
ATOM      4  C3  UNL d   1      -1.505   2.441   0.210  0.00  0.00     0.006 A 
ATOM      5  C4  UNL d   1      -2.087   1.265   0.684  0.00  0.00    -0.005 A 
ATOM      6  C5  UNL d   1      -1.312   0.319   1.364  0.00  0.00    -0.074 A 
ATOM      7  C6  UNL d   1      -1.919  -0.955   1.871  0.00  0.00     0.077 C 
ATOM      8  C7  UNL d   1       0.054   0.567   1.556  0.00  0.00    -0.001 A 
ENDROOT
TORSDOF 0
ENDMDL
