MODEL 1
REMARK minimizedAffinity -2.97071195
REMARK minimizedRMSD -1
REMARK  0 active torsions:
REMARK  status: ('A' for Active; 'I' for Inactive)
ROOT
ATOM      1  C   UNL d   1       2.851  -0.490   0.417  0.00  0.00     0.077 C 
ATOM      2  C1  UNL d   1       1.383  -0.186   0.386  0.00  0.00    -0.074 A 
ATOM      3  C2  UNL d   1       0.457  -1.154  -0.018  0.00  0.00    -0.005 A 
ATOM      4  C3  UNL d   1      -0.907  -0.859  -0.032  0.00  0.00     0.006 A 
ATOM      5  C4  UNL d   1      -1.357   0.403   0.358  0.00  0.00    -0.005 A 
ATOM      6  C5  UNL d   1      -0.446   1.382   0.766  0.00  0.00    -0.074 A 
ATOM      7  C6  UNL d   1      -0.914   2.740   1.197  0.00  0.00     0.077 C 
ATOM      8  C7  UNL d   1       0.922   1.077   0.784  0.00  0.00    -0.001 A 
ENDROOT
TORSDOF 0
ENDMDL
