MODEL 1
REMARK minimizedAffinity -3.6468215
REMARK minimizedRMSD -1
REMARK  0 active torsions:
REMARK  status: ('A' for Active; 'I' for Inactive)
ROOT
ATOM      1  C   UNL d   1       2.485   2.266   1.514  0.00  0.00     0.077 C 
ATOM      2  C1  UNL d   1       1.141   1.738   1.107  0.00  0.00    -0.074 A 
ATOM      3  C2  UNL d   1      -0.001   2.541   1.187  0.00  0.00    -0.005 A 
ATOM      4  C3  UNL d   1      -1.242   2.040   0.797  0.00  0.00     0.006 A 
ATOM      5  C4  UNL d   1      -1.354   0.732   0.323  0.00  0.00    -0.005 A 
ATOM      6  C5  UNL d   1      -0.223  -0.086   0.235  0.00  0.00    -0.074 A 
ATOM      7  C6  UNL d   1      -0.324  -1.490  -0.281  0.00  0.00     0.077 C 
ATOM      8  C7  UNL d   1       1.022   0.428   0.623  0.00  0.00    -0.001 A 
ENDROOT
TORSDOF 0
ENDMDL
