MODEL 1
REMARK minimizedAffinity 4.43360949
REMARK minimizedRMSD -1
REMARK  0 active torsions:
REMARK  status: ('A' for Active; 'I' for Inactive)
ROOT
ATOM      1  C   UNL d   1      -2.844   0.775  -1.981  0.00  0.00     0.077 C 
ATOM      2  C1  UNL d   1      -2.042   0.589  -0.727  0.00  0.00    -0.074 A 
ATOM      3  C2  UNL d   1      -1.529  -0.666  -0.382  0.00  0.00    -0.005 A 
ATOM      4  C3  UNL d   1      -0.776  -0.822   0.781  0.00  0.00     0.006 A 
ATOM      5  C4  UNL d   1      -0.529   0.272   1.611  0.00  0.00    -0.005 A 
ATOM      6  C5  UNL d   1      -1.033   1.535   1.282  0.00  0.00    -0.074 A 
ATOM      7  C6  UNL d   1      -0.769   2.723   2.157  0.00  0.00     0.077 C 
ATOM      8  C7  UNL d   1      -1.783   1.685   0.107  0.00  0.00    -0.001 A 
ENDROOT
TORSDOF 0
ENDMDL
