MODEL 1
REMARK minimizedAffinity -4.35782003
REMARK minimizedRMSD -1
REMARK  0 active torsions:
REMARK  status: ('A' for Active; 'I' for Inactive)
ROOT
ATOM      1  C   UNL d   1      -1.907   1.444   1.006  0.00  0.00     0.077 C 
ATOM      2  C1  UNL d   1      -0.459   1.745   0.758  0.00  0.00    -0.074 A 
ATOM      3  C2  UNL d   1      -0.001   3.064   0.680  0.00  0.00    -0.005 A 
ATOM      4  C3  UNL d   1       1.350   3.328   0.457  0.00  0.00     0.006 A 
ATOM      5  C4  UNL d   1       2.256   2.278   0.311  0.00  0.00    -0.005 A 
ATOM      6  C5  UNL d   1       1.818   0.952   0.387  0.00  0.00    -0.074 A 
ATOM      7  C6  UNL d   1       2.780  -0.189   0.241  0.00  0.00     0.077 C 
ATOM      8  C7  UNL d   1       0.460   0.695   0.617  0.00  0.00    -0.001 A 
ENDROOT
TORSDOF 0
ENDMDL
