MODEL 1
REMARK minimizedAffinity -3.83777189
REMARK minimizedRMSD -1
REMARK  0 active torsions:
REMARK  status: ('A' for Active; 'I' for Inactive)
ROOT
ATOM      1  C   UNL d   1      -0.759  -2.991  -0.418  0.00  0.00     0.077 C 
ATOM      2  C1  UNL d   1      -0.097  -1.714   0.006  0.00  0.00    -0.074 A 
ATOM      3  C2  UNL d   1       1.240  -1.699   0.416  0.00  0.00    -0.005 A 
ATOM      4  C3  UNL d   1       1.845  -0.502   0.798  0.00  0.00     0.006 A 
ATOM      5  C4  UNL d   1       1.120   0.691   0.775  0.00  0.00    -0.005 A 
ATOM      6  C5  UNL d   1      -0.218   0.695   0.367  0.00  0.00    -0.074 A 
ATOM      7  C6  UNL d   1      -1.008   1.969   0.327  0.00  0.00     0.077 C 
ATOM      8  C7  UNL d   1      -0.816  -0.511  -0.022  0.00  0.00    -0.001 A 
ENDROOT
TORSDOF 0
ENDMDL
