MODEL 1
REMARK minimizedAffinity -0.974259675
REMARK minimizedRMSD -1
REMARK  0 active torsions:
REMARK  status: ('A' for Active; 'I' for Inactive)
ROOT
ATOM      1  C   UNL d   1      -0.682   3.023   0.865  0.00  0.00     0.077 C 
ATOM      2  C1  UNL d   1      -0.489   1.612   0.394  0.00  0.00    -0.074 A 
ATOM      3  C2  UNL d   1      -1.519   0.923  -0.256  0.00  0.00    -0.005 A 
ATOM      4  C3  UNL d   1      -1.321  -0.385  -0.696  0.00  0.00     0.006 A 
ATOM      5  C4  UNL d   1      -0.094  -1.018  -0.492  0.00  0.00    -0.005 A 
ATOM      6  C5  UNL d   1       0.947  -0.345   0.155  0.00  0.00    -0.074 A 
ATOM      7  C6  UNL d   1       2.275  -1.007   0.374  0.00  0.00     0.077 C 
ATOM      8  C7  UNL d   1       0.743   0.972   0.589  0.00  0.00    -0.001 A 
ENDROOT
TORSDOF 0
ENDMDL
