MODEL 1
REMARK minimizedAffinity -3.14349437
REMARK minimizedRMSD -1
REMARK  0 active torsions:
REMARK  status: ('A' for Active; 'I' for Inactive)
ROOT
ATOM      1  C   UNL d   1       3.106  -0.743   0.635  0.00  0.00     0.077 C 
ATOM      2  C1  UNL d   1       1.647  -0.407   0.713  0.00  0.00    -0.074 A 
ATOM      3  C2  UNL d   1       0.686  -1.410   0.879  0.00  0.00    -0.005 A 
ATOM      4  C3  UNL d   1      -0.667  -1.081   0.958  0.00  0.00     0.006 A 
ATOM      5  C4  UNL d   1      -1.073   0.251   0.873  0.00  0.00    -0.005 A 
ATOM      6  C5  UNL d   1      -0.127   1.267   0.708  0.00  0.00    -0.074 A 
ATOM      7  C6  UNL d   1      -0.545   2.705   0.624  0.00  0.00     0.077 C 
ATOM      8  C7  UNL d   1       1.232   0.930   0.636  0.00  0.00    -0.001 A 
ENDROOT
TORSDOF 0
ENDMDL
