MODEL 1
REMARK minimizedAffinity 1.04884267
REMARK minimizedRMSD -1
REMARK  0 active torsions:
REMARK  status: ('A' for Active; 'I' for Inactive)
ROOT
ATOM      1  C   UNL d   1      -1.011  -0.008   0.865  0.00  0.00     0.077 C 
ATOM      2  C1  UNL d   1       0.304  -0.354   0.233  0.00  0.00    -0.074 A 
ATOM      3  C2  UNL d   1       1.511  -0.040   0.866  0.00  0.00    -0.005 A 
ATOM      4  C3  UNL d   1       2.726  -0.377   0.271  0.00  0.00     0.006 A 
ATOM      5  C4  UNL d   1       2.747  -1.030  -0.962  0.00  0.00    -0.005 A 
ATOM      6  C5  UNL d   1       1.551  -1.353  -1.610  0.00  0.00    -0.074 A 
ATOM      7  C6  UNL d   1       1.556  -2.064  -2.931  0.00  0.00     0.077 C 
ATOM      8  C7  UNL d   1       0.334  -1.017  -1.002  0.00  0.00    -0.001 A 
ENDROOT
TORSDOF 0
ENDMDL
