MODEL 1
REMARK minimizedAffinity -6.00334072
REMARK minimizedRMSD -1
REMARK  0 active torsions:
REMARK  status: ('A' for Active; 'I' for Inactive)
ROOT
ATOM      1  C   UNL d   1       1.163   3.930   0.017  0.00  0.00     0.077 C 
ATOM      2  C1  UNL d   1       0.821   2.480   0.192  0.00  0.00    -0.074 A 
ATOM      3  C2  UNL d   1      -0.504   2.070   0.371  0.00  0.00    -0.005 A 
ATOM      4  C3  UNL d   1      -0.807   0.717   0.523  0.00  0.00     0.006 A 
ATOM      5  C4  UNL d   1       0.210  -0.238   0.497  0.00  0.00    -0.005 A 
ATOM      6  C5  UNL d   1       1.541   0.153   0.317  0.00  0.00    -0.074 A 
ATOM      7  C6  UNL d   1       2.645  -0.861   0.276  0.00  0.00     0.077 C 
ATOM      8  C7  UNL d   1       1.837   1.514   0.158  0.00  0.00    -0.001 A 
ENDROOT
TORSDOF 0
ENDMDL
