MODEL 1
REMARK minimizedAffinity -4.2367897
REMARK minimizedRMSD -1
REMARK  0 active torsions:
REMARK  status: ('A' for Active; 'I' for Inactive)
ROOT
ATOM      1  C   UNL d   1       2.460  -1.003   0.467  0.00  0.00     0.077 C 
ATOM      2  C1  UNL d   1       1.161  -0.265   0.593  0.00  0.00    -0.074 A 
ATOM      3  C2  UNL d   1      -0.050  -0.955   0.707  0.00  0.00    -0.005 A 
ATOM      4  C3  UNL d   1      -1.249  -0.254   0.833  0.00  0.00     0.006 A 
ATOM      5  C4  UNL d   1      -1.250   1.142   0.846  0.00  0.00    -0.005 A 
ATOM      6  C5  UNL d   1      -0.048   1.849   0.734  0.00  0.00    -0.074 A 
ATOM      7  C6  UNL d   1      -0.030   3.348   0.757  0.00  0.00     0.077 C 
ATOM      8  C7  UNL d   1       1.153   1.137   0.615  0.00  0.00    -0.001 A 
ENDROOT
TORSDOF 0
ENDMDL
