MODEL 1
REMARK minimizedAffinity 0.120207079
REMARK minimizedRMSD -1
REMARK  0 active torsions:
REMARK  status: ('A' for Active; 'I' for Inactive)
ROOT
ATOM      1  C   UNL d   1       2.060  -2.993  -3.378  0.00  0.00     0.077 C 
ATOM      2  C1  UNL d   1       0.800  -2.966  -2.566  0.00  0.00    -0.074 A 
ATOM      3  C2  UNL d   1      -0.367  -3.584  -3.028  0.00  0.00    -0.005 A 
ATOM      4  C3  UNL d   1      -1.529  -3.558  -2.257  0.00  0.00     0.006 A 
ATOM      5  C4  UNL d   1      -1.536  -2.915  -1.019  0.00  0.00    -0.005 A 
ATOM      6  C5  UNL d   1      -0.379  -2.292  -0.540  0.00  0.00    -0.074 A 
ATOM      7  C6  UNL d   1      -0.368  -1.605   0.793  0.00  0.00     0.077 C 
ATOM      8  C7  UNL d   1       0.786  -2.328  -1.318  0.00  0.00    -0.001 A 
ENDROOT
TORSDOF 0
ENDMDL
