MODEL 1
REMARK minimizedAffinity -4.77036142
REMARK minimizedRMSD -1
REMARK  0 active torsions:
REMARK  status: ('A' for Active; 'I' for Inactive)
ROOT
ATOM      1  C   UNL d   1       2.224   2.598   0.849  0.00  0.00     0.077 C 
ATOM      2  C1  UNL d   1       0.964   1.806   0.658  0.00  0.00    -0.074 A 
ATOM      3  C2  UNL d   1      -0.289   2.382   0.889  0.00  0.00    -0.005 A 
ATOM      4  C3  UNL d   1      -1.452   1.635   0.698  0.00  0.00     0.006 A 
ATOM      5  C4  UNL d   1      -1.373   0.308   0.275  0.00  0.00    -0.005 A 
ATOM      6  C5  UNL d   1      -0.128  -0.285   0.040  0.00  0.00    -0.074 A 
ATOM      7  C6  UNL d   1      -0.026  -1.708  -0.424  0.00  0.00     0.077 C 
ATOM      8  C7  UNL d   1       1.035   0.474   0.227  0.00  0.00    -0.001 A 
ENDROOT
TORSDOF 0
ENDMDL
