MODEL 1
REMARK minimizedAffinity -5.07559681
REMARK minimizedRMSD -1
REMARK  0 active torsions:
REMARK  status: ('A' for Active; 'I' for Inactive)
ROOT
ATOM      1  C   UNL d   1       1.125   3.878   0.280  0.00  0.00     0.077 C 
ATOM      2  C1  UNL d   1       0.611   2.469   0.289  0.00  0.00    -0.074 A 
ATOM      3  C2  UNL d   1      -0.761   2.203   0.218  0.00  0.00    -0.005 A 
ATOM      4  C3  UNL d   1      -1.223   0.888   0.217  0.00  0.00     0.006 A 
ATOM      5  C4  UNL d   1      -0.321  -0.174   0.288  0.00  0.00    -0.005 A 
ATOM      6  C5  UNL d   1       1.054   0.071   0.359  0.00  0.00    -0.074 A 
ATOM      7  C6  UNL d   1       2.038  -1.059   0.425  0.00  0.00     0.077 C 
ATOM      8  C7  UNL d   1       1.511   1.396   0.351  0.00  0.00    -0.001 A 
ENDROOT
TORSDOF 0
ENDMDL
