MODEL 1
REMARK minimizedAffinity -4.91767597
REMARK minimizedRMSD -1
REMARK  0 active torsions:
REMARK  status: ('A' for Active; 'I' for Inactive)
ROOT
ATOM      1  C   UNL d   1      -2.232   0.325   1.092  0.00  0.00     0.077 C 
ATOM      2  C1  UNL d   1      -0.794   0.577   0.746  0.00  0.00    -0.074 A 
ATOM      3  C2  UNL d   1       0.092  -0.485   0.537  0.00  0.00    -0.005 A 
ATOM      4  C3  UNL d   1       1.424  -0.234   0.207  0.00  0.00     0.006 A 
ATOM      5  C4  UNL d   1       1.883   1.078   0.084  0.00  0.00    -0.005 A 
ATOM      6  C5  UNL d   1       1.011   2.152   0.289  0.00  0.00    -0.074 A 
ATOM      7  C6  UNL d   1       1.486   3.568   0.151  0.00  0.00     0.077 C 
ATOM      8  C7  UNL d   1      -0.327   1.892   0.613  0.00  0.00    -0.001 A 
ENDROOT
TORSDOF 0
ENDMDL
