MODEL 1
REMARK minimizedAffinity -4.25101042
REMARK minimizedRMSD -1
REMARK  0 active torsions:
REMARK  status: ('A' for Active; 'I' for Inactive)
ROOT
ATOM      1  C   UNL d   1      -0.943   1.098   3.375  0.00  0.00     0.077 C 
ATOM      2  C1  UNL d   1      -0.947   1.047   1.876  0.00  0.00    -0.074 A 
ATOM      3  C2  UNL d   1      -1.734   1.928   1.128  0.00  0.00    -0.005 A 
ATOM      4  C3  UNL d   1      -1.719   1.875  -0.265  0.00  0.00     0.006 A 
ATOM      5  C4  UNL d   1      -0.919   0.941  -0.925  0.00  0.00    -0.005 A 
ATOM      6  C5  UNL d   1      -0.124   0.052  -0.194  0.00  0.00    -0.074 A 
ATOM      7  C6  UNL d   1       0.750  -0.951  -0.887  0.00  0.00     0.077 C 
ATOM      8  C7  UNL d   1      -0.139   0.117   1.206  0.00  0.00    -0.001 A 
ENDROOT
TORSDOF 0
ENDMDL
