MODEL 1
REMARK minimizedAffinity -6.15784502
REMARK minimizedRMSD -1
REMARK  0 active torsions:
REMARK  status: ('A' for Active; 'I' for Inactive)
ROOT
ATOM      1  C   UNL d   1       0.752  -0.832  -0.519  0.00  0.00     0.077 C 
ATOM      2  C1  UNL d   1       0.027   0.305   0.138  0.00  0.00    -0.074 A 
ATOM      3  C2  UNL d   1      -0.468   0.186   1.441  0.00  0.00    -0.005 A 
ATOM      4  C3  UNL d   1      -1.132   1.255   2.042  0.00  0.00     0.006 A 
ATOM      5  C4  UNL d   1      -1.307   2.453   1.348  0.00  0.00    -0.005 A 
ATOM      6  C5  UNL d   1      -0.819   2.591   0.045  0.00  0.00    -0.074 A 
ATOM      7  C6  UNL d   1      -0.990   3.875  -0.712  0.00  0.00     0.077 C 
ATOM      8  C7  UNL d   1      -0.147   1.514  -0.550  0.00  0.00    -0.001 A 
ENDROOT
TORSDOF 0
ENDMDL
