MODEL 1
REMARK minimizedAffinity -5.11175394
REMARK minimizedRMSD -1
REMARK  0 active torsions:
REMARK  status: ('A' for Active; 'I' for Inactive)
ROOT
ATOM      1  C   UNL d   1      -2.235   2.704   1.474  0.00  0.00     0.077 C 
ATOM      2  C1  UNL d   1      -1.245   1.665   1.037  0.00  0.00    -0.074 A 
ATOM      3  C2  UNL d   1      -0.718   1.674  -0.259  0.00  0.00    -0.005 A 
ATOM      4  C3  UNL d   1       0.209   0.707  -0.648  0.00  0.00     0.006 A 
ATOM      5  C4  UNL d   1       0.617  -0.278   0.253  0.00  0.00    -0.005 A 
ATOM      6  C5  UNL d   1       0.101  -0.303   1.553  0.00  0.00    -0.074 A 
ATOM      7  C6  UNL d   1       0.536  -1.348   2.536  0.00  0.00     0.077 C 
ATOM      8  C7  UNL d   1      -0.825   0.677   1.938  0.00  0.00    -0.001 A 
ENDROOT
TORSDOF 0
ENDMDL
