MODEL 1
REMARK minimizedAffinity -5.4408679
REMARK minimizedRMSD -1
REMARK  0 active torsions:
REMARK  status: ('A' for Active; 'I' for Inactive)
ROOT
ATOM      1  C   UNL d   1      -0.752   3.730  -1.138  0.00  0.00     0.077 C 
ATOM      2  C1  UNL d   1      -0.630   2.577  -0.187  0.00  0.00    -0.074 A 
ATOM      3  C2  UNL d   1      -1.177   2.644   1.098  0.00  0.00    -0.005 A 
ATOM      4  C3  UNL d   1      -1.064   1.559   1.968  0.00  0.00     0.006 A 
ATOM      5  C4  UNL d   1      -0.403   0.399   1.563  0.00  0.00    -0.005 A 
ATOM      6  C5  UNL d   1       0.150   0.314   0.281  0.00  0.00    -0.074 A 
ATOM      7  C6  UNL d   1       0.854  -0.930  -0.174  0.00  0.00     0.077 C 
ATOM      8  C7  UNL d   1       0.026   1.405  -0.590  0.00  0.00    -0.001 A 
ENDROOT
TORSDOF 0
ENDMDL
