MODEL 1
REMARK minimizedAffinity -4.54766941
REMARK minimizedRMSD -1
REMARK  0 active torsions:
REMARK  status: ('A' for Active; 'I' for Inactive)
ROOT
ATOM      1  C   UNL d   1      -2.704   1.796   0.912  0.00  0.00     0.077 C 
ATOM      2  C1  UNL d   1      -1.479   0.933   0.847  0.00  0.00    -0.074 A 
ATOM      3  C2  UNL d   1      -0.754   0.626   2.003  0.00  0.00    -0.005 A 
ATOM      4  C3  UNL d   1       0.378  -0.186   1.929  0.00  0.00     0.006 A 
ATOM      5  C4  UNL d   1       0.796  -0.698   0.700  0.00  0.00    -0.005 A 
ATOM      6  C5  UNL d   1       0.083  -0.402  -0.467  0.00  0.00    -0.074 A 
ATOM      7  C6  UNL d   1       0.513  -0.952  -1.794  0.00  0.00     0.077 C 
ATOM      8  C7  UNL d   1      -1.057   0.408  -0.383  0.00  0.00    -0.001 A 
ENDROOT
TORSDOF 0
ENDMDL
