MODEL 1
REMARK minimizedAffinity -4.63872194
REMARK minimizedRMSD -1
REMARK  0 active torsions:
REMARK  status: ('A' for Active; 'I' for Inactive)
ROOT
ATOM      1  C   UNL d   1      -1.955   3.295   1.550  0.00  0.00     0.077 C 
ATOM      2  C1  UNL d   1      -0.965   2.760   0.558  0.00  0.00    -0.074 A 
ATOM      3  C2  UNL d   1      -0.323   3.611  -0.347  0.00  0.00    -0.005 A 
ATOM      4  C3  UNL d   1       0.602   3.100  -1.257  0.00  0.00     0.006 A 
ATOM      5  C4  UNL d   1       0.894   1.735  -1.272  0.00  0.00    -0.005 A 
ATOM      6  C5  UNL d   1       0.261   0.869  -0.374  0.00  0.00    -0.074 A 
ATOM      7  C6  UNL d   1       0.570  -0.598  -0.370  0.00  0.00     0.077 C 
ATOM      8  C7  UNL d   1      -0.662   1.392   0.543  0.00  0.00    -0.001 A 
ENDROOT
TORSDOF 0
ENDMDL
