MODEL 1
REMARK minimizedAffinity -2.49547744
REMARK minimizedRMSD -1
REMARK  0 active torsions:
REMARK  status: ('A' for Active; 'I' for Inactive)
ROOT
ATOM      1  C   UNL d   1       1.131   1.893  -1.740  0.00  0.00     0.077 C 
ATOM      2  C1  UNL d   1       0.589   1.041  -0.631  0.00  0.00    -0.074 A 
ATOM      3  C2  UNL d   1       0.759  -0.347  -0.642  0.00  0.00    -0.005 A 
ATOM      4  C3  UNL d   1       0.258  -1.125   0.402  0.00  0.00     0.006 A 
ATOM      5  C4  UNL d   1      -0.418  -0.524   1.465  0.00  0.00    -0.005 A 
ATOM      6  C5  UNL d   1      -0.597   0.863   1.493  0.00  0.00    -0.074 A 
ATOM      7  C6  UNL d   1      -1.312   1.525   2.632  0.00  0.00     0.077 C 
ATOM      8  C7  UNL d   1      -0.084   1.638   0.444  0.00  0.00    -0.001 A 
ENDROOT
TORSDOF 0
ENDMDL
