MODEL 1
REMARK minimizedAffinity -2.91391706
REMARK minimizedRMSD -1
REMARK  0 active torsions:
REMARK  status: ('A' for Active; 'I' for Inactive)
ROOT
ATOM      1  C   UNL d   1      -0.205  -2.734  -2.129  0.00  0.00     0.077 C 
ATOM      2  C1  UNL d   1       0.209  -1.613  -1.222  0.00  0.00    -0.074 A 
ATOM      3  C2  UNL d   1       1.485  -1.048  -1.313  0.00  0.00    -0.005 A 
ATOM      4  C3  UNL d   1       1.852   0.000  -0.470  0.00  0.00     0.006 A 
ATOM      5  C4  UNL d   1       0.948   0.494   0.472  0.00  0.00    -0.005 A 
ATOM      6  C5  UNL d   1      -0.332  -0.058   0.577  0.00  0.00    -0.074 A 
ATOM      7  C6  UNL d   1      -1.319   0.467   1.578  0.00  0.00     0.077 C 
ATOM      8  C7  UNL d   1      -0.696  -1.106  -0.278  0.00  0.00    -0.001 A 
ENDROOT
TORSDOF 0
ENDMDL
