MODEL 1
REMARK minimizedAffinity -5.28838062
REMARK minimizedRMSD -1
REMARK  0 active torsions:
REMARK  status: ('A' for Active; 'I' for Inactive)
ROOT
ATOM      1  C   UNL d   1      -0.929  -0.971   3.034  0.00  0.00     0.077 C 
ATOM      2  C1  UNL d   1      -0.827  -0.054   1.851  0.00  0.00    -0.074 A 
ATOM      3  C2  UNL d   1      -1.857   0.842   1.546  0.00  0.00    -0.005 A 
ATOM      4  C3  UNL d   1      -1.744   1.695   0.448  0.00  0.00     0.006 A 
ATOM      5  C4  UNL d   1      -0.602   1.662  -0.353  0.00  0.00    -0.005 A 
ATOM      6  C5  UNL d   1       0.438   0.773  -0.062  0.00  0.00    -0.074 A 
ATOM      7  C6  UNL d   1       1.677   0.732  -0.908  0.00  0.00     0.077 C 
ATOM      8  C7  UNL d   1       0.320  -0.076   1.046  0.00  0.00    -0.001 A 
ENDROOT
TORSDOF 0
ENDMDL
