MODEL 1
REMARK minimizedAffinity 0.182701483
REMARK minimizedRMSD -1
REMARK  0 active torsions:
REMARK  status: ('A' for Active; 'I' for Inactive)
ROOT
ATOM      1  C   UNL d   1      -1.118   1.891   2.257  0.00  0.00     0.077 C 
ATOM      2  C1  UNL d   1      -0.316   1.388   1.094  0.00  0.00    -0.074 A 
ATOM      3  C2  UNL d   1       0.237   2.276   0.165  0.00  0.00    -0.005 A 
ATOM      4  C3  UNL d   1       0.989   1.794  -0.906  0.00  0.00     0.006 A 
ATOM      5  C4  UNL d   1       1.195   0.423  -1.060  0.00  0.00    -0.005 A 
ATOM      6  C5  UNL d   1       0.651  -0.480  -0.141  0.00  0.00    -0.074 A 
ATOM      7  C6  UNL d   1       0.871  -1.956  -0.286  0.00  0.00     0.077 C 
ATOM      8  C7  UNL d   1      -0.098   0.012   0.937  0.00  0.00    -0.001 A 
ENDROOT
TORSDOF 0
ENDMDL
