MODEL 1
REMARK minimizedAffinity -4.1849103
REMARK minimizedRMSD -1
REMARK  0 active torsions:
REMARK  status: ('A' for Active; 'I' for Inactive)
ROOT
ATOM      1  C   UNL d   1      -2.452   2.262   1.469  0.00  0.00     0.077 C 
ATOM      2  C1  UNL d   1      -1.262   1.527   0.927  0.00  0.00    -0.074 A 
ATOM      3  C2  UNL d   1      -0.914   0.264   1.415  0.00  0.00    -0.005 A 
ATOM      4  C3  UNL d   1       0.190  -0.412   0.894  0.00  0.00     0.006 A 
ATOM      5  C4  UNL d   1       0.956   0.169  -0.118  0.00  0.00    -0.005 A 
ATOM      6  C5  UNL d   1       0.622   1.431  -0.619  0.00  0.00    -0.074 A 
ATOM      7  C6  UNL d   1       1.428   2.064  -1.714  0.00  0.00     0.077 C 
ATOM      8  C7  UNL d   1      -0.493   2.100  -0.096  0.00  0.00    -0.001 A 
ENDROOT
TORSDOF 0
ENDMDL
