MODEL 1
REMARK minimizedAffinity -4.12843227
REMARK minimizedRMSD -1
REMARK  0 active torsions:
REMARK  status: ('A' for Active; 'I' for Inactive)
ROOT
ATOM      1  C   UNL d   1       0.464   3.418  -0.657  0.00  0.00     0.077 C 
ATOM      2  C1  UNL d   1      -0.008   2.201   0.080  0.00  0.00    -0.074 A 
ATOM      3  C2  UNL d   1      -0.826   2.316   1.208  0.00  0.00    -0.005 A 
ATOM      4  C3  UNL d   1      -1.265   1.174   1.878  0.00  0.00     0.006 A 
ATOM      5  C4  UNL d   1      -0.891  -0.093   1.427  0.00  0.00    -0.005 A 
ATOM      6  C5  UNL d   1      -0.074  -0.227   0.300  0.00  0.00    -0.074 A 
ATOM      7  C6  UNL d   1       0.329  -1.581  -0.204  0.00  0.00     0.077 C 
ATOM      8  C7  UNL d   1       0.357   0.925  -0.372  0.00  0.00    -0.001 A 
ENDROOT
TORSDOF 0
ENDMDL
