MODEL 1
REMARK minimizedAffinity -3.18736362
REMARK minimizedRMSD -1
REMARK  0 active torsions:
REMARK  status: ('A' for Active; 'I' for Inactive)
ROOT
ATOM      1  C   UNL d   1       0.148   3.521  -0.916  0.00  0.00     0.077 C 
ATOM      2  C1  UNL d   1      -0.164   2.310  -0.088  0.00  0.00    -0.074 A 
ATOM      3  C2  UNL d   1      -0.907   2.419   1.092  0.00  0.00    -0.005 A 
ATOM      4  C3  UNL d   1      -1.197   1.283   1.847  0.00  0.00     0.006 A 
ATOM      5  C4  UNL d   1      -0.749   0.029   1.431  0.00  0.00    -0.005 A 
ATOM      6  C5  UNL d   1      -0.007  -0.100   0.253  0.00  0.00    -0.074 A 
ATOM      7  C6  UNL d   1       0.474  -1.441  -0.214  0.00  0.00     0.077 C 
ATOM      8  C7  UNL d   1       0.276   1.046  -0.504  0.00  0.00    -0.001 A 
ENDROOT
TORSDOF 0
ENDMDL
