MODEL 1
REMARK minimizedAffinity -3.59413791
REMARK minimizedRMSD -1
REMARK  0 active torsions:
REMARK  status: ('A' for Active; 'I' for Inactive)
ROOT
ATOM      1  C   UNL d   1       0.229   3.818  -0.703  0.00  0.00     0.077 C 
ATOM      2  C1  UNL d   1      -0.134   2.570   0.046  0.00  0.00    -0.074 A 
ATOM      3  C2  UNL d   1      -1.088   2.597   1.068  0.00  0.00    -0.005 A 
ATOM      4  C3  UNL d   1      -1.422   1.427   1.750  0.00  0.00     0.006 A 
ATOM      5  C4  UNL d   1      -0.807   0.219   1.416  0.00  0.00    -0.005 A 
ATOM      6  C5  UNL d   1       0.149   0.173   0.396  0.00  0.00    -0.074 A 
ATOM      7  C6  UNL d   1       0.812  -1.118   0.018  0.00  0.00     0.077 C 
ATOM      8  C7  UNL d   1       0.474   1.352  -0.289  0.00  0.00    -0.001 A 
ENDROOT
TORSDOF 0
ENDMDL
