MODEL 1
REMARK minimizedAffinity -6.20689631
REMARK minimizedRMSD -1
REMARK  2 active torsions:
REMARK  status: ('A' for Active; 'I' for Inactive)
REMARK    1  A    between atoms: C1_2  and  C2_3 
REMARK    2  A    between atoms: C2_3  and  C3_4 
ROOT
ATOM      1  C3  UNL d   1      -0.142   0.696   0.035  0.00  0.00    -0.075 A 
ATOM      2  C4  UNL d   1       0.246   1.685  -0.881  0.00  0.00     0.002 A 
ATOM      3  C5  UNL d   1      -0.198   2.999  -0.735  0.00  0.00     0.002 A 
ATOM      4  C6  UNL d   1      -1.043   3.339   0.319  0.00  0.00    -0.004 A 
ATOM      5  C7  UNL d   1      -1.448   2.362   1.225  0.00  0.00     0.002 A 
ATOM      6  C8  UNL d   1      -1.001   1.047   1.084  0.00  0.00     0.002 A 
ENDROOT
BRANCH   1   7
ATOM      7  C2  UNL d   1       0.359  -0.722  -0.101  0.00  0.00     0.056 C 
BRANCH   7   8
ATOM      8  C1  UNL d   1      -0.013  -1.391  -1.428  0.00  0.00     0.007 C 
ATOM      9  C   UNL d   1       0.370  -2.864  -1.486  0.00  0.00     0.009 C 
ENDBRANCH   7   8
ENDBRANCH   1   7
TORSDOF 2
ENDMDL
