MODEL 1
REMARK minimizedAffinity -5.74404764
REMARK minimizedRMSD -1
REMARK  2 active torsions:
REMARK  status: ('A' for Active; 'I' for Inactive)
REMARK    1  A    between atoms: C1_2  and  C2_3 
REMARK    2  A    between atoms: C2_3  and  C3_4 
ROOT
ATOM      1  C3  UNL d   1      -0.069   0.079  -0.199  0.00  0.00    -0.075 A 
ATOM      2  C4  UNL d   1      -0.805   1.225  -0.535  0.00  0.00     0.002 A 
ATOM      3  C5  UNL d   1      -1.570   1.883   0.428  0.00  0.00     0.002 A 
ATOM      4  C6  UNL d   1      -1.617   1.400   1.734  0.00  0.00    -0.004 A 
ATOM      5  C7  UNL d   1      -0.903   0.254   2.075  0.00  0.00     0.002 A 
ATOM      6  C8  UNL d   1      -0.134  -0.405   1.115  0.00  0.00     0.002 A 
ENDROOT
BRANCH   1   7
ATOM      7  C2  UNL d   1       0.784  -0.621  -1.230  0.00  0.00     0.056 C 
BRANCH   7   8
ATOM      8  C1  UNL d   1       0.581  -2.139  -1.280  0.00  0.00     0.007 C 
ATOM      9  C   UNL d   1      -0.005  -2.623  -2.599  0.00  0.00     0.009 C 
ENDBRANCH   7   8
ENDBRANCH   1   7
TORSDOF 2
ENDMDL
