MODEL 1
REMARK minimizedAffinity -4.34809446
REMARK minimizedRMSD -1
REMARK  2 active torsions:
REMARK  status: ('A' for Active; 'I' for Inactive)
REMARK    1  A    between atoms: C1_2  and  C2_3 
REMARK    2  A    between atoms: C2_3  and  C3_4 
ROOT
ATOM      1  C3  UNL d   1       0.653  -1.677  -0.855  0.00  0.00    -0.075 A 
ATOM      2  C4  UNL d   1       0.178  -1.527  -2.166  0.00  0.00     0.002 A 
ATOM      3  C5  UNL d   1       0.049  -2.635  -3.004  0.00  0.00     0.002 A 
ATOM      4  C6  UNL d   1       0.401  -3.903  -2.547  0.00  0.00    -0.004 A 
ATOM      5  C7  UNL d   1       0.890  -4.062  -1.252  0.00  0.00     0.002 A 
ATOM      6  C8  UNL d   1       1.016  -2.955  -0.410  0.00  0.00     0.002 A 
ENDROOT
BRANCH   1   7
ATOM      7  C2  UNL d   1       0.768  -0.487   0.067  0.00  0.00     0.056 C 
BRANCH   7   8
ATOM      8  C1  UNL d   1      -0.291  -0.451   1.174  0.00  0.00     0.007 C 
ATOM      9  C   UNL d   1      -1.095   0.842   1.194  0.00  0.00     0.009 C 
ENDBRANCH   7   8
ENDBRANCH   1   7
TORSDOF 2
ENDMDL
