MODEL 1
REMARK minimizedAffinity -4.91725779
REMARK minimizedRMSD -1
REMARK  2 active torsions:
REMARK  status: ('A' for Active; 'I' for Inactive)
REMARK    1  A    between atoms: C1_2  and  C2_3 
REMARK    2  A    between atoms: C2_3  and  C3_4 
ROOT
ATOM      1  C3  UNL d   1       0.238  -0.207  -0.491  0.00  0.00    -0.075 A 
ATOM      2  C4  UNL d   1      -0.084  -0.624   0.808  0.00  0.00     0.002 A 
ATOM      3  C5  UNL d   1      -0.939   0.137   1.605  0.00  0.00     0.002 A 
ATOM      4  C6  UNL d   1      -1.474   1.328   1.119  0.00  0.00    -0.004 A 
ATOM      5  C7  UNL d   1      -1.148   1.760  -0.165  0.00  0.00     0.002 A 
ATOM      6  C8  UNL d   1      -0.296   0.998  -0.966  0.00  0.00     0.002 A 
ENDROOT
BRANCH   1   7
ATOM      7  C2  UNL d   1       1.140  -1.041  -1.369  0.00  0.00     0.056 C 
BRANCH   7   8
ATOM      8  C1  UNL d   1       0.406  -1.780  -2.493  0.00  0.00     0.007 C 
ATOM      9  C   UNL d   1       0.184  -3.257  -2.196  0.00  0.00     0.009 C 
ENDBRANCH   7   8
ENDBRANCH   1   7
TORSDOF 2
ENDMDL
