MODEL 1
REMARK minimizedAffinity -5.19794512
REMARK minimizedRMSD -1
REMARK  2 active torsions:
REMARK  status: ('A' for Active; 'I' for Inactive)
REMARK    1  A    between atoms: C1_2  and  C2_3 
REMARK    2  A    between atoms: C2_3  and  C3_4 
ROOT
ATOM      1  C3  UNL d   1      -0.012  -0.138   0.052  0.00  0.00    -0.075 A 
ATOM      2  C4  UNL d   1       0.130  -0.505   1.398  0.00  0.00     0.002 A 
ATOM      3  C5  UNL d   1      -0.535   0.203   2.400  0.00  0.00     0.002 A 
ATOM      4  C6  UNL d   1      -1.341   1.290   2.070  0.00  0.00    -0.004 A 
ATOM      5  C7  UNL d   1      -1.476   1.674   0.737  0.00  0.00     0.002 A 
ATOM      6  C8  UNL d   1      -0.815   0.964  -0.267  0.00  0.00     0.002 A 
ENDROOT
BRANCH   1   7
ATOM      7  C2  UNL d   1       0.682  -0.919  -1.039  0.00  0.00     0.056 C 
BRANCH   7   8
ATOM      8  C1  UNL d   1       0.870  -2.405  -0.719  0.00  0.00     0.007 C 
ATOM      9  C   UNL d   1       0.382  -3.325  -1.830  0.00  0.00     0.009 C 
ENDBRANCH   7   8
ENDBRANCH   1   7
TORSDOF 2
ENDMDL
