MODEL 1
REMARK minimizedAffinity -5.61359453
REMARK minimizedRMSD -1
REMARK  2 active torsions:
REMARK  status: ('A' for Active; 'I' for Inactive)
REMARK    1  A    between atoms: C1_2  and  C2_3 
REMARK    2  A    between atoms: C2_3  and  C3_4 
ROOT
ATOM      1  C3  UNL d   1       0.056  -0.074  -0.053  0.00  0.00    -0.075 A 
ATOM      2  C4  UNL d   1      -0.572   1.107  -0.475  0.00  0.00     0.002 A 
ATOM      3  C5  UNL d   1      -1.564   1.700   0.305  0.00  0.00     0.002 A 
ATOM      4  C6  UNL d   1      -1.949   1.116   1.510  0.00  0.00    -0.004 A 
ATOM      5  C7  UNL d   1      -1.345  -0.066   1.932  0.00  0.00     0.002 A 
ATOM      6  C8  UNL d   1      -0.348  -0.659   1.155  0.00  0.00     0.002 A 
ENDROOT
BRANCH   1   7
ATOM      7  C2  UNL d   1       1.151  -0.705  -0.878  0.00  0.00     0.056 C 
BRANCH   7   8
ATOM      8  C1  UNL d   1       0.929  -2.192  -1.178  0.00  0.00     0.007 C 
ATOM      9  C   UNL d   1      -0.123  -2.437  -2.251  0.00  0.00     0.009 C 
ENDBRANCH   7   8
ENDBRANCH   1   7
TORSDOF 2
ENDMDL
