MODEL 1
REMARK minimizedAffinity -3.75299335
REMARK minimizedRMSD -1
REMARK  2 active torsions:
REMARK  status: ('A' for Active; 'I' for Inactive)
REMARK    1  A    between atoms: C1_2  and  C2_3 
REMARK    2  A    between atoms: C2_3  and  C3_4 
ROOT
ATOM      1  C3  UNL d   1      -0.120  -0.081  -0.742  0.00  0.00    -0.075 A 
ATOM      2  C4  UNL d   1       0.414  -0.371   0.521  0.00  0.00     0.002 A 
ATOM      3  C5  UNL d   1      -0.063   0.281   1.659  0.00  0.00     0.002 A 
ATOM      4  C6  UNL d   1      -1.069   1.237   1.547  0.00  0.00    -0.004 A 
ATOM      5  C7  UNL d   1      -1.596   1.546   0.294  0.00  0.00     0.002 A 
ATOM      6  C8  UNL d   1      -1.124   0.892  -0.845  0.00  0.00     0.002 A 
ENDROOT
BRANCH   1   7
ATOM      7  C2  UNL d   1       0.370  -0.804  -1.973  0.00  0.00     0.056 C 
BRANCH   7   8
ATOM      8  C1  UNL d   1       0.761  -2.265  -1.724  0.00  0.00     0.007 C 
ATOM      9  C   UNL d   1       0.397  -3.189  -2.879  0.00  0.00     0.009 C 
ENDBRANCH   7   8
ENDBRANCH   1   7
TORSDOF 2
ENDMDL
