MODEL 1
REMARK minimizedAffinity -4.24575424
REMARK minimizedRMSD -1
REMARK  2 active torsions:
REMARK  status: ('A' for Active; 'I' for Inactive)
REMARK    1  A    between atoms: C1_2  and  C2_3 
REMARK    2  A    between atoms: C2_3  and  C3_4 
ROOT
ATOM      1  C3  UNL d   1       0.006   1.123  -0.488  0.00  0.00    -0.075 A 
ATOM      2  C4  UNL d   1       0.027   2.424  -1.012  0.00  0.00     0.002 A 
ATOM      3  C5  UNL d   1      -0.778   3.422  -0.461  0.00  0.00     0.002 A 
ATOM      4  C6  UNL d   1      -1.619   3.131   0.610  0.00  0.00    -0.004 A 
ATOM      5  C7  UNL d   1      -1.660   1.838   1.128  0.00  0.00     0.002 A 
ATOM      6  C8  UNL d   1      -0.852   0.839   0.582  0.00  0.00     0.002 A 
ENDROOT
BRANCH   1   7
ATOM      7  C2  UNL d   1       0.897   0.046  -1.060  0.00  0.00     0.056 C 
BRANCH   7   8
ATOM      8  C1  UNL d   1       0.645  -1.347  -0.474  0.00  0.00     0.007 C 
ATOM      9  C   UNL d   1       0.995  -2.475  -1.435  0.00  0.00     0.009 C 
ENDBRANCH   7   8
ENDBRANCH   1   7
TORSDOF 2
ENDMDL
