MODEL 1
REMARK minimizedAffinity -3.28953362
REMARK minimizedRMSD -1
REMARK  2 active torsions:
REMARK  status: ('A' for Active; 'I' for Inactive)
REMARK    1  A    between atoms: C1_2  and  C2_3 
REMARK    2  A    between atoms: C2_3  and  C3_4 
ROOT
ATOM      1  C3  UNL d   1       0.758  -0.741  -0.706  0.00  0.00    -0.075 A 
ATOM      2  C4  UNL d   1      -0.046  -0.653   0.440  0.00  0.00     0.002 A 
ATOM      3  C5  UNL d   1      -0.785   0.501   0.700  0.00  0.00     0.002 A 
ATOM      4  C6  UNL d   1      -0.722   1.584  -0.174  0.00  0.00    -0.004 A 
ATOM      5  C7  UNL d   1       0.086   1.514  -1.307  0.00  0.00     0.002 A 
ATOM      6  C8  UNL d   1       0.823   0.358  -1.572  0.00  0.00     0.002 A 
ENDROOT
BRANCH   1   7
ATOM      7  C2  UNL d   1       1.537  -1.999  -1.008  0.00  0.00     0.056 C 
BRANCH   7   8
ATOM      8  C1  UNL d   1       0.743  -3.052  -1.789  0.00  0.00     0.007 C 
ATOM      9  C   UNL d   1       0.515  -2.673  -3.247  0.00  0.00     0.009 C 
ENDBRANCH   7   8
ENDBRANCH   1   7
TORSDOF 2
ENDMDL
