MODEL 1
REMARK minimizedAffinity -4.27531052
REMARK minimizedRMSD -1
REMARK  2 active torsions:
REMARK  status: ('A' for Active; 'I' for Inactive)
REMARK    1  A    between atoms: C1_2  and  C2_3 
REMARK    2  A    between atoms: C2_3  and  C3_4 
ROOT
ATOM      1  C3  UNL d   1      -0.356  -0.112   0.101  0.00  0.00    -0.075 A 
ATOM      2  C4  UNL d   1      -0.659  -0.207   1.468  0.00  0.00     0.002 A 
ATOM      3  C5  UNL d   1      -1.429   0.774   2.093  0.00  0.00     0.002 A 
ATOM      4  C6  UNL d   1      -1.897   1.865   1.364  0.00  0.00    -0.004 A 
ATOM      5  C7  UNL d   1      -1.589   1.979   0.010  0.00  0.00     0.002 A 
ATOM      6  C8  UNL d   1      -0.822   0.996  -0.619  0.00  0.00     0.002 A 
ENDROOT
BRANCH   1   7
ATOM      7  C2  UNL d   1       0.452  -1.186  -0.587  0.00  0.00     0.056 C 
BRANCH   7   8
ATOM      8  C1  UNL d   1      -0.220  -1.768  -1.836  0.00  0.00     0.007 C 
ATOM      9  C   UNL d   1      -0.070  -3.279  -1.948  0.00  0.00     0.009 C 
ENDBRANCH   7   8
ENDBRANCH   1   7
TORSDOF 2
ENDMDL
