MODEL 1
REMARK minimizedAffinity -4.09561777
REMARK minimizedRMSD -1
REMARK  2 active torsions:
REMARK  status: ('A' for Active; 'I' for Inactive)
REMARK    1  A    between atoms: C1_2  and  C2_3 
REMARK    2  A    between atoms: C2_3  and  C3_4 
ROOT
ATOM      1  C3  UNL d   1      -0.092  -0.136   0.077  0.00  0.00    -0.075 A 
ATOM      2  C4  UNL d   1      -0.725  -0.437   1.291  0.00  0.00     0.002 A 
ATOM      3  C5  UNL d   1      -1.601   0.476   1.879  0.00  0.00     0.002 A 
ATOM      4  C6  UNL d   1      -1.847   1.703   1.267  0.00  0.00    -0.004 A 
ATOM      5  C7  UNL d   1      -1.211   2.020   0.069  0.00  0.00     0.002 A 
ATOM      6  C8  UNL d   1      -0.337   1.106  -0.524  0.00  0.00     0.002 A 
ENDROOT
BRANCH   1   7
ATOM      7  C2  UNL d   1       0.834  -1.132  -0.580  0.00  0.00     0.056 C 
BRANCH   7   8
ATOM      8  C1  UNL d   1       0.129  -2.107  -1.528  0.00  0.00     0.007 C 
ATOM      9  C   UNL d   1       0.714  -3.513  -1.487  0.00  0.00     0.009 C 
ENDBRANCH   7   8
ENDBRANCH   1   7
TORSDOF 2
ENDMDL
