MODEL 1
REMARK minimizedAffinity -3.26215816
REMARK minimizedRMSD -1
REMARK  2 active torsions:
REMARK  status: ('A' for Active; 'I' for Inactive)
REMARK    1  A    between atoms: C1_2  and  C2_3 
REMARK    2  A    between atoms: C2_3  and  C3_4 
ROOT
ATOM      1  C3  UNL d   1       1.023  -1.705  -1.208  0.00  0.00    -0.075 A 
ATOM      2  C4  UNL d   1       0.368  -1.723  -2.448  0.00  0.00     0.002 A 
ATOM      3  C5  UNL d   1       0.117  -2.931  -3.099  0.00  0.00     0.002 A 
ATOM      4  C6  UNL d   1       0.525  -4.133  -2.526  0.00  0.00    -0.004 A 
ATOM      5  C7  UNL d   1       1.190  -4.126  -1.302  0.00  0.00     0.002 A 
ATOM      6  C8  UNL d   1       1.439  -2.919  -0.646  0.00  0.00     0.002 A 
ENDROOT
BRANCH   1   7
ATOM      7  C2  UNL d   1       1.271  -0.404  -0.484  0.00  0.00     0.056 C 
BRANCH   7   8
ATOM      8  C1  UNL d   1       0.002   0.258   0.063  0.00  0.00     0.007 C 
ATOM      9  C   UNL d   1      -0.312  -0.140   1.499  0.00  0.00     0.009 C 
ENDBRANCH   7   8
ENDBRANCH   1   7
TORSDOF 2
ENDMDL
