MODEL 1
REMARK minimizedAffinity -3.01458812
REMARK minimizedRMSD -1
REMARK  2 active torsions:
REMARK  status: ('A' for Active; 'I' for Inactive)
REMARK    1  A    between atoms: C1_2  and  C2_3 
REMARK    2  A    between atoms: C2_3  and  C3_4 
ROOT
ATOM      1  C3  UNL d   1      -0.103   0.076   0.087  0.00  0.00    -0.075 A 
ATOM      2  C4  UNL d   1      -1.018   0.873  -0.616  0.00  0.00     0.002 A 
ATOM      3  C5  UNL d   1      -1.959   1.644   0.068  0.00  0.00     0.002 A 
ATOM      4  C6  UNL d   1      -2.004   1.620   1.460  0.00  0.00    -0.004 A 
ATOM      5  C7  UNL d   1      -1.111   0.818   2.169  0.00  0.00     0.002 A 
ATOM      6  C8  UNL d   1      -0.166   0.050   1.487  0.00  0.00     0.002 A 
ENDROOT
BRANCH   1   7
ATOM      7  C2  UNL d   1       0.936  -0.738  -0.646  0.00  0.00     0.056 C 
BRANCH   7   8
ATOM      8  C1  UNL d   1       0.421  -1.395  -1.931  0.00  0.00     0.007 C 
ATOM      9  C   UNL d   1       0.518  -2.915  -1.908  0.00  0.00     0.009 C 
ENDBRANCH   7   8
ENDBRANCH   1   7
TORSDOF 2
ENDMDL
