MODEL 1
REMARK minimizedAffinity -5.14761162
REMARK minimizedRMSD -1
REMARK  2 active torsions:
REMARK  status: ('A' for Active; 'I' for Inactive)
REMARK    1  A    between atoms: C1_2  and  C2_3 
REMARK    2  A    between atoms: C2_3  and  C3_4 
ROOT
ATOM      1  C3  UNL d   1       0.014   0.148   0.474  0.00  0.00    -0.075 A 
ATOM      2  C4  UNL d   1      -0.524   0.473   1.727  0.00  0.00     0.002 A 
ATOM      3  C5  UNL d   1      -1.104   1.723   1.946  0.00  0.00     0.002 A 
ATOM      4  C6  UNL d   1      -1.144   2.665   0.921  0.00  0.00    -0.004 A 
ATOM      5  C7  UNL d   1      -0.598   2.359  -0.324  0.00  0.00     0.002 A 
ATOM      6  C8  UNL d   1      -0.021   1.107  -0.547  0.00  0.00     0.002 A 
ENDROOT
BRANCH   1   7
ATOM      7  C2  UNL d   1       0.617  -1.214   0.221  0.00  0.00     0.056 C 
BRANCH   7   8
ATOM      8  C1  UNL d   1       1.412  -1.311  -1.085  0.00  0.00     0.007 C 
ATOM      9  C   UNL d   1       1.517  -2.734  -1.619  0.00  0.00     0.009 C 
ENDBRANCH   7   8
ENDBRANCH   1   7
TORSDOF 2
ENDMDL
