MODEL 1
REMARK minimizedAffinity -5.12830734
REMARK minimizedRMSD -1
REMARK  2 active torsions:
REMARK  status: ('A' for Active; 'I' for Inactive)
REMARK    1  A    between atoms: C1_2  and  C2_3 
REMARK    2  A    between atoms: C2_3  and  C3_4 
ROOT
ATOM      1  C3  UNL d   1       0.361  -1.062  -0.261  0.00  0.00    -0.075 A 
ATOM      2  C4  UNL d   1      -0.828  -1.184   0.473  0.00  0.00     0.002 A 
ATOM      3  C5  UNL d   1      -1.452  -0.054   1.003  0.00  0.00     0.002 A 
ATOM      4  C6  UNL d   1      -0.892   1.208   0.814  0.00  0.00    -0.004 A 
ATOM      5  C7  UNL d   1       0.297   1.338   0.100  0.00  0.00     0.002 A 
ATOM      6  C8  UNL d   1       0.921   0.210  -0.434  0.00  0.00     0.002 A 
ENDROOT
BRANCH   1   7
ATOM      7  C2  UNL d   1       1.025  -2.278  -0.862  0.00  0.00     0.056 C 
BRANCH   7   8
ATOM      8  C1  UNL d   1       0.375  -2.766  -2.161  0.00  0.00     0.007 C 
ATOM      9  C   UNL d   1      -0.126  -4.202  -2.078  0.00  0.00     0.009 C 
ENDBRANCH   7   8
ENDBRANCH   1   7
TORSDOF 2
ENDMDL
