MODEL 1
REMARK minimizedAffinity -3.32624578
REMARK minimizedRMSD -1
REMARK  2 active torsions:
REMARK  status: ('A' for Active; 'I' for Inactive)
REMARK    1  A    between atoms: C1_2  and  C2_3 
REMARK    2  A    between atoms: C2_3  and  C3_4 
ROOT
ATOM      1  C3  UNL d   1       0.407  -0.749  -0.700  0.00  0.00    -0.075 A 
ATOM      2  C4  UNL d   1       0.099  -1.026   0.640  0.00  0.00     0.002 A 
ATOM      3  C5  UNL d   1      -0.767  -0.196   1.354  0.00  0.00     0.002 A 
ATOM      4  C6  UNL d   1      -1.325   0.924   0.742  0.00  0.00    -0.004 A 
ATOM      5  C7  UNL d   1      -1.013   1.217  -0.584  0.00  0.00     0.002 A 
ATOM      6  C8  UNL d   1      -0.152   0.386  -1.302  0.00  0.00     0.002 A 
ENDROOT
BRANCH   1   7
ATOM      7  C2  UNL d   1       1.319  -1.660  -1.487  0.00  0.00     0.056 C 
BRANCH   7   8
ATOM      8  C1  UNL d   1       0.602  -2.482  -2.563  0.00  0.00     0.007 C 
ATOM      9  C   UNL d   1      -0.177  -3.662  -1.997  0.00  0.00     0.009 C 
ENDBRANCH   7   8
ENDBRANCH   1   7
TORSDOF 2
ENDMDL
