MODEL 1
REMARK minimizedAffinity 13.0957298
REMARK minimizedRMSD -1
REMARK  1 active torsions:
REMARK  status: ('A' for Active; 'I' for Inactive)
REMARK    1  A    between atoms: N_2  and  C1_3 
ROOT
ATOM      1  C1  UNL d   1       2.007   0.147   3.506  0.00  0.00     0.143 A 
ATOM      2  C2  UNL d   1       3.289   0.559   3.125  0.00  0.00    -0.057 A 
ATOM      3  C3  UNL d   1       3.868   0.117   1.929  0.00  0.00     0.033 A 
ATOM      4  C4  UNL d   1       3.184  -0.770   1.104  0.00  0.00    -0.042 A 
ATOM      5  C5  UNL d   1       1.919  -1.212   1.475  0.00  0.00     0.033 A 
ATOM      6  C6  UNL d   1       1.344  -0.762   2.667  0.00  0.00    -0.057 A 
ENDROOT
BRANCH   1   7
ATOM      7  N   UNL d   1       1.417   0.473   4.729  0.00  0.00    -0.732 N 
ATOM      8  C   UNL d   1       2.076   0.146   5.976  0.00  0.00     0.284 C 
ATOM      9  H3  UNL d   1       0.982   1.393   4.718  0.00  0.00     0.395 HD
ENDBRANCH   1   7
TORSDOF 1
ENDMDL
