MODEL 1
REMARK minimizedAffinity 14.2915983
REMARK minimizedRMSD -1
REMARK  1 active torsions:
REMARK  status: ('A' for Active; 'I' for Inactive)
REMARK    1  A    between atoms: N_2  and  C1_3 
ROOT
ATOM      1  C1  UNL d   1      -0.500   2.811  -1.590  0.00  0.00     0.143 A 
ATOM      2  C2  UNL d   1      -0.811   3.583  -2.714  0.00  0.00    -0.057 A 
ATOM      3  C3  UNL d   1      -1.945   3.311  -3.490  0.00  0.00     0.033 A 
ATOM      4  C4  UNL d   1      -2.774   2.241  -3.169  0.00  0.00    -0.042 A 
ATOM      5  C5  UNL d   1      -2.470   1.445  -2.070  0.00  0.00     0.033 A 
ATOM      6  C6  UNL d   1      -1.340   1.726  -1.296  0.00  0.00    -0.057 A 
ENDROOT
BRANCH   1   7
ATOM      7  N   UNL d   1       0.666   2.970  -0.836  0.00  0.00    -0.732 N 
ATOM      8  C   UNL d   1       1.097   4.286  -0.414  0.00  0.00     0.284 C 
ATOM      9  H3  UNL d   1       0.770   2.250  -0.125  0.00  0.00     0.395 HD
ENDBRANCH   1   7
TORSDOF 1
ENDMDL
