MODEL 1
REMARK minimizedAffinity 3.35340548
REMARK minimizedRMSD -1
REMARK  1 active torsions:
REMARK  status: ('A' for Active; 'I' for Inactive)
REMARK    1  A    between atoms: N_2  and  C1_3 
ROOT
ATOM      1  C1  UNL d   1      -4.132  -5.013   1.130  0.00  0.00     0.143 A 
ATOM      2  C2  UNL d   1      -2.897  -5.059   1.787  0.00  0.00    -0.057 A 
ATOM      3  C3  UNL d   1      -2.456  -3.992   2.579  0.00  0.00     0.033 A 
ATOM      4  C4  UNL d   1      -3.232  -2.845   2.706  0.00  0.00    -0.042 A 
ATOM      5  C5  UNL d   1      -4.451  -2.766   2.041  0.00  0.00     0.033 A 
ATOM      6  C6  UNL d   1      -4.889  -3.838   1.257  0.00  0.00    -0.057 A 
ENDROOT
BRANCH   1   7
ATOM      7  N   UNL d   1      -4.581  -5.999   0.249  0.00  0.00    -0.732 N 
ATOM      8  C   UNL d   1      -4.302  -5.905  -1.168  0.00  0.00     0.284 C 
ATOM      9  H3  UNL d   1      -4.479  -6.937   0.631  0.00  0.00     0.395 HD
ENDBRANCH   1   7
TORSDOF 1
ENDMDL
