MODEL 1
REMARK minimizedAffinity 14.0360374
REMARK minimizedRMSD -1
REMARK  1 active torsions:
REMARK  status: ('A' for Active; 'I' for Inactive)
REMARK    1  A    between atoms: N_2  and  C1_3 
ROOT
ATOM      1  C1  UNL d   1      -1.850   2.630  -1.464  0.00  0.00     0.143 A 
ATOM      2  C2  UNL d   1      -0.679   2.480  -2.215  0.00  0.00    -0.057 A 
ATOM      3  C3  UNL d   1       0.583   2.644  -1.632  0.00  0.00     0.033 A 
ATOM      4  C4  UNL d   1       0.696   2.991  -0.290  0.00  0.00    -0.042 A 
ATOM      5  C5  UNL d   1      -0.454   3.169   0.470  0.00  0.00     0.033 A 
ATOM      6  C6  UNL d   1      -1.712   2.997  -0.116  0.00  0.00    -0.057 A 
ENDROOT
BRANCH   1   7
ATOM      7  N   UNL d   1      -3.136   2.577  -2.009  0.00  0.00    -0.732 N 
ATOM      8  C   UNL d   1      -4.280   3.021  -1.242  0.00  0.00     0.284 C 
ATOM      9  H3  UNL d   1      -3.155   2.858  -2.986  0.00  0.00     0.395 HD
ENDBRANCH   1   7
TORSDOF 1
ENDMDL
