MODEL 1
REMARK minimizedAffinity 13.3240576
REMARK minimizedRMSD -1
REMARK  1 active torsions:
REMARK  status: ('A' for Active; 'I' for Inactive)
REMARK    1  A    between atoms: N_2  and  C1_3 
ROOT
ATOM      1  C1  UNL d   1      -0.711   3.135  -1.503  0.00  0.00     0.143 A 
ATOM      2  C2  UNL d   1      -1.014   2.285  -2.572  0.00  0.00    -0.057 A 
ATOM      3  C3  UNL d   1      -2.257   2.340  -3.214  0.00  0.00     0.033 A 
ATOM      4  C4  UNL d   1      -3.233   3.231  -2.778  0.00  0.00    -0.042 A 
ATOM      5  C5  UNL d   1      -2.963   4.068  -1.701  0.00  0.00     0.033 A 
ATOM      6  C6  UNL d   1      -1.717   4.012  -1.069  0.00  0.00    -0.057 A 
ENDROOT
BRANCH   1   7
ATOM      7  N   UNL d   1       0.470   3.061  -0.761  0.00  0.00    -0.732 N 
ATOM      8  C   UNL d   1       0.599   3.773   0.492  0.00  0.00     0.284 C 
ATOM      9  H3  UNL d   1       0.862   2.122  -0.748  0.00  0.00     0.395 HD
ENDBRANCH   1   7
TORSDOF 1
ENDMDL
