MODEL 1
REMARK minimizedAffinity 15.7011175
REMARK minimizedRMSD -1
REMARK  1 active torsions:
REMARK  status: ('A' for Active; 'I' for Inactive)
REMARK    1  A    between atoms: N_2  and  C1_3 
ROOT
ATOM      1  C1  UNL d   1      -1.876   3.604  -3.480  0.00  0.00     0.143 A 
ATOM      2  C2  UNL d   1      -1.857   4.930  -3.034  0.00  0.00    -0.057 A 
ATOM      3  C3  UNL d   1      -1.896   6.000  -3.936  0.00  0.00     0.033 A 
ATOM      4  C4  UNL d   1      -1.926   5.762  -5.306  0.00  0.00    -0.042 A 
ATOM      5  C5  UNL d   1      -1.920   4.452  -5.773  0.00  0.00     0.033 A 
ATOM      6  C6  UNL d   1      -1.887   3.388  -4.867  0.00  0.00    -0.057 A 
ENDROOT
BRANCH   1   7
ATOM      7  N   UNL d   1      -1.739   2.498  -2.637  0.00  0.00    -0.732 N 
ATOM      8  C   UNL d   1      -0.507   2.271  -1.913  0.00  0.00     0.284 C 
ATOM      9  H3  UNL d   1      -2.580   2.317  -2.094  0.00  0.00     0.395 HD
ENDBRANCH   1   7
TORSDOF 1
ENDMDL
