MODEL 1
REMARK minimizedAffinity 8.6129818
REMARK minimizedRMSD -1
REMARK  1 active torsions:
REMARK  status: ('A' for Active; 'I' for Inactive)
REMARK    1  A    between atoms: N_2  and  C1_3 
ROOT
ATOM      1  C1  UNL d   1       3.147  -0.052   2.561  0.00  0.00     0.143 A 
ATOM      2  C2  UNL d   1       2.546  -0.966   1.689  0.00  0.00    -0.057 A 
ATOM      3  C3  UNL d   1       1.215  -1.365   1.859  0.00  0.00     0.033 A 
ATOM      4  C4  UNL d   1       0.467  -0.878   2.926  0.00  0.00    -0.042 A 
ATOM      5  C5  UNL d   1       1.051   0.013   3.820  0.00  0.00     0.033 A 
ATOM      6  C6  UNL d   1       2.379   0.413   3.641  0.00  0.00    -0.057 A 
ENDROOT
BRANCH   1   7
ATOM      7  N   UNL d   1       4.495   0.309   2.503  0.00  0.00    -0.732 N 
ATOM      8  C   UNL d   1       5.532  -0.679   2.714  0.00  0.00     0.284 C 
ATOM      9  H3  UNL d   1       4.690   0.961   1.747  0.00  0.00     0.395 HD
ENDBRANCH   1   7
TORSDOF 1
ENDMDL
