MODEL 1
REMARK minimizedAffinity 14.1589251
REMARK minimizedRMSD -1
REMARK  1 active torsions:
REMARK  status: ('A' for Active; 'I' for Inactive)
REMARK    1  A    between atoms: N_2  and  C1_3 
ROOT
ATOM      1  C1  UNL d   1       1.427  -0.490   2.664  0.00  0.00     0.143 A 
ATOM      2  C2  UNL d   1       0.138  -0.832   2.239  0.00  0.00    -0.057 A 
ATOM      3  C3  UNL d   1      -0.960  -0.735   3.103  0.00  0.00     0.033 A 
ATOM      4  C4  UNL d   1      -0.783  -0.321   4.419  0.00  0.00    -0.042 A 
ATOM      5  C5  UNL d   1       0.492  -0.000   4.870  0.00  0.00     0.033 A 
ATOM      6  C6  UNL d   1       1.584  -0.092   4.001  0.00  0.00    -0.057 A 
ENDROOT
BRANCH   1   7
ATOM      7  N   UNL d   1       2.573  -0.658   1.883  0.00  0.00    -0.732 N 
ATOM      8  C   UNL d   1       3.674   0.277   1.978  0.00  0.00     0.284 C 
ATOM      9  H3  UNL d   1       2.860  -1.633   1.819  0.00  0.00     0.395 HD
ENDBRANCH   1   7
TORSDOF 1
ENDMDL
