MODEL 1
REMARK minimizedAffinity 19.3693848
REMARK minimizedRMSD -1
REMARK  1 active torsions:
REMARK  status: ('A' for Active; 'I' for Inactive)
REMARK    1  A    between atoms: N_2  and  C1_3 
ROOT
ATOM      1  C1  UNL d   1      -4.200  -4.098   0.298  0.00  0.00     0.143 A 
ATOM      2  C2  UNL d   1      -2.930  -4.031   0.881  0.00  0.00    -0.057 A 
ATOM      3  C3  UNL d   1      -2.703  -3.284   2.044  0.00  0.00     0.033 A 
ATOM      4  C4  UNL d   1      -3.740  -2.565   2.629  0.00  0.00    -0.042 A 
ATOM      5  C5  UNL d   1      -5.005  -2.597   2.053  0.00  0.00     0.033 A 
ATOM      6  C6  UNL d   1      -5.226  -3.350   0.896  0.00  0.00    -0.057 A 
ENDROOT
BRANCH   1   7
ATOM      7  N   UNL d   1      -4.467  -4.743  -0.912  0.00  0.00    -0.732 N 
ATOM      8  C   UNL d   1      -5.184  -6.000  -0.934  0.00  0.00     0.284 C 
ATOM      9  H3  UNL d   1      -4.742  -4.094  -1.645  0.00  0.00     0.395 HD
ENDBRANCH   1   7
TORSDOF 1
ENDMDL
