MODEL 1
REMARK minimizedAffinity 3.05298996
REMARK minimizedRMSD -1
REMARK  1 active torsions:
REMARK  status: ('A' for Active; 'I' for Inactive)
REMARK    1  A    between atoms: N_2  and  C1_3 
ROOT
ATOM      1  C1  UNL d   1      -1.595  -1.748   3.652  0.00  0.00     0.143 A 
ATOM      2  C2  UNL d   1      -1.370  -1.182   4.912  0.00  0.00    -0.057 A 
ATOM      3  C3  UNL d   1      -0.212  -0.442   5.178  0.00  0.00     0.033 A 
ATOM      4  C4  UNL d   1       0.759  -0.279   4.195  0.00  0.00    -0.042 A 
ATOM      5  C5  UNL d   1       0.568  -0.853   2.944  0.00  0.00     0.033 A 
ATOM      6  C6  UNL d   1      -0.594  -1.586   2.681  0.00  0.00    -0.057 A 
ENDROOT
BRANCH   1   7
ATOM      7  N   UNL d   1      -2.680  -2.577   3.355  0.00  0.00    -0.732 N 
ATOM      8  C   UNL d   1      -2.596  -3.543   2.280  0.00  0.00     0.284 C 
ATOM      9  H3  UNL d   1      -3.144  -2.924   4.191  0.00  0.00     0.395 HD
ENDBRANCH   1   7
TORSDOF 1
ENDMDL
