MODEL 1
REMARK minimizedAffinity 9.38873386
REMARK minimizedRMSD -1
REMARK  1 active torsions:
REMARK  status: ('A' for Active; 'I' for Inactive)
REMARK    1  A    between atoms: N_2  and  C1_3 
ROOT
ATOM      1  C1  UNL d   1      -1.820   3.719  -3.593  0.00  0.00     0.143 A 
ATOM      2  C2  UNL d   1      -0.821   2.927  -3.018  0.00  0.00    -0.057 A 
ATOM      3  C3  UNL d   1      -1.090   2.108  -1.914  0.00  0.00     0.033 A 
ATOM      4  C4  UNL d   1      -2.359   2.090  -1.346  0.00  0.00    -0.042 A 
ATOM      5  C5  UNL d   1      -3.361   2.888  -1.886  0.00  0.00     0.033 A 
ATOM      6  C6  UNL d   1      -3.089   3.698  -2.993  0.00  0.00    -0.057 A 
ENDROOT
BRANCH   1   7
ATOM      7  N   UNL d   1      -1.592   4.627  -4.630  0.00  0.00    -0.732 N 
ATOM      8  C   UNL d   1      -1.906   4.278  -5.999  0.00  0.00     0.284 C 
ATOM      9  H3  UNL d   1      -1.846   5.579  -4.375  0.00  0.00     0.395 HD
ENDBRANCH   1   7
TORSDOF 1
ENDMDL
