MODEL 1
REMARK minimizedAffinity 8.48637486
REMARK minimizedRMSD -1
REMARK  0 active torsions:
REMARK  status: ('A' for Active; 'I' for Inactive)
ROOT
ATOM      1  O1  BZF d   1       5.245  -1.091   0.874  0.00  0.00    -0.204 OA
ATOM      2  C2  BZF d   1       5.999  -1.983   1.613  0.00  0.00     0.174 A 
ATOM      3  C3  BZF d   1       5.227  -2.637   2.504  0.00  0.00    -0.012 A 
ATOM      4  C3A BZF d   1       3.893  -2.189   2.248  0.00  0.00    -0.107 A 
ATOM      5  C4  BZF d   1       2.680  -2.490   2.798  0.00  0.00     0.055 A 
ATOM      6  C5  BZF d   1       1.576  -1.822   2.369  0.00  0.00    -0.016 A 
ATOM      7  C6  BZF d   1       1.651  -0.845   1.397  0.00  0.00     0.022 A 
ATOM      8  C7  BZF d   1       2.832  -0.516   0.819  0.00  0.00     0.029 A 
ATOM      9  C7A BZF d   1       3.943  -1.212   1.226  0.00  0.00     0.058 A 
ENDROOT
TORSDOF 0
ENDMDL
