MODEL 1
REMARK minimizedAffinity 7.92298079
REMARK minimizedRMSD -1
REMARK  0 active torsions:
REMARK  status: ('A' for Active; 'I' for Inactive)
ROOT
ATOM      1  O1  BZF d   1      -2.603   3.455   2.660  0.00  0.00    -0.204 OA
ATOM      2  C2  BZF d   1      -1.825   2.974   1.625  0.00  0.00     0.174 A 
ATOM      3  C3  BZF d   1      -2.470   3.093   0.446  0.00  0.00    -0.012 A 
ATOM      4  C3A BZF d   1      -3.693   3.771   0.753  0.00  0.00    -0.107 A 
ATOM      5  C4  BZF d   1      -4.748   4.191  -0.004  0.00  0.00     0.055 A 
ATOM      6  C5  BZF d   1      -5.820   4.756   0.612  0.00  0.00    -0.016 A 
ATOM      7  C6  BZF d   1      -5.871   4.911   1.982  0.00  0.00     0.022 A 
ATOM      8  C7  BZF d   1      -4.845   4.514   2.775  0.00  0.00     0.029 A 
ATOM      9  C7A BZF d   1      -3.747   3.973   2.152  0.00  0.00     0.058 A 
ENDROOT
TORSDOF 0
ENDMDL
