MODEL 1
REMARK minimizedAffinity 14.971899
REMARK minimizedRMSD -1
REMARK  0 active torsions:
REMARK  status: ('A' for Active; 'I' for Inactive)
ROOT
ATOM      1  O1  BZF d   1      -4.866   3.458   2.526  0.00  0.00    -0.204 OA
ATOM      2  C2  BZF d   1      -6.000   3.889   1.865  0.00  0.00     0.174 A 
ATOM      3  C3  BZF d   1      -5.739   4.106   0.560  0.00  0.00    -0.012 A 
ATOM      4  C3A BZF d   1      -4.379   3.702   0.376  0.00  0.00    -0.107 A 
ATOM      5  C4  BZF d   1      -3.549   3.665  -0.709  0.00  0.00     0.055 A 
ATOM      6  C5  BZF d   1      -2.255   3.287  -0.537  0.00  0.00    -0.016 A 
ATOM      7  C6  BZF d   1      -1.757   2.945   0.703  0.00  0.00     0.022 A 
ATOM      8  C7  BZF d   1      -2.543   2.961   1.807  0.00  0.00     0.029 A 
ATOM      9  C7A BZF d   1      -3.860   3.311   1.631  0.00  0.00     0.058 A 
ENDROOT
TORSDOF 0
ENDMDL
