MODEL 1
REMARK minimizedAffinity 17.4518032
REMARK minimizedRMSD -1
REMARK  0 active torsions:
REMARK  status: ('A' for Active; 'I' for Inactive)
ROOT
ATOM      1  O1  BZF d   1      -2.541   1.491  -1.942  0.00  0.00    -0.204 OA
ATOM      2  C2  BZF d   1      -3.021   0.390  -2.623  0.00  0.00     0.174 A 
ATOM      3  C3  BZF d   1      -4.367   0.337  -2.558  0.00  0.00    -0.012 A 
ATOM      4  C3A BZF d   1      -4.758   1.527  -1.866  0.00  0.00    -0.107 A 
ATOM      5  C4  BZF d   1      -5.967   2.049  -1.506  0.00  0.00     0.055 A 
ATOM      6  C5  BZF d   1      -6.000   3.194  -0.774  0.00  0.00    -0.016 A 
ATOM      7  C6  BZF d   1      -4.845   3.838  -0.380  0.00  0.00     0.022 A 
ATOM      8  C7  BZF d   1      -3.622   3.360  -0.718  0.00  0.00     0.029 A 
ATOM      9  C7A BZF d   1      -3.586   2.222  -1.486  0.00  0.00     0.058 A 
ENDROOT
TORSDOF 0
ENDMDL
