MODEL 1
REMARK minimizedAffinity 16.0139332
REMARK minimizedRMSD -1
REMARK  0 active torsions:
REMARK  status: ('A' for Active; 'I' for Inactive)
ROOT
ATOM      1  O1  BZF d   1      -3.617   1.863  -3.211  0.00  0.00    -0.204 OA
ATOM      2  C2  BZF d   1      -3.735   0.561  -3.656  0.00  0.00     0.174 A 
ATOM      3  C3  BZF d   1      -3.179  -0.298  -2.777  0.00  0.00    -0.012 A 
ATOM      4  C3A BZF d   1      -2.765   0.511  -1.672  0.00  0.00    -0.107 A 
ATOM      5  C4  BZF d   1      -2.161   0.233  -0.479  0.00  0.00     0.055 A 
ATOM      6  C5  BZF d   1      -1.825   1.259   0.347  0.00  0.00    -0.016 A 
ATOM      7  C6  BZF d   1      -2.074   2.573   0.010  0.00  0.00     0.022 A 
ATOM      8  C7  BZF d   1      -2.676   2.898  -1.160  0.00  0.00     0.029 A 
ATOM      9  C7A BZF d   1      -3.046   1.862  -1.982  0.00  0.00     0.058 A 
ENDROOT
TORSDOF 0
ENDMDL
