MODEL 1
REMARK minimizedAffinity 10.1660147
REMARK minimizedRMSD -1
REMARK  0 active torsions:
REMARK  status: ('A' for Active; 'I' for Inactive)
ROOT
ATOM      1  O1  BZF d   1      -2.773   0.187  -1.957  0.00  0.00    -0.204 OA
ATOM      2  C2  BZF d   1      -3.416   0.509  -3.137  0.00  0.00     0.174 A 
ATOM      3  C3  BZF d   1      -4.072   1.681  -3.019  0.00  0.00    -0.012 A 
ATOM      4  C3A BZF d   1      -3.748   2.164  -1.712  0.00  0.00    -0.107 A 
ATOM      5  C4  BZF d   1      -4.085   3.291  -1.017  0.00  0.00     0.055 A 
ATOM      6  C5  BZF d   1      -3.661   3.426   0.266  0.00  0.00    -0.016 A 
ATOM      7  C6  BZF d   1      -2.904   2.455   0.887  0.00  0.00     0.022 A 
ATOM      8  C7  BZF d   1      -2.540   1.323   0.237  0.00  0.00     0.029 A 
ATOM      9  C7A BZF d   1      -2.940   1.197  -1.071  0.00  0.00     0.058 A 
ENDROOT
TORSDOF 0
ENDMDL
