MODEL 1
REMARK minimizedAffinity 13.4513702
REMARK minimizedRMSD -1
REMARK  0 active torsions:
REMARK  status: ('A' for Active; 'I' for Inactive)
ROOT
ATOM      1  O1  BZF d   1      -3.686   1.950  -2.976  0.00  0.00    -0.204 OA
ATOM      2  C2  BZF d   1      -2.753   0.968  -3.251  0.00  0.00     0.174 A 
ATOM      3  C3  BZF d   1      -1.980   0.727  -2.172  0.00  0.00    -0.012 A 
ATOM      4  C3A BZF d   1      -2.519   1.548  -1.132  0.00  0.00    -0.107 A 
ATOM      5  C4  BZF d   1      -2.192   1.736   0.181  0.00  0.00     0.055 A 
ATOM      6  C5  BZF d   1      -2.872   2.664   0.905  0.00  0.00    -0.016 A 
ATOM      7  C6  BZF d   1      -3.881   3.422   0.348  0.00  0.00     0.022 A 
ATOM      8  C7  BZF d   1      -4.245   3.267  -0.948  0.00  0.00     0.029 A 
ATOM      9  C7A BZF d   1      -3.581   2.308  -1.674  0.00  0.00     0.058 A 
ENDROOT
TORSDOF 0
ENDMDL
