MODEL 1
REMARK minimizedAffinity 13.868578
REMARK minimizedRMSD -1
REMARK  0 active torsions:
REMARK  status: ('A' for Active; 'I' for Inactive)
ROOT
ATOM      1  O1  BZF d   1      -3.155   2.858  -0.644  0.00  0.00    -0.204 OA
ATOM      2  C2  BZF d   1      -2.393   2.224   0.317  0.00  0.00     0.174 A 
ATOM      3  C3  BZF d   1      -2.333   0.897   0.082  0.00  0.00    -0.012 A 
ATOM      4  C3A BZF d   1      -3.030   0.702  -1.152  0.00  0.00    -0.107 A 
ATOM      5  C4  BZF d   1      -3.298  -0.398  -1.915  0.00  0.00     0.055 A 
ATOM      6  C5  BZF d   1      -4.066  -0.260  -3.027  0.00  0.00    -0.016 A 
ATOM      7  C6  BZF d   1      -4.586   0.961  -3.403  0.00  0.00     0.022 A 
ATOM      8  C7  BZF d   1      -4.344   2.082  -2.680  0.00  0.00     0.029 A 
ATOM      9  C7A BZF d   1      -3.541   1.951  -1.574  0.00  0.00     0.058 A 
ENDROOT
TORSDOF 0
ENDMDL
