MODEL 1
REMARK minimizedAffinity 12.3618898
REMARK minimizedRMSD -1
REMARK  0 active torsions:
REMARK  status: ('A' for Active; 'I' for Inactive)
ROOT
ATOM      1  O1  BZF d   1       0.370  -2.995   4.728  0.00  0.00    -0.204 OA
ATOM      2  C2  BZF d   1       0.846  -2.577   5.956  0.00  0.00     0.174 A 
ATOM      3  C3  BZF d   1       1.403  -1.353   5.861  0.00  0.00    -0.012 A 
ATOM      4  C3A BZF d   1       1.185  -0.943   4.508  0.00  0.00    -0.107 A 
ATOM      5  C4  BZF d   1       1.494   0.188   3.807  0.00  0.00     0.055 A 
ATOM      6  C5  BZF d   1       1.206   0.243   2.481  0.00  0.00    -0.016 A 
ATOM      7  C6  BZF d   1       0.613  -0.815   1.822  0.00  0.00     0.022 A 
ATOM      8  C7  BZF d   1       0.283  -1.955   2.476  0.00  0.00     0.029 A 
ATOM      9  C7A BZF d   1       0.543  -2.001   3.823  0.00  0.00     0.058 A 
ENDROOT
TORSDOF 0
ENDMDL
