MODEL 1
REMARK minimizedAffinity 9.76773167
REMARK minimizedRMSD -1
REMARK  0 active torsions:
REMARK  status: ('A' for Active; 'I' for Inactive)
ROOT
ATOM      1  O1  BZF d   1       4.145  -0.957   0.716  0.00  0.00    -0.204 OA
ATOM      2  C2  BZF d   1       4.993  -1.896   1.270  0.00  0.00     0.174 A 
ATOM      3  C3  BZF d   1       4.353  -2.627   2.206  0.00  0.00    -0.012 A 
ATOM      4  C3A BZF d   1       2.996  -2.174   2.173  0.00  0.00    -0.107 A 
ATOM      5  C4  BZF d   1       1.871  -2.531   2.859  0.00  0.00     0.055 A 
ATOM      6  C5  BZF d   1       0.719  -1.843   2.642  0.00  0.00    -0.016 A 
ATOM      7  C6  BZF d   1       0.657  -0.793   1.750  0.00  0.00     0.022 A 
ATOM      8  C7  BZF d   1       1.746  -0.406   1.041  0.00  0.00     0.029 A 
ATOM      9  C7A BZF d   1       2.904  -1.120   1.235  0.00  0.00     0.058 A 
ENDROOT
TORSDOF 0
ENDMDL
