MODEL 1
REMARK minimizedAffinity -1.62615454
REMARK minimizedRMSD -1
REMARK  0 active torsions:
REMARK  status: ('A' for Active; 'I' for Inactive)
ROOT
ATOM      1  O1  BZF d   1       4.427   4.244  -5.101  0.00  0.00    -0.204 OA
ATOM      2  C2  BZF d   1       5.269   5.031  -5.862  0.00  0.00     0.174 A 
ATOM      3  C3  BZF d   1       5.977   5.871  -5.079  0.00  0.00    -0.012 A 
ATOM      4  C3A BZF d   1       5.617   5.528  -3.738  0.00  0.00    -0.107 A 
ATOM      5  C4  BZF d   1       5.998   5.998  -2.514  0.00  0.00     0.055 A 
ATOM      6  C5  BZF d   1       5.403   5.497  -1.399  0.00  0.00    -0.016 A 
ATOM      7  C6  BZF d   1       4.421   4.532  -1.472  0.00  0.00     0.022 A 
ATOM      8  C7  BZF d   1       4.012   4.031  -2.663  0.00  0.00     0.029 A 
ATOM      9  C7A BZF d   1       4.635   4.511  -3.789  0.00  0.00     0.058 A 
ENDROOT
TORSDOF 0
ENDMDL
