MODEL 1
REMARK minimizedAffinity 6.88629818
REMARK minimizedRMSD -1
REMARK  0 active torsions:
REMARK  status: ('A' for Active; 'I' for Inactive)
ROOT
ATOM      1  O1  BZF d   1       0.214  -1.422   4.484  0.00  0.00    -0.204 OA
ATOM      2  C2  BZF d   1       0.113  -2.796   4.589  0.00  0.00     0.174 A 
ATOM      3  C3  BZF d   1       0.754  -3.402   3.569  0.00  0.00    -0.012 A 
ATOM      4  C3A BZF d   1       1.367  -2.343   2.827  0.00  0.00    -0.107 A 
ATOM      5  C4  BZF d   1       2.154  -2.311   1.712  0.00  0.00     0.055 A 
ATOM      6  C5  BZF d   1       2.526  -1.108   1.200  0.00  0.00    -0.016 A 
ATOM      7  C6  BZF d   1       2.126   0.081   1.775  0.00  0.00     0.022 A 
ATOM      8  C7  BZF d   1       1.350   0.100   2.886  0.00  0.00     0.029 A 
ATOM      9  C7A BZF d   1       0.999  -1.114   3.424  0.00  0.00     0.058 A 
ENDROOT
TORSDOF 0
ENDMDL
