MODEL 1
REMARK minimizedAffinity 11.6000042
REMARK minimizedRMSD -1
REMARK  2 active torsions:
REMARK  status: ('A' for Active; 'I' for Inactive)
REMARK    1  A    between atoms: C2'_3  and  C1'_4 
REMARK    2  A    between atoms: C1'_4  and  C1_5 
ROOT
ATOM      1  C1  I4B d   1      -2.313  -3.752  -5.762  0.00  0.00    -0.075 A 
ATOM      2  C2  I4B d   1      -1.401  -4.729  -5.450  0.00  0.00     0.003 A 
ATOM      3  C3  I4B d   1      -0.021  -4.418  -5.379  0.00  0.00     0.002 A 
ATOM      4  C4  I4B d   1       0.404  -3.139  -5.675  0.00  0.00    -0.004 A 
ATOM      5  C5  I4B d   1      -0.525  -2.145  -5.968  0.00  0.00     0.002 A 
ATOM      6  C6  I4B d   1      -1.894  -2.450  -6.000  0.00  0.00     0.003 A 
ENDROOT
BRANCH   1   7
ATOM      7  C1' I4B d   1      -3.759  -4.122  -5.860  0.00  0.00     0.060 C 
BRANCH   7   8
ATOM      8  C2' I4B d   1      -3.885  -5.601  -5.554  0.00  0.00    -0.013 C 
ATOM      9  C4' I4B d   1      -3.144  -5.961  -4.293  0.00  0.00     0.013 C 
ATOM     10  C3' I4B d   1      -5.344  -5.927  -5.437  0.00  0.00     0.013 C 
ENDBRANCH   7   8
ENDBRANCH   1   7
TORSDOF 2
ENDMDL
