MODEL 1
REMARK minimizedAffinity 8.84457207
REMARK minimizedRMSD -1
REMARK  2 active torsions:
REMARK  status: ('A' for Active; 'I' for Inactive)
REMARK    1  A    between atoms: C2'_3  and  C1'_4 
REMARK    2  A    between atoms: C1'_4  and  C1_5 
ROOT
ATOM      1  C1  I4B d   1      -5.443  -0.606   3.764  0.00  0.00    -0.075 A 
ATOM      2  C2  I4B d   1      -5.999  -0.349   4.992  0.00  0.00     0.003 A 
ATOM      3  C3  I4B d   1      -6.000  -1.345   5.997  0.00  0.00     0.002 A 
ATOM      4  C4  I4B d   1      -5.482  -2.593   5.717  0.00  0.00    -0.004 A 
ATOM      5  C5  I4B d   1      -4.897  -2.845   4.480  0.00  0.00     0.002 A 
ATOM      6  C6  I4B d   1      -4.866  -1.842   3.501  0.00  0.00     0.003 A 
ENDROOT
BRANCH   1   7
ATOM      7  C1' I4B d   1      -5.489   0.459   2.714  0.00  0.00     0.060 C 
BRANCH   7   8
ATOM      8  C2' I4B d   1      -4.204   0.381   1.914  0.00  0.00    -0.013 C 
ATOM      9  C4' I4B d   1      -4.467   0.560   0.442  0.00  0.00     0.013 C 
ATOM     10  C3' I4B d   1      -3.273   1.438   2.430  0.00  0.00     0.013 C 
ENDBRANCH   7   8
ENDBRANCH   1   7
TORSDOF 2
ENDMDL
