MODEL 1
REMARK minimizedAffinity 4.33965349
REMARK minimizedRMSD -1
REMARK  2 active torsions:
REMARK  status: ('A' for Active; 'I' for Inactive)
REMARK    1  A    between atoms: C2'_3  and  C1'_4 
REMARK    2  A    between atoms: C1'_4  and  C1_5 
ROOT
ATOM      1  C1  I4B d   1      -5.073  -0.348   2.658  0.00  0.00    -0.075 A 
ATOM      2  C2  I4B d   1      -5.999  -0.432   3.668  0.00  0.00     0.003 A 
ATOM      3  C3  I4B d   1      -5.975  -1.524   4.568  0.00  0.00     0.002 A 
ATOM      4  C4  I4B d   1      -5.046  -2.529   4.393  0.00  0.00    -0.004 A 
ATOM      5  C5  I4B d   1      -4.094  -2.431   3.383  0.00  0.00     0.002 A 
ATOM      6  C6  I4B d   1      -4.099  -1.328   2.517  0.00  0.00     0.003 A 
ENDROOT
BRANCH   1   7
ATOM      7  C1' I4B d   1      -5.148   0.802   1.705  0.00  0.00     0.060 C 
BRANCH   7   8
ATOM      8  C2' I4B d   1      -4.377   0.425   0.456  0.00  0.00    -0.013 C 
ATOM      9  C4' I4B d   1      -5.215   0.613  -0.781  0.00  0.00     0.013 C 
ATOM     10  C3' I4B d   1      -3.138   1.269   0.405  0.00  0.00     0.013 C 
ENDBRANCH   7   8
ENDBRANCH   1   7
TORSDOF 2
ENDMDL
