MODEL 1
REMARK minimizedAffinity 10.907362
REMARK minimizedRMSD -1
REMARK  2 active torsions:
REMARK  status: ('A' for Active; 'I' for Inactive)
REMARK    1  A    between atoms: C2'_3  and  C1'_4 
REMARK    2  A    between atoms: C1'_4  and  C1_5 
ROOT
ATOM      1  C1  I4B d   1       3.624  -3.566  -0.458  0.00  0.00    -0.075 A 
ATOM      2  C2  I4B d   1       2.635  -4.481  -0.719  0.00  0.00     0.003 A 
ATOM      3  C3  I4B d   1       1.282  -4.167  -0.442  0.00  0.00     0.002 A 
ATOM      4  C4  I4B d   1       0.971  -2.955   0.139  0.00  0.00    -0.004 A 
ATOM      5  C5  I4B d   1       1.973  -2.019   0.382  0.00  0.00     0.002 A 
ATOM      6  C6  I4B d   1       3.307  -2.322   0.071  0.00  0.00     0.003 A 
ENDROOT
BRANCH   1   7
ATOM      7  C1' I4B d   1       5.046  -3.943  -0.732  0.00  0.00     0.060 C 
BRANCH   7   8
ATOM      8  C2' I4B d   1       5.144  -5.455  -0.690  0.00  0.00    -0.013 C 
ATOM      9  C4' I4B d   1       5.714  -5.999  -1.974  0.00  0.00     0.013 C 
ATOM     10  C3' I4B d   1       5.997  -5.831   0.484  0.00  0.00     0.013 C 
ENDBRANCH   7   8
ENDBRANCH   1   7
TORSDOF 2
ENDMDL
