MODEL 1
REMARK minimizedAffinity 7.71685076
REMARK minimizedRMSD -1
REMARK  2 active torsions:
REMARK  status: ('A' for Active; 'I' for Inactive)
REMARK    1  A    between atoms: C2'_3  and  C1'_4 
REMARK    2  A    between atoms: C1'_4  and  C1_5 
ROOT
ATOM      1  C1  I4B d   1      -2.653   5.218  -4.388  0.00  0.00    -0.075 A 
ATOM      2  C2  I4B d   1      -2.158   5.195  -5.668  0.00  0.00     0.003 A 
ATOM      3  C3  I4B d   1      -0.815   5.565  -5.920  0.00  0.00     0.002 A 
ATOM      4  C4  I4B d   1      -0.022   5.997  -4.876  0.00  0.00    -0.004 A 
ATOM      5  C5  I4B d   1      -0.519   5.997  -3.576  0.00  0.00     0.002 A 
ATOM      6  C6  I4B d   1      -1.839   5.594  -3.328  0.00  0.00     0.003 A 
ENDROOT
BRANCH   1   7
ATOM      7  C1' I4B d   1      -4.086   4.852  -4.163  0.00  0.00     0.060 C 
BRANCH   7   8
ATOM      8  C2' I4B d   1      -4.656   4.365  -5.480  0.00  0.00    -0.013 C 
ATOM      9  C4' I4B d   1      -4.783   2.864  -5.497  0.00  0.00     0.013 C 
ATOM     10  C3' I4B d   1      -5.989   5.024  -5.680  0.00  0.00     0.013 C 
ENDBRANCH   7   8
ENDBRANCH   1   7
TORSDOF 2
ENDMDL
