MODEL 1
REMARK minimizedAffinity 1.73362577
REMARK minimizedRMSD -1
REMARK  0 active torsions:
REMARK  status: ('A' for Active; 'I' for Inactive)
ROOT
ATOM      1  C2' OXE d   1      -1.313  -0.383  -0.563  0.00  0.00     0.078 C 
ATOM      2  C1' OXE d   1       0.834   0.247   1.132  0.00  0.00     0.078 C 
ATOM      3  C1  OXE d   1      -0.236  -0.673   1.664  0.00  0.00    -0.078 A 
ATOM      4  C2  OXE d   1      -1.307  -0.939   0.845  0.00  0.00    -0.078 A 
ATOM      5  C3  OXE d   1      -2.294  -1.824   1.266  0.00  0.00     0.003 A 
ATOM      6  C4  OXE d   1      -2.286  -2.326   2.573  0.00  0.00    -0.002 A 
ATOM      7  C5  OXE d   1      -1.225  -2.036   3.438  0.00  0.00    -0.002 A 
ATOM      8  C6  OXE d   1      -0.173  -1.247   2.985  0.00  0.00     0.003 A 
ENDROOT
TORSDOF 0
ENDMDL
