MODEL 1
REMARK minimizedAffinity -1.80886483
REMARK minimizedRMSD -1
REMARK  0 active torsions:
REMARK  status: ('A' for Active; 'I' for Inactive)
ROOT
ATOM      1  C2' OXE d   1      -5.999  -4.249  -4.053  0.00  0.00     0.078 C 
ATOM      2  C1' OXE d   1      -4.077  -2.205  -4.137  0.00  0.00     0.078 C 
ATOM      3  C1  OXE d   1      -3.735  -3.520  -4.793  0.00  0.00    -0.078 A 
ATOM      4  C2  OXE d   1      -4.663  -4.530  -4.706  0.00  0.00    -0.078 A 
ATOM      5  C3  OXE d   1      -4.421  -5.745  -5.340  0.00  0.00     0.003 A 
ATOM      6  C4  OXE d   1      -3.179  -6.000  -5.933  0.00  0.00    -0.002 A 
ATOM      7  C5  OXE d   1      -2.204  -4.999  -5.998  0.00  0.00    -0.002 A 
ATOM      8  C6  OXE d   1      -2.482  -3.742  -5.471  0.00  0.00     0.003 A 
ENDROOT
TORSDOF 0
ENDMDL
