MODEL 1
REMARK minimizedAffinity -4.24202824
REMARK minimizedRMSD -1
REMARK  0 active torsions:
REMARK  status: ('A' for Active; 'I' for Inactive)
ROOT
ATOM      1  C2' OXE d   1      -5.976  -3.464  -3.786  0.00  0.00     0.078 C 
ATOM      2  C1' OXE d   1      -4.392  -1.963  -5.552  0.00  0.00     0.078 C 
ATOM      3  C1  OXE d   1      -3.941  -3.363  -5.219  0.00  0.00    -0.078 A 
ATOM      4  C2  OXE d   1      -4.697  -4.074  -4.318  0.00  0.00    -0.078 A 
ATOM      5  C3  OXE d   1      -4.355  -5.389  -4.017  0.00  0.00     0.003 A 
ATOM      6  C4  OXE d   1      -3.165  -5.942  -4.505  0.00  0.00    -0.002 A 
ATOM      7  C5  OXE d   1      -2.359  -5.221  -5.393  0.00  0.00    -0.002 A 
ATOM      8  C6  OXE d   1      -2.754  -3.949  -5.792  0.00  0.00     0.003 A 
ENDROOT
TORSDOF 0
ENDMDL
