MODEL 1
REMARK minimizedAffinity -3.80225396
REMARK minimizedRMSD -1
REMARK  0 active torsions:
REMARK  status: ('A' for Active; 'I' for Inactive)
ROOT
ATOM      1  C2' OXE d   1      -3.533  -2.706  -3.381  0.00  0.00     0.078 C 
ATOM      2  C1' OXE d   1      -5.520  -4.555  -4.096  0.00  0.00     0.078 C 
ATOM      3  C1  OXE d   1      -4.130  -4.771  -4.640  0.00  0.00    -0.078 A 
ATOM      4  C2  OXE d   1      -3.174  -3.836  -4.322  0.00  0.00    -0.078 A 
ATOM      5  C3  OXE d   1      -1.863  -4.016  -4.752  0.00  0.00     0.003 A 
ATOM      6  C4  OXE d   1      -1.542  -5.058  -5.631  0.00  0.00    -0.002 A 
ATOM      7  C5  OXE d   1      -2.509  -6.000  -5.999  0.00  0.00    -0.002 A 
ATOM      8  C6  OXE d   1      -3.795  -5.895  -5.479  0.00  0.00     0.003 A 
ENDROOT
TORSDOF 0
ENDMDL
