MODEL 1
REMARK minimizedAffinity -2.18892717
REMARK minimizedRMSD -1
REMARK  0 active torsions:
REMARK  status: ('A' for Active; 'I' for Inactive)
ROOT
ATOM      1  C2' OXE d   1      -5.998  -2.781  -3.096  0.00  0.00     0.078 C 
ATOM      2  C1' OXE d   1      -5.999  -2.620  -5.899  0.00  0.00     0.078 C 
ATOM      3  C1  OXE d   1      -4.907  -3.427  -5.241  0.00  0.00    -0.078 A 
ATOM      4  C2  OXE d   1      -4.887  -3.462  -3.867  0.00  0.00    -0.078 A 
ATOM      5  C3  OXE d   1      -3.935  -4.236  -3.211  0.00  0.00     0.003 A 
ATOM      6  C4  OXE d   1      -2.905  -4.854  -3.931  0.00  0.00    -0.002 A 
ATOM      7  C5  OXE d   1      -2.884  -4.798  -5.329  0.00  0.00    -0.002 A 
ATOM      8  C6  OXE d   1      -3.900  -4.126  -6.000  0.00  0.00     0.003 A 
ENDROOT
TORSDOF 0
ENDMDL
