MODEL 1
REMARK minimizedAffinity -3.71649551
REMARK minimizedRMSD -1
REMARK  0 active torsions:
REMARK  status: ('A' for Active; 'I' for Inactive)
ROOT
ATOM      1  C2' OXE d   1      -5.961  -4.983  -3.732  0.00  0.00     0.078 C 
ATOM      2  C1' OXE d   1      -5.285  -2.583  -5.021  0.00  0.00     0.078 C 
ATOM      3  C1  OXE d   1      -4.310  -3.730  -5.114  0.00  0.00    -0.078 A 
ATOM      4  C2  OXE d   1      -4.627  -4.885  -4.441  0.00  0.00    -0.078 A 
ATOM      5  C3  OXE d   1      -3.789  -5.992  -4.538  0.00  0.00     0.003 A 
ATOM      6  C4  OXE d   1      -2.553  -5.890  -5.188  0.00  0.00    -0.002 A 
ATOM      7  C5  OXE d   1      -2.192  -4.709  -5.846  0.00  0.00    -0.002 A 
ATOM      8  C6  OXE d   1      -3.076  -3.636  -5.855  0.00  0.00     0.003 A 
ENDROOT
TORSDOF 0
ENDMDL
