MODEL 1
REMARK minimizedAffinity -4.03214741
REMARK minimizedRMSD -1
REMARK  0 active torsions:
REMARK  status: ('A' for Active; 'I' for Inactive)
ROOT
ATOM      1  C2' OXE d   1      -4.715  -2.206  -5.078  0.00  0.00     0.078 C 
ATOM      2  C1' OXE d   1      -5.999  -4.515  -4.129  0.00  0.00     0.078 C 
ATOM      3  C1  OXE d   1      -4.595  -4.659  -4.662  0.00  0.00    -0.078 A 
ATOM      4  C2  OXE d   1      -3.992  -3.533  -5.167  0.00  0.00    -0.078 A 
ATOM      5  C3  OXE d   1      -2.678  -3.599  -5.621  0.00  0.00     0.003 A 
ATOM      6  C4  OXE d   1      -2.020  -4.832  -5.710  0.00  0.00    -0.002 A 
ATOM      7  C5  OXE d   1      -2.631  -5.998  -5.237  0.00  0.00    -0.002 A 
ATOM      8  C6  OXE d   1      -3.899  -5.922  -4.672  0.00  0.00     0.003 A 
ENDROOT
TORSDOF 0
ENDMDL
