MODEL 1
REMARK minimizedAffinity -2.9878757
REMARK minimizedRMSD -1
REMARK  0 active torsions:
REMARK  status: ('A' for Active; 'I' for Inactive)
ROOT
ATOM      1  C2' OXE d   1      -6.000  -4.481  -3.400  0.00  0.00     0.078 C 
ATOM      2  C1' OXE d   1      -6.000  -2.308  -5.176  0.00  0.00     0.078 C 
ATOM      3  C1  OXE d   1      -4.768  -3.176  -5.127  0.00  0.00    -0.078 A 
ATOM      4  C2  OXE d   1      -4.758  -4.210  -4.222  0.00  0.00    -0.078 A 
ATOM      5  C3  OXE d   1      -3.669  -5.075  -4.174  0.00  0.00     0.003 A 
ATOM      6  C4  OXE d   1      -2.520  -4.810  -4.931  0.00  0.00    -0.002 A 
ATOM      7  C5  OXE d   1      -2.494  -3.740  -5.830  0.00  0.00    -0.002 A 
ATOM      8  C6  OXE d   1      -3.623  -2.940  -5.972  0.00  0.00     0.003 A 
ENDROOT
TORSDOF 0
ENDMDL
