MODEL 1
REMARK minimizedAffinity -3.6579597
REMARK minimizedRMSD -1
REMARK  0 active torsions:
REMARK  status: ('A' for Active; 'I' for Inactive)
ROOT
ATOM      1  C2' OXE d   1      -3.005  -5.857  -3.742  0.00  0.00     0.078 C 
ATOM      2  C1' OXE d   1      -1.874  -4.631  -6.000  0.00  0.00     0.078 C 
ATOM      3  C1  OXE d   1      -3.140  -4.035  -5.436  0.00  0.00    -0.078 A 
ATOM      4  C2  OXE d   1      -3.712  -4.669  -4.359  0.00  0.00    -0.078 A 
ATOM      5  C3  OXE d   1      -4.849  -4.129  -3.766  0.00  0.00     0.003 A 
ATOM      6  C4  OXE d   1      -5.502  -3.036  -4.349  0.00  0.00    -0.002 A 
ATOM      7  C5  OXE d   1      -4.958  -2.399  -5.469  0.00  0.00    -0.002 A 
ATOM      8  C6  OXE d   1      -3.757  -2.859  -5.998  0.00  0.00     0.003 A 
ENDROOT
TORSDOF 0
ENDMDL
