MODEL 1
REMARK minimizedAffinity -3.32148027
REMARK minimizedRMSD -1
REMARK  0 active torsions:
REMARK  status: ('A' for Active; 'I' for Inactive)
ROOT
ATOM      1  C2' OXE d   1      -2.573  -5.250  -5.637  0.00  0.00     0.078 C 
ATOM      2  C1' OXE d   1      -5.254  -6.000  -5.997  0.00  0.00     0.078 C 
ATOM      3  C1  OXE d   1      -4.959  -4.887  -5.022  0.00  0.00    -0.078 A 
ATOM      4  C2  OXE d   1      -3.641  -4.558  -4.818  0.00  0.00    -0.078 A 
ATOM      5  C3  OXE d   1      -3.317  -3.502  -3.971  0.00  0.00     0.003 A 
ATOM      6  C4  OXE d   1      -4.310  -2.874  -3.210  0.00  0.00    -0.002 A 
ATOM      7  C5  OXE d   1      -5.655  -3.220  -3.373  0.00  0.00    -0.002 A 
ATOM      8  C6  OXE d   1      -6.000  -4.193  -4.305  0.00  0.00     0.003 A 
ENDROOT
TORSDOF 0
ENDMDL
