MODEL 1
REMARK minimizedAffinity -3.00964952
REMARK minimizedRMSD -1
REMARK  0 active torsions:
REMARK  status: ('A' for Active; 'I' for Inactive)
ROOT
ATOM      1  C2' OXE d   1      -3.016  -5.974  -5.863  0.00  0.00     0.078 C 
ATOM      2  C1' OXE d   1      -5.819  -6.000  -6.000  0.00  0.00     0.078 C 
ATOM      3  C1  OXE d   1      -5.170  -5.026  -5.049  0.00  0.00    -0.078 A 
ATOM      4  C2  OXE d   1      -3.800  -5.053  -4.954  0.00  0.00    -0.078 A 
ATOM      5  C3  OXE d   1      -3.148  -4.138  -4.132  0.00  0.00     0.003 A 
ATOM      6  C4  OXE d   1      -3.881  -3.296  -3.287  0.00  0.00    -0.002 A 
ATOM      7  C5  OXE d   1      -5.279  -3.280  -3.339  0.00  0.00    -0.002 A 
ATOM      8  C6  OXE d   1      -5.936  -4.107  -4.243  0.00  0.00     0.003 A 
ENDROOT
TORSDOF 0
ENDMDL
