MODEL 1
REMARK minimizedAffinity -1.7124815
REMARK minimizedRMSD -1
REMARK  0 active torsions:
REMARK  status: ('A' for Active; 'I' for Inactive)
ROOT
ATOM      1  C2' OXE d   1      -5.975  -3.044  -3.426  0.00  0.00     0.078 C 
ATOM      2  C1' OXE d   1      -3.224  -3.452  -3.047  0.00  0.00     0.078 C 
ATOM      3  C1  OXE d   1      -3.918  -4.274  -4.104  0.00  0.00    -0.078 A 
ATOM      4  C2  OXE d   1      -5.273  -4.101  -4.251  0.00  0.00    -0.078 A 
ATOM      5  C3  OXE d   1      -5.952  -4.795  -5.248  0.00  0.00     0.003 A 
ATOM      6  C4  OXE d   1      -5.298  -5.779  -6.000  0.00  0.00    -0.002 A 
ATOM      7  C5  OXE d   1      -3.926  -5.999  -5.838  0.00  0.00    -0.002 A 
ATOM      8  C6  OXE d   1      -3.214  -5.227  -4.927  0.00  0.00     0.003 A 
ENDROOT
TORSDOF 0
ENDMDL
