MODEL 1
REMARK minimizedAffinity -2.12372565
REMARK minimizedRMSD -1
REMARK  0 active torsions:
REMARK  status: ('A' for Active; 'I' for Inactive)
ROOT
ATOM      1  C2' OXE d   1      -5.292  -3.270  -4.031  0.00  0.00     0.078 C 
ATOM      2  C1' OXE d   1      -5.924  -5.178  -5.990  0.00  0.00     0.078 C 
ATOM      3  C1  OXE d   1      -4.496  -5.110  -5.509  0.00  0.00    -0.078 A 
ATOM      4  C2  OXE d   1      -4.186  -4.142  -4.584  0.00  0.00    -0.078 A 
ATOM      5  C3  OXE d   1      -2.896  -4.071  -4.066  0.00  0.00     0.003 A 
ATOM      6  C4  OXE d   1      -1.876  -4.875  -4.591  0.00  0.00    -0.002 A 
ATOM      7  C5  OXE d   1      -2.162  -5.841  -5.562  0.00  0.00    -0.002 A 
ATOM      8  C6  OXE d   1      -3.472  -6.000  -6.000  0.00  0.00     0.003 A 
ENDROOT
TORSDOF 0
ENDMDL
