MODEL 1
REMARK minimizedAffinity -3.64948893
REMARK minimizedRMSD -1
REMARK  0 active torsions:
REMARK  status: ('A' for Active; 'I' for Inactive)
ROOT
ATOM      1  C2' OXE d   1      -2.255  -4.538  -5.998  0.00  0.00     0.078 C 
ATOM      2  C1' OXE d   1      -4.120  -5.999  -4.493  0.00  0.00     0.078 C 
ATOM      3  C1  OXE d   1      -4.479  -4.586  -4.877  0.00  0.00    -0.078 A 
ATOM      4  C2  OXE d   1      -3.541  -3.862  -5.574  0.00  0.00    -0.078 A 
ATOM      5  C3  OXE d   1      -3.842  -2.572  -6.000  0.00  0.00     0.003 A 
ATOM      6  C4  OXE d   1      -5.030  -1.951  -5.594  0.00  0.00    -0.002 A 
ATOM      7  C5  OXE d   1      -5.982  -2.656  -4.851  0.00  0.00    -0.002 A 
ATOM      8  C6  OXE d   1      -5.741  -3.986  -4.521  0.00  0.00     0.003 A 
ENDROOT
TORSDOF 0
ENDMDL
