MODEL 1
REMARK minimizedAffinity -3.05366969
REMARK minimizedRMSD -1
REMARK  0 active torsions:
REMARK  status: ('A' for Active; 'I' for Inactive)
ROOT
ATOM      1  C2' OXE d   1      -5.915  -3.173  -5.064  0.00  0.00     0.078 C 
ATOM      2  C1' OXE d   1      -5.997  -5.918  -5.647  0.00  0.00     0.078 C 
ATOM      3  C1  OXE d   1      -4.643  -5.263  -5.535  0.00  0.00    -0.078 A 
ATOM      4  C2  OXE d   1      -4.614  -3.910  -5.295  0.00  0.00    -0.078 A 
ATOM      5  C3  OXE d   1      -3.391  -3.266  -5.128  0.00  0.00     0.003 A 
ATOM      6  C4  OXE d   1      -2.192  -3.952  -5.354  0.00  0.00    -0.002 A 
ATOM      7  C5  OXE d   1      -2.200  -5.322  -5.638  0.00  0.00    -0.002 A 
ATOM      8  C6  OXE d   1      -3.413  -6.000  -5.690  0.00  0.00     0.003 A 
ENDROOT
TORSDOF 0
ENDMDL
