MODEL 1
REMARK minimizedAffinity -2.96757245
REMARK minimizedRMSD -1
REMARK  0 active torsions:
REMARK  status: ('A' for Active; 'I' for Inactive)
ROOT
ATOM      1  C2' OXE d   1      -1.957  -4.194  -5.976  0.00  0.00     0.078 C 
ATOM      2  C1' OXE d   1      -3.468  -5.999  -4.447  0.00  0.00     0.078 C 
ATOM      3  C1  OXE d   1      -4.120  -4.699  -4.848  0.00  0.00    -0.078 A 
ATOM      4  C2  OXE d   1      -3.358  -3.802  -5.557  0.00  0.00    -0.078 A 
ATOM      5  C3  OXE d   1      -3.927  -2.612  -5.999  0.00  0.00     0.003 A 
ATOM      6  C4  OXE d   1      -5.220  -2.253  -5.599  0.00  0.00    -0.002 A 
ATOM      7  C5  OXE d   1      -6.000  -3.135  -4.843  0.00  0.00    -0.002 A 
ATOM      8  C6  OXE d   1      -5.481  -4.378  -4.497  0.00  0.00     0.003 A 
ENDROOT
TORSDOF 0
ENDMDL
