MODEL 1
REMARK minimizedAffinity -2.89956093
REMARK minimizedRMSD -1
REMARK  0 active torsions:
REMARK  status: ('A' for Active; 'I' for Inactive)
ROOT
ATOM      1  C2' OXE d   1      -6.000  -3.427  -3.373  0.00  0.00     0.078 C 
ATOM      2  C1' OXE d   1      -5.286  -1.897  -5.615  0.00  0.00     0.078 C 
ATOM      3  C1  OXE d   1      -4.392  -3.052  -5.238  0.00  0.00    -0.078 A 
ATOM      4  C2  OXE d   1      -4.724  -3.766  -4.112  0.00  0.00    -0.078 A 
ATOM      5  C3  OXE d   1      -3.964  -4.875  -3.751  0.00  0.00     0.003 A 
ATOM      6  C4  OXE d   1      -2.779  -5.176  -4.434  0.00  0.00    -0.002 A 
ATOM      7  C5  OXE d   1      -2.402  -4.436  -5.560  0.00  0.00    -0.002 A 
ATOM      8  C6  OXE d   1      -3.218  -3.400  -6.000  0.00  0.00     0.003 A 
ENDROOT
TORSDOF 0
ENDMDL
