MODEL 1
REMARK minimizedAffinity -4.13877869
REMARK minimizedRMSD -1
REMARK  0 active torsions:
REMARK  status: ('A' for Active; 'I' for Inactive)
ROOT
ATOM      1  C2' OXE d   1      -3.745  -2.387  -5.996  0.00  0.00     0.078 C 
ATOM      2  C1' OXE d   1      -1.889  -4.493  -6.000  0.00  0.00     0.078 C 
ATOM      3  C1  OXE d   1      -3.166  -4.683  -5.220  0.00  0.00    -0.078 A 
ATOM      4  C2  OXE d   1      -4.048  -3.629  -5.185  0.00  0.00    -0.078 A 
ATOM      5  C3  OXE d   1      -5.265  -3.771  -4.526  0.00  0.00     0.003 A 
ATOM      6  C4  OXE d   1      -5.533  -4.919  -3.771  0.00  0.00    -0.002 A 
ATOM      7  C5  OXE d   1      -4.631  -5.988  -3.760  0.00  0.00    -0.002 A 
ATOM      8  C6  OXE d   1      -3.464  -5.903  -4.512  0.00  0.00     0.003 A 
ENDROOT
TORSDOF 0
ENDMDL
