MODEL 1
REMARK minimizedAffinity -3.54661822
REMARK minimizedRMSD -1
REMARK  0 active torsions:
REMARK  status: ('A' for Active; 'I' for Inactive)
ROOT
ATOM      1  C2' OXE d   1      -5.185  -2.499  -5.408  0.00  0.00     0.078 C 
ATOM      2  C1' OXE d   1      -5.990  -4.846  -4.095  0.00  0.00     0.078 C 
ATOM      3  C1  OXE d   1      -4.626  -4.832  -4.739  0.00  0.00    -0.078 A 
ATOM      4  C2  OXE d   1      -4.259  -3.696  -5.419  0.00  0.00    -0.078 A 
ATOM      5  C3  OXE d   1      -2.990  -3.610  -5.985  0.00  0.00     0.003 A 
ATOM      6  C4  OXE d   1      -2.144  -4.726  -5.999  0.00  0.00    -0.002 A 
ATOM      7  C5  OXE d   1      -2.514  -5.906  -5.347  0.00  0.00    -0.002 A 
ATOM      8  C6  OXE d   1      -3.731  -5.962  -4.677  0.00  0.00     0.003 A 
ENDROOT
TORSDOF 0
ENDMDL
