MODEL 1
REMARK minimizedAffinity -4.03472614
REMARK minimizedRMSD -1
REMARK  0 active torsions:
REMARK  status: ('A' for Active; 'I' for Inactive)
ROOT
ATOM      1  C2' OXE d   1      -5.762  -4.500  -3.753  0.00  0.00     0.078 C 
ATOM      2  C1' OXE d   1      -4.567  -2.249  -4.932  0.00  0.00     0.078 C 
ATOM      3  C1  OXE d   1      -3.813  -3.554  -4.984  0.00  0.00    -0.078 A 
ATOM      4  C2  OXE d   1      -4.384  -4.640  -4.364  0.00  0.00    -0.078 A 
ATOM      5  C3  OXE d   1      -3.756  -5.880  -4.429  0.00  0.00     0.003 A 
ATOM      6  C4  OXE d   1      -2.477  -5.999  -4.987  0.00  0.00    -0.002 A 
ATOM      7  C5  OXE d   1      -1.860  -4.897  -5.589  0.00  0.00    -0.002 A 
ATOM      8  C6  OXE d   1      -2.531  -3.680  -5.633  0.00  0.00     0.003 A 
ENDROOT
TORSDOF 0
ENDMDL
