MODEL 1
REMARK minimizedAffinity 8.54674339
REMARK minimizedRMSD -1
REMARK  0 active torsions:
REMARK  status: ('A' for Active; 'I' for Inactive)
ROOT
ATOM      1  C2' OXE d   1       2.155  -2.122  -0.570  0.00  0.00     0.078 C 
ATOM      2  C1' OXE d   1       1.920  -1.682   2.193  0.00  0.00     0.078 C 
ATOM      3  C1  OXE d   1       2.021  -0.475   1.294  0.00  0.00    -0.078 A 
ATOM      4  C2  OXE d   1       2.182  -0.701  -0.052  0.00  0.00    -0.078 A 
ATOM      5  C3  OXE d   1       2.225   0.378  -0.931  0.00  0.00     0.003 A 
ATOM      6  C4  OXE d   1       2.260   1.689  -0.443  0.00  0.00    -0.002 A 
ATOM      7  C5  OXE d   1       2.137   1.940   0.928  0.00  0.00    -0.002 A 
ATOM      8  C6  OXE d   1       1.974   0.873   1.804  0.00  0.00     0.003 A 
ENDROOT
TORSDOF 0
ENDMDL
