MODEL 1
REMARK minimizedAffinity 10.7976933
REMARK minimizedRMSD -1
REMARK  0 active torsions:
REMARK  status: ('A' for Active; 'I' for Inactive)
ROOT
ATOM      1  C2' OXE d   1      -5.884   5.684   5.987  0.00  0.00     0.078 C 
ATOM      2  C1' OXE d   1      -5.998   2.879   5.999  0.00  0.00     0.078 C 
ATOM      3  C1  OXE d   1      -5.808   3.570   4.672  0.00  0.00    -0.078 A 
ATOM      4  C2  OXE d   1      -5.800   4.944   4.669  0.00  0.00    -0.078 A 
ATOM      5  C3  OXE d   1      -5.574   5.630   3.480  0.00  0.00     0.003 A 
ATOM      6  C4  OXE d   1      -5.508   4.938   2.264  0.00  0.00    -0.002 A 
ATOM      7  C5  OXE d   1      -5.553   3.540   2.239  0.00  0.00    -0.002 A 
ATOM      8  C6  OXE d   1      -5.660   2.841   3.436  0.00  0.00     0.003 A 
ENDROOT
TORSDOF 0
ENDMDL
