MODEL 1
REMARK minimizedAffinity 1.53922713
REMARK minimizedRMSD -1
REMARK  0 active torsions:
REMARK  status: ('A' for Active; 'I' for Inactive)
ROOT
ATOM      1  C2' OXE d   1       3.572   3.781   2.431  0.00  0.00     0.078 C 
ATOM      2  C1' OXE d   1       5.249   6.000   2.050  0.00  0.00     0.078 C 
ATOM      3  C1  OXE d   1       5.121   5.447   3.447  0.00  0.00    -0.078 A 
ATOM      4  C2  OXE d   1       4.262   4.390   3.633  0.00  0.00    -0.078 A 
ATOM      5  C3  OXE d   1       4.148   3.807   4.891  0.00  0.00     0.003 A 
ATOM      6  C4  OXE d   1       4.782   4.382   5.999  0.00  0.00    -0.002 A 
ATOM      7  C5  OXE d   1       5.630   5.483   5.839  0.00  0.00    -0.002 A 
ATOM      8  C6  OXE d   1       5.844   6.000   4.566  0.00  0.00     0.003 A 
ENDROOT
TORSDOF 0
ENDMDL
