MODEL 1
REMARK minimizedAffinity 8.7661829
REMARK minimizedRMSD -1
REMARK  0 active torsions:
REMARK  status: ('A' for Active; 'I' for Inactive)
ROOT
ATOM      1  C2' OXE d   1      -1.468  -3.970  -1.603  0.00  0.00     0.078 C 
ATOM      2  C1' OXE d   1       0.126  -2.190  -3.076  0.00  0.00     0.078 C 
ATOM      3  C1  OXE d   1       0.572  -2.543  -1.679  0.00  0.00    -0.078 A 
ATOM      4  C2  OXE d   1      -0.239  -3.378  -0.948  0.00  0.00    -0.078 A 
ATOM      5  C3  OXE d   1       0.153  -3.779   0.326  0.00  0.00     0.003 A 
ATOM      6  C4  OXE d   1       1.287  -3.218   0.928  0.00  0.00    -0.002 A 
ATOM      7  C5  OXE d   1       2.105  -2.335   0.216  0.00  0.00    -0.002 A 
ATOM      8  C6  OXE d   1       1.786  -2.021  -1.100  0.00  0.00     0.003 A 
ENDROOT
TORSDOF 0
ENDMDL
