MODEL 1
REMARK minimizedAffinity 10.3483639
REMARK minimizedRMSD -1
REMARK  0 active torsions:
REMARK  status: ('A' for Active; 'I' for Inactive)
ROOT
ATOM      1  C2' OXE d   1       2.934  -1.115  -0.342  0.00  0.00     0.078 C 
ATOM      2  C1' OXE d   1       1.567   1.021   0.862  0.00  0.00     0.078 C 
ATOM      3  C1  OXE d   1       3.012   1.234   0.483  0.00  0.00    -0.078 A 
ATOM      4  C2  OXE d   1       3.686   0.168  -0.063  0.00  0.00    -0.078 A 
ATOM      5  C3  OXE d   1       5.004   0.327  -0.480  0.00  0.00     0.003 A 
ATOM      6  C4  OXE d   1       5.695   1.514  -0.209  0.00  0.00    -0.002 A 
ATOM      7  C5  OXE d   1       5.039   2.599   0.383  0.00  0.00    -0.002 A 
ATOM      8  C6  OXE d   1       3.688   2.489   0.695  0.00  0.00     0.003 A 
ENDROOT
TORSDOF 0
ENDMDL
