MODEL 1
REMARK minimizedAffinity 3.50792885
REMARK minimizedRMSD -1
REMARK  0 active torsions:
REMARK  status: ('A' for Active; 'I' for Inactive)
ROOT
ATOM      1  C2' OXE d   1      -4.407   3.365   2.557  0.00  0.00     0.078 C 
ATOM      2  C1' OXE d   1      -2.420   5.226   3.242  0.00  0.00     0.078 C 
ATOM      3  C1  OXE d   1      -3.651   5.159   4.111  0.00  0.00    -0.078 A 
ATOM      4  C2  OXE d   1      -4.639   4.278   3.741  0.00  0.00    -0.078 A 
ATOM      5  C3  OXE d   1      -5.771   4.138   4.538  0.00  0.00     0.003 A 
ATOM      6  C4  OXE d   1      -5.983   4.994   5.626  0.00  0.00    -0.002 A 
ATOM      7  C5  OXE d   1      -5.007   5.925   5.997  0.00  0.00    -0.002 A 
ATOM      8  C6  OXE d   1      -3.819   5.991   5.276  0.00  0.00     0.003 A 
ENDROOT
TORSDOF 0
ENDMDL
