MODEL 1
REMARK minimizedAffinity 8.92682838
REMARK minimizedRMSD -1
REMARK  0 active torsions:
REMARK  status: ('A' for Active; 'I' for Inactive)
ROOT
ATOM      1  C2' OXE d   1       2.868  -1.619  -0.315  0.00  0.00     0.078 C 
ATOM      2  C1' OXE d   1       1.483   0.796   0.041  0.00  0.00     0.078 C 
ATOM      3  C1  OXE d   1       2.990   0.844   0.034  0.00  0.00    -0.078 A 
ATOM      4  C2  OXE d   1       3.660  -0.349  -0.093  0.00  0.00    -0.078 A 
ATOM      5  C3  OXE d   1       5.050  -0.355  -0.161  0.00  0.00     0.003 A 
ATOM      6  C4  OXE d   1       5.775   0.823   0.055  0.00  0.00    -0.002 A 
ATOM      7  C5  OXE d   1       5.113   2.043   0.227  0.00  0.00    -0.002 A 
ATOM      8  C6  OXE d   1       3.724   2.077   0.177  0.00  0.00     0.003 A 
ENDROOT
TORSDOF 0
ENDMDL
