MODEL 1
REMARK minimizedAffinity 14.1364603
REMARK minimizedRMSD -1
REMARK  0 active torsions:
REMARK  status: ('A' for Active; 'I' for Inactive)
ROOT
ATOM      1  C2' OXE d   1      -2.824   5.232   2.809  0.00  0.00     0.078 C 
ATOM      2  C1' OXE d   1      -4.623   3.081   2.683  0.00  0.00     0.078 C 
ATOM      3  C1  OXE d   1      -4.744   4.032   3.848  0.00  0.00    -0.078 A 
ATOM      4  C2  OXE d   1      -3.830   5.055   3.926  0.00  0.00    -0.078 A 
ATOM      5  C3  OXE d   1      -3.931   5.993   4.949  0.00  0.00     0.003 A 
ATOM      6  C4  OXE d   1      -4.858   5.816   5.984  0.00  0.00    -0.002 A 
ATOM      7  C5  OXE d   1      -5.772   4.759   5.945  0.00  0.00    -0.002 A 
ATOM      8  C6  OXE d   1      -5.757   3.884   4.864  0.00  0.00     0.003 A 
ENDROOT
TORSDOF 0
ENDMDL
