MODEL 1
REMARK minimizedAffinity -2.97939992
REMARK minimizedRMSD -1
REMARK  0 active torsions:
REMARK  status: ('A' for Active; 'I' for Inactive)
ROOT
ATOM      1  C   UNL d   1       5.013  -5.049  -4.663  0.00  0.00     0.023 A 
ATOM      2  C1  UNL d   1       4.070  -4.595  -5.584  0.00  0.00     0.003 A 
ATOM      3  C2  UNL d   1       4.058  -3.253  -5.969  0.00  0.00     0.048 A 
ATOM      4  C3  UNL d   1       4.992  -2.370  -5.429  0.00  0.00     0.023 A 
ATOM      5  C4  UNL d   1       5.939  -2.821  -4.507  0.00  0.00     0.048 A 
ATOM      6  C5  UNL d   1       5.946  -4.163  -4.124  0.00  0.00     0.003 A 
ATOM      7  I   UNL d   1       4.977  -0.372  -6.000  0.00  0.00    -0.146 I 
ENDROOT
TORSDOF 0
ENDMDL
