MODEL 1
REMARK minimizedAffinity -3.13916564
REMARK minimizedRMSD -1
REMARK  0 active torsions:
REMARK  status: ('A' for Active; 'I' for Inactive)
ROOT
ATOM      1  C   UNL d   1       4.479  -6.000  -4.629  0.00  0.00     0.023 A 
ATOM      2  C1  UNL d   1       5.549  -5.423  -3.943  0.00  0.00     0.003 A 
ATOM      3  C2  UNL d   1       5.985  -4.141  -4.280  0.00  0.00     0.048 A 
ATOM      4  C3  UNL d   1       5.348  -3.440  -5.303  0.00  0.00     0.023 A 
ATOM      5  C4  UNL d   1       4.277  -4.012  -5.991  0.00  0.00     0.048 A 
ATOM      6  C5  UNL d   1       3.844  -5.295  -5.651  0.00  0.00     0.003 A 
ATOM      7  I   UNL d   1       5.996  -1.530  -5.806  0.00  0.00    -0.146 I 
ENDROOT
TORSDOF 0
ENDMDL
