MODEL 1
REMARK minimizedAffinity -2.94403577
REMARK minimizedRMSD -1
REMARK  0 active torsions:
REMARK  status: ('A' for Active; 'I' for Inactive)
ROOT
ATOM      1  C   UNL d   1       4.094  -5.995  -3.883  0.00  0.00     0.023 A 
ATOM      2  C1  UNL d   1       5.440  -5.723  -3.636  0.00  0.00     0.003 A 
ATOM      3  C2  UNL d   1       5.989  -4.499  -4.025  0.00  0.00     0.048 A 
ATOM      4  C3  UNL d   1       5.186  -3.552  -4.660  0.00  0.00     0.023 A 
ATOM      5  C4  UNL d   1       3.838  -3.820  -4.908  0.00  0.00     0.048 A 
ATOM      6  C5  UNL d   1       3.295  -5.045  -4.518  0.00  0.00     0.003 A 
ATOM      7  I   UNL d   1       6.000  -1.729  -5.239  0.00  0.00    -0.146 I 
ENDROOT
TORSDOF 0
ENDMDL
