MODEL 1
REMARK minimizedAffinity -3.48756051
REMARK minimizedRMSD -1
REMARK  0 active torsions:
REMARK  status: ('A' for Active; 'I' for Inactive)
ROOT
ATOM      1  C   UNL d   1       4.828  -0.876  -5.871  0.00  0.00     0.023 A 
ATOM      2  C1  UNL d   1       6.000  -1.622  -5.999  0.00  0.00     0.003 A 
ATOM      3  C2  UNL d   1       5.994  -2.988  -5.713  0.00  0.00     0.048 A 
ATOM      4  C3  UNL d   1       4.812  -3.603  -5.301  0.00  0.00     0.023 A 
ATOM      5  C4  UNL d   1       3.637  -2.861  -5.173  0.00  0.00     0.048 A 
ATOM      6  C5  UNL d   1       3.648  -1.495  -5.459  0.00  0.00     0.003 A 
ATOM      7  I   UNL d   1       4.800  -5.638  -4.875  0.00  0.00    -0.146 I 
ENDROOT
TORSDOF 0
ENDMDL
