MODEL 1
REMARK minimizedAffinity -1.41024017
REMARK minimizedRMSD -1
REMARK  0 active torsions:
REMARK  status: ('A' for Active; 'I' for Inactive)
ROOT
ATOM      1  C   UNL d   1       5.323  -1.396  -4.443  0.00  0.00     0.023 A 
ATOM      2  C1  UNL d   1       6.000  -2.421  -3.781  0.00  0.00     0.003 A 
ATOM      3  C2  UNL d   1       5.879  -3.739  -4.226  0.00  0.00     0.048 A 
ATOM      4  C3  UNL d   1       5.082  -4.025  -5.334  0.00  0.00     0.023 A 
ATOM      5  C4  UNL d   1       4.405  -3.002  -6.000  0.00  0.00     0.048 A 
ATOM      6  C5  UNL d   1       4.527  -1.686  -5.551  0.00  0.00     0.003 A 
ATOM      7  I   UNL d   1       4.902  -5.986  -5.998  0.00  0.00    -0.146 I 
ENDROOT
TORSDOF 0
ENDMDL
