MODEL 1
REMARK minimizedAffinity 4.12896061
REMARK minimizedRMSD -1
REMARK  1 active torsions:
REMARK  status: ('A' for Active; 'I' for Inactive)
REMARK    1  A    between atoms: C3_4  and  O_7 
ROOT
ATOM      1  C   UNL d   1      -1.921   5.086   4.903  0.00  0.00    -0.033 A 
ATOM      2  C1  UNL d   1      -2.518   5.713   5.998  0.00  0.00     0.039 A 
ATOM      3  C2  UNL d   1      -3.884   6.000   5.982  0.00  0.00    -0.080 A 
ATOM      4  C3  UNL d   1      -4.641   5.655   4.865  0.00  0.00     0.150 A 
ATOM      5  C4  UNL d   1      -4.054   5.028   3.772  0.00  0.00    -0.007 A 
ATOM      6  C5  UNL d   1      -2.689   4.743   3.790  0.00  0.00     0.039 A 
ENDROOT
BRANCH   4   7
ATOM      7  O   UNL d   1      -5.977   5.920   4.801  0.00  0.00    -0.526 OA
ATOM      8  H5  UNL d   1      -6.239   6.381   5.615  0.00  0.00     0.418 HD
ENDBRANCH   4   7
TORSDOF 1
ENDMDL
