MODEL 1
REMARK minimizedAffinity 5.5509758
REMARK minimizedRMSD -1
REMARK  1 active torsions:
REMARK  status: ('A' for Active; 'I' for Inactive)
REMARK    1  A    between atoms: C3_4  and  O_7 
ROOT
ATOM      1  C   UNL d   1       5.047   5.399   0.355  0.00  0.00    -0.033 A 
ATOM      2  C1  UNL d   1       4.093   4.538   0.900  0.00  0.00     0.039 A 
ATOM      3  C2  UNL d   1       4.092   4.272   2.270  0.00  0.00    -0.080 A 
ATOM      4  C3  UNL d   1       5.048   4.873   3.084  0.00  0.00     0.150 A 
ATOM      5  C4  UNL d   1       5.999   5.735   2.549  0.00  0.00    -0.007 A 
ATOM      6  C5  UNL d   1       5.999   5.999   1.180  0.00  0.00     0.039 A 
ENDROOT
BRANCH   4   7
ATOM      7  O   UNL d   1       5.090   4.640   4.427  0.00  0.00    -0.526 OA
ATOM      8  H5  UNL d   1       4.391   4.002   4.650  0.00  0.00     0.418 HD
ENDBRANCH   4   7
TORSDOF 1
ENDMDL
