MODEL 1
REMARK minimizedAffinity 9.35293198
REMARK minimizedRMSD -1
REMARK  1 active torsions:
REMARK  status: ('A' for Active; 'I' for Inactive)
REMARK    1  A    between atoms: C3_4  and  O_7 
ROOT
ATOM      1  C   UNL d   1      -2.594  -1.548   0.051  0.00  0.00    -0.033 A 
ATOM      2  C1  UNL d   1      -3.111  -1.868   1.308  0.00  0.00     0.039 A 
ATOM      3  C2  UNL d   1      -3.000  -0.960   2.363  0.00  0.00    -0.080 A 
ATOM      4  C3  UNL d   1      -2.371   0.263   2.148  0.00  0.00     0.150 A 
ATOM      5  C4  UNL d   1      -1.857   0.590   0.897  0.00  0.00    -0.007 A 
ATOM      6  C5  UNL d   1      -1.968  -0.318  -0.154  0.00  0.00     0.039 A 
ENDROOT
BRANCH   4   7
ATOM      7  O   UNL d   1      -2.234   1.179   3.148  0.00  0.00    -0.526 OA
ATOM      8  H5  UNL d   1      -2.611   0.805   3.962  0.00  0.00     0.418 HD
ENDBRANCH   4   7
TORSDOF 1
ENDMDL
