MODEL 1
REMARK minimizedAffinity 4.1824441
REMARK minimizedRMSD -1
REMARK  1 active torsions:
REMARK  status: ('A' for Active; 'I' for Inactive)
REMARK    1  A    between atoms: C3_4  and  O_7 
ROOT
ATOM      1  C   UNL d   1      -1.642   5.338   5.828  0.00  0.00    -0.033 A 
ATOM      2  C1  UNL d   1      -1.496   4.386   4.818  0.00  0.00     0.039 A 
ATOM      3  C2  UNL d   1      -2.569   4.091   3.975  0.00  0.00    -0.080 A 
ATOM      4  C3  UNL d   1      -3.780   4.754   4.151  0.00  0.00     0.150 A 
ATOM      5  C4  UNL d   1      -3.931   5.707   5.154  0.00  0.00    -0.007 A 
ATOM      6  C5  UNL d   1      -2.859   6.000   5.995  0.00  0.00     0.039 A 
ENDROOT
BRANCH   4   7
ATOM      7  O   UNL d   1      -4.857   4.496   3.356  0.00  0.00    -0.526 OA
ATOM      8  H5  UNL d   1      -4.614   3.796   2.727  0.00  0.00     0.418 HD
ENDBRANCH   4   7
TORSDOF 1
ENDMDL
