MODEL 1
REMARK minimizedAffinity -1.87202299
REMARK minimizedRMSD -1
REMARK  1 active torsions:
REMARK  status: ('A' for Active; 'I' for Inactive)
REMARK    1  A    between atoms: C3_4  and  O_7 
ROOT
ATOM      1  C   UNL d   1      -4.715   5.094   1.530  0.00  0.00    -0.033 A 
ATOM      2  C1  UNL d   1      -3.386   4.666   1.553  0.00  0.00     0.039 A 
ATOM      3  C2  UNL d   1      -2.645   4.747   2.734  0.00  0.00    -0.080 A 
ATOM      4  C3  UNL d   1      -3.244   5.257   3.883  0.00  0.00     0.150 A 
ATOM      5  C4  UNL d   1      -4.568   5.682   3.868  0.00  0.00    -0.007 A 
ATOM      6  C5  UNL d   1      -5.306   5.601   2.688  0.00  0.00     0.039 A 
ENDROOT
BRANCH   4   7
ATOM      7  O   UNL d   1      -2.559   5.360   5.057  0.00  0.00    -0.526 OA
ATOM      8  H5  UNL d   1      -1.648   5.056   4.910  0.00  0.00     0.418 HD
ENDBRANCH   4   7
TORSDOF 1
ENDMDL
