MODEL 1
REMARK minimizedAffinity -1.18198323
REMARK minimizedRMSD -1
REMARK  1 active torsions:
REMARK  status: ('A' for Active; 'I' for Inactive)
REMARK    1  A    between atoms: C3_4  and  O_7 
ROOT
ATOM      1  C   UNL d   1       5.204  -5.772   5.835  0.00  0.00    -0.033 A 
ATOM      2  C1  UNL d   1       3.814  -5.714   5.715  0.00  0.00     0.039 A 
ATOM      3  C2  UNL d   1       3.217  -5.791   4.455  0.00  0.00    -0.080 A 
ATOM      4  C3  UNL d   1       4.020  -5.926   3.325  0.00  0.00     0.150 A 
ATOM      5  C4  UNL d   1       5.405  -5.988   3.438  0.00  0.00    -0.007 A 
ATOM      6  C5  UNL d   1       5.999  -5.911   4.697  0.00  0.00     0.039 A 
ENDROOT
BRANCH   4   7
ATOM      7  O   UNL d   1       3.483  -6.000   2.074  0.00  0.00    -0.526 OA
ATOM      8  H5  UNL d   1       2.518  -5.915   2.148  0.00  0.00     0.418 HD
ENDBRANCH   4   7
TORSDOF 1
ENDMDL
