MODEL 1
REMARK minimizedAffinity 9.89124298
REMARK minimizedRMSD -1
REMARK  1 active torsions:
REMARK  status: ('A' for Active; 'I' for Inactive)
REMARK    1  A    between atoms: C3_4  and  O_7 
ROOT
ATOM      1  C   UNL d   1       5.702  -5.990   5.433  0.00  0.00    -0.033 A 
ATOM      2  C1  UNL d   1       4.372  -5.983   5.859  0.00  0.00     0.039 A 
ATOM      3  C2  UNL d   1       3.337  -5.981   4.922  0.00  0.00    -0.080 A 
ATOM      4  C3  UNL d   1       3.645  -5.987   3.564  0.00  0.00     0.150 A 
ATOM      5  C4  UNL d   1       4.967  -5.998   3.133  0.00  0.00    -0.007 A 
ATOM      6  C5  UNL d   1       6.000  -5.999   4.070  0.00  0.00     0.039 A 
ENDROOT
BRANCH   4   7
ATOM      7  O   UNL d   1       2.669  -5.981   2.612  0.00  0.00    -0.526 OA
ATOM      8  H5  UNL d   1       1.806  -5.944   3.057  0.00  0.00     0.418 HD
ENDBRANCH   4   7
TORSDOF 1
ENDMDL
