MODEL 1
REMARK minimizedAffinity 6.07199764
REMARK minimizedRMSD -1
REMARK  1 active torsions:
REMARK  status: ('A' for Active; 'I' for Inactive)
REMARK    1  A    between atoms: C3_4  and  O_7 
ROOT
ATOM      1  C   UNL d   1       4.877  -5.997   5.685  0.00  0.00    -0.033 A 
ATOM      2  C1  UNL d   1       3.759  -5.397   5.102  0.00  0.00     0.039 A 
ATOM      3  C2  UNL d   1       3.759  -4.027   4.835  0.00  0.00    -0.080 A 
ATOM      4  C3  UNL d   1       4.881  -3.268   5.155  0.00  0.00     0.150 A 
ATOM      5  C4  UNL d   1       6.000  -3.860   5.733  0.00  0.00    -0.007 A 
ATOM      6  C5  UNL d   1       5.998  -5.228   6.000  0.00  0.00     0.039 A 
ENDROOT
BRANCH   4   7
ATOM      7  O   UNL d   1       4.926  -1.927   4.918  0.00  0.00    -0.526 OA
ATOM      8  H5  UNL d   1       4.073  -1.652   4.543  0.00  0.00     0.418 HD
ENDBRANCH   4   7
TORSDOF 1
ENDMDL
