MODEL 1
REMARK minimizedAffinity 1.35809517
REMARK minimizedRMSD -1
REMARK  1 active torsions:
REMARK  status: ('A' for Active; 'I' for Inactive)
REMARK    1  A    between atoms: C3_4  and  O_7 
ROOT
ATOM      1  C   UNL d   1      -2.724   5.225   5.254  0.00  0.00    -0.033 A 
ATOM      2  C1  UNL d   1      -3.876   5.999   5.403  0.00  0.00     0.039 A 
ATOM      3  C2  UNL d   1      -4.854   5.999   4.406  0.00  0.00    -0.080 A 
ATOM      4  C3  UNL d   1      -4.667   5.221   3.266  0.00  0.00     0.150 A 
ATOM      5  C4  UNL d   1      -3.523   4.445   3.113  0.00  0.00    -0.007 A 
ATOM      6  C5  UNL d   1      -2.548   4.447   4.109  0.00  0.00     0.039 A 
ENDROOT
BRANCH   4   7
ATOM      7  O   UNL d   1      -5.591   5.192   2.264  0.00  0.00    -0.526 OA
ATOM      8  H5  UNL d   1      -6.314   5.799   2.495  0.00  0.00     0.418 HD
ENDBRANCH   4   7
TORSDOF 1
ENDMDL
