MODEL 1
REMARK minimizedAffinity 6.69975615
REMARK minimizedRMSD -1
REMARK  1 active torsions:
REMARK  status: ('A' for Active; 'I' for Inactive)
REMARK    1  A    between atoms: C3_4  and  O_7 
ROOT
ATOM      1  C   UNL d   1       0.706   0.060  -3.223  0.00  0.00    -0.033 A 
ATOM      2  C1  UNL d   1       1.494   0.078  -2.071  0.00  0.00     0.039 A 
ATOM      3  C2  UNL d   1       2.201   1.231  -1.725  0.00  0.00    -0.080 A 
ATOM      4  C3  UNL d   1       2.111   2.358  -2.538  0.00  0.00     0.150 A 
ATOM      5  C4  UNL d   1       1.325   2.347  -3.685  0.00  0.00    -0.007 A 
ATOM      6  C5  UNL d   1       0.620   1.195  -4.030  0.00  0.00     0.039 A 
ENDROOT
BRANCH   4   7
ATOM      7  O   UNL d   1       2.787   3.505  -2.244  0.00  0.00    -0.526 OA
ATOM      8  H5  UNL d   1       3.311   3.355  -1.439  0.00  0.00     0.418 HD
ENDBRANCH   4   7
TORSDOF 1
ENDMDL
