MODEL 1
REMARK minimizedAffinity 7.20071793
REMARK minimizedRMSD -1
REMARK  1 active torsions:
REMARK  status: ('A' for Active; 'I' for Inactive)
REMARK    1  A    between atoms: C3_4  and  O_7 
ROOT
ATOM      1  C   UNL d   1      -3.261   5.999   5.410  0.00  0.00    -0.033 A 
ATOM      2  C1  UNL d   1      -3.640   4.792   6.000  0.00  0.00     0.039 A 
ATOM      3  C2  UNL d   1      -3.352   3.582   5.365  0.00  0.00    -0.080 A 
ATOM      4  C3  UNL d   1      -2.684   3.594   4.144  0.00  0.00     0.150 A 
ATOM      5  C4  UNL d   1      -2.300   4.793   3.552  0.00  0.00    -0.007 A 
ATOM      6  C5  UNL d   1      -2.590   6.000   4.187  0.00  0.00     0.039 A 
ENDROOT
BRANCH   4   7
ATOM      7  O   UNL d   1      -2.385   2.438   3.484  0.00  0.00    -0.526 OA
ATOM      8  H5  UNL d   1      -2.736   1.691   3.997  0.00  0.00     0.418 HD
ENDBRANCH   4   7
TORSDOF 1
ENDMDL
