MODEL 1
REMARK minimizedAffinity 5.70398951
REMARK minimizedRMSD -1
REMARK  1 active torsions:
REMARK  status: ('A' for Active; 'I' for Inactive)
REMARK    1  A    between atoms: C3_4  and  O_7 
ROOT
ATOM      1  C   UNL d   1       2.032  -1.005  -1.604  0.00  0.00    -0.033 A 
ATOM      2  C1  UNL d   1       2.215   0.379  -1.637  0.00  0.00     0.039 A 
ATOM      3  C2  UNL d   1       1.923   1.096  -2.799  0.00  0.00    -0.080 A 
ATOM      4  C3  UNL d   1       1.447   0.419  -3.918  0.00  0.00     0.150 A 
ATOM      5  C4  UNL d   1       1.258  -0.959  -3.891  0.00  0.00    -0.007 A 
ATOM      6  C5  UNL d   1       1.552  -1.673  -2.731  0.00  0.00     0.039 A 
ENDROOT
BRANCH   4   7
ATOM      7  O   UNL d   1       1.152   1.075  -5.076  0.00  0.00    -0.526 OA
ATOM      8  H5  UNL d   1       1.359   2.018  -4.957  0.00  0.00     0.418 HD
ENDBRANCH   4   7
TORSDOF 1
ENDMDL
