MODEL 1
REMARK minimizedAffinity 1.86722386
REMARK minimizedRMSD -1
REMARK  1 active torsions:
REMARK  status: ('A' for Active; 'I' for Inactive)
REMARK    1  A    between atoms: C3_4  and  O_7 
ROOT
ATOM      1  C   UNL d   1      -5.353   2.682   4.273  0.00  0.00    -0.033 A 
ATOM      2  C1  UNL d   1      -5.751   1.360   4.064  0.00  0.00     0.039 A 
ATOM      3  C2  UNL d   1      -4.838   0.423   3.576  0.00  0.00    -0.080 A 
ATOM      4  C3  UNL d   1      -3.532   0.820   3.302  0.00  0.00     0.150 A 
ATOM      5  C4  UNL d   1      -3.128   2.134   3.511  0.00  0.00    -0.007 A 
ATOM      6  C5  UNL d   1      -4.041   3.069   3.998  0.00  0.00     0.039 A 
ENDROOT
BRANCH   4   7
ATOM      7  O   UNL d   1      -2.607  -0.057   2.819  0.00  0.00    -0.526 OA
ATOM      8  H5  UNL d   1      -3.036  -0.921   2.697  0.00  0.00     0.418 HD
ENDBRANCH   4   7
TORSDOF 1
ENDMDL
