MODEL 1
REMARK minimizedAffinity 3.39027929
REMARK minimizedRMSD -1
REMARK  1 active torsions:
REMARK  status: ('A' for Active; 'I' for Inactive)
REMARK    1  A    between atoms: C3_4  and  O_7 
ROOT
ATOM      1  C   UNL d   1       2.349   0.475  -1.349  0.00  0.00    -0.033 A 
ATOM      2  C1  UNL d   1       1.500   1.345  -2.037  0.00  0.00     0.039 A 
ATOM      3  C2  UNL d   1       0.953   0.965  -3.264  0.00  0.00    -0.080 A 
ATOM      4  C3  UNL d   1       1.261  -0.286  -3.791  0.00  0.00     0.150 A 
ATOM      5  C4  UNL d   1       2.102  -1.159  -3.109  0.00  0.00    -0.007 A 
ATOM      6  C5  UNL d   1       2.648  -0.778  -1.884  0.00  0.00     0.039 A 
ENDROOT
BRANCH   4   7
ATOM      7  O   UNL d   1       0.755  -0.700  -4.987  0.00  0.00    -0.526 OA
ATOM      8  H5  UNL d   1       0.214   0.018  -5.357  0.00  0.00     0.418 HD
ENDBRANCH   4   7
TORSDOF 1
ENDMDL
