MODEL 1
REMARK minimizedAffinity 6.36832714
REMARK minimizedRMSD -1
REMARK  1 active torsions:
REMARK  status: ('A' for Active; 'I' for Inactive)
REMARK    1  A    between atoms: C3_4  and  O_7 
ROOT
ATOM      1  C   UNL d   1       2.630   0.686  -1.440  0.00  0.00    -0.033 A 
ATOM      2  C1  UNL d   1       2.820   1.836  -2.209  0.00  0.00     0.039 A 
ATOM      3  C2  UNL d   1       2.025   2.065  -3.333  0.00  0.00    -0.080 A 
ATOM      4  C3  UNL d   1       1.044   1.138  -3.677  0.00  0.00     0.150 A 
ATOM      5  C4  UNL d   1       0.847  -0.007  -2.913  0.00  0.00    -0.007 A 
ATOM      6  C5  UNL d   1       1.643  -0.235  -1.791  0.00  0.00     0.039 A 
ENDROOT
BRANCH   4   7
ATOM      7  O   UNL d   1       0.246   1.316  -4.768  0.00  0.00    -0.526 OA
ATOM      8  H5  UNL d   1       0.516   2.135  -5.215  0.00  0.00     0.418 HD
ENDBRANCH   4   7
TORSDOF 1
ENDMDL
