MODEL 1
REMARK minimizedAffinity 3.06570888
REMARK minimizedRMSD -1
REMARK  1 active torsions:
REMARK  status: ('A' for Active; 'I' for Inactive)
REMARK    1  A    between atoms: C3_4  and  O_7 
ROOT
ATOM      1  C   UNL d   1       1.433   0.707  -3.329  0.00  0.00    -0.033 A 
ATOM      2  C1  UNL d   1       2.025   1.899  -3.751  0.00  0.00     0.039 A 
ATOM      3  C2  UNL d   1       2.342   2.891  -2.821  0.00  0.00    -0.080 A 
ATOM      4  C3  UNL d   1       2.062   2.678  -1.474  0.00  0.00     0.150 A 
ATOM      5  C4  UNL d   1       1.475   1.492  -1.046  0.00  0.00    -0.007 A 
ATOM      6  C5  UNL d   1       1.159   0.503  -1.976  0.00  0.00     0.039 A 
ENDROOT
BRANCH   4   7
ATOM      7  O   UNL d   1       2.348   3.619  -0.529  0.00  0.00    -0.526 OA
ATOM      8  H5  UNL d   1       2.724   4.397  -0.974  0.00  0.00     0.418 HD
ENDBRANCH   4   7
TORSDOF 1
ENDMDL
