MODEL 1
REMARK minimizedAffinity -1.87764835
REMARK minimizedRMSD -1
REMARK  0 active torsions:
REMARK  status: ('A' for Active; 'I' for Inactive)
ROOT
ATOM      1  C   UNL d   1      -0.022  -5.604  -3.453  0.00  0.00     0.077 C 
ATOM      2  C1  UNL d   1      -0.193  -4.196  -2.967  0.00  0.00    -0.074 A 
ATOM      3  C2  UNL d   1       0.259  -3.113  -3.727  0.00  0.00    -0.005 A 
ATOM      4  C3  UNL d   1       0.084  -1.808  -3.266  0.00  0.00     0.006 A 
ATOM      5  C4  UNL d   1      -0.544  -1.573  -2.042  0.00  0.00    -0.005 A 
ATOM      6  C5  UNL d   1      -1.004  -2.644  -1.269  0.00  0.00    -0.074 A 
ATOM      7  C6  UNL d   1      -1.690  -2.409   0.044  0.00  0.00     0.077 C 
ATOM      8  C7  UNL d   1      -0.830  -3.952  -1.742  0.00  0.00    -0.001 A 
ENDROOT
TORSDOF 0
ENDMDL
