MODEL 1
REMARK minimizedAffinity -0.0671363175
REMARK minimizedRMSD -1
REMARK  0 active torsions:
REMARK  status: ('A' for Active; 'I' for Inactive)
ROOT
ATOM      1  C   UNL d   1      -0.633  -2.574   0.483  0.00  0.00     0.077 C 
ATOM      2  C1  UNL d   1      -0.290  -2.406  -0.967  0.00  0.00    -0.074 A 
ATOM      3  C2  UNL d   1      -1.285  -2.439  -1.950  0.00  0.00    -0.005 A 
ATOM      4  C3  UNL d   1      -0.952  -2.271  -3.294  0.00  0.00     0.006 A 
ATOM      5  C4  UNL d   1       0.377  -2.069  -3.669  0.00  0.00    -0.005 A 
ATOM      6  C5  UNL d   1       1.385  -2.032  -2.700  0.00  0.00    -0.074 A 
ATOM      7  C6  UNL d   1       2.817  -1.807  -3.085  0.00  0.00     0.077 C 
ATOM      8  C7  UNL d   1       1.042  -2.195  -1.351  0.00  0.00    -0.001 A 
ENDROOT
TORSDOF 0
ENDMDL
