MODEL 1
REMARK minimizedAffinity -0.411808878
REMARK minimizedRMSD -1
REMARK  0 active torsions:
REMARK  status: ('A' for Active; 'I' for Inactive)
ROOT
ATOM      1  C   UNL d   1       4.502  -2.884   1.710  0.00  0.00     0.077 C 
ATOM      2  C1  UNL d   1       4.396  -2.883   3.206  0.00  0.00    -0.074 A 
ATOM      3  C2  UNL d   1       4.528  -1.697   3.935  0.00  0.00    -0.005 A 
ATOM      4  C3  UNL d   1       4.418  -1.710   5.326  0.00  0.00     0.006 A 
ATOM      5  C4  UNL d   1       4.176  -2.907   6.000  0.00  0.00    -0.005 A 
ATOM      6  C5  UNL d   1       4.040  -4.103   5.288  0.00  0.00    -0.074 A 
ATOM      7  C6  UNL d   1       3.769  -5.397   5.996  0.00  0.00     0.077 C 
ATOM      8  C7  UNL d   1       4.145  -4.080   3.890  0.00  0.00    -0.001 A 
ENDROOT
TORSDOF 0
ENDMDL
