MODEL 1
REMARK minimizedAffinity 1.2896111
REMARK minimizedRMSD -1
REMARK  0 active torsions:
REMARK  status: ('A' for Active; 'I' for Inactive)
ROOT
ATOM      1  C   UNL d   1       5.233   2.602  -4.633  0.00  0.00     0.077 C 
ATOM      2  C1  UNL d   1       4.969   3.783  -3.746  0.00  0.00    -0.074 A 
ATOM      3  C2  UNL d   1       5.997   4.363  -2.997  0.00  0.00    -0.005 A 
ATOM      4  C3  UNL d   1       5.739   5.467  -2.183  0.00  0.00     0.006 A 
ATOM      5  C4  UNL d   1       4.451   6.000  -2.111  0.00  0.00    -0.005 A 
ATOM      6  C5  UNL d   1       3.410   5.433  -2.854  0.00  0.00    -0.074 A 
ATOM      7  C6  UNL d   1       2.023   6.000  -2.795  0.00  0.00     0.077 C 
ATOM      8  C7  UNL d   1       3.680   4.329  -3.674  0.00  0.00    -0.001 A 
ENDROOT
TORSDOF 0
ENDMDL
