MODEL 1
REMARK minimizedAffinity 4.87487984
REMARK minimizedRMSD -1
REMARK  0 active torsions:
REMARK  status: ('A' for Active; 'I' for Inactive)
ROOT
ATOM      1  C   UNL d   1       5.990   4.854  -0.338  0.00  0.00     0.077 C 
ATOM      2  C1  UNL d   1       5.939   4.820  -1.836  0.00  0.00    -0.074 A 
ATOM      3  C2  UNL d   1       5.998   6.000  -2.585  0.00  0.00    -0.005 A 
ATOM      4  C3  UNL d   1       5.959   5.952  -3.978  0.00  0.00     0.006 A 
ATOM      5  C4  UNL d   1       5.861   4.725  -4.636  0.00  0.00    -0.005 A 
ATOM      6  C5  UNL d   1       5.802   3.535  -3.904  0.00  0.00    -0.074 A 
ATOM      7  C6  UNL d   1       5.706   2.207  -4.596  0.00  0.00     0.077 C 
ATOM      8  C7  UNL d   1       5.848   3.591  -2.505  0.00  0.00    -0.001 A 
ENDROOT
TORSDOF 0
ENDMDL
