MODEL 1
REMARK minimizedAffinity -0.0484372079
REMARK minimizedRMSD -1
REMARK  0 active torsions:
REMARK  status: ('A' for Active; 'I' for Inactive)
ROOT
ATOM      1  C   UNL d   1       6.000   3.521  -5.850  0.00  0.00     0.077 C 
ATOM      2  C1  UNL d   1       5.377   4.393  -4.801  0.00  0.00    -0.074 A 
ATOM      3  C2  UNL d   1       4.223   5.135  -5.074  0.00  0.00    -0.005 A 
ATOM      4  C3  UNL d   1       3.649   5.934  -4.085  0.00  0.00     0.006 A 
ATOM      5  C4  UNL d   1       4.223   6.000  -2.815  0.00  0.00    -0.005 A 
ATOM      6  C5  UNL d   1       5.376   5.265  -2.523  0.00  0.00    -0.074 A 
ATOM      7  C6  UNL d   1       6.000   5.317  -1.160  0.00  0.00     0.077 C 
ATOM      8  C7  UNL d   1       5.943   4.459  -3.520  0.00  0.00    -0.001 A 
ENDROOT
TORSDOF 0
ENDMDL
