MODEL 1
REMARK minimizedAffinity 11.5463514
REMARK minimizedRMSD -1
REMARK  0 active torsions:
REMARK  status: ('A' for Active; 'I' for Inactive)
ROOT
ATOM      1  C   UNL d   1       1.795   5.686  -3.285  0.00  0.00     0.077 C 
ATOM      2  C1  UNL d   1       3.263   5.385  -3.347  0.00  0.00    -0.074 A 
ATOM      3  C2  UNL d   1       4.076   5.534  -2.218  0.00  0.00    -0.005 A 
ATOM      4  C3  UNL d   1       5.438   5.241  -2.289  0.00  0.00     0.006 A 
ATOM      5  C4  UNL d   1       6.000   4.796  -3.486  0.00  0.00    -0.005 A 
ATOM      6  C5  UNL d   1       5.203   4.640  -4.624  0.00  0.00    -0.074 A 
ATOM      7  C6  UNL d   1       5.789   4.153  -5.916  0.00  0.00     0.077 C 
ATOM      8  C7  UNL d   1       3.834   4.929  -4.544  0.00  0.00    -0.001 A 
ENDROOT
TORSDOF 0
ENDMDL
