MODEL 1
REMARK minimizedAffinity 7.38111782
REMARK minimizedRMSD -1
REMARK  0 active torsions:
REMARK  status: ('A' for Active; 'I' for Inactive)
ROOT
ATOM      1  C   UNL d   1       1.951   5.880  -3.800  0.00  0.00     0.077 C 
ATOM      2  C1  UNL d   1       3.359   5.454  -3.503  0.00  0.00    -0.074 A 
ATOM      3  C2  UNL d   1       4.064   4.636  -4.391  0.00  0.00    -0.005 A 
ATOM      4  C3  UNL d   1       5.376   4.257  -4.106  0.00  0.00     0.006 A 
ATOM      5  C4  UNL d   1       5.994   4.691  -2.933  0.00  0.00    -0.005 A 
ATOM      6  C5  UNL d   1       5.305   5.510  -2.034  0.00  0.00    -0.074 A 
ATOM      7  C6  UNL d   1       5.958   5.994  -0.773  0.00  0.00     0.077 C 
ATOM      8  C7  UNL d   1       3.989   5.893  -2.330  0.00  0.00    -0.001 A 
ENDROOT
TORSDOF 0
ENDMDL
