MODEL 1
REMARK minimizedAffinity 0.0708974227
REMARK minimizedRMSD -1
REMARK  0 active torsions:
REMARK  status: ('A' for Active; 'I' for Inactive)
ROOT
ATOM      1  C   UNL d   1       5.455   5.999  -1.050  0.00  0.00     0.077 C 
ATOM      2  C1  UNL d   1       5.458   5.297  -2.375  0.00  0.00    -0.074 A 
ATOM      3  C2  UNL d   1       6.000   4.015  -2.509  0.00  0.00    -0.005 A 
ATOM      4  C3  UNL d   1       5.986   3.371  -3.746  0.00  0.00     0.006 A 
ATOM      5  C4  UNL d   1       5.431   4.002  -4.860  0.00  0.00    -0.005 A 
ATOM      6  C5  UNL d   1       4.884   5.284  -4.746  0.00  0.00    -0.074 A 
ATOM      7  C6  UNL d   1       4.274   5.972  -5.931  0.00  0.00     0.077 C 
ATOM      8  C7  UNL d   1       4.895   5.921  -3.497  0.00  0.00    -0.001 A 
ENDROOT
TORSDOF 0
ENDMDL
