MODEL 1
REMARK minimizedAffinity 3.48316216
REMARK minimizedRMSD -1
REMARK  0 active torsions:
REMARK  status: ('A' for Active; 'I' for Inactive)
ROOT
ATOM      1  C   UNL d   1      -1.308  -3.063   2.730  0.00  0.00     0.077 C 
ATOM      2  C1  UNL d   1      -1.714  -2.817   1.307  0.00  0.00    -0.074 A 
ATOM      3  C2  UNL d   1      -3.043  -2.970   0.902  0.00  0.00    -0.005 A 
ATOM      4  C3  UNL d   1      -3.407  -2.728  -0.423  0.00  0.00     0.006 A 
ATOM      5  C4  UNL d   1      -2.447  -2.331  -1.354  0.00  0.00    -0.005 A 
ATOM      6  C5  UNL d   1      -1.112  -2.172  -0.967  0.00  0.00    -0.074 A 
ATOM      7  C6  UNL d   1      -0.069  -1.737  -1.953  0.00  0.00     0.077 C 
ATOM      8  C7  UNL d   1      -0.756  -2.410   0.367  0.00  0.00    -0.001 A 
ENDROOT
TORSDOF 0
ENDMDL
