MODEL 1
REMARK minimizedAffinity 3.05113602
REMARK minimizedRMSD -1
REMARK  0 active torsions:
REMARK  status: ('A' for Active; 'I' for Inactive)
ROOT
ATOM      1  C   UNL d   1      -0.002  -5.666  -3.742  0.00  0.00     0.077 C 
ATOM      2  C1  UNL d   1       0.073  -4.325  -3.075  0.00  0.00    -0.074 A 
ATOM      3  C2  UNL d   1       0.516  -3.198  -3.774  0.00  0.00    -0.005 A 
ATOM      4  C3  UNL d   1       0.572  -1.956  -3.142  0.00  0.00     0.006 A 
ATOM      5  C4  UNL d   1       0.185  -1.828  -1.808  0.00  0.00    -0.005 A 
ATOM      6  C5  UNL d   1      -0.262  -2.944  -1.093  0.00  0.00    -0.074 A 
ATOM      7  C6  UNL d   1      -0.691  -2.822   0.339  0.00  0.00     0.077 C 
ATOM      8  C7  UNL d   1      -0.322  -4.187  -1.736  0.00  0.00    -0.001 A 
ENDROOT
TORSDOF 0
ENDMDL
