MODEL 1
REMARK minimizedAffinity 4.29777098
REMARK minimizedRMSD -1
REMARK  0 active torsions:
REMARK  status: ('A' for Active; 'I' for Inactive)
ROOT
ATOM      1  C   UNL d   1      -3.281  -2.667  -0.774  0.00  0.00     0.077 C 
ATOM      2  C1  UNL d   1      -1.868  -2.228  -1.022  0.00  0.00    -0.074 A 
ATOM      3  C2  UNL d   1      -1.146  -1.540  -0.041  0.00  0.00    -0.005 A 
ATOM      4  C3  UNL d   1       0.170  -1.146  -0.283  0.00  0.00     0.006 A 
ATOM      5  C4  UNL d   1       0.776  -1.436  -1.506  0.00  0.00    -0.005 A 
ATOM      6  C5  UNL d   1       0.071  -2.124  -2.498  0.00  0.00    -0.074 A 
ATOM      7  C6  UNL d   1       0.711  -2.452  -3.814  0.00  0.00     0.077 C 
ATOM      8  C7  UNL d   1      -1.249  -2.522  -2.245  0.00  0.00    -0.001 A 
ENDROOT
TORSDOF 0
ENDMDL
