MODEL 1
REMARK minimizedAffinity -2.15012884
REMARK minimizedRMSD -1
REMARK  0 active torsions:
REMARK  status: ('A' for Active; 'I' for Inactive)
ROOT
ATOM      1  C   UNL d   1       0.398  -5.264  -3.340  0.00  0.00     0.077 C 
ATOM      2  C1  UNL d   1       0.115  -3.993  -2.596  0.00  0.00    -0.074 A 
ATOM      3  C2  UNL d   1       0.455  -2.750  -3.141  0.00  0.00    -0.005 A 
ATOM      4  C3  UNL d   1       0.178  -1.576  -2.442  0.00  0.00     0.006 A 
ATOM      5  C4  UNL d   1      -0.442  -1.631  -1.193  0.00  0.00    -0.005 A 
ATOM      6  C5  UNL d   1      -0.790  -2.864  -0.632  0.00  0.00    -0.074 A 
ATOM      7  C6  UNL d   1      -1.465  -2.942   0.705  0.00  0.00     0.077 C 
ATOM      8  C7  UNL d   1      -0.514  -4.040  -1.344  0.00  0.00    -0.001 A 
ENDROOT
TORSDOF 0
ENDMDL
