MODEL 1
REMARK minimizedAffinity 5.46684837
REMARK minimizedRMSD -1
REMARK  0 active torsions:
REMARK  status: ('A' for Active; 'I' for Inactive)
ROOT
ATOM      1  C   UNL d   1       0.677  -1.375  -1.998  0.00  0.00     0.077 C 
ATOM      2  C1  UNL d   1      -0.419  -1.879  -1.107  0.00  0.00    -0.074 A 
ATOM      3  C2  UNL d   1      -1.437  -2.696  -1.611  0.00  0.00    -0.005 A 
ATOM      4  C3  UNL d   1      -2.445  -3.164  -0.768  0.00  0.00     0.006 A 
ATOM      5  C4  UNL d   1      -2.445  -2.822   0.585  0.00  0.00    -0.005 A 
ATOM      6  C5  UNL d   1      -1.435  -2.007   1.107  0.00  0.00    -0.074 A 
ATOM      7  C6  UNL d   1      -1.414  -1.638   2.560  0.00  0.00     0.077 C 
ATOM      8  C7  UNL d   1      -0.422  -1.546   0.255  0.00  0.00    -0.001 A 
ENDROOT
TORSDOF 0
ENDMDL
