MODEL 1
REMARK minimizedAffinity 7.19561815
REMARK minimizedRMSD -1
REMARK  0 active torsions:
REMARK  status: ('A' for Active; 'I' for Inactive)
ROOT
ATOM      1  C   UNL d   1      -1.291  -2.282   1.866  0.00  0.00     0.077 C 
ATOM      2  C1  UNL d   1      -1.194  -2.629   0.410  0.00  0.00    -0.074 A 
ATOM      3  C2  UNL d   1      -2.055  -3.570  -0.164  0.00  0.00    -0.005 A 
ATOM      4  C3  UNL d   1      -1.959  -3.875  -1.522  0.00  0.00     0.006 A 
ATOM      5  C4  UNL d   1      -1.002  -3.244  -2.318  0.00  0.00    -0.005 A 
ATOM      6  C5  UNL d   1      -0.133  -2.300  -1.762  0.00  0.00    -0.074 A 
ATOM      7  C6  UNL d   1       0.894  -1.604  -2.606  0.00  0.00     0.077 C 
ATOM      8  C7  UNL d   1      -0.241  -1.993  -0.398  0.00  0.00    -0.001 A 
ENDROOT
TORSDOF 0
ENDMDL
