MODEL 1
REMARK minimizedAffinity -0.302481979
REMARK minimizedRMSD -1
REMARK  0 active torsions:
REMARK  status: ('A' for Active; 'I' for Inactive)
ROOT
ATOM      1  C1  DEN d   1      -1.744  -2.046  -5.037  0.00  0.00     0.130 A 
ATOM      2  C2  DEN d   1      -2.005  -0.775  -5.708  0.00  0.00    -0.031 A 
ATOM      3  C3  DEN d   1      -0.815   0.083  -5.537  0.00  0.00     0.027 A 
ATOM      4  C4  DEN d   1       1.395  -0.432  -4.311  0.00  0.00     0.027 A 
ATOM      5  C5  DEN d   1       2.077  -1.376  -3.576  0.00  0.00    -0.003 A 
ATOM      6  C6  DEN d   1       1.526  -2.587  -3.251  0.00  0.00     0.001 A 
ATOM      7  C7  DEN d   1       0.271  -2.903  -3.700  0.00  0.00     0.017 A 
ATOM      8  C8  DEN d   1      -0.427  -1.953  -4.435  0.00  0.00    -0.094 A 
ATOM      9  C9  DEN d   1       0.153  -0.740  -4.764  0.00  0.00    -0.072 A 
ENDROOT
TORSDOF 0
ENDMDL
