MODEL 1
REMARK minimizedAffinity -2.22996831
REMARK minimizedRMSD -1
REMARK  0 active torsions:
REMARK  status: ('A' for Active; 'I' for Inactive)
ROOT
ATOM      1  C1  DEN d   1       2.183   0.749   1.301  0.00  0.00     0.130 A 
ATOM      2  C2  DEN d   1       1.030   0.081   0.704  0.00  0.00    -0.031 A 
ATOM      3  C3  DEN d   1       0.561   0.905  -0.428  0.00  0.00     0.027 A 
ATOM      4  C4  DEN d   1       1.505   3.136  -1.312  0.00  0.00     0.027 A 
ATOM      5  C5  DEN d   1       2.471   4.100  -1.123  0.00  0.00    -0.003 A 
ATOM      6  C6  DEN d   1       3.380   4.032  -0.100  0.00  0.00     0.001 A 
ATOM      7  C7  DEN d   1       3.370   2.955   0.746  0.00  0.00     0.017 A 
ATOM      8  C8  DEN d   1       2.395   1.983   0.566  0.00  0.00    -0.094 A 
ATOM      9  C9  DEN d   1       1.493   2.063  -0.481  0.00  0.00    -0.072 A 
ENDROOT
TORSDOF 0
ENDMDL
