MODEL 1
REMARK minimizedAffinity -3.0519619
REMARK minimizedRMSD -1
REMARK  0 active torsions:
REMARK  status: ('A' for Active; 'I' for Inactive)
ROOT
ATOM      1  C1  DEN d   1       2.884   0.732   1.381  0.00  0.00     0.130 A 
ATOM      2  C2  DEN d   1       1.701  -0.049   1.031  0.00  0.00    -0.031 A 
ATOM      3  C3  DEN d   1       0.948   0.697   0.003  0.00  0.00     0.027 A 
ATOM      4  C4  DEN d   1       1.501   2.972  -1.081  0.00  0.00     0.027 A 
ATOM      5  C5  DEN d   1       2.395   4.019  -1.098  0.00  0.00    -0.003 A 
ATOM      6  C6  DEN d   1       3.488   4.060  -0.273  0.00  0.00     0.001 A 
ATOM      7  C7  DEN d   1       3.739   3.012   0.573  0.00  0.00     0.017 A 
ATOM      8  C8  DEN d   1       2.838   1.956   0.602  0.00  0.00    -0.094 A 
ATOM      9  C9  DEN d   1       1.746   1.928  -0.249  0.00  0.00    -0.072 A 
ENDROOT
TORSDOF 0
ENDMDL
