MODEL 1
REMARK minimizedAffinity -6.15277719
REMARK minimizedRMSD -1
REMARK  0 active torsions:
REMARK  status: ('A' for Active; 'I' for Inactive)
ROOT
ATOM      1  C1  DEN d   1      -0.113   0.753  -0.759  0.00  0.00     0.130 A 
ATOM      2  C2  DEN d   1       1.146   1.487  -0.843  0.00  0.00    -0.031 A 
ATOM      3  C3  DEN d   1       1.907   1.234   0.397  0.00  0.00     0.027 A 
ATOM      4  C4  DEN d   1       1.262  -0.221   2.427  0.00  0.00     0.027 A 
ATOM      5  C5  DEN d   1       0.285  -1.031   2.962  0.00  0.00    -0.003 A 
ATOM      6  C6  DEN d   1      -0.898  -1.274   2.316  0.00  0.00     0.001 A 
ATOM      7  C7  DEN d   1      -1.115  -0.737   1.074  0.00  0.00     0.017 A 
ATOM      8  C8  DEN d   1      -0.138   0.087   0.531  0.00  0.00    -0.094 A 
ATOM      9  C9  DEN d   1       1.056   0.310   1.195  0.00  0.00    -0.072 A 
ENDROOT
TORSDOF 0
ENDMDL
