MODEL 1
REMARK minimizedAffinity -0.476252317
REMARK minimizedRMSD -1
REMARK  0 active torsions:
REMARK  status: ('A' for Active; 'I' for Inactive)
ROOT
ATOM      1  C1  DEN d   1      -3.249  -0.501   0.248  0.00  0.00     0.130 A 
ATOM      2  C2  DEN d   1      -3.605   0.116  -1.026  0.00  0.00    -0.031 A 
ATOM      3  C3  DEN d   1      -2.359   0.559  -1.683  0.00  0.00     0.027 A 
ATOM      4  C4  DEN d   1       0.075   0.345  -0.858  0.00  0.00     0.027 A 
ATOM      5  C5  DEN d   1       0.877  -0.097   0.171  0.00  0.00    -0.003 A 
ATOM      6  C6  DEN d   1       0.361  -0.669   1.304  0.00  0.00     0.001 A 
ATOM      7  C7  DEN d   1      -0.991  -0.856   1.415  0.00  0.00     0.017 A 
ATOM      8  C8  DEN d   1      -1.807  -0.406   0.385  0.00  0.00    -0.094 A 
ATOM      9  C9  DEN d   1      -1.266   0.158  -0.758  0.00  0.00    -0.072 A 
ENDROOT
TORSDOF 0
ENDMDL
