MODEL 1
REMARK minimizedAffinity -4.06415939
REMARK minimizedRMSD -1
REMARK  0 active torsions:
REMARK  status: ('A' for Active; 'I' for Inactive)
ROOT
ATOM      1  C1  DEN d   1      -1.904  -1.126   1.471  0.00  0.00     0.130 A 
ATOM      2  C2  DEN d   1      -2.271  -0.837   0.088  0.00  0.00    -0.031 A 
ATOM      3  C3  DEN d   1      -1.186  -0.037  -0.515  0.00  0.00     0.027 A 
ATOM      4  C4  DEN d   1       1.018   0.772   0.552  0.00  0.00     0.027 A 
ATOM      5  C5  DEN d   1       1.769   0.783   1.707  0.00  0.00    -0.003 A 
ATOM      6  C6  DEN d   1       1.336   0.193   2.865  0.00  0.00     0.001 A 
ATOM      7  C7  DEN d   1       0.139  -0.473   2.880  0.00  0.00     0.017 A 
ATOM      8  C8  DEN d   1      -0.627  -0.482   1.722  0.00  0.00    -0.094 A 
ATOM      9  C9  DEN d   1      -0.166   0.110   0.558  0.00  0.00    -0.072 A 
ENDROOT
TORSDOF 0
ENDMDL
