MODEL 1
REMARK minimizedAffinity 1.2848419
REMARK minimizedRMSD -1
REMARK  0 active torsions:
REMARK  status: ('A' for Active; 'I' for Inactive)
ROOT
ATOM      1  C1  DEN d   1      -2.988  -2.582   1.082  0.00  0.00     0.130 A 
ATOM      2  C2  DEN d   1      -1.715  -3.126   1.545  0.00  0.00    -0.031 A 
ATOM      3  C3  DEN d   1      -1.904  -4.566   1.811  0.00  0.00     0.027 A 
ATOM      4  C4  DEN d   1      -4.032  -6.000   1.548  0.00  0.00     0.027 A 
ATOM      5  C5  DEN d   1      -5.363  -5.978   1.196  0.00  0.00    -0.003 A 
ATOM      6  C6  DEN d   1      -6.000  -4.826   0.817  0.00  0.00     0.001 A 
ATOM      7  C7  DEN d   1      -5.293  -3.655   0.737  0.00  0.00     0.017 A 
ATOM      8  C8  DEN d   1      -3.952  -3.667   1.098  0.00  0.00    -0.094 A 
ATOM      9  C9  DEN d   1      -3.324  -4.844   1.467  0.00  0.00    -0.072 A 
ENDROOT
TORSDOF 0
ENDMDL
