MODEL 1
REMARK minimizedAffinity 1.47595119
REMARK minimizedRMSD -1
REMARK  0 active torsions:
REMARK  status: ('A' for Active; 'I' for Inactive)
ROOT
ATOM      1  C1  DEN d   1       1.118   1.152  -1.133  0.00  0.00     0.130 A 
ATOM      2  C2  DEN d   1       2.116   2.215  -1.213  0.00  0.00    -0.031 A 
ATOM      3  C3  DEN d   1       3.302   1.677  -1.909  0.00  0.00     0.027 A 
ATOM      4  C4  DEN d   1       3.687  -0.686  -2.868  0.00  0.00     0.027 A 
ATOM      5  C5  DEN d   1       3.131  -1.936  -3.030  0.00  0.00    -0.003 A 
ATOM      6  C6  DEN d   1       1.890  -2.252  -2.544  0.00  0.00     0.001 A 
ATOM      7  C7  DEN d   1       1.143  -1.292  -1.913  0.00  0.00     0.017 A 
ATOM      8  C8  DEN d   1       1.700  -0.032  -1.740  0.00  0.00    -0.094 A 
ATOM      9  C9  DEN d   1       2.951   0.271  -2.248  0.00  0.00    -0.072 A 
ENDROOT
TORSDOF 0
ENDMDL
