MODEL 1
REMARK minimizedAffinity 2.52039218
REMARK minimizedRMSD -1
REMARK  0 active torsions:
REMARK  status: ('A' for Active; 'I' for Inactive)
ROOT
ATOM      1  C1  DEN d   1       1.162  -0.542  -2.426  0.00  0.00     0.130 A 
ATOM      2  C2  DEN d   1       2.314  -1.010  -1.659  0.00  0.00    -0.031 A 
ATOM      3  C3  DEN d   1       2.505  -2.445  -1.951  0.00  0.00     0.027 A 
ATOM      4  C4  DEN d   1       1.139  -3.979  -3.511  0.00  0.00     0.027 A 
ATOM      5  C5  DEN d   1       0.061  -4.036  -4.367  0.00  0.00    -0.003 A 
ATOM      6  C6  DEN d   1      -0.739  -2.951  -4.607  0.00  0.00     0.001 A 
ATOM      7  C7  DEN d   1      -0.446  -1.748  -4.020  0.00  0.00     0.017 A 
ATOM      8  C8  DEN d   1       0.634  -1.684  -3.150  0.00  0.00    -0.094 A 
ATOM      9  C9  DEN d   1       1.438  -2.790  -2.929  0.00  0.00    -0.072 A 
ENDROOT
TORSDOF 0
ENDMDL
