MODEL 1
REMARK minimizedAffinity 11.3919706
REMARK minimizedRMSD -1
REMARK  0 active torsions:
REMARK  status: ('A' for Active; 'I' for Inactive)
ROOT
ATOM      1  C1  DEN d   1       1.061  -1.259  -4.154  0.00  0.00     0.130 A 
ATOM      2  C2  DEN d   1       1.966  -1.881  -5.118  0.00  0.00    -0.031 A 
ATOM      3  C3  DEN d   1       1.164  -2.752  -6.000  0.00  0.00     0.027 A 
ATOM      4  C4  DEN d   1      -1.377  -3.194  -5.971  0.00  0.00     0.027 A 
ATOM      5  C5  DEN d   1      -2.560  -2.901  -5.329  0.00  0.00    -0.003 A 
ATOM      6  C6  DEN d   1      -2.613  -2.075  -4.238  0.00  0.00     0.001 A 
ATOM      7  C7  DEN d   1      -1.468  -1.475  -3.784  0.00  0.00     0.017 A 
ATOM      8  C8  DEN d   1      -0.271  -1.771  -4.421  0.00  0.00    -0.094 A 
ATOM      9  C9  DEN d   1      -0.239  -2.600  -5.530  0.00  0.00    -0.072 A 
ENDROOT
TORSDOF 0
ENDMDL
