MODEL 1
REMARK minimizedAffinity 13.1668053
REMARK minimizedRMSD -1
REMARK  0 active torsions:
REMARK  status: ('A' for Active; 'I' for Inactive)
ROOT
ATOM      1  C1  DEN d   1       1.049  -2.468  -4.015  0.00  0.00     0.130 A 
ATOM      2  C2  DEN d   1       0.028  -3.028  -4.895  0.00  0.00    -0.031 A 
ATOM      3  C3  DEN d   1      -1.281  -2.486  -4.478  0.00  0.00     0.027 A 
ATOM      4  C4  DEN d   1      -1.821  -0.837  -2.569  0.00  0.00     0.027 A 
ATOM      5  C5  DEN d   1      -1.284  -0.095  -1.541  0.00  0.00    -0.003 A 
ATOM      6  C6  DEN d   1       0.054  -0.118  -1.246  0.00  0.00     0.001 A 
ATOM      7  C7  DEN d   1       0.906  -0.864  -2.017  0.00  0.00     0.017 A 
ATOM      8  C8  DEN d   1       0.370  -1.621  -3.050  0.00  0.00    -0.094 A 
ATOM      9  C9  DEN d   1      -0.983  -1.575  -3.340  0.00  0.00    -0.072 A 
ENDROOT
TORSDOF 0
ENDMDL
