MODEL 1
REMARK minimizedAffinity 0.310885489
REMARK minimizedRMSD -1
REMARK  0 active torsions:
REMARK  status: ('A' for Active; 'I' for Inactive)
ROOT
ATOM      1  C1  DEN d   1      -2.645   1.866   2.798  0.00  0.00     0.130 A 
ATOM      2  C2  DEN d   1      -1.850   1.125   3.773  0.00  0.00    -0.031 A 
ATOM      3  C3  DEN d   1      -2.614   1.065   5.035  0.00  0.00     0.027 A 
ATOM      4  C4  DEN d   1      -4.942   2.040   5.570  0.00  0.00     0.027 A 
ATOM      5  C5  DEN d   1      -6.000   2.762   5.063  0.00  0.00    -0.003 A 
ATOM      6  C6  DEN d   1      -6.000   3.261   3.788  0.00  0.00     0.001 A 
ATOM      7  C7  DEN d   1      -4.939   3.006   2.959  0.00  0.00     0.017 A 
ATOM      8  C8  DEN d   1      -3.865   2.285   3.465  0.00  0.00    -0.094 A 
ATOM      9  C9  DEN d   1      -3.889   1.779   4.754  0.00  0.00    -0.072 A 
ENDROOT
TORSDOF 0
ENDMDL
