MODEL 1
REMARK minimizedAffinity 1.5303309
REMARK minimizedRMSD -1
REMARK  0 active torsions:
REMARK  status: ('A' for Active; 'I' for Inactive)
ROOT
ATOM      1  C1  DEN d   1      -2.230  -3.837   0.996  0.00  0.00     0.130 A 
ATOM      2  C2  DEN d   1      -1.386  -4.954   0.579  0.00  0.00    -0.031 A 
ATOM      3  C3  DEN d   1      -2.259  -5.998   0.007  0.00  0.00     0.027 A 
ATOM      4  C4  DEN d   1      -4.823  -5.993  -0.275  0.00  0.00     0.027 A 
ATOM      5  C5  DEN d   1      -5.975  -5.270  -0.058  0.00  0.00    -0.003 A 
ATOM      6  C6  DEN d   1      -5.963  -4.043   0.551  0.00  0.00     0.001 A 
ATOM      7  C7  DEN d   1      -4.770  -3.482   0.924  0.00  0.00     0.017 A 
ATOM      8  C8  DEN d   1      -3.605  -4.209   0.716  0.00  0.00    -0.094 A 
ATOM      9  C9  DEN d   1      -3.637  -5.442   0.087  0.00  0.00    -0.072 A 
ENDROOT
TORSDOF 0
ENDMDL
