MODEL 1
REMARK minimizedAffinity -2.44591784
REMARK minimizedRMSD -1
REMARK  0 active torsions:
REMARK  status: ('A' for Active; 'I' for Inactive)
ROOT
ATOM      1  C1  DEN d   1      -1.378  -3.669   1.501  0.00  0.00     0.130 A 
ATOM      2  C2  DEN d   1      -0.710  -4.873   1.988  0.00  0.00    -0.031 A 
ATOM      3  C3  DEN d   1      -1.658  -5.999   1.875  0.00  0.00     0.027 A 
ATOM      4  C4  DEN d   1      -4.082  -5.997   0.993  0.00  0.00     0.027 A 
ATOM      5  C5  DEN d   1      -5.089  -5.210   0.479  0.00  0.00    -0.003 A 
ATOM      6  C6  DEN d   1      -4.943  -3.860   0.304  0.00  0.00     0.001 A 
ATOM      7  C7  DEN d   1      -3.747  -3.262   0.602  0.00  0.00     0.017 A 
ATOM      8  C8  DEN d   1      -2.729  -4.048   1.127  0.00  0.00    -0.094 A 
ATOM      9  C9  DEN d   1      -2.892  -5.414   1.286  0.00  0.00    -0.072 A 
ENDROOT
TORSDOF 0
ENDMDL
