MODEL 1
REMARK minimizedAffinity 4.44337606
REMARK minimizedRMSD -1
REMARK  0 active torsions:
REMARK  status: ('A' for Active; 'I' for Inactive)
ROOT
ATOM      1  C1  DEN d   1      -4.281  -5.904   1.086  0.00  0.00     0.130 A 
ATOM      2  C2  DEN d   1      -5.122  -4.791   0.654  0.00  0.00    -0.031 A 
ATOM      3  C3  DEN d   1      -4.329  -3.550   0.765  0.00  0.00     0.027 A 
ATOM      4  C4  DEN d   1      -1.891  -3.247   1.553  0.00  0.00     0.027 A 
ATOM      5  C5  DEN d   1      -0.777  -3.900   2.030  0.00  0.00    -0.003 A 
ATOM      6  C6  DEN d   1      -0.763  -5.251   2.257  0.00  0.00     0.001 A 
ATOM      7  C7  DEN d   1      -1.872  -6.000   1.963  0.00  0.00     0.017 A 
ATOM      8  C8  DEN d   1      -3.002  -5.347   1.488  0.00  0.00    -0.094 A 
ATOM      9  C9  DEN d   1      -2.992  -3.983   1.254  0.00  0.00    -0.072 A 
ENDROOT
TORSDOF 0
ENDMDL
