MODEL 1
REMARK minimizedAffinity 2.98428869
REMARK minimizedRMSD -1
REMARK  0 active torsions:
REMARK  status: ('A' for Active; 'I' for Inactive)
ROOT
ATOM      1  C1  DEN d   1       0.374  -5.999   1.334  0.00  0.00     0.130 A 
ATOM      2  C2  DEN d   1      -0.900  -5.424   1.760  0.00  0.00    -0.031 A 
ATOM      3  C3  DEN d   1      -0.679  -4.723   3.040  0.00  0.00     0.027 A 
ATOM      4  C4  DEN d   1       1.500  -4.468   4.396  0.00  0.00     0.027 A 
ATOM      5  C5  DEN d   1       2.838  -4.792   4.442  0.00  0.00    -0.003 A 
ATOM      6  C6  DEN d   1       3.435  -5.564   3.482  0.00  0.00     0.001 A 
ATOM      7  C7  DEN d   1       2.704  -6.000   2.409  0.00  0.00     0.017 A 
ATOM      8  C8  DEN d   1       1.353  -5.682   2.359  0.00  0.00    -0.094 A 
ATOM      9  C9  DEN d   1       0.770  -4.891   3.334  0.00  0.00    -0.072 A 
ENDROOT
TORSDOF 0
ENDMDL
