MODEL 1
REMARK minimizedAffinity -6.05535698
REMARK minimizedRMSD -1
REMARK  1 active torsions:
REMARK  status: ('A' for Active; 'I' for Inactive)
REMARK    1  A    between atoms: C1_2  and  C2_3 
ROOT
ATOM      1  C2  UNL d   1       0.123  -0.242  -0.319  0.00  0.00    -0.076 A 
ATOM      2  C3  UNL d   1      -0.897   0.133   0.573  0.00  0.00     0.004 A 
ATOM      3  C4  UNL d   1      -0.728   0.004   1.950  0.00  0.00    -0.003 A 
ATOM      4  C5  UNL d   1       0.463  -0.502   2.459  0.00  0.00     0.000 A 
ATOM      5  C6  UNL d   1       1.492  -0.862   1.589  0.00  0.00     0.000 A 
ATOM      6  C7  UNL d   1       1.345  -0.723   0.198  0.00  0.00    -0.073 A 
ATOM      7  C8  UNL d   1       2.485  -1.133  -0.693  0.00  0.00     0.078 C 
ENDROOT
BRANCH   1   8
ATOM      8  C1  UNL d   1      -0.127  -0.105  -1.804  0.00  0.00     0.053 C 
ATOM      9  C   UNL d   1      -1.023   1.078  -2.137  0.00  0.00     0.018 C 
ENDBRANCH   1   8
TORSDOF 1
ENDMDL
