MODEL 1
REMARK minimizedAffinity -4.81474781
REMARK minimizedRMSD -1
REMARK  1 active torsions:
REMARK  status: ('A' for Active; 'I' for Inactive)
REMARK    1  A    between atoms: C1_2  and  C2_3 
ROOT
ATOM      1  C2  UNL d   1      -0.170   0.487  -0.314  0.00  0.00    -0.076 A 
ATOM      2  C3  UNL d   1      -1.074   1.009   0.628  0.00  0.00     0.004 A 
ATOM      3  C4  UNL d   1      -0.903   0.777   1.992  0.00  0.00    -0.003 A 
ATOM      4  C5  UNL d   1       0.175   0.020   2.436  0.00  0.00     0.000 A 
ATOM      5  C6  UNL d   1       1.092  -0.491   1.517  0.00  0.00     0.000 A 
ATOM      6  C7  UNL d   1       0.943  -0.253   0.140  0.00  0.00    -0.073 A 
ATOM      7  C8  UNL d   1       1.958  -0.833  -0.806  0.00  0.00     0.078 C 
ENDROOT
BRANCH   1   8
ATOM      8  C1  UNL d   1      -0.421   0.749  -1.781  0.00  0.00     0.053 C 
ATOM      9  C   UNL d   1      -0.111   2.184  -2.179  0.00  0.00     0.018 C 
ENDBRANCH   1   8
TORSDOF 1
ENDMDL
