MODEL 1
REMARK minimizedAffinity -3.76368141
REMARK minimizedRMSD -1
REMARK  1 active torsions:
REMARK  status: ('A' for Active; 'I' for Inactive)
REMARK    1  A    between atoms: C1_2  and  C2_3 
ROOT
ATOM      1  C2  UNL d   1      -2.469   2.055  -2.978  0.00  0.00    -0.076 A 
ATOM      2  C3  UNL d   1      -3.537   1.174  -3.220  0.00  0.00     0.004 A 
ATOM      3  C4  UNL d   1      -4.852   1.635  -3.269  0.00  0.00    -0.003 A 
ATOM      4  C5  UNL d   1      -5.119   2.986  -3.077  0.00  0.00     0.000 A 
ATOM      5  C6  UNL d   1      -4.071   3.878  -2.853  0.00  0.00     0.000 A 
ATOM      6  C7  UNL d   1      -2.738   3.431  -2.817  0.00  0.00    -0.073 A 
ATOM      7  C8  UNL d   1      -1.647   4.435  -2.565  0.00  0.00     0.078 C 
ENDROOT
BRANCH   1   8
ATOM      8  C1  UNL d   1      -1.068   1.493  -2.909  0.00  0.00     0.053 C 
ATOM      9  C   UNL d   1      -0.708   0.991  -1.519  0.00  0.00     0.018 C 
ENDBRANCH   1   8
TORSDOF 1
ENDMDL
