MODEL 1
REMARK minimizedAffinity -4.80232286
REMARK minimizedRMSD -1
REMARK  1 active torsions:
REMARK  status: ('A' for Active; 'I' for Inactive)
REMARK    1  A    between atoms: C1_2  and  C2_3 
ROOT
ATOM      1  C2  UNL d   1      -0.266  -0.208   0.004  0.00  0.00    -0.076 A 
ATOM      2  C3  UNL d   1       1.129  -0.301  -0.144  0.00  0.00     0.004 A 
ATOM      3  C4  UNL d   1       1.958  -0.467   0.963  0.00  0.00    -0.003 A 
ATOM      4  C5  UNL d   1       1.407  -0.544   2.237  0.00  0.00     0.000 A 
ATOM      5  C6  UNL d   1       0.024  -0.472   2.402  0.00  0.00     0.000 A 
ATOM      6  C7  UNL d   1      -0.828  -0.320   1.294  0.00  0.00    -0.073 A 
ATOM      7  C8  UNL d   1      -2.311  -0.242   1.530  0.00  0.00     0.078 C 
ENDROOT
BRANCH   1   8
ATOM      8  C1  UNL d   1      -1.114  -0.001  -1.230  0.00  0.00     0.053 C 
ATOM      9  C   UNL d   1      -1.324   1.470  -1.553  0.00  0.00     0.018 C 
ENDBRANCH   1   8
TORSDOF 1
ENDMDL
