MODEL 1
REMARK minimizedAffinity -3.54010344
REMARK minimizedRMSD -1
REMARK  1 active torsions:
REMARK  status: ('A' for Active; 'I' for Inactive)
REMARK    1  A    between atoms: C1_2  and  C2_3 
ROOT
ATOM      1  C2  UNL d   1      -0.330   0.073  -0.321  0.00  0.00    -0.076 A 
ATOM      2  C3  UNL d   1      -1.279   0.476   0.635  0.00  0.00     0.004 A 
ATOM      3  C4  UNL d   1      -1.145   0.116   1.974  0.00  0.00    -0.003 A 
ATOM      4  C5  UNL d   1      -0.059  -0.653   2.380  0.00  0.00     0.000 A 
ATOM      5  C6  UNL d   1       0.901  -1.047   1.448  0.00  0.00     0.000 A 
ATOM      6  C7  UNL d   1       0.789  -0.678   0.097  0.00  0.00    -0.073 A 
ATOM      7  C8  UNL d   1       1.850  -1.135  -0.866  0.00  0.00     0.078 C 
ENDROOT
BRANCH   1   8
ATOM      8  C1  UNL d   1      -0.542   0.471  -1.765  0.00  0.00     0.053 C 
ATOM      9  C   UNL d   1      -0.943   1.930  -1.914  0.00  0.00     0.018 C 
ENDBRANCH   1   8
TORSDOF 1
ENDMDL
