MODEL 1
REMARK minimizedAffinity -3.71124339
REMARK minimizedRMSD -1
REMARK  1 active torsions:
REMARK  status: ('A' for Active; 'I' for Inactive)
REMARK    1  A    between atoms: C1_2  and  C2_3 
ROOT
ATOM      1  C2  UNL d   1      -0.444   0.521  -1.191  0.00  0.00    -0.076 A 
ATOM      2  C3  UNL d   1      -0.699   1.186   0.020  0.00  0.00     0.004 A 
ATOM      3  C4  UNL d   1      -0.094   0.774   1.206  0.00  0.00    -0.003 A 
ATOM      4  C5  UNL d   1       0.778  -0.309   1.200  0.00  0.00     0.000 A 
ATOM      5  C6  UNL d   1       1.057  -0.970   0.003  0.00  0.00     0.000 A 
ATOM      6  C7  UNL d   1       0.467  -0.557  -1.204  0.00  0.00    -0.073 A 
ATOM      7  C8  UNL d   1       0.799  -1.309  -2.463  0.00  0.00     0.078 C 
ENDROOT
BRANCH   1   8
ATOM      8  C1  UNL d   1      -1.150   0.995  -2.441  0.00  0.00     0.053 C 
ATOM      9  C   UNL d   1      -0.836   2.446  -2.773  0.00  0.00     0.018 C 
ENDBRANCH   1   8
TORSDOF 1
ENDMDL
