MODEL 1
REMARK minimizedAffinity -4.08880854
REMARK minimizedRMSD -1
REMARK  1 active torsions:
REMARK  status: ('A' for Active; 'I' for Inactive)
REMARK    1  A    between atoms: C1_2  and  C2_3 
ROOT
ATOM      1  C2  UNL d   1       0.158  -1.068   1.443  0.00  0.00    -0.076 A 
ATOM      2  C3  UNL d   1       1.454  -1.170   0.909  0.00  0.00     0.004 A 
ATOM      3  C4  UNL d   1       1.688  -0.964  -0.450  0.00  0.00    -0.003 A 
ATOM      4  C5  UNL d   1       0.630  -0.653  -1.296  0.00  0.00     0.000 A 
ATOM      5  C6  UNL d   1      -0.660  -0.530  -0.780  0.00  0.00     0.000 A 
ATOM      6  C7  UNL d   1      -0.911  -0.718   0.590  0.00  0.00    -0.073 A 
ATOM      7  C8  UNL d   1      -2.322  -0.579   1.091  0.00  0.00     0.078 C 
ENDROOT
BRANCH   1   8
ATOM      8  C1  UNL d   1      -0.040  -1.328   2.920  0.00  0.00     0.053 C 
ATOM      9  C   UNL d   1       1.272  -1.342   3.689  0.00  0.00     0.018 C 
ENDBRANCH   1   8
TORSDOF 1
ENDMDL
