MODEL 1
REMARK minimizedAffinity -4.95674992
REMARK minimizedRMSD -1
REMARK  1 active torsions:
REMARK  status: ('A' for Active; 'I' for Inactive)
REMARK    1  A    between atoms: C1_2  and  C2_3 
ROOT
ATOM      1  C2  UNL d   1       0.465  -0.657   0.870  0.00  0.00    -0.076 A 
ATOM      2  C3  UNL d   1       0.623  -0.619   2.267  0.00  0.00     0.004 A 
ATOM      3  C4  UNL d   1       1.637  -1.342   2.893  0.00  0.00    -0.003 A 
ATOM      4  C5  UNL d   1       2.509  -2.114   2.133  0.00  0.00     0.000 A 
ATOM      5  C6  UNL d   1       2.377  -2.149   0.746  0.00  0.00     0.000 A 
ATOM      6  C7  UNL d   1       1.371  -1.413   0.097  0.00  0.00    -0.073 A 
ATOM      7  C8  UNL d   1       1.271  -1.493  -1.402  0.00  0.00     0.078 C 
ENDROOT
BRANCH   1   8
ATOM      8  C1  UNL d   1      -0.670   0.126   0.249  0.00  0.00     0.053 C 
ATOM      9  C   UNL d   1      -1.987  -0.633   0.279  0.00  0.00     0.018 C 
ENDBRANCH   1   8
TORSDOF 1
ENDMDL
