MODEL 1
REMARK minimizedAffinity 5.95542336
REMARK minimizedRMSD -1
REMARK  1 active torsions:
REMARK  status: ('A' for Active; 'I' for Inactive)
REMARK    1  A    between atoms: C1_2  and  C2_3 
ROOT
ATOM      1  C2  UNL d   1       2.287   4.099  -1.326  0.00  0.00    -0.076 A 
ATOM      2  C3  UNL d   1       3.126   3.128  -0.752  0.00  0.00     0.004 A 
ATOM      3  C4  UNL d   1       2.656   2.269   0.240  0.00  0.00    -0.003 A 
ATOM      4  C5  UNL d   1       1.339   2.367   0.674  0.00  0.00     0.000 A 
ATOM      5  C6  UNL d   1       0.487   3.312   0.104  0.00  0.00     0.000 A 
ATOM      6  C7  UNL d   1       0.941   4.175  -0.909  0.00  0.00    -0.073 A 
ATOM      7  C8  UNL d   1      -0.019   5.180  -1.484  0.00  0.00     0.078 C 
ENDROOT
BRANCH   1   8
ATOM      8  C1  UNL d   1       2.860   5.021  -2.379  0.00  0.00     0.053 C 
ATOM      9  C   UNL d   1       4.247   5.528  -2.017  0.00  0.00     0.018 C 
ENDBRANCH   1   8
TORSDOF 1
ENDMDL
