MODEL 1
REMARK minimizedAffinity 4.31237364
REMARK minimizedRMSD -1
REMARK  1 active torsions:
REMARK  status: ('A' for Active; 'I' for Inactive)
REMARK    1  A    between atoms: C1_2  and  C2_3 
ROOT
ATOM      1  C2  UNL d   1      -0.237  -1.210  -0.229  0.00  0.00    -0.076 A 
ATOM      2  C3  UNL d   1      -1.519  -0.913   0.266  0.00  0.00     0.004 A 
ATOM      3  C4  UNL d   1      -2.657  -1.147  -0.504  0.00  0.00    -0.003 A 
ATOM      4  C5  UNL d   1      -2.532  -1.683  -1.780  0.00  0.00     0.000 A 
ATOM      5  C6  UNL d   1      -1.270  -2.001  -2.281  0.00  0.00     0.000 A 
ATOM      6  C7  UNL d   1      -0.113  -1.786  -1.512  0.00  0.00    -0.073 A 
ATOM      7  C8  UNL d   1       1.223  -2.142  -2.103  0.00  0.00     0.078 C 
ENDROOT
BRANCH   1   8
ATOM      8  C1  UNL d   1       0.963  -0.909   0.640  0.00  0.00     0.053 C 
ATOM      9  C   UNL d   1       1.051  -1.827   1.849  0.00  0.00     0.018 C 
ENDBRANCH   1   8
TORSDOF 1
ENDMDL
