MODEL 1
REMARK minimizedAffinity 5.49429417
REMARK minimizedRMSD -1
REMARK  1 active torsions:
REMARK  status: ('A' for Active; 'I' for Inactive)
REMARK    1  A    between atoms: C1_2  and  C2_3 
ROOT
ATOM      1  C2  UNL d   1       1.437  -0.851   1.308  0.00  0.00    -0.076 A 
ATOM      2  C3  UNL d   1       1.861   0.344   0.701  0.00  0.00     0.004 A 
ATOM      3  C4  UNL d   1       2.614   1.279   1.409  0.00  0.00    -0.003 A 
ATOM      4  C5  UNL d   1       2.957   1.034   2.734  0.00  0.00     0.000 A 
ATOM      5  C6  UNL d   1       2.560  -0.155   3.346  0.00  0.00     0.000 A 
ATOM      6  C7  UNL d   1       1.814  -1.115   2.642  0.00  0.00    -0.073 A 
ATOM      7  C8  UNL d   1       1.407  -2.377   3.353  0.00  0.00     0.078 C 
ENDROOT
BRANCH   1   8
ATOM      8  C1  UNL d   1       0.599  -1.816   0.499  0.00  0.00     0.053 C 
ATOM      9  C   UNL d   1      -0.751  -1.232   0.112  0.00  0.00     0.018 C 
ENDBRANCH   1   8
TORSDOF 1
ENDMDL
