MODEL 1
REMARK minimizedAffinity 0.119224764
REMARK minimizedRMSD -1
REMARK  1 active torsions:
REMARK  status: ('A' for Active; 'I' for Inactive)
REMARK    1  A    between atoms: C3_4  and  O_7 
ROOT
ATOM      1  C   UNL d   1       1.565  -0.493  -0.148  0.00  0.00    -0.033 A 
ATOM      2  C1  UNL d   1       1.552   0.272   1.021  0.00  0.00     0.039 A 
ATOM      3  C2  UNL d   1       1.024   1.564   1.006  0.00  0.00    -0.080 A 
ATOM      4  C3  UNL d   1       0.512   2.079  -0.182  0.00  0.00     0.150 A 
ATOM      5  C4  UNL d   1       0.518   1.322  -1.348  0.00  0.00    -0.007 A 
ATOM      6  C5  UNL d   1       1.047   0.032  -1.332  0.00  0.00     0.039 A 
ENDROOT
BRANCH   4   7
ATOM      7  O   UNL d   1      -0.010   3.337  -0.246  0.00  0.00    -0.526 OA
ATOM      8  H5  UNL d   1       0.079   3.752   0.628  0.00  0.00     0.418 HD
ENDBRANCH   4   7
TORSDOF 1
ENDMDL
