MODEL 1
REMARK minimizedAffinity -0.961022317
REMARK minimizedRMSD -1
REMARK  1 active torsions:
REMARK  status: ('A' for Active; 'I' for Inactive)
REMARK    1  A    between atoms: C3_4  and  O_7 
ROOT
ATOM      1  C   UNL d   1       5.624  -3.686   5.987  0.00  0.00    -0.033 A 
ATOM      2  C1  UNL d   1       5.540  -2.292   5.992  0.00  0.00     0.039 A 
ATOM      3  C2  UNL d   1       4.292  -1.666   5.997  0.00  0.00    -0.080 A 
ATOM      4  C3  UNL d   1       3.138  -2.443   5.999  0.00  0.00     0.150 A 
ATOM      5  C4  UNL d   1       3.214  -3.832   5.998  0.00  0.00    -0.007 A 
ATOM      6  C5  UNL d   1       4.460  -4.456   5.992  0.00  0.00     0.039 A 
ENDROOT
BRANCH   4   7
ATOM      7  O   UNL d   1       1.898  -1.877   6.000  0.00  0.00    -0.526 OA
ATOM      8  H5  UNL d   1       2.000  -0.911   5.971  0.00  0.00     0.418 HD
ENDBRANCH   4   7
TORSDOF 1
ENDMDL
