MODEL 1
REMARK minimizedAffinity 10.9718046
REMARK minimizedRMSD -1
REMARK  1 active torsions:
REMARK  status: ('A' for Active; 'I' for Inactive)
REMARK    1  A    between atoms: C3_4  and  O_7 
ROOT
ATOM      1  C   UNL d   1      -0.377   5.711  -2.203  0.00  0.00    -0.033 A 
ATOM      2  C1  UNL d   1      -1.478   4.962  -1.785  0.00  0.00     0.039 A 
ATOM      3  C2  UNL d   1      -1.289   3.765  -1.092  0.00  0.00    -0.080 A 
ATOM      4  C3  UNL d   1       0.006   3.328  -0.824  0.00  0.00     0.150 A 
ATOM      5  C4  UNL d   1       1.108   4.071  -1.235  0.00  0.00    -0.007 A 
ATOM      6  C5  UNL d   1       0.916   5.266  -1.927  0.00  0.00     0.039 A 
ENDROOT
BRANCH   4   7
ATOM      7  O   UNL d   1       0.241   2.164  -0.156  0.00  0.00    -0.526 OA
ATOM      8  H5  UNL d   1      -0.613   1.744   0.040  0.00  0.00     0.418 HD
ENDBRANCH   4   7
TORSDOF 1
ENDMDL
