MODEL 1
REMARK minimizedAffinity -4.92785788
REMARK minimizedRMSD -1
REMARK  1 active torsions:
REMARK  status: ('A' for Active; 'I' for Inactive)
REMARK    1  A    between atoms: C3_4  and  O_7 
ROOT
ATOM      1  C   UNL d   1      -4.868   1.855  -4.183  0.00  0.00    -0.033 A 
ATOM      2  C1  UNL d   1      -5.997   2.655  -4.372  0.00  0.00     0.039 A 
ATOM      3  C2  UNL d   1      -5.886   4.046  -4.319  0.00  0.00    -0.080 A 
ATOM      4  C3  UNL d   1      -4.642   4.623  -4.079  0.00  0.00     0.150 A 
ATOM      5  C4  UNL d   1      -3.513   3.833  -3.894  0.00  0.00    -0.007 A 
ATOM      6  C5  UNL d   1      -3.626   2.444  -3.946  0.00  0.00     0.039 A 
ENDROOT
BRANCH   4   7
ATOM      7  O   UNL d   1      -4.486   5.976  -4.014  0.00  0.00    -0.526 OA
ATOM      8  H5  UNL d   1      -5.356   6.393  -4.132  0.00  0.00     0.418 HD
ENDBRANCH   4   7
TORSDOF 1
ENDMDL
