MODEL 1
REMARK minimizedAffinity 1.15175617
REMARK minimizedRMSD -1
REMARK  1 active torsions:
REMARK  status: ('A' for Active; 'I' for Inactive)
REMARK    1  A    between atoms: C3_4  and  O_7 
ROOT
ATOM      1  C   UNL d   1      -4.874   5.244  -4.500  0.00  0.00    -0.033 A 
ATOM      2  C1  UNL d   1      -6.000   4.452  -4.731  0.00  0.00     0.039 A 
ATOM      3  C2  UNL d   1      -6.000   3.108  -4.352  0.00  0.00    -0.080 A 
ATOM      4  C3  UNL d   1      -4.870   2.569  -3.744  0.00  0.00     0.150 A 
ATOM      5  C4  UNL d   1      -3.746   3.354  -3.507  0.00  0.00    -0.007 A 
ATOM      6  C5  UNL d   1      -3.747   4.695  -3.887  0.00  0.00     0.039 A 
ENDROOT
BRANCH   4   7
ATOM      7  O   UNL d   1      -4.821   1.262  -3.361  0.00  0.00    -0.526 OA
ATOM      8  H5  UNL d   1      -5.657   0.836  -3.613  0.00  0.00     0.418 HD
ENDBRANCH   4   7
TORSDOF 1
ENDMDL
