MODEL 1
REMARK minimizedAffinity 1.46466208
REMARK minimizedRMSD -1
REMARK  1 active torsions:
REMARK  status: ('A' for Active; 'I' for Inactive)
REMARK    1  A    between atoms: C3_4  and  O_7 
ROOT
ATOM      1  C   UNL d   1       2.432  -5.998  -2.643  0.00  0.00    -0.033 A 
ATOM      2  C1  UNL d   1       1.547  -6.000  -1.563  0.00  0.00     0.039 A 
ATOM      3  C2  UNL d   1       0.468  -5.114  -1.540  0.00  0.00    -0.080 A 
ATOM      4  C3  UNL d   1       0.285  -4.232  -2.602  0.00  0.00     0.150 A 
ATOM      5  C4  UNL d   1       1.160  -4.227  -3.683  0.00  0.00    -0.007 A 
ATOM      6  C5  UNL d   1       2.237  -5.112  -3.704  0.00  0.00     0.039 A 
ENDROOT
BRANCH   4   7
ATOM      7  O   UNL d   1      -0.750  -3.346  -2.621  0.00  0.00    -0.526 OA
ATOM      8  H5  UNL d   1      -1.255  -3.444  -1.797  0.00  0.00     0.418 HD
ENDBRANCH   4   7
TORSDOF 1
ENDMDL
