MODEL 1
REMARK minimizedAffinity -3.37445998
REMARK minimizedRMSD -1
REMARK  1 active torsions:
REMARK  status: ('A' for Active; 'I' for Inactive)
REMARK    1  A    between atoms: C3_4  and  O_7 
ROOT
ATOM      1  C   UNL d   1      -4.695   0.326   1.794  0.00  0.00    -0.033 A 
ATOM      2  C1  UNL d   1      -5.781  -0.546   1.704  0.00  0.00     0.039 A 
ATOM      3  C2  UNL d   1      -5.999  -1.499   2.701  0.00  0.00    -0.080 A 
ATOM      4  C3  UNL d   1      -5.124  -1.569   3.782  0.00  0.00     0.150 A 
ATOM      5  C4  UNL d   1      -4.042  -0.701   3.880  0.00  0.00    -0.007 A 
ATOM      6  C5  UNL d   1      -3.826   0.250   2.883  0.00  0.00     0.039 A 
ENDROOT
BRANCH   4   7
ATOM      7  O   UNL d   1      -5.292  -2.485   4.777  0.00  0.00    -0.526 OA
ATOM      8  H5  UNL d   1      -6.064  -3.036   4.561  0.00  0.00     0.418 HD
ENDBRANCH   4   7
TORSDOF 1
ENDMDL
