MODEL 1
REMARK minimizedAffinity -2.80836225
REMARK minimizedRMSD -1
REMARK  0 active torsions:
REMARK  status: ('A' for Active; 'I' for Inactive)
ROOT
ATOM      1  C   UNL d   1      -0.445   0.316   0.234  0.00  0.00     0.172 C 
ATOM      2  N   UNL d   1       0.774  -0.264  -0.280  0.00  0.00    -0.070 N 
ATOM      3  C1  UNL d   1       1.933   0.417  -0.543  0.00  0.00    -0.004 A 
ATOM      4  C2  UNL d   1       2.856  -0.489  -1.018  0.00  0.00    -0.047 A 
ATOM      5  C3  UNL d   1       2.231  -1.758  -1.042  0.00  0.00    -0.047 A 
ATOM      6  C4  UNL d   1       0.942  -1.590  -0.580  0.00  0.00    -0.004 A 
ENDROOT
TORSDOF 0
ENDMDL
