MODEL 1
REMARK minimizedAffinity -0.162851393
REMARK minimizedRMSD -1
REMARK  0 active torsions:
REMARK  status: ('A' for Active; 'I' for Inactive)
ROOT
ATOM      1  C   UNL d   1       2.419   0.657  -0.291  0.00  0.00     0.172 C 
ATOM      2  N   UNL d   1       0.989   0.460  -0.343  0.00  0.00    -0.070 N 
ATOM      3  C1  UNL d   1       0.102   1.234  -1.042  0.00  0.00    -0.004 A 
ATOM      4  C2  UNL d   1      -1.160   0.719  -0.836  0.00  0.00    -0.047 A 
ATOM      5  C3  UNL d   1      -1.026  -0.402   0.017  0.00  0.00    -0.047 A 
ATOM      6  C4  UNL d   1       0.315  -0.540   0.307  0.00  0.00    -0.004 A 
ENDROOT
TORSDOF 0
ENDMDL
