MODEL 1
REMARK minimizedAffinity -0.79469192
REMARK minimizedRMSD -1
REMARK  0 active torsions:
REMARK  status: ('A' for Active; 'I' for Inactive)
ROOT
ATOM      1  C   UNL d   1      -0.946  -0.002   0.102  0.00  0.00     0.172 C 
ATOM      2  N   UNL d   1       0.222  -0.707  -0.372  0.00  0.00    -0.070 N 
ATOM      3  C1  UNL d   1       0.862  -0.484  -1.561  0.00  0.00    -0.004 A 
ATOM      4  C2  UNL d   1       1.926  -1.356  -1.639  0.00  0.00    -0.047 A 
ATOM      5  C3  UNL d   1       1.925  -2.132  -0.455  0.00  0.00    -0.047 A 
ATOM      6  C4  UNL d   1       0.859  -1.709   0.312  0.00  0.00    -0.004 A 
ENDROOT
TORSDOF 0
ENDMDL
