MODEL 1
REMARK minimizedAffinity -3.7411027
REMARK minimizedRMSD -1
REMARK  0 active torsions:
REMARK  status: ('A' for Active; 'I' for Inactive)
ROOT
ATOM      1  C   UNL d   1      -0.365   0.124   0.411  0.00  0.00     0.172 C 
ATOM      2  N   UNL d   1       0.920  -0.157  -0.185  0.00  0.00    -0.070 N 
ATOM      3  C1  UNL d   1       1.573   0.639  -1.087  0.00  0.00    -0.004 A 
ATOM      4  C2  UNL d   1       2.762   0.023  -1.411  0.00  0.00    -0.047 A 
ATOM      5  C3  UNL d   1       2.826  -1.186  -0.678  0.00  0.00    -0.047 A 
ATOM      6  C4  UNL d   1       1.673  -1.272   0.073  0.00  0.00    -0.004 A 
ENDROOT
TORSDOF 0
ENDMDL
