MODEL 1
REMARK minimizedAffinity -3.64437199
REMARK minimizedRMSD -1
REMARK  0 active torsions:
REMARK  status: ('A' for Active; 'I' for Inactive)
ROOT
ATOM      1  C   UNL d   1       2.886  -0.228  -0.869  0.00  0.00     0.172 C 
ATOM      2  N   UNL d   1       1.553   0.283  -0.652  0.00  0.00    -0.070 N 
ATOM      3  C1  UNL d   1       1.130   1.555  -0.933  0.00  0.00    -0.004 A 
ATOM      4  C2  UNL d   1      -0.201   1.643  -0.585  0.00  0.00    -0.047 A 
ATOM      5  C3  UNL d   1      -0.591   0.381  -0.076  0.00  0.00    -0.047 A 
ATOM      6  C4  UNL d   1       0.514  -0.442  -0.129  0.00  0.00    -0.004 A 
ENDROOT
TORSDOF 0
ENDMDL
