MODEL 1
REMARK minimizedAffinity -3.7517767
REMARK minimizedRMSD -1
REMARK  0 active torsions:
REMARK  status: ('A' for Active; 'I' for Inactive)
ROOT
ATOM      1  C   UNL d   1      -0.886  -1.438  -0.275  0.00  0.00     0.172 C 
ATOM      2  N   UNL d   1       0.424  -0.878  -0.509  0.00  0.00    -0.070 N 
ATOM      3  C1  UNL d   1       1.574  -1.593  -0.707  0.00  0.00    -0.004 A 
ATOM      4  C2  UNL d   1       2.603  -0.695  -0.894  0.00  0.00    -0.047 A 
ATOM      5  C3  UNL d   1       2.052   0.605  -0.804  0.00  0.00    -0.047 A 
ATOM      6  C4  UNL d   1       0.701   0.463  -0.565  0.00  0.00    -0.004 A 
ENDROOT
TORSDOF 0
ENDMDL
