MODEL 1
REMARK minimizedAffinity -3.59117842
REMARK minimizedRMSD -1
REMARK  0 active torsions:
REMARK  status: ('A' for Active; 'I' for Inactive)
ROOT
ATOM      1  C   UNL d   1      -0.170   0.358  -0.137  0.00  0.00     0.172 C 
ATOM      2  N   UNL d   1       0.971  -0.212  -0.815  0.00  0.00    -0.070 N 
ATOM      3  C1  UNL d   1       1.117  -1.528  -1.162  0.00  0.00    -0.004 A 
ATOM      4  C2  UNL d   1       2.337  -1.666  -1.788  0.00  0.00    -0.047 A 
ATOM      5  C3  UNL d   1       2.945  -0.389  -1.818  0.00  0.00    -0.047 A 
ATOM      6  C4  UNL d   1       2.077   0.493  -1.209  0.00  0.00    -0.004 A 
ENDROOT
TORSDOF 0
ENDMDL
