MODEL 1
REMARK minimizedAffinity -2.18707514
REMARK minimizedRMSD -1
REMARK  0 active torsions:
REMARK  status: ('A' for Active; 'I' for Inactive)
ROOT
ATOM      1  C   UNL d   1       3.402  -0.786  -0.875  0.00  0.00     0.172 C 
ATOM      2  N   UNL d   1       2.007  -0.866  -0.508  0.00  0.00    -0.070 N 
ATOM      3  C1  UNL d   1       1.125   0.181  -0.492  0.00  0.00    -0.004 A 
ATOM      4  C2  UNL d   1      -0.100  -0.305  -0.089  0.00  0.00    -0.047 A 
ATOM      5  C3  UNL d   1       0.052  -1.693   0.145  0.00  0.00    -0.047 A 
ATOM      6  C4  UNL d   1       1.366  -2.013  -0.122  0.00  0.00    -0.004 A 
ENDROOT
TORSDOF 0
ENDMDL
