MODEL 1
REMARK minimizedAffinity -3.69907618
REMARK minimizedRMSD -1
REMARK  0 active torsions:
REMARK  status: ('A' for Active; 'I' for Inactive)
ROOT
ATOM      1  C   UNL d   1      -0.441   0.017   0.468  0.00  0.00     0.172 C 
ATOM      2  N   UNL d   1       0.678  -0.457  -0.311  0.00  0.00    -0.070 N 
ATOM      3  C1  UNL d   1       1.871   0.195  -0.474  0.00  0.00    -0.004 A 
ATOM      4  C2  UNL d   1       2.670  -0.582  -1.284  0.00  0.00    -0.047 A 
ATOM      5  C3  UNL d   1       1.932  -1.741  -1.621  0.00  0.00    -0.047 A 
ATOM      6  C4  UNL d   1       0.702  -1.638  -1.006  0.00  0.00    -0.004 A 
ENDROOT
TORSDOF 0
ENDMDL
