MODEL 1
REMARK minimizedAffinity -2.70549726
REMARK minimizedRMSD -1
REMARK  0 active torsions:
REMARK  status: ('A' for Active; 'I' for Inactive)
ROOT
ATOM      1  C   UNL d   1       2.389   1.742  -2.701  0.00  0.00     0.172 C 
ATOM      2  N   UNL d   1       2.477   0.533  -1.917  0.00  0.00    -0.070 N 
ATOM      3  C1  UNL d   1       3.528  -0.345  -1.919  0.00  0.00    -0.004 A 
ATOM      4  C2  UNL d   1       3.229  -1.364  -1.040  0.00  0.00    -0.047 A 
ATOM      5  C3  UNL d   1       1.954  -1.089  -0.492  0.00  0.00    -0.047 A 
ATOM      6  C4  UNL d   1       1.511   0.091  -1.051  0.00  0.00    -0.004 A 
ENDROOT
TORSDOF 0
ENDMDL
