MODEL 1
REMARK minimizedAffinity -3.54512596
REMARK minimizedRMSD -1
REMARK  0 active torsions:
REMARK  status: ('A' for Active; 'I' for Inactive)
ROOT
ATOM      1  C   UNL d   1      -0.853   0.041   0.370  0.00  0.00     0.172 C 
ATOM      2  N   UNL d   1       0.355  -0.450  -0.250  0.00  0.00    -0.070 N 
ATOM      3  C1  UNL d   1       1.266   0.309  -0.935  0.00  0.00    -0.004 A 
ATOM      4  C2  UNL d   1       2.271  -0.528  -1.369  0.00  0.00    -0.047 A 
ATOM      5  C3  UNL d   1       1.954  -1.835  -0.929  0.00  0.00    -0.047 A 
ATOM      6  C4  UNL d   1       0.762  -1.758  -0.239  0.00  0.00    -0.004 A 
ENDROOT
TORSDOF 0
ENDMDL
