MODEL 1
REMARK minimizedAffinity -3.82034898
REMARK minimizedRMSD -1
REMARK  0 active torsions:
REMARK  status: ('A' for Active; 'I' for Inactive)
ROOT
ATOM      1  C   UNL d   1      -1.024   0.704  -0.061  0.00  0.00     0.172 C 
ATOM      2  N   UNL d   1       0.263   0.778  -0.713  0.00  0.00    -0.070 N 
ATOM      3  C1  UNL d   1       1.320  -0.063  -0.489  0.00  0.00    -0.004 A 
ATOM      4  C2  UNL d   1       2.358   0.338  -1.303  0.00  0.00    -0.047 A 
ATOM      5  C3  UNL d   1       1.908   1.459  -2.041  0.00  0.00    -0.047 A 
ATOM      6  C4  UNL d   1       0.608   1.710  -1.656  0.00  0.00    -0.004 A 
ENDROOT
TORSDOF 0
ENDMDL
