MODEL 1
REMARK minimizedAffinity -0.978040159
REMARK minimizedRMSD -1
REMARK  0 active torsions:
REMARK  status: ('A' for Active; 'I' for Inactive)
ROOT
ATOM      1  C   UNL d   1       5.854  -1.260   5.999  0.00  0.00     0.172 C 
ATOM      2  N   UNL d   1       5.368  -0.041   5.396  0.00  0.00    -0.070 N 
ATOM      3  C1  UNL d   1       4.548   0.876   5.998  0.00  0.00    -0.004 A 
ATOM      4  C2  UNL d   1       4.315   1.890   5.095  0.00  0.00    -0.047 A 
ATOM      5  C3  UNL d   1       5.019   1.572   3.909  0.00  0.00    -0.047 A 
ATOM      6  C4  UNL d   1       5.662   0.371   4.123  0.00  0.00    -0.004 A 
ENDROOT
TORSDOF 0
ENDMDL
