MODEL 1
REMARK minimizedAffinity -3.7938273
REMARK minimizedRMSD -1
REMARK  0 active torsions:
REMARK  status: ('A' for Active; 'I' for Inactive)
ROOT
ATOM      1  C   UNL d   1       0.019   0.268   0.665  0.00  0.00     0.172 C 
ATOM      2  N   UNL d   1       1.033  -0.388  -0.127  0.00  0.00    -0.070 N 
ATOM      3  C1  UNL d   1       0.840  -1.488  -0.918  0.00  0.00    -0.004 A 
ATOM      4  C2  UNL d   1       2.047  -1.804  -1.504  0.00  0.00    -0.047 A 
ATOM      5  C3  UNL d   1       2.999  -0.861  -1.048  0.00  0.00    -0.047 A 
ATOM      6  C4  UNL d   1       2.344   0.004  -0.197  0.00  0.00    -0.004 A 
ENDROOT
TORSDOF 0
ENDMDL
