MODEL 1
REMARK minimizedAffinity -3.6608274
REMARK minimizedRMSD -1
REMARK  0 active torsions:
REMARK  status: ('A' for Active; 'I' for Inactive)
ROOT
ATOM      1  C   UNL d   1      -0.822   0.360   0.442  0.00  0.00     0.172 C 
ATOM      2  N   UNL d   1       0.196  -0.187  -0.423  0.00  0.00    -0.070 N 
ATOM      3  C1  UNL d   1       1.148   0.535  -1.092  0.00  0.00    -0.004 A 
ATOM      4  C2  UNL d   1       1.926  -0.351  -1.806  0.00  0.00    -0.047 A 
ATOM      5  C3  UNL d   1       1.423  -1.651  -1.558  0.00  0.00    -0.047 A 
ATOM      6  C4  UNL d   1       0.353  -1.520  -0.699  0.00  0.00    -0.004 A 
ENDROOT
TORSDOF 0
ENDMDL
