MODEL 1
REMARK minimizedAffinity -0.181585312
REMARK minimizedRMSD -1
REMARK  0 active torsions:
REMARK  status: ('A' for Active; 'I' for Inactive)
ROOT
ATOM      1  C   UNL d   1      -0.465  -5.998  -2.048  0.00  0.00     0.172 C 
ATOM      2  N   UNL d   1      -0.656  -5.998  -3.479  0.00  0.00    -0.070 N 
ATOM      3  C1  UNL d   1       0.340  -5.997  -4.418  0.00  0.00    -0.004 A 
ATOM      4  C2  UNL d   1      -0.252  -5.998  -5.663  0.00  0.00    -0.047 A 
ATOM      5  C3  UNL d   1      -1.653  -6.000  -5.465  0.00  0.00    -0.047 A 
ATOM      6  C4  UNL d   1      -1.876  -6.000  -4.104  0.00  0.00    -0.004 A 
ENDROOT
TORSDOF 0
ENDMDL
