MODEL 1
REMARK minimizedAffinity 0.0713913888
REMARK minimizedRMSD -1
REMARK  0 active torsions:
REMARK  status: ('A' for Active; 'I' for Inactive)
ROOT
ATOM      1  C   UNL d   1      -4.673  -5.978   0.866  0.00  0.00     0.172 C 
ATOM      2  N   UNL d   1      -4.993  -5.579   2.216  0.00  0.00    -0.070 N 
ATOM      3  C1  UNL d   1      -4.347  -6.000   3.348  0.00  0.00    -0.004 A 
ATOM      4  C2  UNL d   1      -4.950  -5.394   4.428  0.00  0.00    -0.047 A 
ATOM      5  C3  UNL d   1      -5.995  -4.581   3.930  0.00  0.00    -0.047 A 
ATOM      6  C4  UNL d   1      -6.000  -4.714   2.557  0.00  0.00    -0.004 A 
ENDROOT
TORSDOF 0
ENDMDL
