MODEL 1
REMARK minimizedAffinity 0.730325282
REMARK minimizedRMSD -1
REMARK  0 active torsions:
REMARK  status: ('A' for Active; 'I' for Inactive)
ROOT
ATOM      1  C   UNL d   1      -1.894  -5.886  -3.186  0.00  0.00     0.172 C 
ATOM      2  N   UNL d   1      -0.776  -5.906  -4.100  0.00  0.00    -0.070 N 
ATOM      3  C1  UNL d   1       0.543  -5.999  -3.746  0.00  0.00    -0.004 A 
ATOM      4  C2  UNL d   1       1.293  -5.986  -4.902  0.00  0.00    -0.047 A 
ATOM      5  C3  UNL d   1       0.393  -5.880  -5.989  0.00  0.00    -0.047 A 
ATOM      6  C4  UNL d   1      -0.881  -5.832  -5.464  0.00  0.00    -0.004 A 
ENDROOT
TORSDOF 0
ENDMDL
