MODEL 1
REMARK minimizedAffinity 0.733836949
REMARK minimizedRMSD -1
REMARK  0 active torsions:
REMARK  status: ('A' for Active; 'I' for Inactive)
ROOT
ATOM      1  C   UNL d   1       1.469   3.741   0.144  0.00  0.00     0.172 C 
ATOM      2  N   UNL d   1       2.868   4.091   0.066  0.00  0.00    -0.070 N 
ATOM      3  C1  UNL d   1       3.768   3.585  -0.833  0.00  0.00    -0.004 A 
ATOM      4  C2  UNL d   1       4.991   4.169  -0.580  0.00  0.00    -0.047 A 
ATOM      5  C3  UNL d   1       4.819   5.057   0.508  0.00  0.00    -0.047 A 
ATOM      6  C4  UNL d   1       3.495   4.989   0.888  0.00  0.00    -0.004 A 
ENDROOT
TORSDOF 0
ENDMDL
