MODEL 1
REMARK minimizedAffinity -2.79441237
REMARK minimizedRMSD -1
REMARK  0 active torsions:
REMARK  status: ('A' for Active; 'I' for Inactive)
ROOT
ATOM      1  C   UNL d   1      -2.299  -6.000  -3.082  0.00  0.00     0.172 C 
ATOM      2  N   UNL d   1      -1.123  -5.864  -3.909  0.00  0.00    -0.070 N 
ATOM      3  C1  UNL d   1       0.173  -5.910  -3.467  0.00  0.00    -0.004 A 
ATOM      4  C2  UNL d   1       0.997  -5.742  -4.559  0.00  0.00    -0.047 A 
ATOM      5  C3  UNL d   1       0.167  -5.587  -5.696  0.00  0.00    -0.047 A 
ATOM      6  C4  UNL d   1      -1.140  -5.667  -5.264  0.00  0.00    -0.004 A 
ENDROOT
TORSDOF 0
ENDMDL
