MODEL 1
REMARK minimizedAffinity 2.44664598
REMARK minimizedRMSD -1
REMARK  0 active torsions:
REMARK  status: ('A' for Active; 'I' for Inactive)
ROOT
ATOM      1  C   UNL d   1       1.173  -3.318   1.173  0.00  0.00     0.172 C 
ATOM      2  N   UNL d   1       0.766  -1.981   0.810  0.00  0.00    -0.070 N 
ATOM      3  C1  UNL d   1       1.442  -0.830   1.118  0.00  0.00    -0.004 A 
ATOM      4  C2  UNL d   1       0.731   0.229   0.595  0.00  0.00    -0.047 A 
ATOM      5  C3  UNL d   1      -0.411  -0.304  -0.048  0.00  0.00    -0.047 A 
ATOM      6  C4  UNL d   1      -0.365  -1.674   0.101  0.00  0.00    -0.004 A 
ENDROOT
TORSDOF 0
ENDMDL
