MODEL 1
REMARK minimizedAffinity -2.8981936
REMARK minimizedRMSD -1
REMARK  0 active torsions:
REMARK  status: ('A' for Active; 'I' for Inactive)
ROOT
ATOM      1  C   UNL d   1       0.977  -5.622  -5.292  0.00  0.00     0.172 C 
ATOM      2  N   UNL d   1      -0.440  -5.738  -5.040  0.00  0.00    -0.070 N 
ATOM      3  C1  UNL d   1      -1.019  -5.949  -3.817  0.00  0.00    -0.004 A 
ATOM      4  C2  UNL d   1      -2.384  -5.999  -3.999  0.00  0.00    -0.047 A 
ATOM      5  C3  UNL d   1      -2.635  -5.812  -5.379  0.00  0.00    -0.047 A 
ATOM      6  C4  UNL d   1      -1.414  -5.653  -6.000  0.00  0.00    -0.004 A 
ENDROOT
TORSDOF 0
ENDMDL
