MODEL 1
REMARK minimizedAffinity -0.780256927
REMARK minimizedRMSD -1
REMARK  0 active torsions:
REMARK  status: ('A' for Active; 'I' for Inactive)
ROOT
ATOM      1  C   UNL d   1       1.140   0.324  -0.579  0.00  0.00     0.172 C 
ATOM      2  N   UNL d   1       1.073  -1.048  -0.131  0.00  0.00    -0.070 N 
ATOM      3  C1  UNL d   1       1.727  -1.566   0.954  0.00  0.00    -0.004 A 
ATOM      4  C2  UNL d   1       1.404  -2.902   1.044  0.00  0.00    -0.047 A 
ATOM      5  C3  UNL d   1       0.525  -3.198  -0.025  0.00  0.00    -0.047 A 
ATOM      6  C4  UNL d   1       0.337  -2.032  -0.737  0.00  0.00    -0.004 A 
ENDROOT
TORSDOF 0
ENDMDL
