MODEL 1
REMARK minimizedAffinity -0.338508666
REMARK minimizedRMSD -1
REMARK  0 active torsions:
REMARK  status: ('A' for Active; 'I' for Inactive)
ROOT
ATOM      1  C   UNL d   1      -2.196  -5.975  -3.038  0.00  0.00     0.172 C 
ATOM      2  N   UNL d   1      -1.073  -5.984  -3.945  0.00  0.00    -0.070 N 
ATOM      3  C1  UNL d   1      -1.150  -5.992  -5.312  0.00  0.00    -0.004 A 
ATOM      4  C2  UNL d   1       0.136  -5.998  -5.808  0.00  0.00    -0.047 A 
ATOM      5  C3  UNL d   1       1.017  -5.994  -4.700  0.00  0.00    -0.047 A 
ATOM      6  C4  UNL d   1       0.242  -5.985  -3.559  0.00  0.00    -0.004 A 
ENDROOT
TORSDOF 0
ENDMDL
