MODEL 1
REMARK minimizedAffinity 1.52896321
REMARK minimizedRMSD -1
REMARK  0 active torsions:
REMARK  status: ('A' for Active; 'I' for Inactive)
ROOT
ATOM      1  C   UNL d   1       0.146  -5.974  -2.391  0.00  0.00     0.172 C 
ATOM      2  N   UNL d   1      -0.237  -5.981  -3.783  0.00  0.00    -0.070 N 
ATOM      3  C1  UNL d   1      -1.521  -5.999  -4.258  0.00  0.00    -0.004 A 
ATOM      4  C2  UNL d   1      -1.462  -5.999  -5.635  0.00  0.00    -0.047 A 
ATOM      5  C3  UNL d   1      -0.095  -5.980  -6.000  0.00  0.00    -0.047 A 
ATOM      6  C4  UNL d   1       0.641  -5.969  -4.834  0.00  0.00    -0.004 A 
ENDROOT
TORSDOF 0
ENDMDL
