MODEL 1
REMARK minimizedAffinity -1.35205364
REMARK minimizedRMSD -1
REMARK  0 active torsions:
REMARK  status: ('A' for Active; 'I' for Inactive)
ROOT
ATOM      1  C   UNL d   1       1.173   0.498   0.398  0.00  0.00     0.172 C 
ATOM      2  N   UNL d   1       0.386  -0.685   0.652  0.00  0.00    -0.070 N 
ATOM      3  C1  UNL d   1      -0.801  -0.723   1.334  0.00  0.00    -0.004 A 
ATOM      4  C2  UNL d   1      -1.232  -2.032   1.360  0.00  0.00    -0.047 A 
ATOM      5  C3  UNL d   1      -0.270  -2.808   0.671  0.00  0.00    -0.047 A 
ATOM      6  C4  UNL d   1       0.721  -1.949   0.243  0.00  0.00    -0.004 A 
ENDROOT
TORSDOF 0
ENDMDL
