MODEL 1
REMARK minimizedAffinity 0.362000048
REMARK minimizedRMSD -1
REMARK  0 active torsions:
REMARK  status: ('A' for Active; 'I' for Inactive)
ROOT
ATOM      1  C   UNL d   1      -0.443  -5.979  -2.364  0.00  0.00     0.172 C 
ATOM      2  N   UNL d   1      -0.615  -5.987  -3.798  0.00  0.00    -0.070 N 
ATOM      3  C1  UNL d   1       0.395  -5.991  -4.723  0.00  0.00    -0.004 A 
ATOM      4  C2  UNL d   1      -0.181  -5.999  -5.976  0.00  0.00    -0.047 A 
ATOM      5  C3  UNL d   1      -1.584  -6.000  -5.797  0.00  0.00    -0.047 A 
ATOM      6  C4  UNL d   1      -1.825  -5.992  -4.439  0.00  0.00    -0.004 A 
ENDROOT
TORSDOF 0
ENDMDL
