MODEL 1
REMARK minimizedAffinity -2.27024388
REMARK minimizedRMSD -1
REMARK  0 active torsions:
REMARK  status: ('A' for Active; 'I' for Inactive)
ROOT
ATOM      1  C   UNL d   1       2.723  -0.886   0.324  0.00  0.00     0.172 C 
ATOM      2  N   UNL d   1       1.350  -1.150   0.684  0.00  0.00    -0.070 N 
ATOM      3  C1  UNL d   1       0.785  -2.390   0.824  0.00  0.00    -0.004 A 
ATOM      4  C2  UNL d   1      -0.536  -2.215   1.174  0.00  0.00    -0.047 A 
ATOM      5  C3  UNL d   1      -0.774  -0.822   1.247  0.00  0.00    -0.047 A 
ATOM      6  C4  UNL d   1       0.410  -0.186   0.939  0.00  0.00    -0.004 A 
ENDROOT
TORSDOF 0
ENDMDL
