MODEL 1
REMARK minimizedAffinity 0.351657331
REMARK minimizedRMSD -1
REMARK  0 active torsions:
REMARK  status: ('A' for Active; 'I' for Inactive)
ROOT
ATOM      1  C   UNL d   1      -2.228  -6.000  -2.866  0.00  0.00     0.172 C 
ATOM      2  N   UNL d   1      -1.257  -5.980  -3.935  0.00  0.00    -0.070 N 
ATOM      3  C1  UNL d   1       0.102  -5.939  -3.778  0.00  0.00    -0.004 A 
ATOM      4  C2  UNL d   1       0.672  -5.932  -5.033  0.00  0.00    -0.047 A 
ATOM      5  C3  UNL d   1      -0.381  -5.970  -5.977  0.00  0.00    -0.047 A 
ATOM      6  C4  UNL d   1      -1.565  -5.999  -5.270  0.00  0.00    -0.004 A 
ENDROOT
TORSDOF 0
ENDMDL
