MODEL 1
REMARK minimizedAffinity -0.561662138
REMARK minimizedRMSD -1
REMARK  0 active torsions:
REMARK  status: ('A' for Active; 'I' for Inactive)
ROOT
ATOM      1  C   UNL d   1       0.465  -1.610   0.756  0.00  0.00     0.172 C 
ATOM      2  N   UNL d   1       1.651  -0.829   0.494  0.00  0.00    -0.070 N 
ATOM      3  C1  UNL d   1       2.924  -1.158   0.877  0.00  0.00    -0.004 A 
ATOM      4  C2  UNL d   1       3.767  -0.160   0.439  0.00  0.00    -0.047 A 
ATOM      5  C3  UNL d   1       2.974   0.802  -0.229  0.00  0.00    -0.047 A 
ATOM      6  C4  UNL d   1       1.668   0.363  -0.181  0.00  0.00    -0.004 A 
ENDROOT
TORSDOF 0
ENDMDL
