MODEL 1
REMARK minimizedAffinity -0.349582464
REMARK minimizedRMSD -1
REMARK  0 active torsions:
REMARK  status: ('A' for Active; 'I' for Inactive)
ROOT
ATOM      1  C   UNL d   1      -0.188  -5.967  -2.445  0.00  0.00     0.172 C 
ATOM      2  N   UNL d   1      -0.174  -5.967  -3.889  0.00  0.00    -0.070 N 
ATOM      3  C1  UNL d   1       0.946  -5.950  -4.677  0.00  0.00    -0.004 A 
ATOM      4  C2  UNL d   1       0.536  -5.958  -5.993  0.00  0.00    -0.047 A 
ATOM      5  C3  UNL d   1      -0.879  -5.979  -5.996  0.00  0.00    -0.047 A 
ATOM      6  C4  UNL d   1      -1.292  -5.985  -4.680  0.00  0.00    -0.004 A 
ENDROOT
TORSDOF 0
ENDMDL
