MODEL 1
REMARK minimizedAffinity 2.59241796
REMARK minimizedRMSD -1
REMARK  0 active torsions:
REMARK  status: ('A' for Active; 'I' for Inactive)
ROOT
ATOM      1  C   UNL d   1       3.457  -0.636   0.665  0.00  0.00     0.172 C 
ATOM      2  N   UNL d   1       2.163  -1.278   0.679  0.00  0.00    -0.070 N 
ATOM      3  C1  UNL d   1       1.943  -2.628   0.748  0.00  0.00    -0.004 A 
ATOM      4  C2  UNL d   1       0.581  -2.834   0.739  0.00  0.00    -0.047 A 
ATOM      5  C3  UNL d   1      -0.040  -1.565   0.660  0.00  0.00    -0.047 A 
ATOM      6  C4  UNL d   1       0.964  -0.619   0.625  0.00  0.00    -0.004 A 
ENDROOT
TORSDOF 0
ENDMDL
