MODEL 1
REMARK minimizedAffinity 5.73786974
REMARK minimizedRMSD -1
REMARK  0 active torsions:
REMARK  status: ('A' for Active; 'I' for Inactive)
ROOT
ATOM      1  C   UNL d   1      -5.413  -3.793  -5.852  0.00  0.00     0.023 A 
ATOM      2  C1  UNL d   1      -4.255  -3.026  -5.728  0.00  0.00     0.003 A 
ATOM      3  C2  UNL d   1      -3.006  -3.649  -5.676  0.00  0.00     0.048 A 
ATOM      4  C3  UNL d   1      -2.923  -5.039  -5.748  0.00  0.00     0.023 A 
ATOM      5  C4  UNL d   1      -4.080  -5.811  -5.873  0.00  0.00     0.048 A 
ATOM      6  C5  UNL d   1      -5.326  -5.183  -5.924  0.00  0.00     0.003 A 
ATOM      7  I   UNL d   1      -1.066  -5.969  -5.670  0.00  0.00    -0.146 I 
ENDROOT
TORSDOF 0
ENDMDL
