MODEL 1
REMARK minimizedAffinity -0.0712801367
REMARK minimizedRMSD -1
REMARK  0 active torsions:
REMARK  status: ('A' for Active; 'I' for Inactive)
ROOT
ATOM      1  C   UNL d   1      -2.049  -5.844  -5.032  0.00  0.00     0.023 A 
ATOM      2  C1  UNL d   1      -2.189  -4.878  -4.035  0.00  0.00     0.003 A 
ATOM      3  C2  UNL d   1      -3.322  -4.062  -4.005  0.00  0.00     0.048 A 
ATOM      4  C3  UNL d   1      -4.312  -4.218  -4.974  0.00  0.00     0.023 A 
ATOM      5  C4  UNL d   1      -4.178  -5.184  -5.973  0.00  0.00     0.048 A 
ATOM      6  C5  UNL d   1      -3.043  -5.997  -6.000  0.00  0.00     0.003 A 
ATOM      7  I   UNL d   1      -6.000  -3.006  -4.931  0.00  0.00    -0.146 I 
ENDROOT
TORSDOF 0
ENDMDL
