MODEL 1
REMARK minimizedAffinity -0.726628721
REMARK minimizedRMSD -1
REMARK  0 active torsions:
REMARK  status: ('A' for Active; 'I' for Inactive)
ROOT
ATOM      1  C   UNL d   1      -1.833  -0.302   1.730  0.00  0.00     0.023 A 
ATOM      2  C1  UNL d   1      -1.824   0.639   0.701  0.00  0.00     0.003 A 
ATOM      3  C2  UNL d   1      -2.546   0.402  -0.470  0.00  0.00     0.048 A 
ATOM      4  C3  UNL d   1      -3.276  -0.779  -0.605  0.00  0.00     0.023 A 
ATOM      5  C4  UNL d   1      -3.289  -1.723   0.422  0.00  0.00     0.048 A 
ATOM      6  C5  UNL d   1      -2.565  -1.482   1.591  0.00  0.00     0.003 A 
ATOM      7  I   UNL d   1      -4.352  -1.134  -2.348  0.00  0.00    -0.146 I 
ENDROOT
TORSDOF 0
ENDMDL
