MODEL 1
REMARK minimizedAffinity -2.23343396
REMARK minimizedRMSD -1
REMARK  0 active torsions:
REMARK  status: ('A' for Active; 'I' for Inactive)
ROOT
ATOM      1  C   UNL d   1      -5.378  -5.031  -4.367  0.00  0.00     0.023 A 
ATOM      2  C1  UNL d   1      -4.287  -4.598  -3.613  0.00  0.00     0.003 A 
ATOM      3  C2  UNL d   1      -2.987  -4.860  -4.049  0.00  0.00     0.048 A 
ATOM      4  C3  UNL d   1      -2.784  -5.554  -5.241  0.00  0.00     0.023 A 
ATOM      5  C4  UNL d   1      -3.872  -5.988  -6.000  0.00  0.00     0.048 A 
ATOM      6  C5  UNL d   1      -5.171  -5.725  -5.559  0.00  0.00     0.003 A 
ATOM      7  I   UNL d   1      -0.850  -5.944  -5.893  0.00  0.00    -0.146 I 
ENDROOT
TORSDOF 0
ENDMDL
