MODEL 1
REMARK minimizedAffinity -0.0226601567
REMARK minimizedRMSD -1
REMARK  0 active torsions:
REMARK  status: ('A' for Active; 'I' for Inactive)
ROOT
ATOM      1  C   UNL d   1      -5.373  -3.999  -5.761  0.00  0.00     0.023 A 
ATOM      2  C1  UNL d   1      -5.211  -5.377  -5.614  0.00  0.00     0.003 A 
ATOM      3  C2  UNL d   1      -3.934  -5.940  -5.661  0.00  0.00     0.048 A 
ATOM      4  C3  UNL d   1      -2.823  -5.120  -5.853  0.00  0.00     0.023 A 
ATOM      5  C4  UNL d   1      -2.980  -3.741  -6.000  0.00  0.00     0.048 A 
ATOM      6  C5  UNL d   1      -4.259  -3.182  -5.953  0.00  0.00     0.003 A 
ATOM      7  I   UNL d   1      -0.922  -5.956  -5.923  0.00  0.00    -0.146 I 
ENDROOT
TORSDOF 0
ENDMDL
