MODEL 1
REMARK minimizedAffinity -2.27517557
REMARK minimizedRMSD -1
REMARK  0 active torsions:
REMARK  status: ('A' for Active; 'I' for Inactive)
ROOT
ATOM      1  C   UNL d   1      -1.487  -5.628  -4.762  0.00  0.00     0.023 A 
ATOM      2  C1  UNL d   1      -2.252  -5.522  -3.601  0.00  0.00     0.003 A 
ATOM      3  C2  UNL d   1      -3.486  -4.868  -3.634  0.00  0.00     0.048 A 
ATOM      4  C3  UNL d   1      -3.948  -4.324  -4.832  0.00  0.00     0.023 A 
ATOM      5  C4  UNL d   1      -3.186  -4.429  -5.996  0.00  0.00     0.048 A 
ATOM      6  C5  UNL d   1      -1.953  -5.083  -5.958  0.00  0.00     0.003 A 
ATOM      7  I   UNL d   1      -5.784  -3.350  -4.883  0.00  0.00    -0.146 I 
ENDROOT
TORSDOF 0
ENDMDL
