MODEL 1
REMARK minimizedAffinity 3.028265
REMARK minimizedRMSD -1
REMARK  0 active torsions:
REMARK  status: ('A' for Active; 'I' for Inactive)
ROOT
ATOM      1  C   UNL d   1      -0.559  -1.671   0.148  0.00  0.00     0.023 A 
ATOM      2  C1  UNL d   1      -0.769  -0.300   0.297  0.00  0.00     0.003 A 
ATOM      3  C2  UNL d   1      -1.619   0.173   1.299  0.00  0.00     0.048 A 
ATOM      4  C3  UNL d   1      -2.255  -0.730   2.149  0.00  0.00     0.023 A 
ATOM      5  C4  UNL d   1      -2.048  -2.103   2.005  0.00  0.00     0.048 A 
ATOM      6  C5  UNL d   1      -1.198  -2.571   1.001  0.00  0.00     0.003 A 
ATOM      7  I   UNL d   1      -3.521  -0.028   3.641  0.00  0.00    -0.146 I 
ENDROOT
TORSDOF 0
ENDMDL
