MODEL 1
REMARK minimizedAffinity -0.92375052
REMARK minimizedRMSD -1
REMARK  0 active torsions:
REMARK  status: ('A' for Active; 'I' for Inactive)
ROOT
ATOM      1  C   UNL d   1      -1.843  -6.000  -4.062  0.00  0.00     0.023 A 
ATOM      2  C1  UNL d   1      -1.877  -5.797  -5.442  0.00  0.00     0.003 A 
ATOM      3  C2  UNL d   1      -2.822  -4.933  -5.999  0.00  0.00     0.048 A 
ATOM      4  C3  UNL d   1      -3.729  -4.274  -5.170  0.00  0.00     0.023 A 
ATOM      5  C4  UNL d   1      -3.699  -4.473  -3.789  0.00  0.00     0.048 A 
ATOM      6  C5  UNL d   1      -2.753  -5.339  -3.237  0.00  0.00     0.003 A 
ATOM      7  I   UNL d   1      -5.137  -2.988  -5.997  0.00  0.00    -0.146 I 
ENDROOT
TORSDOF 0
ENDMDL
