MODEL 1
REMARK minimizedAffinity 2.81152153
REMARK minimizedRMSD -1
REMARK  0 active torsions:
REMARK  status: ('A' for Active; 'I' for Inactive)
ROOT
ATOM      1  C   UNL d   1      -0.242  -1.465   0.067  0.00  0.00     0.023 A 
ATOM      2  C1  UNL d   1      -1.234  -2.378   0.424  0.00  0.00     0.003 A 
ATOM      3  C2  UNL d   1      -2.127  -2.074   1.453  0.00  0.00     0.048 A 
ATOM      4  C3  UNL d   1      -2.023  -0.855   2.121  0.00  0.00     0.023 A 
ATOM      5  C4  UNL d   1      -1.032   0.063   1.767  0.00  0.00     0.048 A 
ATOM      6  C5  UNL d   1      -0.141  -0.246   0.738  0.00  0.00     0.003 A 
ATOM      7  I   UNL d   1      -3.351  -0.400   3.654  0.00  0.00    -0.146 I 
ENDROOT
TORSDOF 0
ENDMDL
