MODEL 1
REMARK minimizedAffinity -0.888085246
REMARK minimizedRMSD -1
REMARK  0 active torsions:
REMARK  status: ('A' for Active; 'I' for Inactive)
ROOT
ATOM      1  C   UNL d   1      -6.000  -3.733  -5.819  0.00  0.00     0.023 A 
ATOM      2  C1  UNL d   1      -5.942  -5.117  -5.988  0.00  0.00     0.003 A 
ATOM      3  C2  UNL d   1      -4.707  -5.769  -6.000  0.00  0.00     0.048 A 
ATOM      4  C3  UNL d   1      -3.534  -5.031  -5.842  0.00  0.00     0.023 A 
ATOM      5  C4  UNL d   1      -3.587  -3.647  -5.672  0.00  0.00     0.048 A 
ATOM      6  C5  UNL d   1      -4.824  -2.999  -5.662  0.00  0.00     0.003 A 
ATOM      7  I   UNL d   1      -1.696  -6.000  -5.859  0.00  0.00    -0.146 I 
ENDROOT
TORSDOF 0
ENDMDL
