MODEL 1
REMARK minimizedAffinity -2.02049065
REMARK minimizedRMSD -1
REMARK  0 active torsions:
REMARK  status: ('A' for Active; 'I' for Inactive)
ROOT
ATOM      1  C   UNL d   1      -4.134  -5.944  -5.592  0.00  0.00     0.023 A 
ATOM      2  C1  UNL d   1      -5.427  -5.612  -5.997  0.00  0.00     0.003 A 
ATOM      3  C2  UNL d   1      -5.964  -4.365  -5.668  0.00  0.00     0.048 A 
ATOM      4  C3  UNL d   1      -5.203  -3.455  -4.936  0.00  0.00     0.023 A 
ATOM      5  C4  UNL d   1      -3.908  -3.783  -4.530  0.00  0.00     0.048 A 
ATOM      6  C5  UNL d   1      -3.375  -5.030  -4.860  0.00  0.00     0.003 A 
ATOM      7  I   UNL d   1      -6.000  -1.600  -4.446  0.00  0.00    -0.146 I 
ENDROOT
TORSDOF 0
ENDMDL
