MODEL 1
REMARK minimizedAffinity 3.07991314
REMARK minimizedRMSD -1
REMARK  0 active torsions:
REMARK  status: ('A' for Active; 'I' for Inactive)
ROOT
ATOM      1  C   UNL d   1      -6.000  -1.013  -4.113  0.00  0.00     0.023 A 
ATOM      2  C1  UNL d   1      -5.955  -2.157  -3.316  0.00  0.00     0.003 A 
ATOM      3  C2  UNL d   1      -5.510  -3.367  -3.853  0.00  0.00     0.048 A 
ATOM      4  C3  UNL d   1      -5.111  -3.425  -5.187  0.00  0.00     0.023 A 
ATOM      5  C4  UNL d   1      -5.153  -2.283  -5.989  0.00  0.00     0.048 A 
ATOM      6  C5  UNL d   1      -5.600  -1.076  -5.447  0.00  0.00     0.003 A 
ATOM      7  I   UNL d   1      -4.448  -5.225  -5.989  0.00  0.00    -0.146 I 
ENDROOT
TORSDOF 0
ENDMDL
