MODEL 1
REMARK minimizedAffinity -2.89943743
REMARK minimizedRMSD -1
REMARK  0 active torsions:
REMARK  status: ('A' for Active; 'I' for Inactive)
ROOT
ATOM      1  C   UNL d   1      -6.000  -4.426  -5.320  0.00  0.00     0.023 A 
ATOM      2  C1  UNL d   1      -5.043  -3.678  -4.634  0.00  0.00     0.003 A 
ATOM      3  C2  UNL d   1      -3.708  -4.089  -4.626  0.00  0.00     0.048 A 
ATOM      4  C3  UNL d   1      -3.338  -5.248  -5.306  0.00  0.00     0.023 A 
ATOM      5  C4  UNL d   1      -4.292  -6.000  -5.994  0.00  0.00     0.048 A 
ATOM      6  C5  UNL d   1      -5.625  -5.585  -5.999  0.00  0.00     0.003 A 
ATOM      7  I   UNL d   1      -1.352  -5.862  -5.294  0.00  0.00    -0.146 I 
ENDROOT
TORSDOF 0
ENDMDL
