MODEL 1
REMARK minimizedAffinity -2.8497231
REMARK minimizedRMSD -1
REMARK  0 active torsions:
REMARK  status: ('A' for Active; 'I' for Inactive)
ROOT
ATOM      1  C   UNL d   1      -1.834  -5.551  -5.761  0.00  0.00     0.023 A 
ATOM      2  C1  UNL d   1      -3.133  -6.000  -5.999  0.00  0.00     0.003 A 
ATOM      3  C2  UNL d   1      -4.220  -5.162  -5.745  0.00  0.00     0.048 A 
ATOM      4  C3  UNL d   1      -4.001  -3.875  -5.253  0.00  0.00     0.023 A 
ATOM      5  C4  UNL d   1      -2.703  -3.421  -5.014  0.00  0.00     0.048 A 
ATOM      6  C5  UNL d   1      -1.619  -4.264  -5.269  0.00  0.00     0.003 A 
ATOM      7  I   UNL d   1      -5.618  -2.626  -4.874  0.00  0.00    -0.146 I 
ENDROOT
TORSDOF 0
ENDMDL
