MODEL 1
REMARK minimizedAffinity 2.0167346
REMARK minimizedRMSD -1
REMARK  0 active torsions:
REMARK  status: ('A' for Active; 'I' for Inactive)
ROOT
ATOM      1  C   UNL d   1      -0.366  -5.571  -3.924  0.00  0.00     0.023 A 
ATOM      2  C1  UNL d   1      -1.485  -5.851  -3.140  0.00  0.00     0.003 A 
ATOM      3  C2  UNL d   1      -2.742  -5.974  -3.734  0.00  0.00     0.048 A 
ATOM      4  C3  UNL d   1      -2.874  -5.817  -5.113  0.00  0.00     0.023 A 
ATOM      5  C4  UNL d   1      -1.757  -5.537  -5.902  0.00  0.00     0.048 A 
ATOM      6  C5  UNL d   1      -0.501  -5.414  -5.303  0.00  0.00     0.003 A 
ATOM      7  I   UNL d   1      -4.744  -6.000  -6.000  0.00  0.00    -0.146 I 
ENDROOT
TORSDOF 0
ENDMDL
