MODEL 1
REMARK minimizedAffinity -2.24816394
REMARK minimizedRMSD -1
REMARK  1 active torsions:
REMARK  status: ('A' for Active; 'I' for Inactive)
REMARK    1  A    between atoms: C1_2  and  C2_3 
ROOT
ATOM      1  C2  UNL d   1       0.538   1.583   0.273  0.00  0.00    -0.076 A 
ATOM      2  C3  UNL d   1      -0.180   1.415  -0.923  0.00  0.00     0.004 A 
ATOM      3  C4  UNL d   1      -0.658   0.162  -1.303  0.00  0.00    -0.003 A 
ATOM      4  C5  UNL d   1      -0.426  -0.944  -0.492  0.00  0.00     0.000 A 
ATOM      5  C6  UNL d   1       0.269  -0.792   0.707  0.00  0.00     0.000 A 
ATOM      6  C7  UNL d   1       0.744   0.467   1.112  0.00  0.00    -0.073 A 
ATOM      7  C8  UNL d   1       1.493   0.571   2.413  0.00  0.00     0.078 C 
ENDROOT
BRANCH   1   8
ATOM      8  C1  UNL d   1       1.056   2.960   0.620  0.00  0.00     0.053 C 
ATOM      9  C   UNL d   1       2.541   3.114   0.333  0.00  0.00     0.018 C 
ENDBRANCH   1   8
TORSDOF 1
ENDMDL
