MODEL 1
REMARK minimizedAffinity -1.72941148
REMARK minimizedRMSD -1
REMARK  1 active torsions:
REMARK  status: ('A' for Active; 'I' for Inactive)
REMARK    1  A    between atoms: C1_2  and  C2_3 
ROOT
ATOM      1  C2  UNL d   1      -0.168  -1.425   0.370  0.00  0.00    -0.076 A 
ATOM      2  C3  UNL d   1       1.046  -1.503  -0.334  0.00  0.00     0.004 A 
ATOM      3  C4  UNL d   1       1.519  -2.722  -0.816  0.00  0.00    -0.003 A 
ATOM      4  C5  UNL d   1       0.785  -3.884  -0.602  0.00  0.00     0.000 A 
ATOM      5  C6  UNL d   1      -0.431  -3.822   0.079  0.00  0.00     0.000 A 
ATOM      6  C7  UNL d   1      -0.930  -2.598   0.557  0.00  0.00    -0.073 A 
ATOM      7  C8  UNL d   1      -2.243  -2.590   1.290  0.00  0.00     0.078 C 
ENDROOT
BRANCH   1   8
ATOM      8  C1  UNL d   1      -0.617  -0.079   0.892  0.00  0.00     0.053 C 
ATOM      9  C   UNL d   1      -0.090   1.077   0.055  0.00  0.00     0.018 C 
ENDBRANCH   1   8
TORSDOF 1
ENDMDL
