MODEL 1
REMARK minimizedAffinity -0.481141686
REMARK minimizedRMSD -1
REMARK  1 active torsions:
REMARK  status: ('A' for Active; 'I' for Inactive)
REMARK    1  A    between atoms: C1_2  and  C2_3 
ROOT
ATOM      1  C2  UNL d   1      -0.565  -1.041   0.433  0.00  0.00    -0.076 A 
ATOM      2  C3  UNL d   1       0.168  -0.919  -0.760  0.00  0.00     0.004 A 
ATOM      3  C4  UNL d   1       0.446   0.334  -1.306  0.00  0.00    -0.003 A 
ATOM      4  C5  UNL d   1      -0.004   1.484  -0.666  0.00  0.00     0.000 A 
ATOM      5  C6  UNL d   1      -0.718   1.381   0.528  0.00  0.00     0.000 A 
ATOM      6  C7  UNL d   1      -0.992   0.127   1.100  0.00  0.00    -0.073 A 
ATOM      7  C8  UNL d   1      -1.771   0.075   2.385  0.00  0.00     0.078 C 
ENDROOT
BRANCH   1   8
ATOM      8  C1  UNL d   1      -0.860  -2.427   0.963  0.00  0.00     0.053 C 
ATOM      9  C   UNL d   1      -0.735  -3.499  -0.108  0.00  0.00     0.018 C 
ENDBRANCH   1   8
TORSDOF 1
ENDMDL
