MODEL 1
REMARK minimizedAffinity -4.33806372
REMARK minimizedRMSD -1
REMARK  1 active torsions:
REMARK  status: ('A' for Active; 'I' for Inactive)
REMARK    1  A    between atoms: C1_2  and  C2_3 
ROOT
ATOM      1  C2  UNL d   1       0.217  -1.332  -0.006  0.00  0.00    -0.076 A 
ATOM      2  C3  UNL d   1      -0.246  -0.484   1.016  0.00  0.00     0.004 A 
ATOM      3  C4  UNL d   1      -0.336   0.893   0.819  0.00  0.00    -0.003 A 
ATOM      4  C5  UNL d   1       0.034   1.444  -0.403  0.00  0.00     0.000 A 
ATOM      5  C6  UNL d   1       0.479   0.616  -1.433  0.00  0.00     0.000 A 
ATOM      6  C7  UNL d   1       0.560  -0.776  -1.256  0.00  0.00    -0.073 A 
ATOM      7  C8  UNL d   1       1.052  -1.621  -2.399  0.00  0.00     0.078 C 
ENDROOT
BRANCH   1   8
ATOM      8  C1  UNL d   1       0.319  -2.815   0.275  0.00  0.00     0.053 C 
ATOM      9  C   UNL d   1      -1.041  -3.464   0.478  0.00  0.00     0.018 C 
ENDBRANCH   1   8
TORSDOF 1
ENDMDL
