MODEL 1
REMARK minimizedAffinity -2.12106681
REMARK minimizedRMSD -1
REMARK  1 active torsions:
REMARK  status: ('A' for Active; 'I' for Inactive)
REMARK    1  A    between atoms: C1_2  and  C2_3 
ROOT
ATOM      1  C2  UNL d   1       0.001   0.233  -0.071  0.00  0.00    -0.076 A 
ATOM      2  C3  UNL d   1      -0.550   0.156   1.220  0.00  0.00     0.004 A 
ATOM      3  C4  UNL d   1      -1.041  -1.048   1.720  0.00  0.00    -0.003 A 
ATOM      4  C5  UNL d   1      -0.989  -2.197   0.938  0.00  0.00     0.000 A 
ATOM      5  C6  UNL d   1      -0.430  -2.143  -0.339  0.00  0.00     0.000 A 
ATOM      6  C7  UNL d   1       0.084  -0.940  -0.852  0.00  0.00    -0.073 A 
ATOM      7  C8  UNL d   1       0.670  -0.938  -2.238  0.00  0.00     0.078 C 
ENDROOT
BRANCH   1   8
ATOM      8  C1  UNL d   1       0.492   1.573  -0.571  0.00  0.00     0.053 C 
ATOM      9  C   UNL d   1       0.544   2.621   0.529  0.00  0.00     0.018 C 
ENDBRANCH   1   8
TORSDOF 1
ENDMDL
