MODEL 1
REMARK minimizedAffinity 2.07628369
REMARK minimizedRMSD -1
REMARK  1 active torsions:
REMARK  status: ('A' for Active; 'I' for Inactive)
REMARK    1  A    between atoms: C1_2  and  C2_3 
ROOT
ATOM      1  C2  UNL d   1       5.623  -3.338   3.582  0.00  0.00    -0.076 A 
ATOM      2  C3  UNL d   1       5.340  -4.710   3.468  0.00  0.00     0.004 A 
ATOM      3  C4  UNL d   1       5.180  -5.506   4.601  0.00  0.00    -0.003 A 
ATOM      4  C5  UNL d   1       5.299  -4.943   5.866  0.00  0.00     0.000 A 
ATOM      5  C6  UNL d   1       5.562  -3.580   5.999  0.00  0.00     0.000 A 
ATOM      6  C7  UNL d   1       5.711  -2.760   4.867  0.00  0.00    -0.073 A 
ATOM      7  C8  UNL d   1       5.999  -1.297   5.068  0.00  0.00     0.078 C 
ENDROOT
BRANCH   1   8
ATOM      8  C1  UNL d   1       5.814  -2.530   2.318  0.00  0.00     0.053 C 
ATOM      9  C   UNL d   1       5.999  -3.406   1.089  0.00  0.00     0.018 C 
ENDBRANCH   1   8
TORSDOF 1
ENDMDL
