MODEL 1
REMARK minimizedAffinity -2.50371361
REMARK minimizedRMSD -1
REMARK  1 active torsions:
REMARK  status: ('A' for Active; 'I' for Inactive)
REMARK    1  A    between atoms: C1_2  and  C2_3 
ROOT
ATOM      1  C2  UNL d   1      -0.178  -0.704  -0.881  0.00  0.00    -0.076 A 
ATOM      2  C3  UNL d   1      -0.473   0.670  -0.851  0.00  0.00     0.004 A 
ATOM      3  C4  UNL d   1      -1.194   1.225   0.205  0.00  0.00    -0.003 A 
ATOM      4  C5  UNL d   1      -1.631   0.415   1.248  0.00  0.00     0.000 A 
ATOM      5  C6  UNL d   1      -1.332  -0.947   1.242  0.00  0.00     0.000 A 
ATOM      6  C7  UNL d   1      -0.592  -1.520   0.194  0.00  0.00    -0.073 A 
ATOM      7  C8  UNL d   1      -0.304  -2.995   0.236  0.00  0.00     0.078 C 
ENDROOT
BRANCH   1   8
ATOM      8  C1  UNL d   1       0.584  -1.255  -2.066  0.00  0.00     0.053 C 
ATOM      9  C   UNL d   1       0.512  -0.343  -3.280  0.00  0.00     0.018 C 
ENDBRANCH   1   8
TORSDOF 1
ENDMDL
