MODEL 1
REMARK minimizedAffinity 0.0279243402
REMARK minimizedRMSD -1
REMARK  1 active torsions:
REMARK  status: ('A' for Active; 'I' for Inactive)
REMARK    1  A    between atoms: C1_2  and  C2_3 
ROOT
ATOM      1  C2  UNL d   1      -0.204   0.314  -0.442  0.00  0.00    -0.076 A 
ATOM      2  C3  UNL d   1      -0.730   0.145   0.851  0.00  0.00     0.004 A 
ATOM      3  C4  UNL d   1      -1.167  -1.104   1.290  0.00  0.00    -0.003 A 
ATOM      4  C5  UNL d   1      -1.083  -2.204   0.445  0.00  0.00     0.000 A 
ATOM      5  C6  UNL d   1      -0.548  -2.059  -0.835  0.00  0.00     0.000 A 
ATOM      6  C7  UNL d   1      -0.088  -0.810  -1.288  0.00  0.00    -0.073 A 
ATOM      7  C8  UNL d   1       0.475  -0.709  -2.679  0.00  0.00     0.078 C 
ENDROOT
BRANCH   1   8
ATOM      8  C1  UNL d   1       0.228   1.697  -0.873  0.00  0.00     0.053 C 
ATOM      9  C   UNL d   1       0.955   2.451   0.230  0.00  0.00     0.018 C 
ENDBRANCH   1   8
TORSDOF 1
ENDMDL
