MODEL 1
REMARK minimizedAffinity -2.72237635
REMARK minimizedRMSD -1
REMARK  1 active torsions:
REMARK  status: ('A' for Active; 'I' for Inactive)
REMARK    1  A    between atoms: C1_2  and  C2_3 
ROOT
ATOM      1  C2  UNL d   1       0.875   1.093   0.746  0.00  0.00    -0.076 A 
ATOM      2  C3  UNL d   1       1.664   1.507   1.834  0.00  0.00     0.004 A 
ATOM      3  C4  UNL d   1       2.208   2.790   1.878  0.00  0.00    -0.003 A 
ATOM      4  C5  UNL d   1       1.973   3.679   0.835  0.00  0.00     0.000 A 
ATOM      5  C6  UNL d   1       1.178   3.291  -0.243  0.00  0.00     0.000 A 
ATOM      6  C7  UNL d   1       0.608   2.007  -0.295  0.00  0.00    -0.073 A 
ATOM      7  C8  UNL d   1      -0.236   1.640  -1.485  0.00  0.00     0.078 C 
ENDROOT
BRANCH   1   8
ATOM      8  C1  UNL d   1       0.334  -0.319   0.740  0.00  0.00     0.053 C 
ATOM      9  C   UNL d   1      -1.167  -0.368   0.981  0.00  0.00     0.018 C 
ENDBRANCH   1   8
TORSDOF 1
ENDMDL
