MODEL 1
REMARK minimizedAffinity -2.48325992
REMARK minimizedRMSD -1
REMARK  1 active torsions:
REMARK  status: ('A' for Active; 'I' for Inactive)
REMARK    1  A    between atoms: C1_2  and  C2_3 
ROOT
ATOM      1  C2  UNL d   1      -0.278   0.255  -0.172  0.00  0.00    -0.076 A 
ATOM      2  C3  UNL d   1       0.188  -0.357  -1.350  0.00  0.00     0.004 A 
ATOM      3  C4  UNL d   1       0.194  -1.744  -1.483  0.00  0.00    -0.003 A 
ATOM      4  C5  UNL d   1      -0.266  -2.543  -0.442  0.00  0.00     0.000 A 
ATOM      5  C6  UNL d   1      -0.748  -1.953   0.726  0.00  0.00     0.000 A 
ATOM      6  C7  UNL d   1      -0.776  -0.555   0.871  0.00  0.00    -0.073 A 
ATOM      7  C8  UNL d   1      -1.300   0.027   2.154  0.00  0.00     0.078 C 
ENDROOT
BRANCH   1   8
ATOM      8  C1  UNL d   1      -0.235   1.763  -0.074  0.00  0.00     0.053 C 
ATOM      9  C   UNL d   1       1.167   2.290   0.188  0.00  0.00     0.018 C 
ENDBRANCH   1   8
TORSDOF 1
ENDMDL
