MODEL 1
REMARK minimizedAffinity -2.15695119
REMARK minimizedRMSD -1
REMARK  1 active torsions:
REMARK  status: ('A' for Active; 'I' for Inactive)
REMARK    1  A    between atoms: C1_2  and  C2_3 
ROOT
ATOM      1  C2  UNL d   1      -0.042   0.343   0.488  0.00  0.00    -0.076 A 
ATOM      2  C3  UNL d   1       0.383  -0.080  -0.783  0.00  0.00     0.004 A 
ATOM      3  C4  UNL d   1       0.168  -1.388  -1.214  0.00  0.00    -0.003 A 
ATOM      4  C5  UNL d   1      -0.478  -2.294  -0.381  0.00  0.00     0.000 A 
ATOM      5  C6  UNL d   1      -0.922  -1.888   0.877  0.00  0.00     0.000 A 
ATOM      6  C7  UNL d   1      -0.727  -0.568   1.320  0.00  0.00    -0.073 A 
ATOM      7  C8  UNL d   1      -1.222  -0.186   2.688  0.00  0.00     0.078 C 
ENDROOT
BRANCH   1   8
ATOM      8  C1  UNL d   1       0.244   1.766   0.912  0.00  0.00     0.053 C 
ATOM      9  C   UNL d   1       1.665   2.197   0.584  0.00  0.00     0.018 C 
ENDBRANCH   1   8
TORSDOF 1
ENDMDL
