MODEL 1
REMARK minimizedAffinity 0.846522748
REMARK minimizedRMSD -1
REMARK  1 active torsions:
REMARK  status: ('A' for Active; 'I' for Inactive)
REMARK    1  A    between atoms: C1_2  and  C2_3 
ROOT
ATOM      1  C2  UNL d   1      -0.315  -1.191   0.229  0.00  0.00    -0.076 A 
ATOM      2  C3  UNL d   1      -0.649  -0.453   1.378  0.00  0.00     0.004 A 
ATOM      3  C4  UNL d   1      -0.523   0.935   1.401  0.00  0.00    -0.003 A 
ATOM      4  C5  UNL d   1      -0.063   1.608   0.274  0.00  0.00     0.000 A 
ATOM      5  C6  UNL d   1       0.256   0.893  -0.880  0.00  0.00     0.000 A 
ATOM      6  C7  UNL d   1       0.120  -0.505  -0.925  0.00  0.00    -0.073 A 
ATOM      7  C8  UNL d   1       0.485  -1.225  -2.194  0.00  0.00     0.078 C 
ENDROOT
BRANCH   1   8
ATOM      8  C1  UNL d   1      -0.445  -2.697   0.272  0.00  0.00     0.053 C 
ATOM      9  C   UNL d   1      -1.828  -3.174  -0.143  0.00  0.00     0.018 C 
ENDBRANCH   1   8
TORSDOF 1
ENDMDL
