MODEL 1
REMARK minimizedAffinity -4.37956429
REMARK minimizedRMSD -1
REMARK  1 active torsions:
REMARK  status: ('A' for Active; 'I' for Inactive)
REMARK    1  A    between atoms: C1_2  and  C2_3 
ROOT
ATOM      1  C2  UNL d   1      -0.047   0.350  -0.334  0.00  0.00    -0.076 A 
ATOM      2  C3  UNL d   1      -0.369  -0.250   0.896  0.00  0.00     0.004 A 
ATOM      3  C4  UNL d   1      -0.566  -1.627   0.992  0.00  0.00    -0.003 A 
ATOM      4  C5  UNL d   1      -0.443  -2.426  -0.139  0.00  0.00     0.000 A 
ATOM      5  C6  UNL d   1      -0.107  -1.849  -1.364  0.00  0.00     0.000 A 
ATOM      6  C7  UNL d   1       0.111  -0.465  -1.475  0.00  0.00    -0.073 A 
ATOM      7  C8  UNL d   1       0.465   0.104  -2.821  0.00  0.00     0.078 C 
ENDROOT
BRANCH   1   8
ATOM      8  C1  UNL d   1       0.127   1.851  -0.383  0.00  0.00     0.053 C 
ATOM      9  C   UNL d   1       1.573   2.276  -0.179  0.00  0.00     0.018 C 
ENDBRANCH   1   8
TORSDOF 1
ENDMDL
