MODEL 1
REMARK minimizedAffinity -3.55150938
REMARK minimizedRMSD -1
REMARK  1 active torsions:
REMARK  status: ('A' for Active; 'I' for Inactive)
REMARK    1  A    between atoms: C1_2  and  C2_3 
ROOT
ATOM      1  C2  UNL d   1       0.335  -1.503  -2.161  0.00  0.00    -0.076 A 
ATOM      2  C3  UNL d   1      -0.149  -2.250  -1.073  0.00  0.00     0.004 A 
ATOM      3  C4  UNL d   1      -0.501  -1.629   0.124  0.00  0.00    -0.003 A 
ATOM      4  C5  UNL d   1      -0.375  -0.250   0.252  0.00  0.00     0.000 A 
ATOM      5  C6  UNL d   1       0.086   0.509  -0.823  0.00  0.00     0.000 A 
ATOM      6  C7  UNL d   1       0.430  -0.100  -2.042  0.00  0.00    -0.073 A 
ATOM      7  C8  UNL d   1       0.928   0.766  -3.166  0.00  0.00     0.078 C 
ENDROOT
BRANCH   1   8
ATOM      8  C1  UNL d   1       0.726  -2.234  -3.425  0.00  0.00     0.053 C 
ATOM      9  C   UNL d   1       2.179  -2.685  -3.411  0.00  0.00     0.018 C 
ENDBRANCH   1   8
TORSDOF 1
ENDMDL
