MODEL 1
REMARK minimizedAffinity -4.88692045
REMARK minimizedRMSD -1
REMARK  1 active torsions:
REMARK  status: ('A' for Active; 'I' for Inactive)
REMARK    1  A    between atoms: C1_2  and  C2_3 
ROOT
ATOM      1  C2  UNL d   1      -0.132  -0.746  -0.196  0.00  0.00    -0.076 A 
ATOM      2  C3  UNL d   1      -0.417  -1.351   1.040  0.00  0.00     0.004 A 
ATOM      3  C4  UNL d   1      -0.586  -2.731   1.141  0.00  0.00    -0.003 A 
ATOM      4  C5  UNL d   1      -0.473  -3.528   0.007  0.00  0.00     0.000 A 
ATOM      5  C6  UNL d   1      -0.174  -2.946  -1.224  0.00  0.00     0.000 A 
ATOM      6  C7  UNL d   1       0.016  -1.558  -1.340  0.00  0.00    -0.073 A 
ATOM      7  C8  UNL d   1       0.331  -0.983  -2.694  0.00  0.00     0.078 C 
ENDROOT
BRANCH   1   8
ATOM      8  C1  UNL d   1       0.014   0.758  -0.249  0.00  0.00     0.053 C 
ATOM      9  C   UNL d   1       1.188   1.259   0.579  0.00  0.00     0.018 C 
ENDBRANCH   1   8
TORSDOF 1
ENDMDL
