MODEL 1
REMARK minimizedAffinity 5.16192865
REMARK minimizedRMSD -1
REMARK  0 active torsions:
REMARK  status: ('A' for Active; 'I' for Inactive)
ROOT
ATOM      1  C   UNL d   1      -0.108   2.590   1.109  0.00  0.00     0.023 A 
ATOM      2  C1  UNL d   1      -0.751   2.424   2.336  0.00  0.00     0.003 A 
ATOM      3  C2  UNL d   1      -0.312   1.444   3.229  0.00  0.00     0.048 A 
ATOM      4  C3  UNL d   1       0.771   0.634   2.889  0.00  0.00     0.023 A 
ATOM      5  C4  UNL d   1       1.419   0.797   1.663  0.00  0.00     0.048 A 
ATOM      6  C5  UNL d   1       0.976   1.778   0.773  0.00  0.00     0.003 A 
ATOM      7  I   UNL d   1       1.426  -0.825   4.216  0.00  0.00    -0.146 I 
ENDROOT
TORSDOF 0
ENDMDL
