MODEL 1
REMARK minimizedAffinity 3.64830995
REMARK minimizedRMSD -1
REMARK  0 active torsions:
REMARK  status: ('A' for Active; 'I' for Inactive)
ROOT
ATOM      1  C   UNL d   1      -1.199  -0.500  -1.581  0.00  0.00     0.023 A 
ATOM      2  C1  UNL d   1      -2.168   0.376  -1.092  0.00  0.00     0.003 A 
ATOM      3  C2  UNL d   1      -1.790   1.607  -0.551  0.00  0.00     0.048 A 
ATOM      4  C3  UNL d   1      -0.441   1.956  -0.503  0.00  0.00     0.023 A 
ATOM      5  C4  UNL d   1       0.532   1.083  -0.992  0.00  0.00     0.048 A 
ATOM      6  C5  UNL d   1       0.150  -0.147  -1.531  0.00  0.00     0.003 A 
ATOM      7  I   UNL d   1       0.124   3.787   0.301  0.00  0.00    -0.146 I 
ENDROOT
TORSDOF 0
ENDMDL
