MODEL 1
REMARK minimizedAffinity 15.9391689
REMARK minimizedRMSD -1
REMARK  0 active torsions:
REMARK  status: ('A' for Active; 'I' for Inactive)
ROOT
ATOM      1  C   UNL d   1       0.476   5.070  -0.704  0.00  0.00     0.023 A 
ATOM      2  C1  UNL d   1       1.306   4.243   0.054  0.00  0.00     0.003 A 
ATOM      3  C2  UNL d   1       0.758   3.407   1.029  0.00  0.00     0.048 A 
ATOM      4  C3  UNL d   1      -0.621   3.403   1.240  0.00  0.00     0.023 A 
ATOM      5  C4  UNL d   1      -1.455   4.228   0.484  0.00  0.00     0.048 A 
ATOM      6  C5  UNL d   1      -0.902   5.062  -0.490  0.00  0.00     0.003 A 
ATOM      7  I   UNL d   1      -1.439   2.159   2.691  0.00  0.00    -0.146 I 
ENDROOT
TORSDOF 0
ENDMDL
