MODEL 1
REMARK minimizedAffinity 9.74318504
REMARK minimizedRMSD -1
REMARK  0 active torsions:
REMARK  status: ('A' for Active; 'I' for Inactive)
ROOT
ATOM      1  C   UNL d   1      -1.182  -0.945  -1.767  0.00  0.00     0.023 A 
ATOM      2  C1  UNL d   1      -0.904  -1.207  -3.109  0.00  0.00     0.003 A 
ATOM      3  C2  UNL d   1      -1.518  -0.454  -4.111  0.00  0.00     0.048 A 
ATOM      4  C3  UNL d   1      -2.409   0.561  -3.765  0.00  0.00     0.023 A 
ATOM      5  C4  UNL d   1      -2.691   0.828  -2.424  0.00  0.00     0.048 A 
ATOM      6  C5  UNL d   1      -2.075   0.071  -1.425  0.00  0.00     0.003 A 
ATOM      7  I   UNL d   1      -3.325   1.684  -5.254  0.00  0.00    -0.146 I 
ENDROOT
TORSDOF 0
ENDMDL
