MODEL 1
REMARK minimizedAffinity 5.21977234
REMARK minimizedRMSD -1
REMARK  0 active torsions:
REMARK  status: ('A' for Active; 'I' for Inactive)
ROOT
ATOM      1  C   UNL d   1       5.387  -2.087  -2.493  0.00  0.00     0.023 A 
ATOM      2  C1  UNL d   1       4.950  -3.013  -3.441  0.00  0.00     0.003 A 
ATOM      3  C2  UNL d   1       4.128  -4.074  -3.055  0.00  0.00     0.048 A 
ATOM      4  C3  UNL d   1       3.746  -4.203  -1.720  0.00  0.00     0.023 A 
ATOM      5  C4  UNL d   1       4.180  -3.278  -0.769  0.00  0.00     0.048 A 
ATOM      6  C5  UNL d   1       5.003  -2.220  -1.159  0.00  0.00     0.003 A 
ATOM      7  I   UNL d   1       2.522  -5.781  -1.144  0.00  0.00    -0.146 I 
ENDROOT
TORSDOF 0
ENDMDL
