MODEL 1
REMARK minimizedAffinity 8.92624092
REMARK minimizedRMSD -1
REMARK  0 active torsions:
REMARK  status: ('A' for Active; 'I' for Inactive)
ROOT
ATOM      1  C   UNL d   1      -0.922   3.472  -0.131  0.00  0.00     0.023 A 
ATOM      2  C1  UNL d   1       0.188   2.816   0.402  0.00  0.00     0.003 A 
ATOM      3  C2  UNL d   1       1.333   3.540   0.741  0.00  0.00     0.048 A 
ATOM      4  C3  UNL d   1       1.361   4.920   0.545  0.00  0.00     0.023 A 
ATOM      5  C4  UNL d   1       0.253   5.581   0.013  0.00  0.00     0.048 A 
ATOM      6  C5  UNL d   1      -0.889   4.853  -0.325  0.00  0.00     0.003 A 
ATOM      7  I   UNL d   1       3.064   6.000   1.050  0.00  0.00    -0.146 I 
ENDROOT
TORSDOF 0
ENDMDL
