MODEL 1
REMARK minimizedAffinity 12.02987
REMARK minimizedRMSD -1
REMARK  0 active torsions:
REMARK  status: ('A' for Active; 'I' for Inactive)
ROOT
ATOM      1  C   UNL d   1       1.338   5.992   0.212  0.00  0.00     0.023 A 
ATOM      2  C1  UNL d   1       0.322   5.724  -0.706  0.00  0.00     0.003 A 
ATOM      3  C2  UNL d   1      -0.217   4.440  -0.797  0.00  0.00     0.048 A 
ATOM      4  C3  UNL d   1       0.263   3.427   0.033  0.00  0.00     0.023 A 
ATOM      5  C4  UNL d   1       1.279   3.690   0.953  0.00  0.00     0.048 A 
ATOM      6  C5  UNL d   1       1.816   4.976   1.041  0.00  0.00     0.003 A 
ATOM      7  I   UNL d   1      -0.539   1.514  -0.102  0.00  0.00    -0.146 I 
ENDROOT
TORSDOF 0
ENDMDL
