MODEL 1
REMARK minimizedAffinity 8.54360867
REMARK minimizedRMSD -1
REMARK  0 active torsions:
REMARK  status: ('A' for Active; 'I' for Inactive)
ROOT
ATOM      1  C   UNL d   1       5.232  -5.089  -3.800  0.00  0.00     0.023 A 
ATOM      2  C1  UNL d   1       4.084  -5.076  -4.592  0.00  0.00     0.003 A 
ATOM      3  C2  UNL d   1       2.837  -5.336  -4.020  0.00  0.00     0.048 A 
ATOM      4  C3  UNL d   1       2.745  -5.608  -2.656  0.00  0.00     0.023 A 
ATOM      5  C4  UNL d   1       3.891  -5.622  -1.859  0.00  0.00     0.048 A 
ATOM      6  C5  UNL d   1       5.136  -5.362  -2.436  0.00  0.00     0.003 A 
ATOM      7  I   UNL d   1       0.890  -5.995  -1.802  0.00  0.00    -0.146 I 
ENDROOT
TORSDOF 0
ENDMDL
