MODEL 1
REMARK minimizedAffinity 9.72409248
REMARK minimizedRMSD -1
REMARK  2 active torsions:
REMARK  status: ('A' for Active; 'I' for Inactive)
REMARK    1  A    between atoms: C1_2  and  C2_3 
REMARK    2  A    between atoms: C2_3  and  C3_4 
ROOT
ATOM      1  C3  UNL d   1       2.051   4.812   2.815  0.00  0.00    -0.075 A 
ATOM      2  C4  UNL d   1       1.700   6.000   2.156  0.00  0.00     0.002 A 
ATOM      3  C5  UNL d   1       0.742   5.991   1.142  0.00  0.00     0.002 A 
ATOM      4  C6  UNL d   1       0.131   4.796   0.767  0.00  0.00    -0.004 A 
ATOM      5  C7  UNL d   1       0.484   3.608   1.403  0.00  0.00     0.002 A 
ATOM      6  C8  UNL d   1       1.439   3.615   2.421  0.00  0.00     0.002 A 
ENDROOT
BRANCH   1   7
ATOM      7  C2  UNL d   1       3.065   4.820   3.933  0.00  0.00     0.056 C 
BRANCH   7   8
ATOM      8  C1  UNL d   1       4.505   5.060   3.467  0.00  0.00     0.007 C 
ATOM      9  C   UNL d   1       4.883   4.242   2.239  0.00  0.00     0.009 C 
ENDBRANCH   7   8
ENDBRANCH   1   7
TORSDOF 2
ENDMDL
