MODEL 1
REMARK minimizedAffinity 5.25814867
REMARK minimizedRMSD -1
REMARK  2 active torsions:
REMARK  status: ('A' for Active; 'I' for Inactive)
REMARK    1  A    between atoms: C1_2  and  C2_3 
REMARK    2  A    between atoms: C2_3  and  C3_4 
ROOT
ATOM      1  C3  UNL d   1       4.064   1.241  -2.233  0.00  0.00    -0.075 A 
ATOM      2  C4  UNL d   1       4.281   1.618  -0.900  0.00  0.00     0.002 A 
ATOM      3  C5  UNL d   1       3.465   1.124   0.118  0.00  0.00     0.002 A 
ATOM      4  C6  UNL d   1       2.417   0.257  -0.184  0.00  0.00    -0.004 A 
ATOM      5  C7  UNL d   1       2.182  -0.112  -1.507  0.00  0.00     0.002 A 
ATOM      6  C8  UNL d   1       2.999   0.378  -2.527  0.00  0.00     0.002 A 
ENDROOT
BRANCH   1   7
ATOM      7  C2  UNL d   1       4.961   1.749  -3.336  0.00  0.00     0.056 C 
BRANCH   7   8
ATOM      8  C1  UNL d   1       6.000   2.776  -2.872  0.00  0.00     0.007 C 
ATOM      9  C   UNL d   1       6.000   4.049  -3.708  0.00  0.00     0.009 C 
ENDBRANCH   7   8
ENDBRANCH   1   7
TORSDOF 2
ENDMDL
