MODEL 1
REMARK minimizedAffinity 10.674077
REMARK minimizedRMSD -1
REMARK  2 active torsions:
REMARK  status: ('A' for Active; 'I' for Inactive)
REMARK    1  A    between atoms: C1_2  and  C2_3 
REMARK    2  A    between atoms: C2_3  and  C3_4 
ROOT
ATOM      1  C3  UNL d   1      -0.472   3.076   0.295  0.00  0.00    -0.075 A 
ATOM      2  C4  UNL d   1      -1.270   4.192   0.006  0.00  0.00     0.002 A 
ATOM      3  C5  UNL d   1      -1.218   5.328   0.815  0.00  0.00     0.002 A 
ATOM      4  C6  UNL d   1      -0.377   5.359   1.925  0.00  0.00    -0.004 A 
ATOM      5  C7  UNL d   1       0.409   4.249   2.230  0.00  0.00     0.002 A 
ATOM      6  C8  UNL d   1       0.362   3.113   1.421  0.00  0.00     0.002 A 
ENDROOT
BRANCH   1   7
ATOM      7  C2  UNL d   1      -0.501   1.854  -0.593  0.00  0.00     0.056 C 
BRANCH   7   8
ATOM      8  C1  UNL d   1      -1.913   1.394  -0.973  0.00  0.00     0.007 C 
ATOM      9  C   UNL d   1      -1.940   0.020  -1.630  0.00  0.00     0.009 C 
ENDBRANCH   7   8
ENDBRANCH   1   7
TORSDOF 2
ENDMDL
