MODEL 1
REMARK minimizedAffinity 2.27170372
REMARK minimizedRMSD -1
REMARK  2 active torsions:
REMARK  status: ('A' for Active; 'I' for Inactive)
REMARK    1  A    between atoms: C1_2  and  C2_3 
REMARK    2  A    between atoms: C2_3  and  C3_4 
ROOT
ATOM      1  C3  UNL d   1       0.326   1.872  -0.040  0.00  0.00    -0.075 A 
ATOM      2  C4  UNL d   1      -0.843   2.264  -0.708  0.00  0.00     0.002 A 
ATOM      3  C5  UNL d   1      -1.631   3.302  -0.209  0.00  0.00     0.002 A 
ATOM      4  C6  UNL d   1      -1.266   3.953   0.968  0.00  0.00    -0.004 A 
ATOM      5  C7  UNL d   1      -0.116   3.561   1.649  0.00  0.00     0.002 A 
ATOM      6  C8  UNL d   1       0.676   2.526   1.149  0.00  0.00     0.002 A 
ENDROOT
BRANCH   1   7
ATOM      7  C2  UNL d   1       1.198   0.770  -0.590  0.00  0.00     0.056 C 
BRANCH   7   8
ATOM      8  C1  UNL d   1       2.665   0.859  -0.157  0.00  0.00     0.007 C 
ATOM      9  C   UNL d   1       3.543   1.599  -1.158  0.00  0.00     0.009 C 
ENDBRANCH   7   8
ENDBRANCH   1   7
TORSDOF 2
ENDMDL
