MODEL 1
REMARK minimizedAffinity 17.1424637
REMARK minimizedRMSD -1
REMARK  2 active torsions:
REMARK  status: ('A' for Active; 'I' for Inactive)
REMARK    1  A    between atoms: C1_2  and  C2_3 
REMARK    2  A    between atoms: C2_3  and  C3_4 
ROOT
ATOM      1  C3  UNL d   1      -5.185   1.916  -5.729  0.00  0.00    -0.075 A 
ATOM      2  C4  UNL d   1      -3.795   2.088  -5.812  0.00  0.00     0.002 A 
ATOM      3  C5  UNL d   1      -3.234   3.364  -5.743  0.00  0.00     0.002 A 
ATOM      4  C6  UNL d   1      -4.054   4.482  -5.602  0.00  0.00    -0.004 A 
ATOM      5  C7  UNL d   1      -5.436   4.324  -5.536  0.00  0.00     0.002 A 
ATOM      6  C8  UNL d   1      -6.000   3.048  -5.600  0.00  0.00     0.002 A 
ENDROOT
BRANCH   1   7
ATOM      7  C2  UNL d   1      -5.796   0.536  -5.773  0.00  0.00     0.056 C 
BRANCH   7   8
ATOM      8  C1  UNL d   1      -4.962  -0.539  -5.069  0.00  0.00     0.007 C 
ATOM      9  C   UNL d   1      -4.517  -1.659  -5.999  0.00  0.00     0.009 C 
ENDBRANCH   7   8
ENDBRANCH   1   7
TORSDOF 2
ENDMDL
