MODEL 1
REMARK minimizedAffinity 10.4152832
REMARK minimizedRMSD -1
REMARK  1 active torsions:
REMARK  status: ('A' for Active; 'I' for Inactive)
REMARK    1  A    between atoms: C1_2  and  C2_3 
ROOT
ATOM      1  C2  UNL d   1       1.056  -0.137   1.675  0.00  0.00    -0.073 A 
ATOM      2  C3  UNL d   1       2.093  -1.070   1.558  0.00  0.00    -0.002 A 
ATOM      3  C4  UNL d   1       2.983  -1.004   0.484  0.00  0.00     0.004 A 
ATOM      4  C5  UNL d   1       2.849  -0.003  -0.478  0.00  0.00    -0.004 A 
ATOM      5  C6  UNL d   1       1.827   0.946  -0.372  0.00  0.00    -0.075 A 
ATOM      6  C7  UNL d   1       1.669   2.028  -1.399  0.00  0.00     0.076 C 
ATOM      7  C8  UNL d   1       0.936   0.871   0.708  0.00  0.00     0.001 A 
ENDROOT
BRANCH   1   8
ATOM      8  C1  UNL d   1       0.098  -0.200   2.835  0.00  0.00     0.053 C 
ATOM      9  C   UNL d   1      -1.207   0.522   2.537  0.00  0.00     0.018 C 
ENDBRANCH   1   8
TORSDOF 1
ENDMDL
