MODEL 1
REMARK minimizedAffinity 3.92806697
REMARK minimizedRMSD -1
REMARK  1 active torsions:
REMARK  status: ('A' for Active; 'I' for Inactive)
REMARK    1  A    between atoms: C1_2  and  C2_3 
ROOT
ATOM      1  C2  UNL d   1       2.155   0.003   0.795  0.00  0.00    -0.073 A 
ATOM      2  C3  UNL d   1       3.000  -0.751   1.616  0.00  0.00    -0.002 A 
ATOM      3  C4  UNL d   1       2.823  -0.750   3.000  0.00  0.00     0.004 A 
ATOM      4  C5  UNL d   1       1.797  -0.001   3.576  0.00  0.00    -0.004 A 
ATOM      5  C6  UNL d   1       0.934   0.750   2.771  0.00  0.00    -0.075 A 
ATOM      6  C7  UNL d   1      -0.173   1.562   3.375  0.00  0.00     0.076 C 
ATOM      7  C8  UNL d   1       1.120   0.746   1.382  0.00  0.00     0.001 A 
ENDROOT
BRANCH   1   8
ATOM      8  C1  UNL d   1       2.338  -0.000  -0.701  0.00  0.00     0.053 C 
ATOM      9  C   UNL d   1       2.625   1.391  -1.243  0.00  0.00     0.018 C 
ENDBRANCH   1   8
TORSDOF 1
ENDMDL
