MODEL 1
REMARK minimizedAffinity 11.0882835
REMARK minimizedRMSD -1
REMARK  1 active torsions:
REMARK  status: ('A' for Active; 'I' for Inactive)
REMARK    1  A    between atoms: C1_2  and  C2_3 
ROOT
ATOM      1  C2  UNL d   1       0.820  -1.494   3.708  0.00  0.00    -0.073 A 
ATOM      2  C3  UNL d   1       1.075  -1.668   2.343  0.00  0.00    -0.002 A 
ATOM      3  C4  UNL d   1       0.874  -0.616   1.448  0.00  0.00     0.004 A 
ATOM      4  C5  UNL d   1       0.424   0.621   1.909  0.00  0.00    -0.004 A 
ATOM      5  C6  UNL d   1       0.175   0.819   3.271  0.00  0.00    -0.075 A 
ATOM      6  C7  UNL d   1      -0.312   2.142   3.783  0.00  0.00     0.076 C 
ATOM      7  C8  UNL d   1       0.376  -0.244   4.163  0.00  0.00     0.001 A 
ENDROOT
BRANCH   1   8
ATOM      8  C1  UNL d   1       1.041  -2.625   4.678  0.00  0.00     0.053 C 
ATOM      9  C   UNL d   1       2.472  -2.664   5.190  0.00  0.00     0.018 C 
ENDBRANCH   1   8
TORSDOF 1
ENDMDL
