MODEL 1
REMARK minimizedAffinity -0.439634264
REMARK minimizedRMSD -1
REMARK  0 active torsions:
REMARK  status: ('A' for Active; 'I' for Inactive)
ROOT
ATOM      1  C1  BNZ d   1      -1.052   0.045   0.152  0.00  0.00     0.000 A 
ATOM      2  C2  BNZ d   1      -2.188  -0.101   0.901  0.00  0.00     0.000 A 
ATOM      3  C3  BNZ d   1      -2.122  -0.186   2.264  0.00  0.00     0.000 A 
ATOM      4  C4  BNZ d   1      -0.918  -0.164   2.872  0.00  0.00     0.000 A 
ATOM      5  C5  BNZ d   1       0.238  -0.026   2.129  0.00  0.00     0.000 A 
ATOM      6  C6  BNZ d   1       0.164   0.098   0.760  0.00  0.00     0.000 A 
ENDROOT
TORSDOF 0
ENDMDL
