MODEL 1
REMARK minimizedAffinity 4.38161373
REMARK minimizedRMSD -1
REMARK  0 active torsions:
REMARK  status: ('A' for Active; 'I' for Inactive)
ROOT
ATOM      1  C1  BNZ d   1      -3.506  -1.211   3.010  0.00  0.00     0.000 A 
ATOM      2  C2  BNZ d   1      -3.359  -0.093   2.233  0.00  0.00     0.000 A 
ATOM      3  C3  BNZ d   1      -2.187   0.612   2.235  0.00  0.00     0.000 A 
ATOM      4  C4  BNZ d   1      -1.181   0.223   3.043  0.00  0.00     0.000 A 
ATOM      5  C5  BNZ d   1      -1.317  -0.897   3.840  0.00  0.00     0.000 A 
ATOM      6  C6  BNZ d   1      -2.483  -1.626   3.806  0.00  0.00     0.000 A 
ENDROOT
TORSDOF 0
ENDMDL
