MODEL 1
REMARK minimizedAffinity 3.44276142
REMARK minimizedRMSD -1
REMARK  0 active torsions:
REMARK  status: ('A' for Active; 'I' for Inactive)
ROOT
ATOM      1  C1  BNZ d   1       0.751  -0.714  -0.293  0.00  0.00     0.000 A 
ATOM      2  C2  BNZ d   1      -0.264  -1.022  -1.158  0.00  0.00     0.000 A 
ATOM      3  C3  BNZ d   1      -1.538  -0.584  -0.927  0.00  0.00     0.000 A 
ATOM      4  C4  BNZ d   1      -1.803   0.127   0.188  0.00  0.00     0.000 A 
ATOM      5  C5  BNZ d   1      -0.791   0.439   1.075  0.00  0.00     0.000 A 
ATOM      6  C6  BNZ d   1       0.497   0.029   0.819  0.00  0.00     0.000 A 
ENDROOT
TORSDOF 0
ENDMDL
