MODEL 1
REMARK minimizedAffinity 1.06858397
REMARK minimizedRMSD -1
REMARK  0 active torsions:
REMARK  status: ('A' for Active; 'I' for Inactive)
ROOT
ATOM      1  C1  BNZ d   1      -0.372   0.605   0.638  0.00  0.00     0.000 A 
ATOM      2  C2  BNZ d   1      -0.850   0.651   1.920  0.00  0.00     0.000 A 
ATOM      3  C3  BNZ d   1      -2.173   0.428   2.182  0.00  0.00     0.000 A 
ATOM      4  C4  BNZ d   1      -3.022   0.199   1.159  0.00  0.00     0.000 A 
ATOM      5  C5  BNZ d   1      -2.557   0.159  -0.140  0.00  0.00     0.000 A 
ATOM      6  C6  BNZ d   1      -1.218   0.345  -0.396  0.00  0.00     0.000 A 
ENDROOT
TORSDOF 0
ENDMDL
