MODEL 1
REMARK minimizedAffinity -0.0442514047
REMARK minimizedRMSD -1
REMARK  0 active torsions:
REMARK  status: ('A' for Active; 'I' for Inactive)
ROOT
ATOM      1  C1  BNZ d   1      -2.009   0.716   2.363  0.00  0.00     0.000 A 
ATOM      2  C2  BNZ d   1      -0.936   0.419   3.161  0.00  0.00     0.000 A 
ATOM      3  C3  BNZ d   1      -0.887  -0.755   3.858  0.00  0.00     0.000 A 
ATOM      4  C4  BNZ d   1      -1.927  -1.611   3.790  0.00  0.00     0.000 A 
ATOM      5  C5  BNZ d   1      -3.019  -1.322   2.997  0.00  0.00     0.000 A 
ATOM      6  C6  BNZ d   1      -3.048  -0.157   2.266  0.00  0.00     0.000 A 
ENDROOT
TORSDOF 0
ENDMDL
