MODEL 1
REMARK minimizedAffinity 2.97392821
REMARK minimizedRMSD -1
REMARK  0 active torsions:
REMARK  status: ('A' for Active; 'I' for Inactive)
ROOT
ATOM      1  C1  BNZ d   1      -1.968   0.098   2.994  0.00  0.00     0.000 A 
ATOM      2  C2  BNZ d   1      -2.303   0.735   1.828  0.00  0.00     0.000 A 
ATOM      3  C3  BNZ d   1      -1.421   0.796   0.786  0.00  0.00     0.000 A 
ATOM      4  C4  BNZ d   1      -0.193   0.256   0.924  0.00  0.00     0.000 A 
ATOM      5  C5  BNZ d   1       0.163  -0.382   2.096  0.00  0.00     0.000 A 
ATOM      6  C6  BNZ d   1      -0.741  -0.475   3.129  0.00  0.00     0.000 A 
ENDROOT
TORSDOF 0
ENDMDL
