MODEL 1
REMARK minimizedAffinity 2.37797141
REMARK minimizedRMSD -1
REMARK  0 active torsions:
REMARK  status: ('A' for Active; 'I' for Inactive)
ROOT
ATOM      1  C1  BNZ d   1      -3.023   0.692   1.179  0.00  0.00     0.000 A 
ATOM      2  C2  BNZ d   1      -3.068   0.273  -0.124  0.00  0.00     0.000 A 
ATOM      3  C3  BNZ d   1      -1.973  -0.292  -0.715  0.00  0.00     0.000 A 
ATOM      4  C4  BNZ d   1      -0.824  -0.400  -0.017  0.00  0.00     0.000 A 
ATOM      5  C5  BNZ d   1      -0.760   0.027   1.295  0.00  0.00     0.000 A 
ATOM      6  C6  BNZ d   1      -1.876   0.559   1.899  0.00  0.00     0.000 A 
ENDROOT
TORSDOF 0
ENDMDL
