MODEL 1
REMARK minimizedAffinity 1.0537765
REMARK minimizedRMSD -1
REMARK  0 active torsions:
REMARK  status: ('A' for Active; 'I' for Inactive)
ROOT
ATOM      1  C1  BNZ d   1       0.056  -0.678   0.884  0.00  0.00     0.000 A 
ATOM      2  C2  BNZ d   1      -1.062  -0.341   0.168  0.00  0.00     0.000 A 
ATOM      3  C3  BNZ d   1      -2.234  -0.038   0.803  0.00  0.00     0.000 A 
ATOM      4  C4  BNZ d   1      -2.298  -0.110   2.148  0.00  0.00     0.000 A 
ATOM      5  C5  BNZ d   1      -1.182  -0.457   2.883  0.00  0.00     0.000 A 
ATOM      6  C6  BNZ d   1       0.007  -0.724   2.243  0.00  0.00     0.000 A 
ENDROOT
TORSDOF 0
ENDMDL
