MODEL 1
REMARK minimizedAffinity 3.01640701
REMARK minimizedRMSD -1
REMARK  0 active torsions:
REMARK  status: ('A' for Active; 'I' for Inactive)
ROOT
ATOM      1  C1  BNZ d   1      -2.097  -0.290   3.421  0.00  0.00     0.000 A 
ATOM      2  C2  BNZ d   1      -2.486   0.086   2.162  0.00  0.00     0.000 A 
ATOM      3  C3  BNZ d   1      -1.615   0.015   1.111  0.00  0.00     0.000 A 
ATOM      4  C4  BNZ d   1      -0.348  -0.393   1.326  0.00  0.00     0.000 A 
ATOM      5  C5  BNZ d   1       0.062  -0.766   2.590  0.00  0.00     0.000 A 
ATOM      6  C6  BNZ d   1      -0.828  -0.730   3.639  0.00  0.00     0.000 A 
ENDROOT
TORSDOF 0
ENDMDL
