MODEL 1
REMARK minimizedAffinity -2.52507424
REMARK minimizedRMSD -1
REMARK  0 active torsions:
REMARK  status: ('A' for Active; 'I' for Inactive)
ROOT
ATOM      1  C1  BNZ d   1      -0.184  -0.066   0.470  0.00  0.00     0.000 A 
ATOM      2  C2  BNZ d   1       0.650  -0.458   1.483  0.00  0.00     0.000 A 
ATOM      3  C3  BNZ d   1       0.229  -0.436   2.784  0.00  0.00     0.000 A 
ATOM      4  C4  BNZ d   1      -1.009   0.015   3.072  0.00  0.00     0.000 A 
ATOM      5  C5  BNZ d   1      -1.858   0.423   2.063  0.00  0.00     0.000 A 
ATOM      6  C6  BNZ d   1      -1.444   0.363   0.752  0.00  0.00     0.000 A 
ENDROOT
TORSDOF 0
ENDMDL
