MODEL 1
REMARK minimizedAffinity 3.61588669
REMARK minimizedRMSD -1
REMARK  0 active torsions:
REMARK  status: ('A' for Active; 'I' for Inactive)
ROOT
ATOM      1  C1  BNZ d   1       0.911   0.139   1.150  0.00  0.00     0.000 A 
ATOM      2  C2  BNZ d   1      -0.384   0.494   0.880  0.00  0.00     0.000 A 
ATOM      3  C3  BNZ d   1      -1.375   0.275   1.796  0.00  0.00     0.000 A 
ATOM      4  C4  BNZ d   1      -1.079  -0.336   2.961  0.00  0.00     0.000 A 
ATOM      5  C5  BNZ d   1       0.220  -0.708   3.244  0.00  0.00     0.000 A 
ATOM      6  C6  BNZ d   1       1.222  -0.450   2.337  0.00  0.00     0.000 A 
ENDROOT
TORSDOF 0
ENDMDL
