MODEL 1
REMARK minimizedAffinity 4.94591475
REMARK minimizedRMSD -1
REMARK  0 active torsions:
REMARK  status: ('A' for Active; 'I' for Inactive)
ROOT
ATOM      1  C1  BNZ d   1       0.328   0.048   0.744  0.00  0.00     0.000 A 
ATOM      2  C2  BNZ d   1      -0.819   0.636   1.207  0.00  0.00     0.000 A 
ATOM      3  C3  BNZ d   1      -2.029   0.357   0.635  0.00  0.00     0.000 A 
ATOM      4  C4  BNZ d   1      -2.085  -0.478  -0.422  0.00  0.00     0.000 A 
ATOM      5  C5  BNZ d   1      -0.937  -1.072  -0.907  0.00  0.00     0.000 A 
ATOM      6  C6  BNZ d   1       0.274  -0.819  -0.304  0.00  0.00     0.000 A 
ENDROOT
TORSDOF 0
ENDMDL
