MODEL 1
REMARK minimizedAffinity 19.9513168
REMARK minimizedRMSD -1
REMARK  0 active torsions:
REMARK  status: ('A' for Active; 'I' for Inactive)
ROOT
ATOM      1  C   UNL d   1      -0.526  -2.620   2.803  0.00  0.00    -0.002 A 
ATOM      2  C1  UNL d   1      -0.012  -1.690   3.695  0.00  0.00     0.010 A 
ATOM      3  C2  UNL d   1      -0.793  -0.619   4.134  0.00  0.00     0.041 A 
ATOM      4  C3  UNL d   1      -2.114  -0.499   3.659  0.00  0.00    -0.075 A 
ATOM      5  S   UNL d   1      -3.255   0.729   4.059  0.00  0.00     0.015 SA
ATOM      6  C4  UNL d   1      -4.453   0.047   3.057  0.00  0.00     0.022 A 
ATOM      7  C5  UNL d   1      -4.010  -1.090   2.424  0.00  0.00     0.026 A 
ATOM      8  C6  UNL d   1      -2.655  -1.424   2.761  0.00  0.00    -0.082 A 
ATOM      9  C7  UNL d   1      -1.837  -2.498   2.334  0.00  0.00     0.045 A 
ENDROOT
TORSDOF 0
ENDMDL
