MODEL 1
REMARK minimizedAffinity 10.7104197
REMARK minimizedRMSD -1
REMARK  0 active torsions:
REMARK  status: ('A' for Active; 'I' for Inactive)
ROOT
ATOM      1  C   UNL d   1      -4.912  -0.903  -4.452  0.00  0.00    -0.002 A 
ATOM      2  C1  UNL d   1      -4.175  -1.998  -4.023  0.00  0.00     0.010 A 
ATOM      3  C2  UNL d   1      -3.649  -2.038  -2.731  0.00  0.00     0.041 A 
ATOM      4  C3  UNL d   1      -3.880  -0.949  -1.867  0.00  0.00    -0.075 A 
ATOM      5  S   UNL d   1      -3.334  -0.779  -0.241  0.00  0.00     0.015 SA
ATOM      6  C4  UNL d   1      -4.066   0.751  -0.076  0.00  0.00     0.022 A 
ATOM      7  C5  UNL d   1      -4.716   1.138  -1.225  0.00  0.00     0.026 A 
ATOM      8  C6  UNL d   1      -4.619   0.164  -2.276  0.00  0.00    -0.082 A 
ATOM      9  C7  UNL d   1      -5.138   0.175  -3.593  0.00  0.00     0.045 A 
ENDROOT
TORSDOF 0
ENDMDL
