MODEL 1
REMARK minimizedAffinity 18.8761005
REMARK minimizedRMSD -1
REMARK  0 active torsions:
REMARK  status: ('A' for Active; 'I' for Inactive)
ROOT
ATOM      1  C   UNL d   1      -5.392  -1.798  -4.415  0.00  0.00    -0.002 A 
ATOM      2  C1  UNL d   1      -6.000  -0.594  -4.088  0.00  0.00     0.010 A 
ATOM      3  C2  UNL d   1      -5.510   0.187  -3.039  0.00  0.00     0.041 A 
ATOM      4  C3  UNL d   1      -4.387  -0.266  -2.319  0.00  0.00    -0.075 A 
ATOM      5  S   UNL d   1      -3.612   0.524  -0.997  0.00  0.00     0.015 SA
ATOM      6  C4  UNL d   1      -2.456  -0.717  -0.835  0.00  0.00     0.022 A 
ATOM      7  C5  UNL d   1      -2.641  -1.718  -1.760  0.00  0.00     0.026 A 
ATOM      8  C6  UNL d   1      -3.757  -1.474  -2.630  0.00  0.00    -0.082 A 
ATOM      9  C7  UNL d   1      -4.278  -2.243  -3.698  0.00  0.00     0.045 A 
ENDROOT
TORSDOF 0
ENDMDL
