MODEL 1
REMARK minimizedAffinity 13.6206598
REMARK minimizedRMSD -1
REMARK  0 active torsions:
REMARK  status: ('A' for Active; 'I' for Inactive)
ROOT
ATOM      1  C   UNL d   1       3.069  -3.206   2.168  0.00  0.00    -0.002 A 
ATOM      2  C1  UNL d   1       2.181  -3.410   1.121  0.00  0.00     0.010 A 
ATOM      3  C2  UNL d   1       2.553  -4.175   0.014  0.00  0.00     0.041 A 
ATOM      4  C3  UNL d   1       3.844  -4.738  -0.023  0.00  0.00    -0.075 A 
ATOM      5  S   UNL d   1       4.518  -5.711  -1.277  0.00  0.00     0.015 SA
ATOM      6  C4  UNL d   1       6.000  -5.879  -0.452  0.00  0.00     0.022 A 
ATOM      7  C5  UNL d   1       5.998  -5.215   0.752  0.00  0.00     0.026 A 
ATOM      8  C6  UNL d   1       4.755  -4.547   1.019  0.00  0.00    -0.082 A 
ATOM      9  C7  UNL d   1       4.348  -3.766   2.128  0.00  0.00     0.045 A 
ENDROOT
TORSDOF 0
ENDMDL
