MODEL 1
REMARK minimizedAffinity 4.19489288
REMARK minimizedRMSD -1
REMARK  0 active torsions:
REMARK  status: ('A' for Active; 'I' for Inactive)
ROOT
ATOM      1  C   UNL d   1       3.489   1.885   5.992  0.00  0.00     0.078 C 
ATOM      2  C1  UNL d   1       3.924   3.316   5.884  0.00  0.00    -0.077 A 
ATOM      3  C2  UNL d   1       5.269   3.647   5.682  0.00  0.00    -0.001 A 
ATOM      4  C3  UNL d   1       5.661   4.984   5.593  0.00  0.00     0.003 A 
ATOM      5  C4  UNL d   1       4.714   6.000   5.707  0.00  0.00    -0.005 A 
ATOM      6  C5  UNL d   1       3.374   5.680   5.911  0.00  0.00     0.003 A 
ATOM      7  C6  UNL d   1       2.980   4.344   6.000  0.00  0.00    -0.001 A 
ENDROOT
TORSDOF 0
ENDMDL
