MODEL 1
REMARK minimizedAffinity 0.424312681
REMARK minimizedRMSD -1
REMARK  0 active torsions:
REMARK  status: ('A' for Active; 'I' for Inactive)
ROOT
ATOM      1  C   UNL d   1       2.255   5.999   5.998  0.00  0.00     0.078 C 
ATOM      2  C1  UNL d   1       3.499   5.183   5.813  0.00  0.00    -0.077 A 
ATOM      3  C2  UNL d   1       4.707   5.785   5.440  0.00  0.00    -0.001 A 
ATOM      4  C3  UNL d   1       5.856   5.012   5.262  0.00  0.00     0.003 A 
ATOM      5  C4  UNL d   1       5.807   3.632   5.452  0.00  0.00    -0.005 A 
ATOM      6  C5  UNL d   1       4.608   3.024   5.821  0.00  0.00     0.003 A 
ATOM      7  C6  UNL d   1       3.459   3.796   6.000  0.00  0.00    -0.001 A 
ENDROOT
TORSDOF 0
ENDMDL
