MODEL 1
REMARK minimizedAffinity 7.98155308
REMARK minimizedRMSD -1
REMARK  0 active torsions:
REMARK  status: ('A' for Active; 'I' for Inactive)
ROOT
ATOM      1  C   UNL d   1       6.000   1.861  -2.643  0.00  0.00     0.078 C 
ATOM      2  C1  UNL d   1       4.775   1.999  -1.790  0.00  0.00    -0.077 A 
ATOM      3  C2  UNL d   1       4.784   2.797  -0.639  0.00  0.00    -0.001 A 
ATOM      4  C3  UNL d   1       3.639   2.909   0.151  0.00  0.00     0.003 A 
ATOM      5  C4  UNL d   1       2.477   2.225  -0.200  0.00  0.00    -0.005 A 
ATOM      6  C5  UNL d   1       2.459   1.427  -1.341  0.00  0.00     0.003 A 
ATOM      7  C6  UNL d   1       3.603   1.313  -2.133  0.00  0.00    -0.001 A 
ENDROOT
TORSDOF 0
ENDMDL
