MODEL 1
REMARK minimizedAffinity 3.26339746
REMARK minimizedRMSD -1
REMARK  0 active torsions:
REMARK  status: ('A' for Active; 'I' for Inactive)
ROOT
ATOM      1  C   UNL d   1       4.353   1.696   5.954  0.00  0.00     0.078 C 
ATOM      2  C1  UNL d   1       4.545   3.183   5.963  0.00  0.00    -0.077 A 
ATOM      3  C2  UNL d   1       5.828   3.744   5.969  0.00  0.00    -0.001 A 
ATOM      4  C3  UNL d   1       5.992   5.130   5.986  0.00  0.00     0.003 A 
ATOM      5  C4  UNL d   1       4.878   5.966   5.999  0.00  0.00    -0.005 A 
ATOM      6  C5  UNL d   1       3.597   5.417   5.996  0.00  0.00     0.003 A 
ATOM      7  C6  UNL d   1       3.431   4.031   5.978  0.00  0.00    -0.001 A 
ENDROOT
TORSDOF 0
ENDMDL
