MODEL 1
REMARK minimizedAffinity 1.36781824
REMARK minimizedRMSD -1
REMARK  0 active torsions:
REMARK  status: ('A' for Active; 'I' for Inactive)
ROOT
ATOM      1  C   UNL d   1       5.990   3.493   5.787  0.00  0.00     0.078 C 
ATOM      2  C1  UNL d   1       4.783   4.222   5.279  0.00  0.00    -0.077 A 
ATOM      3  C2  UNL d   1       4.163   3.845   4.081  0.00  0.00    -0.001 A 
ATOM      4  C3  UNL d   1       3.045   4.539   3.615  0.00  0.00     0.003 A 
ATOM      5  C4  UNL d   1       2.538   5.616   4.341  0.00  0.00    -0.005 A 
ATOM      6  C5  UNL d   1       3.149   6.000   5.532  0.00  0.00     0.003 A 
ATOM      7  C6  UNL d   1       4.267   5.306   6.000  0.00  0.00    -0.001 A 
ENDROOT
TORSDOF 0
ENDMDL
