MODEL 1
REMARK minimizedAffinity 13.1032572
REMARK minimizedRMSD -1
REMARK  0 active torsions:
REMARK  status: ('A' for Active; 'I' for Inactive)
ROOT
ATOM      1  C   UNL d   1       6.000   1.964  -2.997  0.00  0.00     0.078 C 
ATOM      2  C1  UNL d   1       4.956   2.204  -1.948  0.00  0.00    -0.077 A 
ATOM      3  C2  UNL d   1       3.663   1.682  -2.084  0.00  0.00    -0.001 A 
ATOM      4  C3  UNL d   1       2.699   1.922  -1.104  0.00  0.00     0.003 A 
ATOM      5  C4  UNL d   1       3.015   2.686   0.018  0.00  0.00    -0.005 A 
ATOM      6  C5  UNL d   1       4.298   3.211   0.160  0.00  0.00     0.003 A 
ATOM      7  C6  UNL d   1       5.264   2.973  -0.818  0.00  0.00    -0.001 A 
ENDROOT
TORSDOF 0
ENDMDL
