MODEL 1
REMARK minimizedAffinity -1.39745545
REMARK minimizedRMSD -1
REMARK  0 active torsions:
REMARK  status: ('A' for Active; 'I' for Inactive)
ROOT
ATOM      1  C   UNL d   1       2.269   6.000   5.912  0.00  0.00     0.078 C 
ATOM      2  C1  UNL d   1       3.573   5.261   5.926  0.00  0.00    -0.077 A 
ATOM      3  C2  UNL d   1       4.792   5.950   5.940  0.00  0.00    -0.001 A 
ATOM      4  C3  UNL d   1       5.999   5.250   5.944  0.00  0.00     0.003 A 
ATOM      5  C4  UNL d   1       6.000   3.856   5.931  0.00  0.00    -0.005 A 
ATOM      6  C5  UNL d   1       4.792   3.162   5.915  0.00  0.00     0.003 A 
ATOM      7  C6  UNL d   1       3.584   3.861   5.911  0.00  0.00    -0.001 A 
ENDROOT
TORSDOF 0
ENDMDL
