MODEL 1
REMARK minimizedAffinity 7.26752853
REMARK minimizedRMSD -1
REMARK  0 active torsions:
REMARK  status: ('A' for Active; 'I' for Inactive)
ROOT
ATOM      1  C   UNL d   1       2.026   5.925   5.911  0.00  0.00     0.078 C 
ATOM      2  C1  UNL d   1       3.347   5.217   5.882  0.00  0.00    -0.077 A 
ATOM      3  C2  UNL d   1       3.422   3.823   5.989  0.00  0.00    -0.001 A 
ATOM      4  C3  UNL d   1       4.660   3.178   5.971  0.00  0.00     0.003 A 
ATOM      5  C4  UNL d   1       5.833   3.920   5.847  0.00  0.00    -0.005 A 
ATOM      6  C5  UNL d   1       5.769   5.308   5.742  0.00  0.00     0.003 A 
ATOM      7  C6  UNL d   1       4.532   5.954   5.760  0.00  0.00    -0.001 A 
ENDROOT
TORSDOF 0
ENDMDL
