MODEL 1
REMARK minimizedAffinity 13.6188164
REMARK minimizedRMSD -1
REMARK  0 active torsions:
REMARK  status: ('A' for Active; 'I' for Inactive)
ROOT
ATOM      1  C   UNL d   1      -3.429  -1.324   0.371  0.00  0.00     0.078 C 
ATOM      2  C1  UNL d   1      -2.285  -1.645  -0.543  0.00  0.00    -0.077 A 
ATOM      3  C2  UNL d   1      -1.245  -0.729  -0.747  0.00  0.00    -0.001 A 
ATOM      4  C3  UNL d   1      -0.191  -1.038  -1.608  0.00  0.00     0.003 A 
ATOM      5  C4  UNL d   1      -0.167  -2.261  -2.274  0.00  0.00    -0.005 A 
ATOM      6  C5  UNL d   1      -1.199  -3.178  -2.080  0.00  0.00     0.003 A 
ATOM      7  C6  UNL d   1      -2.253  -2.871  -1.219  0.00  0.00    -0.001 A 
ENDROOT
TORSDOF 0
ENDMDL
