MODEL 1
REMARK minimizedAffinity 5.20290947
REMARK minimizedRMSD -1
REMARK  0 active torsions:
REMARK  status: ('A' for Active; 'I' for Inactive)
ROOT
ATOM      1  C   UNL d   1      -4.481  -2.669   1.892  0.00  0.00     0.078 C 
ATOM      2  C1  UNL d   1      -3.177  -2.308   1.245  0.00  0.00    -0.077 A 
ATOM      3  C2  UNL d   1      -2.036  -3.098   1.432  0.00  0.00    -0.001 A 
ATOM      4  C3  UNL d   1      -0.827  -2.744   0.832  0.00  0.00     0.003 A 
ATOM      5  C4  UNL d   1      -0.746  -1.600   0.041  0.00  0.00    -0.005 A 
ATOM      6  C5  UNL d   1      -1.876  -0.806  -0.149  0.00  0.00     0.003 A 
ATOM      7  C6  UNL d   1      -3.086  -1.158   0.451  0.00  0.00    -0.001 A 
ENDROOT
TORSDOF 0
ENDMDL
