MODEL 1
REMARK minimizedAffinity 3.88601995
REMARK minimizedRMSD -1
REMARK  0 active torsions:
REMARK  status: ('A' for Active; 'I' for Inactive)
ROOT
ATOM      1  C   UNL d   1       2.232   5.977   5.969  0.00  0.00     0.078 C 
ATOM      2  C1  UNL d   1       3.539   5.382   5.540  0.00  0.00    -0.077 A 
ATOM      3  C2  UNL d   1       3.581   4.269   4.692  0.00  0.00    -0.001 A 
ATOM      4  C3  UNL d   1       4.806   3.720   4.308  0.00  0.00     0.003 A 
ATOM      5  C4  UNL d   1       5.997   4.276   4.768  0.00  0.00    -0.005 A 
ATOM      6  C5  UNL d   1       5.966   5.383   5.614  0.00  0.00     0.003 A 
ATOM      7  C6  UNL d   1       4.742   5.933   5.999  0.00  0.00    -0.001 A 
ENDROOT
TORSDOF 0
ENDMDL
