MODEL 1
REMARK minimizedAffinity 7.14038754
REMARK minimizedRMSD -1
REMARK  0 active torsions:
REMARK  status: ('A' for Active; 'I' for Inactive)
ROOT
ATOM      1  C   UNL d   1       5.277   2.046   4.381  0.00  0.00     0.078 C 
ATOM      2  C1  UNL d   1       4.998   3.410   4.936  0.00  0.00    -0.077 A 
ATOM      3  C2  UNL d   1       5.994   4.394   4.966  0.00  0.00    -0.001 A 
ATOM      4  C3  UNL d   1       5.723   5.657   5.495  0.00  0.00     0.003 A 
ATOM      5  C4  UNL d   1       4.457   5.948   5.999  0.00  0.00    -0.005 A 
ATOM      6  C5  UNL d   1       3.460   4.975   5.975  0.00  0.00     0.003 A 
ATOM      7  C6  UNL d   1       3.729   3.711   5.447  0.00  0.00    -0.001 A 
ENDROOT
TORSDOF 0
ENDMDL
