MODEL 1
REMARK minimizedAffinity -0.11354138
REMARK minimizedRMSD -1
REMARK  0 active torsions:
REMARK  status: ('A' for Active; 'I' for Inactive)
ROOT
ATOM      1  C   UNL d   1       2.112   5.937   5.895  0.00  0.00     0.078 C 
ATOM      2  C1  UNL d   1       3.442   5.245   5.924  0.00  0.00    -0.077 A 
ATOM      3  C2  UNL d   1       3.528   3.847   5.956  0.00  0.00    -0.001 A 
ATOM      4  C3  UNL d   1       4.773   3.217   5.993  0.00  0.00     0.003 A 
ATOM      5  C4  UNL d   1       5.941   3.976   5.999  0.00  0.00    -0.005 A 
ATOM      6  C5  UNL d   1       5.866   5.367   5.970  0.00  0.00     0.003 A 
ATOM      7  C6  UNL d   1       4.622   5.999   5.934  0.00  0.00    -0.001 A 
ENDROOT
TORSDOF 0
ENDMDL
