MODEL 1
REMARK minimizedAffinity -1.27681899
REMARK minimizedRMSD -1
REMARK  0 active torsions:
REMARK  status: ('A' for Active; 'I' for Inactive)
ROOT
ATOM      1  C   UNL d   1       2.007   5.994   5.999  0.00  0.00     0.078 C 
ATOM      2  C1  UNL d   1       3.308   5.249   5.957  0.00  0.00    -0.077 A 
ATOM      3  C2  UNL d   1       3.338   3.849   5.936  0.00  0.00    -0.001 A 
ATOM      4  C3  UNL d   1       4.556   3.169   5.907  0.00  0.00     0.003 A 
ATOM      5  C4  UNL d   1       5.754   3.880   5.901  0.00  0.00    -0.005 A 
ATOM      6  C5  UNL d   1       5.735   5.273   5.924  0.00  0.00     0.003 A 
ATOM      7  C6  UNL d   1       4.518   5.955   5.953  0.00  0.00    -0.001 A 
ENDROOT
TORSDOF 0
ENDMDL
