MODEL 1
REMARK minimizedAffinity 15.0522842
REMARK minimizedRMSD -1
REMARK  0 active torsions:
REMARK  status: ('A' for Active; 'I' for Inactive)
ROOT
ATOM      1  C   UNL d   1       5.418   2.661   3.426  0.00  0.00     0.078 C 
ATOM      2  C1  UNL d   1       5.079   3.811   4.327  0.00  0.00    -0.077 A 
ATOM      3  C2  UNL d   1       3.848   3.868   4.992  0.00  0.00    -0.001 A 
ATOM      4  C3  UNL d   1       3.542   4.949   5.820  0.00  0.00     0.003 A 
ATOM      5  C4  UNL d   1       4.462   5.982   5.991  0.00  0.00    -0.005 A 
ATOM      6  C5  UNL d   1       5.689   5.934   5.332  0.00  0.00     0.003 A 
ATOM      7  C6  UNL d   1       5.997   4.854   4.504  0.00  0.00    -0.001 A 
ENDROOT
TORSDOF 0
ENDMDL
