MODEL 1
REMARK minimizedAffinity 2.85667634
REMARK minimizedRMSD -1
REMARK  0 active torsions:
REMARK  status: ('A' for Active; 'I' for Inactive)
ROOT
ATOM      1  C   UNL d   1       1.319  -0.683   1.283  0.00  0.00     0.124 A 
ATOM      2  C1  UNL d   1       0.610  -0.612   0.092  0.00  0.00     0.062 A 
ATOM      3  C2  UNL d   1      -0.771  -0.787   0.088  0.00  0.00     0.162 A 
ATOM      4  C3  UNL d   1      -1.453  -1.034   1.279  0.00  0.00    -0.034 A 
ATOM      5  C4  UNL d   1      -0.733  -1.105   2.473  0.00  0.00     0.162 A 
ATOM      6  C5  UNL d   1       0.647  -0.929   2.472  0.00  0.00     0.062 A 
ATOM      7  F   UNL d   1       1.330  -0.998   3.624  0.00  0.00    -0.097 F 
ATOM      8  F1  UNL d   1      -1.357  -1.341   3.637  0.00  0.00    -0.096 F 
ATOM      9  I   UNL d   1      -3.517  -1.297   1.277  0.00  0.00    -0.060 I 
ATOM     10  F2  UNL d   1      -1.430  -0.714  -1.078  0.00  0.00    -0.096 F 
ATOM     11  F3  UNL d   1       1.256  -0.375  -1.058  0.00  0.00    -0.097 F 
ATOM     12  F4  UNL d   1       2.647  -0.514   1.284  0.00  0.00    -0.092 F 
ENDROOT
TORSDOF 0
ENDMDL
