MODEL 1
REMARK minimizedAffinity 0.401580185
REMARK minimizedRMSD -1
REMARK  0 active torsions:
REMARK  status: ('A' for Active; 'I' for Inactive)
ROOT
ATOM      1  C   UNL d   1       1.114  -1.476   1.114  0.00  0.00     0.124 A 
ATOM      2  C1  UNL d   1       1.550  -1.222  -0.180  0.00  0.00     0.062 A 
ATOM      3  C2  UNL d   1       0.832  -0.361  -1.004  0.00  0.00     0.162 A 
ATOM      4  C3  UNL d   1      -0.329   0.255  -0.537  0.00  0.00    -0.034 A 
ATOM      5  C4  UNL d   1      -0.762  -0.006   0.764  0.00  0.00     0.162 A 
ATOM      6  C5  UNL d   1      -0.041  -0.867   1.584  0.00  0.00     0.062 A 
ATOM      7  F   UNL d   1      -0.463  -1.111   2.834  0.00  0.00    -0.097 F 
ATOM      8  F1  UNL d   1      -1.874   0.569   1.245  0.00  0.00    -0.096 F 
ATOM      9  I   UNL d   1      -1.406   1.543  -1.767  0.00  0.00    -0.060 I 
ATOM     10  F2  UNL d   1       1.276  -0.135  -2.249  0.00  0.00    -0.096 F 
ATOM     11  F3  UNL d   1       2.665  -1.810  -0.637  0.00  0.00    -0.097 F 
ATOM     12  F4  UNL d   1       1.807  -2.306   1.904  0.00  0.00    -0.092 F 
ENDROOT
TORSDOF 0
ENDMDL
