MODEL 1
REMARK minimizedAffinity -4.0743413
REMARK minimizedRMSD -1
REMARK  0 active torsions:
REMARK  status: ('A' for Active; 'I' for Inactive)
ROOT
ATOM      1  O1  BZF d   1      -1.787  -2.244  -2.636  0.00  0.00    -0.204 OA
ATOM      2  C2  BZF d   1      -1.485  -3.582  -2.468  0.00  0.00     0.174 A 
ATOM      3  C3  BZF d   1      -0.615  -3.752  -1.452  0.00  0.00    -0.012 A 
ATOM      4  C3A BZF d   1      -0.429  -2.448  -0.894  0.00  0.00    -0.107 A 
ATOM      5  C4  BZF d   1       0.310  -1.971   0.151  0.00  0.00     0.055 A 
ATOM      6  C5  BZF d   1       0.331  -0.633   0.389  0.00  0.00    -0.016 A 
ATOM      7  C6  BZF d   1      -0.370   0.255  -0.400  0.00  0.00     0.022 A 
ATOM      8  C7  BZF d   1      -1.121  -0.171  -1.445  0.00  0.00     0.029 A 
ATOM      9  C7A BZF d   1      -1.170  -1.526  -1.667  0.00  0.00     0.058 A 
ENDROOT
TORSDOF 0
ENDMDL
