MODEL 1
REMARK minimizedAffinity -3.50438833
REMARK minimizedRMSD -1
REMARK  0 active torsions:
REMARK  status: ('A' for Active; 'I' for Inactive)
ROOT
ATOM      1  O1  BZF d   1       1.008  -0.618  -0.984  0.00  0.00    -0.204 OA
ATOM      2  C2  BZF d   1       0.430  -1.818  -0.616  0.00  0.00     0.174 A 
ATOM      3  C3  BZF d   1      -0.599  -1.613   0.231  0.00  0.00    -0.012 A 
ATOM      4  C3A BZF d   1      -0.728  -0.191   0.330  0.00  0.00    -0.107 A 
ATOM      5  C4  BZF d   1      -1.583   0.629   1.010  0.00  0.00     0.055 A 
ATOM      6  C5  BZF d   1      -1.395   1.973   0.951  0.00  0.00    -0.016 A 
ATOM      7  C6  BZF d   1      -0.361   2.531   0.227  0.00  0.00     0.022 A 
ATOM      8  C7  BZF d   1       0.509   1.758  -0.468  0.00  0.00     0.029 A 
ATOM      9  C7A BZF d   1       0.302   0.401  -0.437  0.00  0.00     0.058 A 
ENDROOT
TORSDOF 0
ENDMDL
