MODEL 1
REMARK minimizedAffinity -4.03756618
REMARK minimizedRMSD -1
REMARK  0 active torsions:
REMARK  status: ('A' for Active; 'I' for Inactive)
ROOT
ATOM      1  O1  BZF d   1       1.635  -0.054   0.484  0.00  0.00    -0.204 OA
ATOM      2  C2  BZF d   1       2.350   1.080   0.817  0.00  0.00     0.174 A 
ATOM      3  C3  BZF d   1       1.559   2.172   0.784  0.00  0.00    -0.012 A 
ATOM      4  C3A BZF d   1       0.248   1.677   0.496  0.00  0.00    -0.107 A 
ATOM      5  C4  BZF d   1      -0.971   2.277   0.351  0.00  0.00     0.055 A 
ATOM      6  C5  BZF d   1      -2.042   1.518  -0.001  0.00  0.00    -0.016 A 
ATOM      7  C6  BZF d   1      -1.930   0.161  -0.221  0.00  0.00     0.022 A 
ATOM      8  C7  BZF d   1      -0.743  -0.479  -0.084  0.00  0.00     0.029 A 
ATOM      9  C7A BZF d   1       0.334   0.279   0.304  0.00  0.00     0.058 A 
ENDROOT
TORSDOF 0
ENDMDL
