MODEL 1
REMARK minimizedAffinity -3.52022243
REMARK minimizedRMSD -1
REMARK  0 active torsions:
REMARK  status: ('A' for Active; 'I' for Inactive)
ROOT
ATOM      1  O1  BZF d   1       2.025   0.040   0.082  0.00  0.00    -0.204 OA
ATOM      2  C2  BZF d   1       1.594  -1.243   0.359  0.00  0.00     0.174 A 
ATOM      3  C3  BZF d   1       0.274  -1.255   0.637  0.00  0.00    -0.012 A 
ATOM      4  C3A BZF d   1      -0.165   0.092   0.436  0.00  0.00    -0.107 A 
ATOM      5  C4  BZF d   1      -1.378   0.709   0.540  0.00  0.00     0.055 A 
ATOM      6  C5  BZF d   1      -1.454   2.053   0.348  0.00  0.00    -0.016 A 
ATOM      7  C6  BZF d   1      -0.338   2.809   0.057  0.00  0.00     0.022 A 
ATOM      8  C7  BZF d   1       0.886   2.240  -0.061  0.00  0.00     0.029 A 
ATOM      9  C7A BZF d   1       0.961   0.878   0.099  0.00  0.00     0.058 A 
ENDROOT
TORSDOF 0
ENDMDL
