MODEL 1
REMARK minimizedAffinity -2.94711781
REMARK minimizedRMSD -1
REMARK  0 active torsions:
REMARK  status: ('A' for Active; 'I' for Inactive)
ROOT
ATOM      1  O1  BZF d   1       0.153  -0.305  -0.225  0.00  0.00    -0.204 OA
ATOM      2  C2  BZF d   1      -1.058  -0.651   0.341  0.00  0.00     0.174 A 
ATOM      3  C3  BZF d   1      -1.561   0.375   1.058  0.00  0.00    -0.012 A 
ATOM      4  C3A BZF d   1      -0.649   1.458   0.856  0.00  0.00    -0.107 A 
ATOM      5  C4  BZF d   1      -0.614   2.750   1.297  0.00  0.00     0.055 A 
ATOM      6  C5  BZF d   1       0.454   3.528   0.978  0.00  0.00    -0.016 A 
ATOM      7  C6  BZF d   1       1.505   3.045   0.226  0.00  0.00     0.022 A 
ATOM      8  C7  BZF d   1       1.513   1.772  -0.238  0.00  0.00     0.029 A 
ATOM      9  C7A BZF d   1       0.419   0.993   0.055  0.00  0.00     0.058 A 
ENDROOT
TORSDOF 0
ENDMDL
