MODEL 1
REMARK minimizedAffinity -3.4446106
REMARK minimizedRMSD -1
REMARK  0 active torsions:
REMARK  status: ('A' for Active; 'I' for Inactive)
ROOT
ATOM      1  O1  BZF d   1       0.804  -0.888   0.308  0.00  0.00    -0.204 OA
ATOM      2  C2  BZF d   1      -0.576  -0.836   0.314  0.00  0.00     0.174 A 
ATOM      3  C3  BZF d   1      -1.007   0.406   0.617  0.00  0.00    -0.012 A 
ATOM      4  C3A BZF d   1       0.179   1.200   0.723  0.00  0.00    -0.107 A 
ATOM      5  C4  BZF d   1       0.403   2.520   0.988  0.00  0.00     0.055 A 
ATOM      6  C5  BZF d   1       1.683   2.965   1.092  0.00  0.00    -0.016 A 
ATOM      7  C6  BZF d   1       2.761   2.117   0.940  0.00  0.00     0.022 A 
ATOM      8  C7  BZF d   1       2.588   0.800   0.670  0.00  0.00     0.029 A 
ATOM      9  C7A BZF d   1       1.296   0.354   0.533  0.00  0.00     0.058 A 
ENDROOT
TORSDOF 0
ENDMDL
