MODEL 1
REMARK minimizedAffinity 0.660437822
REMARK minimizedRMSD -1
REMARK  0 active torsions:
REMARK  status: ('A' for Active; 'I' for Inactive)
ROOT
ATOM      1  O1  BZF d   1       1.798  -1.494   0.239  0.00  0.00    -0.204 OA
ATOM      2  C2  BZF d   1       2.887  -0.663   0.058  0.00  0.00     0.174 A 
ATOM      3  C3  BZF d   1       2.502   0.629   0.018  0.00  0.00    -0.012 A 
ATOM      4  C3A BZF d   1       1.095   0.610   0.277  0.00  0.00    -0.107 A 
ATOM      5  C4  BZF d   1       0.146   1.587   0.382  0.00  0.00     0.055 A 
ATOM      6  C5  BZF d   1      -1.151   1.230   0.568  0.00  0.00    -0.016 A 
ATOM      7  C6  BZF d   1      -1.536  -0.092   0.649  0.00  0.00     0.022 A 
ATOM      8  C7  BZF d   1      -0.631  -1.096   0.556  0.00  0.00     0.029 A 
ATOM      9  C7A BZF d   1       0.686  -0.738   0.400  0.00  0.00     0.058 A 
ENDROOT
TORSDOF 0
ENDMDL
