MODEL 1
REMARK minimizedAffinity -4.99226999
REMARK minimizedRMSD -1
REMARK  0 active torsions:
REMARK  status: ('A' for Active; 'I' for Inactive)
ROOT
ATOM      1  O1  BZF d   1      -1.515  -1.981   1.182  0.00  0.00    -0.204 OA
ATOM      2  C2  BZF d   1      -0.874  -3.151   0.823  0.00  0.00     0.174 A 
ATOM      3  C3  BZF d   1       0.359  -2.892   0.342  0.00  0.00    -0.012 A 
ATOM      4  C3A BZF d   1       0.532  -1.480   0.489  0.00  0.00    -0.107 A 
ATOM      5  C4  BZF d   1       1.558  -0.625   0.205  0.00  0.00     0.055 A 
ATOM      6  C5  BZF d   1       1.381   0.708   0.401  0.00  0.00    -0.016 A 
ATOM      7  C6  BZF d   1       0.191   1.221   0.875  0.00  0.00     0.022 A 
ATOM      8  C7  BZF d   1      -0.854   0.411   1.176  0.00  0.00     0.029 A 
ATOM      9  C7A BZF d   1      -0.666  -0.939   1.010  0.00  0.00     0.058 A 
ENDROOT
TORSDOF 0
ENDMDL
