MODEL 1
REMARK minimizedAffinity -4.25890112
REMARK minimizedRMSD -1
REMARK  0 active torsions:
REMARK  status: ('A' for Active; 'I' for Inactive)
ROOT
ATOM      1  O1  BZF d   1       1.304  -0.813   0.175  0.00  0.00    -0.204 OA
ATOM      2  C2  BZF d   1       0.352  -1.789   0.399  0.00  0.00     0.174 A 
ATOM      3  C3  BZF d   1      -0.866  -1.238   0.576  0.00  0.00    -0.012 A 
ATOM      4  C3A BZF d   1      -0.678   0.164   0.364  0.00  0.00    -0.107 A 
ATOM      5  C4  BZF d   1      -1.522   1.238   0.386  0.00  0.00     0.055 A 
ATOM      6  C5  BZF d   1      -1.010   2.484   0.209  0.00  0.00    -0.016 A 
ATOM      7  C6  BZF d   1       0.340   2.694   0.014  0.00  0.00     0.022 A 
ATOM      8  C7  BZF d   1       1.215   1.659  -0.020  0.00  0.00     0.029 A 
ATOM      9  C7A BZF d   1       0.696   0.396   0.125  0.00  0.00     0.058 A 
ENDROOT
TORSDOF 0
ENDMDL
