MODEL 1
REMARK minimizedAffinity -4.64507341
REMARK minimizedRMSD -1
REMARK  0 active torsions:
REMARK  status: ('A' for Active; 'I' for Inactive)
ROOT
ATOM      1  O1  BZF d   1       1.195  -1.052  -0.029  0.00  0.00    -0.204 OA
ATOM      2  C2  BZF d   1       0.392  -2.166   0.123  0.00  0.00     0.174 A 
ATOM      3  C3  BZF d   1      -0.879  -1.806   0.397  0.00  0.00    -0.012 A 
ATOM      4  C3A BZF d   1      -0.889  -0.377   0.326  0.00  0.00    -0.107 A 
ATOM      5  C4  BZF d   1      -1.865   0.564   0.487  0.00  0.00     0.055 A 
ATOM      6  C5  BZF d   1      -1.531   1.880   0.425  0.00  0.00    -0.016 A 
ATOM      7  C6  BZF d   1      -0.231   2.289   0.209  0.00  0.00     0.022 A 
ATOM      8  C7  BZF d   1       0.770   1.392   0.038  0.00  0.00     0.029 A 
ATOM      9  C7A BZF d   1       0.430   0.062   0.067  0.00  0.00     0.058 A 
ENDROOT
TORSDOF 0
ENDMDL
