MODEL 1
REMARK minimizedAffinity -2.63149166
REMARK minimizedRMSD -1
REMARK  0 active torsions:
REMARK  status: ('A' for Active; 'I' for Inactive)
ROOT
ATOM      1  O1  BZF d   1       2.469   0.656   0.596  0.00  0.00    -0.204 OA
ATOM      2  C2  BZF d   1       2.754   1.952   0.980  0.00  0.00     0.174 A 
ATOM      3  C3  BZF d   1       1.620   2.670   1.116  0.00  0.00    -0.012 A 
ATOM      4  C3A BZF d   1       0.556   1.741   0.887  0.00  0.00    -0.107 A 
ATOM      5  C4  BZF d   1      -0.805   1.852   0.898  0.00  0.00     0.055 A 
ATOM      6  C5  BZF d   1      -1.558   0.772   0.560  0.00  0.00    -0.016 A 
ATOM      7  C6  BZF d   1      -0.983  -0.430   0.201  0.00  0.00     0.022 A 
ATOM      8  C7  BZF d   1       0.363  -0.589   0.180  0.00  0.00     0.029 A 
ATOM      9  C7A BZF d   1       1.125   0.491   0.553  0.00  0.00     0.058 A 
ENDROOT
TORSDOF 0
ENDMDL
