MODEL 1
REMARK minimizedAffinity -1.78584373
REMARK minimizedRMSD -1
REMARK  0 active torsions:
REMARK  status: ('A' for Active; 'I' for Inactive)
ROOT
ATOM      1  O1  BZF d   1       0.245  -2.456  -1.538  0.00  0.00    -0.204 OA
ATOM      2  C2  BZF d   1      -0.852  -2.820  -2.295  0.00  0.00     0.174 A 
ATOM      3  C3  BZF d   1      -1.892  -1.997  -2.055  0.00  0.00    -0.012 A 
ATOM      4  C3A BZF d   1      -1.388  -1.004  -1.157  0.00  0.00    -0.107 A 
ATOM      5  C4  BZF d   1      -1.941   0.096  -0.567  0.00  0.00     0.055 A 
ATOM      6  C5  BZF d   1      -1.199   0.815   0.316  0.00  0.00    -0.016 A 
ATOM      7  C6  BZF d   1       0.095   0.461   0.635  0.00  0.00     0.022 A 
ATOM      8  C7  BZF d   1       0.689  -0.619   0.071  0.00  0.00     0.029 A 
ATOM      9  C7A BZF d   1      -0.047  -1.329  -0.846  0.00  0.00     0.058 A 
ENDROOT
TORSDOF 0
ENDMDL
