MODEL 1
REMARK minimizedAffinity -4.64682388
REMARK minimizedRMSD -1
REMARK  0 active torsions:
REMARK  status: ('A' for Active; 'I' for Inactive)
ROOT
ATOM      1  O1  BZF d   1       1.340  -0.989   0.252  0.00  0.00    -0.204 OA
ATOM      2  C2  BZF d   1       0.009  -1.251  -0.010  0.00  0.00     0.174 A 
ATOM      3  C3  BZF d   1      -0.726  -0.123   0.074  0.00  0.00    -0.012 A 
ATOM      4  C3A BZF d   1       0.217   0.924   0.320  0.00  0.00    -0.107 A 
ATOM      5  C4  BZF d   1       0.099   2.274   0.485  0.00  0.00     0.055 A 
ATOM      6  C5  BZF d   1       1.207   3.002   0.782  0.00  0.00    -0.016 A 
ATOM      7  C6  BZF d   1       2.446   2.413   0.928  0.00  0.00     0.022 A 
ATOM      8  C7  BZF d   1       2.614   1.078   0.769  0.00  0.00     0.029 A 
ATOM      9  C7A BZF d   1       1.502   0.344   0.435  0.00  0.00     0.058 A 
ENDROOT
TORSDOF 0
ENDMDL
