MODEL 1
REMARK minimizedAffinity -3.35280919
REMARK minimizedRMSD -1
REMARK  0 active torsions:
REMARK  status: ('A' for Active; 'I' for Inactive)
ROOT
ATOM      1  O1  BZF d   1      -0.724   2.494   1.053  0.00  0.00    -0.204 OA
ATOM      2  C2  BZF d   1       0.334   3.203   0.516  0.00  0.00     0.174 A 
ATOM      3  C3  BZF d   1       1.262   2.367   0.009  0.00  0.00    -0.012 A 
ATOM      4  C3A BZF d   1       0.710   1.055   0.160  0.00  0.00    -0.107 A 
ATOM      5  C4  BZF d   1       1.153  -0.194  -0.170  0.00  0.00     0.055 A 
ATOM      6  C5  BZF d   1       0.406  -1.273   0.181  0.00  0.00    -0.016 A 
ATOM      7  C6  BZF d   1      -0.784  -1.142   0.865  0.00  0.00     0.022 A 
ATOM      8  C7  BZF d   1      -1.268   0.077   1.209  0.00  0.00     0.029 A 
ATOM      9  C7A BZF d   1      -0.531   1.172   0.827  0.00  0.00     0.058 A 
ENDROOT
TORSDOF 0
ENDMDL
