MODEL 1
REMARK minimizedAffinity -6.09785509
REMARK minimizedRMSD -1
REMARK  0 active torsions:
REMARK  status: ('A' for Active; 'I' for Inactive)
ROOT
ATOM      1  O1  BZF d   1      -0.967  -0.071   1.047  0.00  0.00    -0.204 OA
ATOM      2  C2  BZF d   1      -0.267  -1.205   0.685  0.00  0.00     0.174 A 
ATOM      3  C3  BZF d   1       0.765  -0.893  -0.124  0.00  0.00    -0.012 A 
ATOM      4  C3A BZF d   1       0.763   0.536  -0.203  0.00  0.00    -0.107 A 
ATOM      5  C4  BZF d   1       1.558   1.442  -0.845  0.00  0.00     0.055 A 
ATOM      6  C5  BZF d   1       1.242   2.762  -0.778  0.00  0.00    -0.016 A 
ATOM      7  C6  BZF d   1       0.137   3.209  -0.083  0.00  0.00     0.022 A 
ATOM      8  C7  BZF d   1      -0.678   2.349   0.574  0.00  0.00     0.029 A 
ATOM      9  C7A BZF d   1      -0.343   1.017   0.535  0.00  0.00     0.058 A 
ENDROOT
TORSDOF 0
ENDMDL
