MODEL 1
REMARK minimizedAffinity -5.27389145
REMARK minimizedRMSD -1
REMARK  0 active torsions:
REMARK  status: ('A' for Active; 'I' for Inactive)
ROOT
ATOM      1  O1  BZF d   1       0.669  -0.655   0.084  0.00  0.00    -0.204 OA
ATOM      2  C2  BZF d   1      -0.611  -1.016   0.459  0.00  0.00     0.174 A 
ATOM      3  C3  BZF d   1      -1.365   0.077   0.699  0.00  0.00    -0.012 A 
ATOM      4  C3A BZF d   1      -0.529   1.190   0.370  0.00  0.00    -0.107 A 
ATOM      5  C4  BZF d   1      -0.718   2.543   0.385  0.00  0.00     0.055 A 
ATOM      6  C5  BZF d   1       0.324   3.358   0.074  0.00  0.00    -0.016 A 
ATOM      7  C6  BZF d   1       1.567   2.857  -0.250  0.00  0.00     0.022 A 
ATOM      8  C7  BZF d   1       1.801   1.522  -0.284  0.00  0.00     0.029 A 
ATOM      9  C7A BZF d   1       0.742   0.695  -0.002  0.00  0.00     0.058 A 
ENDROOT
TORSDOF 0
ENDMDL
