MODEL 1
REMARK minimizedAffinity -1.11377013
REMARK minimizedRMSD -1
REMARK  0 active torsions:
REMARK  status: ('A' for Active; 'I' for Inactive)
ROOT
ATOM      1  O1  BZF d   1       2.016   1.004   0.475  0.00  0.00    -0.204 OA
ATOM      2  C2  BZF d   1       2.084  -0.376   0.471  0.00  0.00     0.174 A 
ATOM      3  C3  BZF d   1       0.850  -0.916   0.539  0.00  0.00    -0.012 A 
ATOM      4  C3A BZF d   1      -0.050   0.196   0.497  0.00  0.00    -0.107 A 
ATOM      5  C4  BZF d   1      -1.411   0.303   0.514  0.00  0.00     0.055 A 
ATOM      6  C5  BZF d   1      -1.976   1.539   0.534  0.00  0.00    -0.016 A 
ATOM      7  C6  BZF d   1      -1.211   2.687   0.542  0.00  0.00     0.022 A 
ATOM      8  C7  BZF d   1       0.143   2.631   0.520  0.00  0.00     0.029 A 
ATOM      9  C7A BZF d   1       0.716   1.384   0.467  0.00  0.00     0.058 A 
ENDROOT
TORSDOF 0
ENDMDL
