MODEL 1
REMARK minimizedAffinity -2.89064741
REMARK minimizedRMSD -1
REMARK  0 active torsions:
REMARK  status: ('A' for Active; 'I' for Inactive)
ROOT
ATOM      1  O1  BZF d   1       1.112  -0.745  -1.027  0.00  0.00    -0.204 OA
ATOM      2  C2  BZF d   1       0.575  -0.121   0.082  0.00  0.00     0.174 A 
ATOM      3  C3  BZF d   1      -0.604  -0.680   0.423  0.00  0.00    -0.012 A 
ATOM      4  C3A BZF d   1      -0.773  -1.779  -0.478  0.00  0.00    -0.107 A 
ATOM      5  C4  BZF d   1      -1.743  -2.727  -0.631  0.00  0.00     0.055 A 
ATOM      6  C5  BZF d   1      -1.644  -3.615  -1.654  0.00  0.00    -0.016 A 
ATOM      7  C6  BZF d   1      -0.593  -3.580  -2.546  0.00  0.00     0.022 A 
ATOM      8  C7  BZF d   1       0.397  -2.661  -2.433  0.00  0.00     0.029 A 
ATOM      9  C7A BZF d   1       0.317  -1.783  -1.380  0.00  0.00     0.058 A 
ENDROOT
TORSDOF 0
ENDMDL
