MODEL 1
REMARK minimizedAffinity -3.97239399
REMARK minimizedRMSD -1
REMARK  0 active torsions:
REMARK  status: ('A' for Active; 'I' for Inactive)
ROOT
ATOM      1  C1  DEN d   1       2.282  -0.944   0.877  0.00  0.00     0.130 A 
ATOM      2  C2  DEN d   1       2.558   0.329   0.218  0.00  0.00    -0.031 A 
ATOM      3  C3  DEN d   1       1.265   0.985  -0.066  0.00  0.00     0.027 A 
ATOM      4  C4  DEN d   1      -1.122   0.159   0.453  0.00  0.00     0.027 A 
ATOM      5  C5  DEN d   1      -1.861  -0.870   0.993  0.00  0.00    -0.003 A 
ATOM      6  C6  DEN d   1      -1.278  -2.001   1.498  0.00  0.00     0.001 A 
ATOM      7  C7  DEN d   1       0.088  -2.111   1.514  0.00  0.00     0.017 A 
ATOM      8  C8  DEN d   1       0.839  -1.081   0.964  0.00  0.00    -0.094 A 
ATOM      9  C9  DEN d   1       0.231   0.060   0.470  0.00  0.00    -0.072 A 
ENDROOT
TORSDOF 0
ENDMDL
