MODEL 1
REMARK minimizedAffinity -5.08187628
REMARK minimizedRMSD -1
REMARK  0 active torsions:
REMARK  status: ('A' for Active; 'I' for Inactive)
ROOT
ATOM      1  C1  DEN d   1      -0.329  -1.298  -0.331  0.00  0.00     0.130 A 
ATOM      2  C2  DEN d   1      -1.452  -0.430  -0.675  0.00  0.00    -0.031 A 
ATOM      3  C3  DEN d   1      -0.975   0.967  -0.646  0.00  0.00     0.027 A 
ATOM      4  C4  DEN d   1       1.383   1.866  -0.111  0.00  0.00     0.027 A 
ATOM      5  C5  DEN d   1       2.664   1.511   0.250  0.00  0.00    -0.003 A 
ATOM      6  C6  DEN d   1       3.026   0.210   0.474  0.00  0.00     0.001 A 
ATOM      7  C7  DEN d   1       2.107  -0.791   0.295  0.00  0.00     0.017 A 
ATOM      8  C8  DEN d   1       0.811  -0.441  -0.062  0.00  0.00    -0.094 A 
ATOM      9  C9  DEN d   1       0.468   0.880  -0.295  0.00  0.00    -0.072 A 
ENDROOT
TORSDOF 0
ENDMDL
