MODEL 1
REMARK minimizedAffinity -3.60314059
REMARK minimizedRMSD -1
REMARK  0 active torsions:
REMARK  status: ('A' for Active; 'I' for Inactive)
ROOT
ATOM      1  C1  DEN d   1      -1.125   0.400  -3.408  0.00  0.00     0.130 A 
ATOM      2  C2  DEN d   1      -2.539   0.096  -3.204  0.00  0.00    -0.031 A 
ATOM      3  C3  DEN d   1      -2.757  -0.113  -1.759  0.00  0.00     0.027 A 
ATOM      4  C4  DEN d   1      -1.053   0.010   0.174  0.00  0.00     0.027 A 
ATOM      5  C5  DEN d   1       0.269   0.225   0.492  0.00  0.00    -0.003 A 
ATOM      6  C6  DEN d   1       1.218   0.478  -0.463  0.00  0.00     0.001 A 
ATOM      7  C7  DEN d   1       0.850   0.567  -1.779  0.00  0.00     0.017 A 
ATOM      8  C8  DEN d   1      -0.481   0.344  -2.109  0.00  0.00    -0.094 A 
ATOM      9  C9  DEN d   1      -1.427   0.102  -1.128  0.00  0.00    -0.072 A 
ENDROOT
TORSDOF 0
ENDMDL
