MODEL 1
REMARK minimizedAffinity -1.21274495
REMARK minimizedRMSD -1
REMARK  0 active torsions:
REMARK  status: ('A' for Active; 'I' for Inactive)
ROOT
ATOM      1  C1  DEN d   1       1.863   1.173   0.024  0.00  0.00     0.130 A 
ATOM      2  C2  DEN d   1       2.943   0.491   0.733  0.00  0.00    -0.031 A 
ATOM      3  C3  DEN d   1       2.377  -0.709   1.381  0.00  0.00     0.027 A 
ATOM      4  C4  DEN d   1      -0.053  -1.575   1.354  0.00  0.00     0.027 A 
ATOM      5  C5  DEN d   1      -1.328  -1.327   0.895  0.00  0.00    -0.003 A 
ATOM      6  C6  DEN d   1      -1.633  -0.219   0.149  0.00  0.00     0.001 A 
ATOM      7  C7  DEN d   1      -0.641   0.659  -0.199  0.00  0.00     0.017 A 
ATOM      8  C8  DEN d   1       0.646   0.420   0.266  0.00  0.00    -0.094 A 
ATOM      9  C9  DEN d   1       0.936  -0.712   1.008  0.00  0.00    -0.072 A 
ENDROOT
TORSDOF 0
ENDMDL
