MODEL 1
REMARK minimizedAffinity -0.0782567114
REMARK minimizedRMSD -1
REMARK  0 active torsions:
REMARK  status: ('A' for Active; 'I' for Inactive)
ROOT
ATOM      1  C1  DEN d   1       1.161  -1.841   2.732  0.00  0.00     0.130 A 
ATOM      2  C2  DEN d   1      -0.035  -2.593   2.361  0.00  0.00    -0.031 A 
ATOM      3  C3  DEN d   1      -0.763  -1.817   1.336  0.00  0.00     0.027 A 
ATOM      4  C4  DEN d   1      -0.154   0.460   0.289  0.00  0.00     0.027 A 
ATOM      5  C5  DEN d   1       0.762   1.489   0.294  0.00  0.00    -0.003 A 
ATOM      6  C6  DEN d   1       1.848   1.496   1.129  0.00  0.00     0.001 A 
ATOM      7  C7  DEN d   1       2.070   0.432   1.963  0.00  0.00     0.017 A 
ATOM      8  C8  DEN d   1       1.147  -0.606   1.969  0.00  0.00    -0.094 A 
ATOM      9  C9  DEN d   1       0.062  -0.600   1.109  0.00  0.00    -0.072 A 
ENDROOT
TORSDOF 0
ENDMDL
