MODEL 1
REMARK minimizedAffinity -2.67808914
REMARK minimizedRMSD -1
REMARK  0 active torsions:
REMARK  status: ('A' for Active; 'I' for Inactive)
ROOT
ATOM      1  C1  DEN d   1       1.414   1.958  -0.308  0.00  0.00     0.130 A 
ATOM      2  C2  DEN d   1       2.579   1.563   0.478  0.00  0.00    -0.031 A 
ATOM      3  C3  DEN d   1       2.203   0.393   1.296  0.00  0.00     0.027 A 
ATOM      4  C4  DEN d   1      -0.057  -0.843   1.417  0.00  0.00     0.027 A 
ATOM      5  C5  DEN d   1      -1.350  -0.868   0.943  0.00  0.00    -0.003 A 
ATOM      6  C6  DEN d   1      -1.818   0.061   0.051  0.00  0.00     0.001 A 
ATOM      7  C7  DEN d   1      -0.974   1.027  -0.429  0.00  0.00     0.017 A 
ATOM      8  C8  DEN d   1       0.329   1.063   0.051  0.00  0.00    -0.094 A 
ATOM      9  C9  DEN d   1       0.787   0.108   0.943  0.00  0.00    -0.072 A 
ENDROOT
TORSDOF 0
ENDMDL
