MODEL 1
REMARK minimizedAffinity -3.87282515
REMARK minimizedRMSD -1
REMARK  0 active torsions:
REMARK  status: ('A' for Active; 'I' for Inactive)
ROOT
ATOM      1  C1  DEN d   1       2.572  -1.674   0.925  0.00  0.00     0.130 A 
ATOM      2  C2  DEN d   1       1.503  -2.529   1.434  0.00  0.00    -0.031 A 
ATOM      3  C3  DEN d   1       0.222  -1.818   1.248  0.00  0.00     0.027 A 
ATOM      4  C4  DEN d   1      -0.207   0.509   0.221  0.00  0.00     0.027 A 
ATOM      5  C5  DEN d   1       0.390   1.616  -0.340  0.00  0.00    -0.003 A 
ATOM      6  C6  DEN d   1       1.748   1.718  -0.486  0.00  0.00     0.001 A 
ATOM      7  C7  DEN d   1       2.551   0.675  -0.108  0.00  0.00     0.017 A 
ATOM      8  C8  DEN d   1       1.957  -0.442   0.466  0.00  0.00    -0.094 A 
ATOM      9  C9  DEN d   1       0.581  -0.530   0.594  0.00  0.00    -0.072 A 
ENDROOT
TORSDOF 0
ENDMDL
