MODEL 1
REMARK minimizedAffinity -2.98667288
REMARK minimizedRMSD -1
REMARK  0 active torsions:
REMARK  status: ('A' for Active; 'I' for Inactive)
ROOT
ATOM      1  C1  DEN d   1      -0.284  -1.316  -0.078  0.00  0.00     0.130 A 
ATOM      2  C2  DEN d   1      -1.285  -0.298  -0.384  0.00  0.00    -0.031 A 
ATOM      3  C3  DEN d   1      -0.672   1.027  -0.160  0.00  0.00     0.027 A 
ATOM      4  C4  DEN d   1       1.719   1.597   0.622  0.00  0.00     0.027 A 
ATOM      5  C5  DEN d   1       2.927   1.067   1.017  0.00  0.00    -0.003 A 
ATOM      6  C6  DEN d   1       3.138  -0.284   1.106  0.00  0.00     0.001 A 
ATOM      7  C7  DEN d   1       2.138  -1.151   0.753  0.00  0.00     0.017 A 
ATOM      8  C8  DEN d   1       0.914  -0.624   0.362  0.00  0.00    -0.094 A 
ATOM      9  C9  DEN d   1       0.725   0.744   0.266  0.00  0.00    -0.072 A 
ENDROOT
TORSDOF 0
ENDMDL
