MODEL 1
REMARK minimizedAffinity -2.35390496
REMARK minimizedRMSD -1
REMARK  1 active torsions:
REMARK  status: ('A' for Active; 'I' for Inactive)
REMARK    1  A    between atoms: C1_2  and  C2_3 
ROOT
ATOM      1  C2  UNL d   1       1.480   3.868  -0.407  0.00  0.00    -0.073 A 
ATOM      2  C3  UNL d   1       1.493   3.505   0.944  0.00  0.00    -0.002 A 
ATOM      3  C4  UNL d   1       1.493   2.159   1.313  0.00  0.00     0.004 A 
ATOM      4  C5  UNL d   1       1.486   1.163   0.336  0.00  0.00    -0.004 A 
ATOM      5  C6  UNL d   1       1.484   1.506  -1.020  0.00  0.00    -0.075 A 
ATOM      6  C7  UNL d   1       1.474   0.447  -2.084  0.00  0.00     0.076 C 
ATOM      7  C8  UNL d   1       1.482   2.860  -1.382  0.00  0.00     0.001 A 
ENDROOT
BRANCH   1   8
ATOM      8  C1  UNL d   1       1.487   5.320  -0.810  0.00  0.00     0.053 C 
ATOM      9  C   UNL d   1       2.804   5.999  -0.469  0.00  0.00     0.018 C 
ENDBRANCH   1   8
TORSDOF 1
ENDMDL
