MODEL 1
REMARK minimizedAffinity -3.38834429
REMARK minimizedRMSD -1
REMARK  1 active torsions:
REMARK  status: ('A' for Active; 'I' for Inactive)
REMARK    1  A    between atoms: C1_2  and  C2_3 
ROOT
ATOM      1  C2  UNL d   1       1.440   3.044   0.114  0.00  0.00    -0.073 A 
ATOM      2  C3  UNL d   1       1.553   1.659   0.273  0.00  0.00    -0.002 A 
ATOM      3  C4  UNL d   1       1.865   1.116   1.520  0.00  0.00     0.004 A 
ATOM      4  C5  UNL d   1       2.059   1.950   2.621  0.00  0.00    -0.004 A 
ATOM      5  C6  UNL d   1       1.938   3.337   2.484  0.00  0.00    -0.075 A 
ATOM      6  C7  UNL d   1       2.146   4.249   3.658  0.00  0.00     0.076 C 
ATOM      7  C8  UNL d   1       1.627   3.875   1.228  0.00  0.00     0.001 A 
ENDROOT
BRANCH   1   8
ATOM      8  C1  UNL d   1       1.097   3.635  -1.229  0.00  0.00     0.053 C 
ATOM      9  C   UNL d   1       1.238   2.619  -2.352  0.00  0.00     0.018 C 
ENDBRANCH   1   8
TORSDOF 1
ENDMDL
