MODEL 1
REMARK minimizedAffinity 3.07909799
REMARK minimizedRMSD -1
REMARK  1 active torsions:
REMARK  status: ('A' for Active; 'I' for Inactive)
REMARK    1  A    between atoms: C1_2  and  C2_3 
ROOT
ATOM      1  C2  UNL d   1       1.220   0.808   0.549  0.00  0.00    -0.073 A 
ATOM      2  C3  UNL d   1       1.283  -0.560   0.261  0.00  0.00    -0.002 A 
ATOM      3  C4  UNL d   1       1.403  -0.997  -1.059  0.00  0.00     0.004 A 
ATOM      4  C5  UNL d   1       1.468  -0.073  -2.102  0.00  0.00    -0.004 A 
ATOM      5  C6  UNL d   1       1.420   1.298  -1.833  0.00  0.00    -0.075 A 
ATOM      6  C7  UNL d   1       1.487   2.305  -2.944  0.00  0.00     0.076 C 
ATOM      7  C8  UNL d   1       1.296   1.730  -0.505  0.00  0.00     0.001 A 
ENDROOT
BRANCH   1   8
ATOM      8  C1  UNL d   1       1.097   1.286   1.973  0.00  0.00     0.053 C 
ATOM      9  C   UNL d   1       2.401   1.870   2.493  0.00  0.00     0.018 C 
ENDBRANCH   1   8
TORSDOF 1
ENDMDL
