MODEL 1
REMARK minimizedAffinity -3.62853241
REMARK minimizedRMSD -1
REMARK  1 active torsions:
REMARK  status: ('A' for Active; 'I' for Inactive)
REMARK    1  A    between atoms: C1_2  and  C2_3 
ROOT
ATOM      1  C2  UNL d   1       1.390   0.237  -0.532  0.00  0.00    -0.073 A 
ATOM      2  C3  UNL d   1       1.555   0.795  -1.805  0.00  0.00    -0.002 A 
ATOM      3  C4  UNL d   1       1.488   2.177  -1.983  0.00  0.00     0.004 A 
ATOM      4  C5  UNL d   1       1.262   3.016  -0.891  0.00  0.00    -0.004 A 
ATOM      5  C6  UNL d   1       1.107   2.478   0.391  0.00  0.00    -0.075 A 
ATOM      6  C7  UNL d   1       0.861   3.366   1.575  0.00  0.00     0.076 C 
ATOM      7  C8  UNL d   1       1.173   1.089   0.561  0.00  0.00     0.001 A 
ENDROOT
BRANCH   1   8
ATOM      8  C1  UNL d   1       1.468  -1.255  -0.334  0.00  0.00     0.053 C 
ATOM      9  C   UNL d   1       0.400  -1.992  -1.127  0.00  0.00     0.018 C 
ENDBRANCH   1   8
TORSDOF 1
ENDMDL
