MODEL 1
REMARK minimizedAffinity -6.9518466
REMARK minimizedRMSD -1
REMARK  1 active torsions:
REMARK  status: ('A' for Active; 'I' for Inactive)
REMARK    1  A    between atoms: C1_2  and  C2_3 
ROOT
ATOM      1  C2  UNL d   1       1.348   1.503  -1.050  0.00  0.00    -0.073 A 
ATOM      2  C3  UNL d   1       0.999   1.121   0.250  0.00  0.00    -0.002 A 
ATOM      3  C4  UNL d   1       0.863   2.080   1.255  0.00  0.00     0.004 A 
ATOM      4  C5  UNL d   1       1.067   3.430   0.969  0.00  0.00    -0.004 A 
ATOM      5  C6  UNL d   1       1.405   3.833  -0.327  0.00  0.00    -0.075 A 
ATOM      6  C7  UNL d   1       1.630   5.281  -0.651  0.00  0.00     0.076 C 
ATOM      7  C8  UNL d   1       1.543   2.863  -1.330  0.00  0.00     0.001 A 
ENDROOT
BRANCH   1   8
ATOM      8  C1  UNL d   1       1.490   0.472  -2.139  0.00  0.00     0.053 C 
ATOM      9  C   UNL d   1       1.186  -0.931  -1.639  0.00  0.00     0.018 C 
ENDBRANCH   1   8
TORSDOF 1
ENDMDL
