MODEL 1
REMARK minimizedAffinity -0.597479343
REMARK minimizedRMSD -1
REMARK  1 active torsions:
REMARK  status: ('A' for Active; 'I' for Inactive)
REMARK    1  A    between atoms: C1_2  and  C2_3 
ROOT
ATOM      1  C2  UNL d   1       1.365   3.795  -0.610  0.00  0.00    -0.073 A 
ATOM      2  C3  UNL d   1       1.218   2.978  -1.736  0.00  0.00    -0.002 A 
ATOM      3  C4  UNL d   1       1.175   1.590  -1.600  0.00  0.00     0.004 A 
ATOM      4  C5  UNL d   1       1.272   1.005  -0.337  0.00  0.00    -0.004 A 
ATOM      5  C6  UNL d   1       1.408   1.806   0.802  0.00  0.00    -0.075 A 
ATOM      6  C7  UNL d   1       1.517   1.192   2.167  0.00  0.00     0.076 C 
ATOM      7  C8  UNL d   1       1.453   3.199   0.656  0.00  0.00     0.001 A 
ENDROOT
BRANCH   1   8
ATOM      8  C1  UNL d   1       1.405   5.295  -0.752  0.00  0.00     0.053 C 
ATOM      9  C   UNL d   1       2.712   5.775  -1.363  0.00  0.00     0.018 C 
ENDBRANCH   1   8
TORSDOF 1
ENDMDL
