MODEL 1
REMARK minimizedAffinity -0.37666899
REMARK minimizedRMSD -1
REMARK  1 active torsions:
REMARK  status: ('A' for Active; 'I' for Inactive)
REMARK    1  A    between atoms: C1_2  and  C2_3 
ROOT
ATOM      1  C2  UNL d   1       1.499   2.242  -1.329  0.00  0.00    -0.073 A 
ATOM      2  C3  UNL d   1       1.246   2.056   0.035  0.00  0.00    -0.002 A 
ATOM      3  C4  UNL d   1       1.279   3.141   0.912  0.00  0.00     0.004 A 
ATOM      4  C5  UNL d   1       1.558   4.422   0.434  0.00  0.00    -0.004 A 
ATOM      5  C6  UNL d   1       1.802   4.629  -0.927  0.00  0.00    -0.075 A 
ATOM      6  C7  UNL d   1       2.106   6.000  -1.456  0.00  0.00     0.076 C 
ATOM      7  C8  UNL d   1       1.770   3.534  -1.801  0.00  0.00     0.001 A 
ENDROOT
BRANCH   1   8
ATOM      8  C1  UNL d   1       1.458   1.074  -2.280  0.00  0.00     0.053 C 
ATOM      9  C   UNL d   1       1.957  -0.208  -1.632  0.00  0.00     0.018 C 
ENDBRANCH   1   8
TORSDOF 1
ENDMDL
