MODEL 1
REMARK minimizedAffinity 2.26375103
REMARK minimizedRMSD -1
REMARK  1 active torsions:
REMARK  status: ('A' for Active; 'I' for Inactive)
REMARK    1  A    between atoms: C1_2  and  C2_3 
ROOT
ATOM      1  C2  UNL d   1      -5.097  -0.655   3.222  0.00  0.00    -0.073 A 
ATOM      2  C3  UNL d   1      -5.579  -0.703   4.535  0.00  0.00    -0.002 A 
ATOM      3  C4  UNL d   1      -5.993  -1.914   5.091  0.00  0.00     0.004 A 
ATOM      4  C5  UNL d   1      -5.922  -3.090   4.343  0.00  0.00    -0.004 A 
ATOM      5  C6  UNL d   1      -5.432  -3.064   3.034  0.00  0.00    -0.075 A 
ATOM      6  C7  UNL d   1      -5.352  -4.320   2.216  0.00  0.00     0.076 C 
ATOM      7  C8  UNL d   1      -5.021  -1.844   2.482  0.00  0.00     0.001 A 
ENDROOT
BRANCH   1   8
ATOM      8  C1  UNL d   1      -4.643   0.650   2.620  0.00  0.00     0.053 C 
ATOM      9  C   UNL d   1      -3.717   1.415   3.551  0.00  0.00     0.018 C 
ENDBRANCH   1   8
TORSDOF 1
ENDMDL
