MODEL 1
REMARK minimizedAffinity 0.223542929
REMARK minimizedRMSD -1
REMARK  1 active torsions:
REMARK  status: ('A' for Active; 'I' for Inactive)
REMARK    1  A    between atoms: C1_2  and  C2_3 
ROOT
ATOM      1  C2  UNL d   1       1.472   3.175  -1.178  0.00  0.00    -0.073 A 
ATOM      2  C3  UNL d   1       1.107   2.214  -2.127  0.00  0.00    -0.002 A 
ATOM      3  C4  UNL d   1       0.778   0.918  -1.727  0.00  0.00     0.004 A 
ATOM      4  C5  UNL d   1       0.804   0.573  -0.376  0.00  0.00    -0.004 A 
ATOM      5  C6  UNL d   1       1.154   1.523   0.589  0.00  0.00    -0.075 A 
ATOM      6  C7  UNL d   1       1.189   1.166   2.046  0.00  0.00     0.076 C 
ATOM      7  C8  UNL d   1       1.486   2.821   0.179  0.00  0.00     0.001 A 
ENDROOT
BRANCH   1   8
ATOM      8  C1  UNL d   1       1.822   4.577  -1.605  0.00  0.00     0.053 C 
ATOM      9  C   UNL d   1       1.878   5.535  -0.425  0.00  0.00     0.018 C 
ENDBRANCH   1   8
TORSDOF 1
ENDMDL
