MODEL 1
REMARK minimizedAffinity -2.38668656
REMARK minimizedRMSD -1
REMARK  1 active torsions:
REMARK  status: ('A' for Active; 'I' for Inactive)
REMARK    1  A    between atoms: C1_2  and  C2_3 
ROOT
ATOM      1  C2  UNL d   1      -0.815   1.849   2.374  0.00  0.00    -0.073 A 
ATOM      2  C3  UNL d   1      -2.028   1.984   1.689  0.00  0.00    -0.002 A 
ATOM      3  C4  UNL d   1      -3.232   2.040   2.393  0.00  0.00     0.004 A 
ATOM      4  C5  UNL d   1      -3.235   1.969   3.786  0.00  0.00    -0.004 A 
ATOM      5  C6  UNL d   1      -2.032   1.846   4.488  0.00  0.00    -0.075 A 
ATOM      6  C7  UNL d   1      -2.019   1.766   5.987  0.00  0.00     0.076 C 
ATOM      7  C8  UNL d   1      -0.827   1.787   3.775  0.00  0.00     0.001 A 
ENDROOT
BRANCH   1   8
ATOM      8  C1  UNL d   1       0.488   1.794   1.619  0.00  0.00     0.053 C 
ATOM      9  C   UNL d   1       0.321   1.186   0.236  0.00  0.00     0.018 C 
ENDBRANCH   1   8
TORSDOF 1
ENDMDL
