MODEL 1
REMARK minimizedAffinity -3.77504539
REMARK minimizedRMSD -1
REMARK  1 active torsions:
REMARK  status: ('A' for Active; 'I' for Inactive)
REMARK    1  A    between atoms: C1_2  and  C2_3 
ROOT
ATOM      1  C2  UNL d   1       1.500   3.693  -0.546  0.00  0.00    -0.073 A 
ATOM      2  C3  UNL d   1       1.343   3.285  -1.875  0.00  0.00    -0.002 A 
ATOM      3  C4  UNL d   1       1.125   1.940  -2.179  0.00  0.00     0.004 A 
ATOM      4  C5  UNL d   1       1.053   0.993  -1.157  0.00  0.00    -0.004 A 
ATOM      5  C6  UNL d   1       1.196   1.383   0.178  0.00  0.00    -0.075 A 
ATOM      6  C7  UNL d   1       1.124   0.376   1.288  0.00  0.00     0.076 C 
ATOM      7  C8  UNL d   1       1.418   2.735   0.474  0.00  0.00     0.001 A 
ENDROOT
BRANCH   1   8
ATOM      8  C1  UNL d   1       1.730   5.145  -0.213  0.00  0.00     0.053 C 
ATOM      9  C   UNL d   1       1.875   6.000  -1.462  0.00  0.00     0.018 C 
ENDBRANCH   1   8
TORSDOF 1
ENDMDL
