MODEL 1
REMARK minimizedAffinity 1.9400388
REMARK minimizedRMSD -1
REMARK  1 active torsions:
REMARK  status: ('A' for Active; 'I' for Inactive)
REMARK    1  A    between atoms: C1_2  and  C2_3 
ROOT
ATOM      1  C2  UNL d   1      -0.433   1.470  -1.736  0.00  0.00    -0.073 A 
ATOM      2  C3  UNL d   1       0.525   2.452  -2.014  0.00  0.00    -0.002 A 
ATOM      3  C4  UNL d   1       1.866   2.240  -1.692  0.00  0.00     0.004 A 
ATOM      4  C5  UNL d   1       2.264   1.043  -1.096  0.00  0.00    -0.004 A 
ATOM      5  C6  UNL d   1       1.324   0.045  -0.821  0.00  0.00    -0.075 A 
ATOM      6  C7  UNL d   1       1.735  -1.247  -0.179  0.00  0.00     0.076 C 
ATOM      7  C8  UNL d   1      -0.022   0.267  -1.145  0.00  0.00     0.001 A 
ENDROOT
BRANCH   1   8
ATOM      8  C1  UNL d   1      -1.881   1.692  -2.088  0.00  0.00     0.053 C 
ATOM      9  C   UNL d   1      -2.185   3.157  -2.357  0.00  0.00     0.018 C 
ENDBRANCH   1   8
TORSDOF 1
ENDMDL
