MODEL 1
REMARK minimizedAffinity 9.70027924
REMARK minimizedRMSD -1
REMARK  1 active torsions:
REMARK  status: ('A' for Active; 'I' for Inactive)
REMARK    1  A    between atoms: C1_2  and  C2_3 
ROOT
ATOM      1  C2  UNL d   1       1.328   2.311  -1.125  0.00  0.00    -0.073 A 
ATOM      2  C3  UNL d   1       1.197   1.918   0.212  0.00  0.00    -0.002 A 
ATOM      3  C4  UNL d   1       1.398   2.839   1.240  0.00  0.00     0.004 A 
ATOM      4  C5  UNL d   1       1.725   4.162   0.944  0.00  0.00    -0.004 A 
ATOM      5  C6  UNL d   1       1.849   4.577  -0.386  0.00  0.00    -0.075 A 
ATOM      6  C7  UNL d   1       2.202   5.996  -0.722  0.00  0.00     0.076 C 
ATOM      7  C8  UNL d   1       1.648   3.646  -1.413  0.00  0.00     0.001 A 
ENDROOT
BRANCH   1   8
ATOM      8  C1  UNL d   1       1.105   1.321  -2.239  0.00  0.00     0.053 C 
ATOM      9  C   UNL d   1       0.706   2.005  -3.537  0.00  0.00     0.018 C 
ENDBRANCH   1   8
TORSDOF 1
ENDMDL
