MODEL 1
REMARK minimizedAffinity 1.00592983
REMARK minimizedRMSD -1
REMARK  1 active torsions:
REMARK  status: ('A' for Active; 'I' for Inactive)
REMARK    1  A    between atoms: C1_2  and  C2_3 
ROOT
ATOM      1  C2  UNL d   1      -1.206  -1.508   2.419  0.00  0.00    -0.073 A 
ATOM      2  C3  UNL d   1      -0.745  -2.674   1.797  0.00  0.00    -0.002 A 
ATOM      3  C4  UNL d   1      -0.528  -2.699   0.419  0.00  0.00     0.004 A 
ATOM      4  C5  UNL d   1      -0.762  -1.559  -0.349  0.00  0.00    -0.004 A 
ATOM      5  C6  UNL d   1      -1.212  -0.381   0.255  0.00  0.00    -0.075 A 
ATOM      6  C7  UNL d   1      -1.471   0.853  -0.558  0.00  0.00     0.076 C 
ATOM      7  C8  UNL d   1      -1.430  -0.365   1.640  0.00  0.00     0.001 A 
ENDROOT
BRANCH   1   8
ATOM      8  C1  UNL d   1      -1.436  -1.474   3.908  0.00  0.00     0.053 C 
ATOM      9  C   UNL d   1      -1.387  -0.059   4.460  0.00  0.00     0.018 C 
ENDBRANCH   1   8
TORSDOF 1
ENDMDL
