MODEL 1
REMARK minimizedAffinity 4.4188838
REMARK minimizedRMSD -1
REMARK  1 active torsions:
REMARK  status: ('A' for Active; 'I' for Inactive)
REMARK    1  A    between atoms: C1_2  and  C2_3 
ROOT
ATOM      1  C2  UNL d   1      -0.855   2.060  -1.053  0.00  0.00    -0.073 A 
ATOM      2  C3  UNL d   1      -0.070   2.791  -0.155  0.00  0.00    -0.002 A 
ATOM      3  C4  UNL d   1      -0.510   4.027   0.321  0.00  0.00     0.004 A 
ATOM      4  C5  UNL d   1      -1.740   4.541  -0.090  0.00  0.00    -0.004 A 
ATOM      5  C6  UNL d   1      -2.544   3.819  -0.978  0.00  0.00    -0.075 A 
ATOM      6  C7  UNL d   1      -3.868   4.359  -1.432  0.00  0.00     0.076 C 
ATOM      7  C8  UNL d   1      -2.094   2.580  -1.454  0.00  0.00     0.001 A 
ENDROOT
BRANCH   1   8
ATOM      8  C1  UNL d   1      -0.388   0.722  -1.565  0.00  0.00     0.053 C 
ATOM      9  C   UNL d   1       1.104   0.713  -1.857  0.00  0.00     0.018 C 
ENDBRANCH   1   8
TORSDOF 1
ENDMDL
