MODEL 1
REMARK minimizedAffinity -0.242919177
REMARK minimizedRMSD -1
REMARK  1 active torsions:
REMARK  status: ('A' for Active; 'I' for Inactive)
REMARK    1  A    between atoms: C1_2  and  C2_3 
ROOT
ATOM      1  C2  UNL d   1       0.100  -2.770  -0.950  0.00  0.00    -0.073 A 
ATOM      2  C3  UNL d   1       0.358  -3.795  -1.867  0.00  0.00    -0.002 A 
ATOM      3  C4  UNL d   1       0.617  -3.495  -3.205  0.00  0.00     0.004 A 
ATOM      4  C5  UNL d   1       0.627  -2.169  -3.638  0.00  0.00    -0.004 A 
ATOM      5  C6  UNL d   1       0.383  -1.130  -2.734  0.00  0.00    -0.075 A 
ATOM      6  C7  UNL d   1       0.388   0.301  -3.185  0.00  0.00     0.076 C 
ATOM      7  C8  UNL d   1       0.121  -1.439  -1.393  0.00  0.00     0.001 A 
ENDROOT
BRANCH   1   8
ATOM      8  C1  UNL d   1      -0.173  -3.088   0.497  0.00  0.00     0.053 C 
ATOM      9  C   UNL d   1      -1.321  -2.262   1.056  0.00  0.00     0.018 C 
ENDBRANCH   1   8
TORSDOF 1
ENDMDL
