MODEL 1
REMARK minimizedAffinity 0.905603468
REMARK minimizedRMSD -1
REMARK  1 active torsions:
REMARK  status: ('A' for Active; 'I' for Inactive)
REMARK    1  A    between atoms: C1_2  and  C2_3 
ROOT
ATOM      1  C2  UNL d   1      -0.680  -2.418   1.325  0.00  0.00    -0.073 A 
ATOM      2  C3  UNL d   1       0.040  -3.485   1.876  0.00  0.00    -0.002 A 
ATOM      3  C4  UNL d   1       0.755  -4.353   1.050  0.00  0.00     0.004 A 
ATOM      4  C5  UNL d   1       0.764  -4.161  -0.331  0.00  0.00    -0.004 A 
ATOM      5  C6  UNL d   1       0.061  -3.094  -0.899  0.00  0.00    -0.075 A 
ATOM      6  C7  UNL d   1       0.058  -2.874  -2.384  0.00  0.00     0.076 C 
ATOM      7  C8  UNL d   1      -0.657  -2.227  -0.064  0.00  0.00     0.001 A 
ENDROOT
BRANCH   1   8
ATOM      8  C1  UNL d   1      -1.448  -1.474   2.213  0.00  0.00     0.053 C 
ATOM      9  C   UNL d   1      -0.933  -1.490   3.644  0.00  0.00     0.018 C 
ENDBRANCH   1   8
TORSDOF 1
ENDMDL
