MODEL 1
REMARK minimizedAffinity -3.34250665
REMARK minimizedRMSD -1
REMARK  1 active torsions:
REMARK  status: ('A' for Active; 'I' for Inactive)
REMARK    1  A    between atoms: C1_2  and  C2_3 
ROOT
ATOM      1  C2  UNL d   1       0.093  -2.885   0.836  0.00  0.00    -0.073 A 
ATOM      2  C3  UNL d   1       0.219  -4.135   0.219  0.00  0.00    -0.002 A 
ATOM      3  C4  UNL d   1       0.366  -4.226  -1.166  0.00  0.00     0.004 A 
ATOM      4  C5  UNL d   1       0.395  -3.070  -1.946  0.00  0.00    -0.004 A 
ATOM      5  C6  UNL d   1       0.283  -1.811  -1.346  0.00  0.00    -0.075 A 
ATOM      6  C7  UNL d   1       0.310  -0.558  -2.172  0.00  0.00     0.076 C 
ATOM      7  C8  UNL d   1       0.133  -1.728   0.044  0.00  0.00     0.001 A 
ENDROOT
BRANCH   1   8
ATOM      8  C1  UNL d   1      -0.059  -2.782   2.332  0.00  0.00     0.053 C 
ATOM      9  C   UNL d   1      -1.162  -1.812   2.727  0.00  0.00     0.018 C 
ENDBRANCH   1   8
TORSDOF 1
ENDMDL
