MODEL 1
REMARK minimizedAffinity 6.35868073
REMARK minimizedRMSD -1
REMARK  1 active torsions:
REMARK  status: ('A' for Active; 'I' for Inactive)
REMARK    1  A    between atoms: C1_2  and  C2_3 
ROOT
ATOM      1  C2  UNL d   1      -0.846  -0.328  -0.263  0.00  0.00    -0.073 A 
ATOM      2  C3  UNL d   1      -0.984  -1.165   0.850  0.00  0.00    -0.002 A 
ATOM      3  C4  UNL d   1      -0.695  -2.526   0.749  0.00  0.00     0.004 A 
ATOM      4  C5  UNL d   1      -0.260  -3.063  -0.462  0.00  0.00    -0.004 A 
ATOM      5  C6  UNL d   1      -0.105  -2.242  -1.583  0.00  0.00    -0.075 A 
ATOM      6  C7  UNL d   1       0.361  -2.804  -2.894  0.00  0.00     0.076 C 
ATOM      7  C8  UNL d   1      -0.399  -0.876  -1.474  0.00  0.00     0.001 A 
ENDROOT
BRANCH   1   8
ATOM      8  C1  UNL d   1      -1.151   1.144  -0.157  0.00  0.00     0.053 C 
ATOM      9  C   UNL d   1      -2.552   1.472  -0.647  0.00  0.00     0.018 C 
ENDBRANCH   1   8
TORSDOF 1
ENDMDL
