MODEL 1
REMARK minimizedAffinity 7.51832914
REMARK minimizedRMSD -1
REMARK  1 active torsions:
REMARK  status: ('A' for Active; 'I' for Inactive)
REMARK    1  A    between atoms: C1_2  and  C2_3 
ROOT
ATOM      1  C2  UNL d   1       1.090  -0.388  -1.679  0.00  0.00    -0.073 A 
ATOM      2  C3  UNL d   1       1.194  -0.978  -2.943  0.00  0.00    -0.002 A 
ATOM      3  C4  UNL d   1       0.628  -2.231  -3.185  0.00  0.00     0.004 A 
ATOM      4  C5  UNL d   1      -0.052  -2.902  -2.169  0.00  0.00    -0.004 A 
ATOM      5  C6  UNL d   1      -0.177  -2.323  -0.902  0.00  0.00    -0.075 A 
ATOM      6  C7  UNL d   1      -0.903  -3.033   0.203  0.00  0.00     0.076 C 
ATOM      7  C8  UNL d   1       0.396  -1.066  -0.666  0.00  0.00     0.001 A 
ENDROOT
BRANCH   1   8
ATOM      8  C1  UNL d   1       1.693   0.967  -1.415  0.00  0.00     0.053 C 
ATOM      9  C   UNL d   1       2.735   0.922  -0.308  0.00  0.00     0.018 C 
ENDBRANCH   1   8
TORSDOF 1
ENDMDL
