MODEL 1
REMARK minimizedAffinity 8.37204647
REMARK minimizedRMSD -1
REMARK  1 active torsions:
REMARK  status: ('A' for Active; 'I' for Inactive)
REMARK    1  A    between atoms: C1_2  and  C2_3 
ROOT
ATOM      1  C2  UNL d   1      -2.524   2.717  -0.151  0.00  0.00    -0.073 A 
ATOM      2  C3  UNL d   1      -3.320   3.039  -1.256  0.00  0.00    -0.002 A 
ATOM      3  C4  UNL d   1      -3.882   4.311  -1.373  0.00  0.00     0.004 A 
ATOM      4  C5  UNL d   1      -3.649   5.274  -0.392  0.00  0.00    -0.004 A 
ATOM      5  C6  UNL d   1      -2.846   4.975   0.714  0.00  0.00    -0.075 A 
ATOM      6  C7  UNL d   1      -2.587   5.999   1.779  0.00  0.00     0.076 C 
ATOM      7  C8  UNL d   1      -2.288   3.695   0.825  0.00  0.00     0.001 A 
ENDROOT
BRANCH   1   8
ATOM      8  C1  UNL d   1      -1.910   1.347  -0.024  0.00  0.00     0.053 C 
ATOM      9  C   UNL d   1      -2.935   0.297   0.374  0.00  0.00     0.018 C 
ENDBRANCH   1   8
TORSDOF 1
ENDMDL
