MODEL 1
REMARK minimizedAffinity 2.28042769
REMARK minimizedRMSD -1
REMARK  1 active torsions:
REMARK  status: ('A' for Active; 'I' for Inactive)
REMARK    1  A    between atoms: C1_2  and  C2_3 
ROOT
ATOM      1  C2  UNL d   1       0.967  -0.089  -1.294  0.00  0.00    -0.073 A 
ATOM      2  C3  UNL d   1       1.186  -0.177  -2.673  0.00  0.00    -0.002 A 
ATOM      3  C4  UNL d   1       0.924  -1.367  -3.354  0.00  0.00     0.004 A 
ATOM      4  C5  UNL d   1       0.435  -2.477  -2.666  0.00  0.00    -0.004 A 
ATOM      5  C6  UNL d   1       0.199  -2.405  -1.289  0.00  0.00    -0.075 A 
ATOM      6  C7  UNL d   1      -0.325  -3.591  -0.534  0.00  0.00     0.076 C 
ATOM      7  C8  UNL d   1       0.467  -1.208  -0.612  0.00  0.00     0.001 A 
ENDROOT
BRANCH   1   8
ATOM      8  C1  UNL d   1       1.241   1.195  -0.555  0.00  0.00     0.053 C 
ATOM      9  C   UNL d   1       2.588   1.170   0.151  0.00  0.00     0.018 C 
ENDBRANCH   1   8
TORSDOF 1
ENDMDL
