MODEL 1
REMARK minimizedAffinity 6.81148958
REMARK minimizedRMSD -1
REMARK  1 active torsions:
REMARK  status: ('A' for Active; 'I' for Inactive)
REMARK    1  A    between atoms: C1_2  and  C2_3 
ROOT
ATOM      1  C2  UNL d   1       1.379  -0.430  -1.895  0.00  0.00    -0.073 A 
ATOM      2  C3  UNL d   1       1.394  -0.958  -3.191  0.00  0.00    -0.002 A 
ATOM      3  C4  UNL d   1       0.619  -2.075  -3.507  0.00  0.00     0.004 A 
ATOM      4  C5  UNL d   1      -0.183  -2.670  -2.533  0.00  0.00    -0.004 A 
ATOM      5  C6  UNL d   1      -0.221  -2.150  -1.235  0.00  0.00    -0.075 A 
ATOM      6  C7  UNL d   1      -1.076  -2.781  -0.176  0.00  0.00     0.076 C 
ATOM      7  C8  UNL d   1       0.563  -1.030  -0.926  0.00  0.00     0.001 A 
ENDROOT
BRANCH   1   8
ATOM      8  C1  UNL d   1       2.209   0.779  -1.552  0.00  0.00     0.053 C 
ATOM      9  C   UNL d   1       3.321   0.447  -0.569  0.00  0.00     0.018 C 
ENDBRANCH   1   8
TORSDOF 1
ENDMDL
