MODEL 1
REMARK minimizedAffinity 7.97436047
REMARK minimizedRMSD -1
REMARK  1 active torsions:
REMARK  status: ('A' for Active; 'I' for Inactive)
REMARK    1  A    between atoms: C1_2  and  C2_3 
ROOT
ATOM      1  C2  UNL d   1       1.087  -0.492  -2.085  0.00  0.00    -0.073 A 
ATOM      2  C3  UNL d   1       1.070  -0.982  -3.396  0.00  0.00    -0.002 A 
ATOM      3  C4  UNL d   1       0.353  -2.138  -3.707  0.00  0.00     0.004 A 
ATOM      4  C5  UNL d   1      -0.359  -2.810  -2.714  0.00  0.00    -0.004 A 
ATOM      5  C6  UNL d   1      -0.364  -2.330  -1.401  0.00  0.00    -0.075 A 
ATOM      6  C7  UNL d   1      -1.123  -3.043  -0.321  0.00  0.00     0.076 C 
ATOM      7  C8  UNL d   1       0.361  -1.170  -1.096  0.00  0.00     0.001 A 
ENDROOT
BRANCH   1   8
ATOM      8  C1  UNL d   1       1.855   0.760  -1.746  0.00  0.00     0.053 C 
ATOM      9  C   UNL d   1       2.860   0.527  -0.629  0.00  0.00     0.018 C 
ENDBRANCH   1   8
TORSDOF 1
ENDMDL
