MODEL 1
REMARK minimizedAffinity 1.26365364
REMARK minimizedRMSD -1
REMARK  1 active torsions:
REMARK  status: ('A' for Active; 'I' for Inactive)
REMARK    1  A    between atoms: C1_2  and  C2_3 
ROOT
ATOM      1  C2  UNL d   1      -1.966  -3.293  -0.444  0.00  0.00    -0.073 A 
ATOM      2  C3  UNL d   1      -1.262  -3.858   0.626  0.00  0.00    -0.002 A 
ATOM      3  C4  UNL d   1      -0.705  -3.042   1.612  0.00  0.00     0.004 A 
ATOM      4  C5  UNL d   1      -0.851  -1.657   1.542  0.00  0.00    -0.004 A 
ATOM      5  C6  UNL d   1      -1.562  -1.075   0.487  0.00  0.00    -0.075 A 
ATOM      6  C7  UNL d   1      -1.726   0.414   0.396  0.00  0.00     0.076 C 
ATOM      7  C8  UNL d   1      -2.116  -1.900  -0.500  0.00  0.00     0.001 A 
ENDROOT
BRANCH   1   8
ATOM      8  C1  UNL d   1      -2.575  -4.171  -1.507  0.00  0.00     0.053 C 
ATOM      9  C   UNL d   1      -1.751  -4.173  -2.785  0.00  0.00     0.018 C 
ENDBRANCH   1   8
TORSDOF 1
ENDMDL
