MODEL 1
REMARK minimizedAffinity 3.75311804
REMARK minimizedRMSD -1
REMARK  1 active torsions:
REMARK  status: ('A' for Active; 'I' for Inactive)
REMARK    1  A    between atoms: C1_2  and  C2_3 
ROOT
ATOM      1  C2  UNL d   1      -1.503  -2.130   0.309  0.00  0.00    -0.073 A 
ATOM      2  C3  UNL d   1      -1.712  -0.792   0.661  0.00  0.00    -0.002 A 
ATOM      3  C4  UNL d   1      -1.123   0.233  -0.080  0.00  0.00     0.004 A 
ATOM      4  C5  UNL d   1      -0.325  -0.069  -1.184  0.00  0.00    -0.004 A 
ATOM      5  C6  UNL d   1      -0.113  -1.400  -1.559  0.00  0.00    -0.075 A 
ATOM      6  C7  UNL d   1       0.744  -1.741  -2.742  0.00  0.00     0.076 C 
ATOM      7  C8  UNL d   1      -0.706  -2.423  -0.807  0.00  0.00     0.001 A 
ENDROOT
BRANCH   1   8
ATOM      8  C1  UNL d   1      -2.142  -3.240   1.103  0.00  0.00     0.053 C 
ATOM      9  C   UNL d   1      -3.625  -3.379   0.796  0.00  0.00     0.018 C 
ENDBRANCH   1   8
TORSDOF 1
ENDMDL
