MODEL 1
REMARK minimizedAffinity 4.51941729
REMARK minimizedRMSD -1
REMARK  1 active torsions:
REMARK  status: ('A' for Active; 'I' for Inactive)
REMARK    1  A    between atoms: C1_2  and  C2_3 
ROOT
ATOM      1  C2  UNL d   1       0.954  -1.316  -2.137  0.00  0.00    -0.073 A 
ATOM      2  C3  UNL d   1       0.577  -0.030  -2.541  0.00  0.00    -0.002 A 
ATOM      3  C4  UNL d   1       1.277   1.087  -2.083  0.00  0.00     0.004 A 
ATOM      4  C5  UNL d   1       2.363   0.930  -1.222  0.00  0.00    -0.004 A 
ATOM      5  C6  UNL d   1       2.763  -0.347  -0.816  0.00  0.00    -0.075 A 
ATOM      6  C7  UNL d   1       3.928  -0.533   0.111  0.00  0.00     0.076 C 
ATOM      7  C8  UNL d   1       2.053  -1.464  -1.279  0.00  0.00     0.001 A 
ENDROOT
BRANCH   1   8
ATOM      8  C1  UNL d   1       0.205  -2.525  -2.634  0.00  0.00     0.053 C 
ATOM      9  C   UNL d   1      -0.351  -3.361  -1.492  0.00  0.00     0.018 C 
ENDBRANCH   1   8
TORSDOF 1
ENDMDL
