MODEL 1
REMARK minimizedAffinity -0.364088774
REMARK minimizedRMSD -1
REMARK  0 active torsions:
REMARK  status: ('A' for Active; 'I' for Inactive)
ROOT
ATOM      1  C   UNL d   1      -1.333   5.774  -2.504  0.00  0.00     0.172 C 
ATOM      2  N   UNL d   1      -0.445   5.335  -1.453  0.00  0.00    -0.070 N 
ATOM      3  C1  UNL d   1       0.881   5.658  -1.341  0.00  0.00    -0.004 A 
ATOM      4  C2  UNL d   1       1.371   5.045  -0.208  0.00  0.00    -0.047 A 
ATOM      5  C3  UNL d   1       0.302   4.328   0.381  0.00  0.00    -0.047 A 
ATOM      6  C4  UNL d   1      -0.810   4.525  -0.410  0.00  0.00    -0.004 A 
ENDROOT
TORSDOF 0
ENDMDL
