MODEL 1
REMARK minimizedAffinity 2.48915768
REMARK minimizedRMSD -1
REMARK  0 active torsions:
REMARK  status: ('A' for Active; 'I' for Inactive)
ROOT
ATOM      1  C   UNL d   1      -0.188   3.241   2.142  0.00  0.00     0.172 C 
ATOM      2  N   UNL d   1       0.015   4.039   0.956  0.00  0.00    -0.070 N 
ATOM      3  C1  UNL d   1       0.402   3.565  -0.269  0.00  0.00    -0.004 A 
ATOM      4  C2  UNL d   1       0.481   4.637  -1.131  0.00  0.00    -0.047 A 
ATOM      5  C3  UNL d   1       0.130   5.796  -0.399  0.00  0.00    -0.047 A 
ATOM      6  C4  UNL d   1      -0.154   5.397   0.890  0.00  0.00    -0.004 A 
ENDROOT
TORSDOF 0
ENDMDL
