MODEL 1
REMARK minimizedAffinity 6.3311367
REMARK minimizedRMSD -1
REMARK  0 active torsions:
REMARK  status: ('A' for Active; 'I' for Inactive)
ROOT
ATOM      1  C   UNL d   1       5.620  -3.325  -3.915  0.00  0.00     0.172 C 
ATOM      2  N   UNL d   1       5.506  -3.021  -2.507  0.00  0.00    -0.070 N 
ATOM      3  C1  UNL d   1       5.999  -1.902  -1.890  0.00  0.00    -0.004 A 
ATOM      4  C2  UNL d   1       5.685  -1.986  -0.551  0.00  0.00    -0.047 A 
ATOM      5  C3  UNL d   1       4.980  -3.197  -0.356  0.00  0.00    -0.047 A 
ATOM      6  C4  UNL d   1       4.883  -3.818  -1.584  0.00  0.00    -0.004 A 
ENDROOT
TORSDOF 0
ENDMDL
