MODEL 1
REMARK minimizedAffinity 1.32503796
REMARK minimizedRMSD -1
REMARK  0 active torsions:
REMARK  status: ('A' for Active; 'I' for Inactive)
ROOT
ATOM      1  C   UNL d   1       5.982  -5.022  -0.665  0.00  0.00     0.172 C 
ATOM      2  N   UNL d   1       5.259  -3.777  -0.552  0.00  0.00    -0.070 N 
ATOM      3  C1  UNL d   1       5.565  -2.614  -1.208  0.00  0.00    -0.004 A 
ATOM      4  C2  UNL d   1       4.640  -1.663  -0.834  0.00  0.00    -0.047 A 
ATOM      5  C3  UNL d   1       3.749  -2.275   0.079  0.00  0.00    -0.047 A 
ATOM      6  C4  UNL d   1       4.155  -3.583   0.235  0.00  0.00    -0.004 A 
ENDROOT
TORSDOF 0
ENDMDL
