MODEL 1
REMARK minimizedAffinity 7.635952
REMARK minimizedRMSD -1
REMARK  0 active torsions:
REMARK  status: ('A' for Active; 'I' for Inactive)
ROOT
ATOM      1  O1  BZF d   1      -0.050   1.449   2.478  0.00  0.00    -0.204 OA
ATOM      2  C2  BZF d   1       0.624   1.368   1.274  0.00  0.00     0.174 A 
ATOM      3  C3  BZF d   1       0.441   0.159   0.704  0.00  0.00    -0.012 A 
ATOM      4  C3A BZF d   1      -0.475  -0.527   1.563  0.00  0.00    -0.107 A 
ATOM      5  C4  BZF d   1      -1.054  -1.763   1.521  0.00  0.00     0.055 A 
ATOM      6  C5  BZF d   1      -1.846  -2.157   2.553  0.00  0.00    -0.016 A 
ATOM      7  C6  BZF d   1      -2.076  -1.343   3.643  0.00  0.00     0.022 A 
ATOM      8  C7  BZF d   1      -1.528  -0.106   3.727  0.00  0.00     0.029 A 
ATOM      9  C7A BZF d   1      -0.754   0.307   2.670  0.00  0.00     0.058 A 
ENDROOT
TORSDOF 0
ENDMDL
