MODEL 1
REMARK minimizedAffinity 16.1005001
REMARK minimizedRMSD -1
REMARK  0 active torsions:
REMARK  status: ('A' for Active; 'I' for Inactive)
ROOT
ATOM      1  O1  BZF d   1       0.068  -3.374  -4.354  0.00  0.00    -0.204 OA
ATOM      2  C2  BZF d   1      -1.085  -4.104  -4.137  0.00  0.00     0.174 A 
ATOM      3  C3  BZF d   1      -1.627  -3.798  -2.941  0.00  0.00    -0.012 A 
ATOM      4  C3A BZF d   1      -0.810  -2.748  -2.415  0.00  0.00    -0.107 A 
ATOM      5  C4  BZF d   1      -0.851  -2.014  -1.264  0.00  0.00     0.055 A 
ATOM      6  C5  BZF d   1       0.138  -1.114  -1.019  0.00  0.00    -0.016 A 
ATOM      7  C6  BZF d   1       1.184  -0.928  -1.899  0.00  0.00     0.022 A 
ATOM      8  C7  BZF d   1       1.264  -1.629  -3.056  0.00  0.00     0.029 A 
ATOM      9  C7A BZF d   1       0.249  -2.515  -3.322  0.00  0.00     0.058 A 
ENDROOT
TORSDOF 0
ENDMDL
