MODEL 1
REMARK minimizedAffinity -0.0438738316
REMARK minimizedRMSD -1
REMARK  0 active torsions:
REMARK  status: ('A' for Active; 'I' for Inactive)
ROOT
ATOM      1  O1  BZF d   1      -3.626  -5.973   3.712  0.00  0.00    -0.204 OA
ATOM      2  C2  BZF d   1      -4.591  -5.961   2.724  0.00  0.00     0.174 A 
ATOM      3  C3  BZF d   1      -4.023  -5.899   1.502  0.00  0.00    -0.012 A 
ATOM      4  C3A BZF d   1      -2.613  -5.964   1.738  0.00  0.00    -0.107 A 
ATOM      5  C4  BZF d   1      -1.523  -5.962   0.916  0.00  0.00     0.055 A 
ATOM      6  C5  BZF d   1      -0.281  -5.962   1.468  0.00  0.00    -0.016 A 
ATOM      7  C6  BZF d   1      -0.093  -5.959   2.834  0.00  0.00     0.022 A 
ATOM      8  C7  BZF d   1      -1.144  -5.966   3.690  0.00  0.00     0.029 A 
ATOM      9  C7A BZF d   1      -2.400  -5.999   3.136  0.00  0.00     0.058 A 
ENDROOT
TORSDOF 0
ENDMDL
