MODEL 1
REMARK minimizedAffinity 3.18299842
REMARK minimizedRMSD -1
REMARK  0 active torsions:
REMARK  status: ('A' for Active; 'I' for Inactive)
ROOT
ATOM      1  O1  BZF d   1       0.592  -5.976   1.566  0.00  0.00    -0.204 OA
ATOM      2  C2  BZF d   1       0.994  -5.997   2.888  0.00  0.00     0.174 A 
ATOM      3  C3  BZF d   1      -0.072  -5.955   3.713  0.00  0.00    -0.012 A 
ATOM      4  C3A BZF d   1      -1.215  -5.997   2.854  0.00  0.00    -0.107 A 
ATOM      5  C4  BZF d   1      -2.562  -6.000   3.082  0.00  0.00     0.055 A 
ATOM      6  C5  BZF d   1      -3.411  -5.973   2.022  0.00  0.00    -0.016 A 
ATOM      7  C6  BZF d   1      -2.950  -5.938   0.722  0.00  0.00     0.022 A 
ATOM      8  C7  BZF d   1      -1.623  -5.940   0.446  0.00  0.00     0.029 A 
ATOM      9  C7A BZF d   1      -0.762  -6.000   1.514  0.00  0.00     0.058 A 
ENDROOT
TORSDOF 0
ENDMDL
