MODEL 1
REMARK minimizedAffinity 4.89823008
REMARK minimizedRMSD -1
REMARK  0 active torsions:
REMARK  status: ('A' for Active; 'I' for Inactive)
ROOT
ATOM      1  O1  BZF d   1       4.616  -0.271  -3.101  0.00  0.00    -0.204 OA
ATOM      2  C2  BZF d   1       3.429  -0.866  -3.482  0.00  0.00     0.174 A 
ATOM      3  C3  BZF d   1       2.915  -0.256  -4.569  0.00  0.00    -0.012 A 
ATOM      4  C3A BZF d   1       3.885   0.726  -4.944  0.00  0.00    -0.107 A 
ATOM      5  C4  BZF d   1       3.954   1.640  -5.956  0.00  0.00     0.055 A 
ATOM      6  C5  BZF d   1       5.003   2.502  -5.998  0.00  0.00    -0.016 A 
ATOM      7  C6  BZF d   1       5.998   2.482  -5.042  0.00  0.00     0.022 A 
ATOM      8  C7  BZF d   1       5.976   1.590  -4.021  0.00  0.00     0.029 A 
ATOM      9  C7A BZF d   1       4.934   0.696  -3.995  0.00  0.00     0.058 A 
ENDROOT
TORSDOF 0
ENDMDL
