MODEL 1
REMARK minimizedAffinity 12.8632431
REMARK minimizedRMSD -1
REMARK  0 active torsions:
REMARK  status: ('A' for Active; 'I' for Inactive)
ROOT
ATOM      1  O1  BZF d   1      -5.898  -0.913   3.798  0.00  0.00    -0.204 OA
ATOM      2  C2  BZF d   1      -5.782  -1.471   5.057  0.00  0.00     0.174 A 
ATOM      3  C3  BZF d   1      -5.671  -0.511   5.997  0.00  0.00    -0.012 A 
ATOM      4  C3A BZF d   1      -5.812   0.726   5.291  0.00  0.00    -0.107 A 
ATOM      5  C4  BZF d   1      -5.808   2.035   5.680  0.00  0.00     0.055 A 
ATOM      6  C5  BZF d   1      -5.897   3.006   4.734  0.00  0.00    -0.016 A 
ATOM      7  C6  BZF d   1      -5.986   2.704   3.390  0.00  0.00     0.022 A 
ATOM      8  C7  BZF d   1      -5.999   1.420   2.957  0.00  0.00     0.029 A 
ATOM      9  C7A BZF d   1      -5.943   0.436   3.913  0.00  0.00     0.058 A 
ENDROOT
TORSDOF 0
ENDMDL
