MODEL 1
REMARK minimizedAffinity 6.04712296
REMARK minimizedRMSD -1
REMARK  0 active torsions:
REMARK  status: ('A' for Active; 'I' for Inactive)
ROOT
ATOM      1  O1  BZF d   1       1.009  -1.025  -3.827  0.00  0.00    -0.204 OA
ATOM      2  C2  BZF d   1       1.813  -1.875  -4.562  0.00  0.00     0.174 A 
ATOM      3  C3  BZF d   1       1.131  -2.979  -4.930  0.00  0.00    -0.012 A 
ATOM      4  C3A BZF d   1      -0.207  -2.766  -4.469  0.00  0.00    -0.107 A 
ATOM      5  C4  BZF d   1      -1.354  -3.501  -4.547  0.00  0.00     0.055 A 
ATOM      6  C5  BZF d   1      -2.476  -3.043  -3.931  0.00  0.00    -0.016 A 
ATOM      7  C6  BZF d   1      -2.483  -1.858  -3.225  0.00  0.00     0.022 A 
ATOM      8  C7  BZF d   1      -1.370  -1.091  -3.124  0.00  0.00     0.029 A 
ATOM      9  C7A BZF d   1      -0.244  -1.535  -3.774  0.00  0.00     0.058 A 
ENDROOT
TORSDOF 0
ENDMDL
