MODEL 1
REMARK minimizedAffinity 8.86686039
REMARK minimizedRMSD -1
REMARK  0 active torsions:
REMARK  status: ('A' for Active; 'I' for Inactive)
ROOT
ATOM      1  O1  BZF d   1       1.951  -5.958   4.758  0.00  0.00    -0.204 OA
ATOM      2  C2  BZF d   1       1.075  -5.954   5.826  0.00  0.00     0.174 A 
ATOM      3  C3  BZF d   1      -0.203  -5.913   5.397  0.00  0.00    -0.012 A 
ATOM      4  C3A BZF d   1      -0.123  -5.982   3.970  0.00  0.00    -0.107 A 
ATOM      5  C4  BZF d   1      -1.060  -5.998   2.977  0.00  0.00     0.055 A 
ATOM      6  C5  BZF d   1      -0.649  -5.997   1.681  0.00  0.00    -0.016 A 
ATOM      7  C6  BZF d   1       0.688  -5.976   1.344  0.00  0.00     0.022 A 
ATOM      8  C7  BZF d   1       1.655  -5.965   2.294  0.00  0.00     0.029 A 
ATOM      9  C7A BZF d   1       1.243  -5.999   3.604  0.00  0.00     0.058 A 
ENDROOT
TORSDOF 0
ENDMDL
