MODEL 1
REMARK minimizedAffinity 14.0708637
REMARK minimizedRMSD -1
REMARK  0 active torsions:
REMARK  status: ('A' for Active; 'I' for Inactive)
ROOT
ATOM      1  O1  BZF d   1       2.411  -5.978   3.898  0.00  0.00    -0.204 OA
ATOM      2  C2  BZF d   1       1.617  -5.991   5.029  0.00  0.00     0.174 A 
ATOM      3  C3  BZF d   1       0.311  -5.941   4.698  0.00  0.00    -0.012 A 
ATOM      4  C3A BZF d   1       0.283  -5.987   3.268  0.00  0.00    -0.107 A 
ATOM      5  C4  BZF d   1      -0.726  -5.986   2.348  0.00  0.00     0.055 A 
ATOM      6  C5  BZF d   1      -0.414  -5.964   1.026  0.00  0.00    -0.016 A 
ATOM      7  C6  BZF d   1       0.895  -5.939   0.589  0.00  0.00     0.022 A 
ATOM      8  C7  BZF d   1       1.930  -5.945   1.464  0.00  0.00     0.029 A 
ATOM      9  C7A BZF d   1       1.618  -6.000   2.800  0.00  0.00     0.058 A 
ENDROOT
TORSDOF 0
ENDMDL
