MODEL 1
REMARK minimizedAffinity 3.67814875
REMARK minimizedRMSD -1
REMARK  0 active torsions:
REMARK  status: ('A' for Active; 'I' for Inactive)
ROOT
ATOM      1  O1  BZF d   1      -1.841  -5.976   1.694  0.00  0.00    -0.204 OA
ATOM      2  C2  BZF d   1      -1.649  -6.000   0.326  0.00  0.00     0.174 A 
ATOM      3  C3  BZF d   1      -0.335  -5.958   0.026  0.00  0.00    -0.012 A 
ATOM      4  C3A BZF d   1       0.340  -5.998   1.287  0.00  0.00    -0.107 A 
ATOM      5  C4  BZF d   1       1.657  -5.999   1.647  0.00  0.00     0.055 A 
ATOM      6  C5  BZF d   1       1.981  -5.969   2.967  0.00  0.00    -0.016 A 
ATOM      7  C6  BZF d   1       1.015  -5.933   3.951  0.00  0.00     0.022 A 
ATOM      8  C7  BZF d   1      -0.304  -5.935   3.643  0.00  0.00     0.029 A 
ATOM      9  C7A BZF d   1      -0.635  -5.998   2.311  0.00  0.00     0.058 A 
ENDROOT
TORSDOF 0
ENDMDL
