MODEL 1
REMARK minimizedAffinity 12.9501505
REMARK minimizedRMSD -1
REMARK  0 active torsions:
REMARK  status: ('A' for Active; 'I' for Inactive)
ROOT
ATOM      1  O1  BZF d   1       0.062  -3.029  -5.010  0.00  0.00    -0.204 OA
ATOM      2  C2  BZF d   1      -1.231  -3.516  -4.998  0.00  0.00     0.174 A 
ATOM      3  C3  BZF d   1      -1.832  -3.246  -3.821  0.00  0.00    -0.012 A 
ATOM      4  C3A BZF d   1      -0.885  -2.466  -3.085  0.00  0.00    -0.107 A 
ATOM      5  C4  BZF d   1      -0.906  -1.883  -1.850  0.00  0.00     0.055 A 
ATOM      6  C5  BZF d   1       0.209  -1.253  -1.397  0.00  0.00    -0.016 A 
ATOM      7  C6  BZF d   1       1.364  -1.191  -2.150  0.00  0.00     0.022 A 
ATOM      8  C7  BZF d   1       1.432  -1.749  -3.383  0.00  0.00     0.029 A 
ATOM      9  C7A BZF d   1       0.295  -2.358  -3.857  0.00  0.00     0.058 A 
ENDROOT
TORSDOF 0
ENDMDL
