MODEL 1
REMARK minimizedAffinity 7.43403578
REMARK minimizedRMSD -1
REMARK  0 active torsions:
REMARK  status: ('A' for Active; 'I' for Inactive)
ROOT
ATOM      1  O1  BZF d   1       0.237   1.173   2.289  0.00  0.00    -0.204 OA
ATOM      2  C2  BZF d   1       0.932   1.244   1.097  0.00  0.00     0.174 A 
ATOM      3  C3  BZF d   1       0.910   0.057   0.458  0.00  0.00    -0.012 A 
ATOM      4  C3A BZF d   1       0.076  -0.786   1.259  0.00  0.00    -0.107 A 
ATOM      5  C4  BZF d   1      -0.343  -2.080   1.139  0.00  0.00     0.055 A 
ATOM      6  C5  BZF d   1      -1.093  -2.627   2.131  0.00  0.00    -0.016 A 
ATOM      7  C6  BZF d   1      -1.438  -1.911   3.259  0.00  0.00     0.022 A 
ATOM      8  C7  BZF d   1      -1.051  -0.622   3.421  0.00  0.00     0.029 A 
ATOM      9  C7A BZF d   1      -0.320  -0.057   2.404  0.00  0.00     0.058 A 
ENDROOT
TORSDOF 0
ENDMDL
