MODEL 1
REMARK minimizedAffinity 10.7247381
REMARK minimizedRMSD -1
REMARK  0 active torsions:
REMARK  status: ('A' for Active; 'I' for Inactive)
ROOT
ATOM      1  O1  BZF d   1       1.733   2.366  -0.165  0.00  0.00    -0.204 OA
ATOM      2  C2  BZF d   1       1.082   1.271   0.369  0.00  0.00     0.174 A 
ATOM      3  C3  BZF d   1       1.858   0.650   1.280  0.00  0.00    -0.012 A 
ATOM      4  C3A BZF d   1       3.035   1.457   1.384  0.00  0.00    -0.107 A 
ATOM      5  C4  BZF d   1       4.170   1.369   2.138  0.00  0.00     0.055 A 
ATOM      6  C5  BZF d   1       5.161   2.280   1.949  0.00  0.00    -0.016 A 
ATOM      7  C6  BZF d   1       5.052   3.287   1.012  0.00  0.00     0.022 A 
ATOM      8  C7  BZF d   1       3.943   3.418   0.244  0.00  0.00     0.029 A 
ATOM      9  C7A BZF d   1       2.926   2.519   0.457  0.00  0.00     0.058 A 
ENDROOT
TORSDOF 0
ENDMDL
