MODEL 1
REMARK minimizedAffinity 6.98801804
REMARK minimizedRMSD -1
REMARK  0 active torsions:
REMARK  status: ('A' for Active; 'I' for Inactive)
ROOT
ATOM      1  O1  BZF d   1      -6.000   3.676   3.770  0.00  0.00    -0.204 OA
ATOM      2  C2  BZF d   1      -5.866   4.398   4.941  0.00  0.00     0.174 A 
ATOM      3  C3  BZF d   1      -5.732   3.572   5.999  0.00  0.00    -0.012 A 
ATOM      4  C3A BZF d   1      -5.693   2.254   5.445  0.00  0.00    -0.107 A 
ATOM      5  C4  BZF d   1      -5.558   1.009   5.991  0.00  0.00     0.055 A 
ATOM      6  C5  BZF d   1      -5.633  -0.079   5.181  0.00  0.00    -0.016 A 
ATOM      7  C6  BZF d   1      -5.848   0.039   3.824  0.00  0.00     0.022 A 
ATOM      8  C7  BZF d   1      -5.982   1.252   3.235  0.00  0.00     0.029 A 
ATOM      9  C7A BZF d   1      -5.874   2.356   4.046  0.00  0.00     0.058 A 
ENDROOT
TORSDOF 0
ENDMDL
