MODEL 1
REMARK minimizedAffinity 4.70864105
REMARK minimizedRMSD -1
REMARK  0 active torsions:
REMARK  status: ('A' for Active; 'I' for Inactive)
ROOT
ATOM      1  O1  BZF d   1      -0.854  -5.920   0.993  0.00  0.00    -0.204 OA
ATOM      2  C2  BZF d   1      -2.114  -5.922   1.560  0.00  0.00     0.174 A 
ATOM      3  C3  BZF d   1      -2.034  -6.000   2.904  0.00  0.00    -0.012 A 
ATOM      4  C3A BZF d   1      -0.634  -5.957   3.200  0.00  0.00    -0.107 A 
ATOM      5  C4  BZF d   1       0.080  -5.982   4.364  0.00  0.00     0.055 A 
ATOM      6  C5  BZF d   1       1.438  -6.000   4.305  0.00  0.00    -0.016 A 
ATOM      7  C6  BZF d   1       2.112  -5.999   3.102  0.00  0.00     0.022 A 
ATOM      8  C7  BZF d   1       1.447  -5.969   1.922  0.00  0.00     0.029 A 
ATOM      9  C7A BZF d   1       0.075  -5.918   1.978  0.00  0.00     0.058 A 
ENDROOT
TORSDOF 0
ENDMDL
