MODEL 1
REMARK minimizedAffinity 5.97670889
REMARK minimizedRMSD -1
REMARK  0 active torsions:
REMARK  status: ('A' for Active; 'I' for Inactive)
ROOT
ATOM      1  O1  BZF d   1       1.696  -5.998   1.799  0.00  0.00    -0.204 OA
ATOM      2  C2  BZF d   1       0.499  -5.979   1.110  0.00  0.00     0.174 A 
ATOM      3  C3  BZF d   1      -0.545  -6.000   1.964  0.00  0.00    -0.012 A 
ATOM      4  C3A BZF d   1       0.037  -5.940   3.270  0.00  0.00    -0.107 A 
ATOM      5  C4  BZF d   1      -0.487  -5.913   4.531  0.00  0.00     0.055 A 
ATOM      6  C5  BZF d   1       0.355  -5.929   5.597  0.00  0.00    -0.016 A 
ATOM      7  C6  BZF d   1       1.725  -5.977   5.439  0.00  0.00     0.022 A 
ATOM      8  C7  BZF d   1       2.292  -6.000   4.208  0.00  0.00     0.029 A 
ATOM      9  C7A BZF d   1       1.444  -5.951   3.129  0.00  0.00     0.058 A 
ENDROOT
TORSDOF 0
ENDMDL
