MODEL 1
REMARK minimizedAffinity 11.4964561
REMARK minimizedRMSD -1
REMARK  0 active torsions:
REMARK  status: ('A' for Active; 'I' for Inactive)
ROOT
ATOM      1  O1  BZF d   1       2.735  -2.339  -3.449  0.00  0.00    -0.204 OA
ATOM      2  C2  BZF d   1       2.901  -1.103  -2.856  0.00  0.00     0.174 A 
ATOM      3  C3  BZF d   1       1.737  -0.421  -2.837  0.00  0.00    -0.012 A 
ATOM      4  C3A BZF d   1       0.765  -1.323  -3.373  0.00  0.00    -0.107 A 
ATOM      5  C4  BZF d   1      -0.579  -1.230  -3.596  0.00  0.00     0.055 A 
ATOM      6  C5  BZF d   1      -1.222  -2.263  -4.202  0.00  0.00    -0.016 A 
ATOM      7  C6  BZF d   1      -0.551  -3.400  -4.602  0.00  0.00     0.022 A 
ATOM      8  C7  BZF d   1       0.782  -3.541  -4.398  0.00  0.00     0.029 A 
ATOM      9  C7A BZF d   1       1.427  -2.512  -3.756  0.00  0.00     0.058 A 
ENDROOT
TORSDOF 0
ENDMDL
