MODEL 1
REMARK minimizedAffinity 5.812644
REMARK minimizedRMSD -1
REMARK  0 active torsions:
REMARK  status: ('A' for Active; 'I' for Inactive)
ROOT
ATOM      1  C   UNL d   1      -3.005   4.031  -5.992  0.00  0.00     0.124 A 
ATOM      2  C1  UNL d   1      -4.339   3.647  -5.993  0.00  0.00     0.062 A 
ATOM      3  C2  UNL d   1      -4.679   2.297  -5.995  0.00  0.00     0.162 A 
ATOM      4  C3  UNL d   1      -3.683   1.321  -5.996  0.00  0.00    -0.034 A 
ATOM      5  C4  UNL d   1      -2.343   1.715  -5.996  0.00  0.00     0.162 A 
ATOM      6  C5  UNL d   1      -2.009   3.065  -5.993  0.00  0.00     0.062 A 
ATOM      7  F   UNL d   1      -0.720   3.434  -5.992  0.00  0.00    -0.097 F 
ATOM      8  F1  UNL d   1      -1.360   0.802  -5.996  0.00  0.00    -0.096 F 
ATOM      9  I   UNL d   1      -4.186  -0.699  -6.000  0.00  0.00    -0.060 I 
ATOM     10  F2  UNL d   1      -5.976   1.955  -5.996  0.00  0.00    -0.096 F 
ATOM     11  F3  UNL d   1      -5.303   4.578  -5.992  0.00  0.00    -0.097 F 
ATOM     12  F4  UNL d   1      -2.681   5.330  -5.990  0.00  0.00    -0.092 F 
ENDROOT
TORSDOF 0
ENDMDL
