MODEL 1
REMARK minimizedAffinity 9.99459553
REMARK minimizedRMSD -1
REMARK  0 active torsions:
REMARK  status: ('A' for Active; 'I' for Inactive)
ROOT
ATOM      1  C   UNL d   1      -2.858   3.610  -5.998  0.00  0.00     0.124 A 
ATOM      2  C1  UNL d   1      -4.193   3.229  -5.997  0.00  0.00     0.062 A 
ATOM      3  C2  UNL d   1      -4.535   1.880  -5.998  0.00  0.00     0.162 A 
ATOM      4  C3  UNL d   1      -3.541   0.901  -5.998  0.00  0.00    -0.034 A 
ATOM      5  C4  UNL d   1      -2.201   1.293  -6.000  0.00  0.00     0.162 A 
ATOM      6  C5  UNL d   1      -1.864   2.643  -5.999  0.00  0.00     0.062 A 
ATOM      7  F   UNL d   1      -0.574   3.009  -6.000  0.00  0.00    -0.097 F 
ATOM      8  F1  UNL d   1      -1.220   0.378  -6.000  0.00  0.00    -0.096 F 
ATOM      9  I   UNL d   1      -4.049  -1.117  -5.999  0.00  0.00    -0.060 I 
ATOM     10  F2  UNL d   1      -5.833   1.540  -5.997  0.00  0.00    -0.096 F 
ATOM     11  F3  UNL d   1      -5.155   4.162  -5.997  0.00  0.00    -0.097 F 
ATOM     12  F4  UNL d   1      -2.532   4.909  -5.998  0.00  0.00    -0.092 F 
ENDROOT
TORSDOF 0
ENDMDL
