MODEL 1
REMARK minimizedAffinity 7.23954678
REMARK minimizedRMSD -1
REMARK  0 active torsions:
REMARK  status: ('A' for Active; 'I' for Inactive)
ROOT
ATOM      1  C   UNL d   1      -0.289  -1.785  -4.200  0.00  0.00     0.124 A 
ATOM      2  C1  UNL d   1      -1.574  -2.265  -4.415  0.00  0.00     0.062 A 
ATOM      3  C2  UNL d   1      -2.558  -1.426  -4.929  0.00  0.00     0.162 A 
ATOM      4  C3  UNL d   1      -2.262  -0.097  -5.231  0.00  0.00    -0.034 A 
ATOM      5  C4  UNL d   1      -0.968   0.379  -5.011  0.00  0.00     0.162 A 
ATOM      6  C5  UNL d   1       0.012  -0.464  -4.497  0.00  0.00     0.062 A 
ATOM      7  F   UNL d   1       1.252   0.002  -4.290  0.00  0.00    -0.097 F 
ATOM      8  F1  UNL d   1      -0.649   1.652  -5.291  0.00  0.00    -0.096 F 
ATOM      9  I   UNL d   1      -3.731   1.161  -6.000  0.00  0.00    -0.060 I 
ATOM     10  F2  UNL d   1      -3.790  -1.917  -5.127  0.00  0.00    -0.096 F 
ATOM     11  F3  UNL d   1      -1.868  -3.542  -4.127  0.00  0.00    -0.097 F 
ATOM     12  F4  UNL d   1       0.655  -2.595  -3.704  0.00  0.00    -0.092 F 
ENDROOT
TORSDOF 0
ENDMDL
