MODEL 1
REMARK minimizedAffinity 18.1353951
REMARK minimizedRMSD -1
REMARK  0 active torsions:
REMARK  status: ('A' for Active; 'I' for Inactive)
ROOT
ATOM      1  C   UNL d   1       4.401   2.002  -0.663  0.00  0.00     0.124 A 
ATOM      2  C1  UNL d   1       4.588   0.626  -0.650  0.00  0.00     0.062 A 
ATOM      3  C2  UNL d   1       3.492  -0.228  -0.571  0.00  0.00     0.162 A 
ATOM      4  C3  UNL d   1       2.198   0.290  -0.506  0.00  0.00    -0.034 A 
ATOM      5  C4  UNL d   1       2.019   1.675  -0.518  0.00  0.00     0.162 A 
ATOM      6  C5  UNL d   1       3.117   2.525  -0.597  0.00  0.00     0.062 A 
ATOM      7  F   UNL d   1       2.935   3.853  -0.610  0.00  0.00    -0.097 F 
ATOM      8  F1  UNL d   1       0.789   2.207  -0.457  0.00  0.00    -0.096 F 
ATOM      9  I   UNL d   1       0.557  -0.984  -0.388  0.00  0.00    -0.060 I 
ATOM     10  F2  UNL d   1       3.702  -1.553  -0.561  0.00  0.00    -0.096 F 
ATOM     11  F3  UNL d   1       5.827   0.119  -0.713  0.00  0.00    -0.097 F 
ATOM     12  F4  UNL d   1       5.457   2.822  -0.738  0.00  0.00    -0.092 F 
ENDROOT
TORSDOF 0
ENDMDL
