MODEL 1
REMARK minimizedAffinity 1.50654233
REMARK minimizedRMSD -1
REMARK  0 active torsions:
REMARK  status: ('A' for Active; 'I' for Inactive)
ROOT
ATOM      1  C   UNL d   1      -3.442   4.360  -5.744  0.00  0.00     0.124 A 
ATOM      2  C1  UNL d   1      -2.293   3.587  -5.834  0.00  0.00     0.062 A 
ATOM      3  C2  UNL d   1      -2.385   2.200  -5.906  0.00  0.00     0.162 A 
ATOM      4  C3  UNL d   1      -3.632   1.576  -5.891  0.00  0.00    -0.034 A 
ATOM      5  C4  UNL d   1      -4.784   2.360  -5.800  0.00  0.00     0.162 A 
ATOM      6  C5  UNL d   1      -4.687   3.746  -5.728  0.00  0.00     0.062 A 
ATOM      7  F   UNL d   1      -5.798   4.490  -5.641  0.00  0.00    -0.097 F 
ATOM      8  F1  UNL d   1      -6.000   1.792  -5.783  0.00  0.00    -0.096 F 
ATOM      9  I   UNL d   1      -3.775  -0.497  -5.999  0.00  0.00    -0.060 I 
ATOM     10  F2  UNL d   1      -1.257   1.479  -5.992  0.00  0.00    -0.096 F 
ATOM     11  F3  UNL d   1      -1.089   4.178  -5.849  0.00  0.00    -0.097 F 
ATOM     12  F4  UNL d   1      -3.350   5.694  -5.674  0.00  0.00    -0.092 F 
ENDROOT
TORSDOF 0
ENDMDL
