MODEL 1
REMARK minimizedAffinity 1.67455709
REMARK minimizedRMSD -1
REMARK  0 active torsions:
REMARK  status: ('A' for Active; 'I' for Inactive)
ROOT
ATOM      1  C   UNL d   1      -3.544   3.682  -5.983  0.00  0.00     0.124 A 
ATOM      2  C1  UNL d   1      -4.765   3.020  -5.989  0.00  0.00     0.062 A 
ATOM      3  C2  UNL d   1      -4.806   1.629  -5.994  0.00  0.00     0.162 A 
ATOM      4  C3  UNL d   1      -3.623   0.889  -5.992  0.00  0.00    -0.034 A 
ATOM      5  C4  UNL d   1      -2.400   1.562  -5.987  0.00  0.00     0.162 A 
ATOM      6  C5  UNL d   1      -2.364   2.952  -5.982  0.00  0.00     0.062 A 
ATOM      7  F   UNL d   1      -1.184   3.590  -5.976  0.00  0.00    -0.097 F 
ATOM      8  F1  UNL d   1      -1.244   0.882  -5.985  0.00  0.00    -0.096 F 
ATOM      9  I   UNL d   1      -3.681  -1.191  -6.000  0.00  0.00    -0.060 I 
ATOM     10  F2  UNL d   1      -5.999   1.015  -6.000  0.00  0.00    -0.096 F 
ATOM     11  F3  UNL d   1      -5.907   3.722  -5.991  0.00  0.00    -0.097 F 
ATOM     12  F4  UNL d   1      -3.507   5.020  -5.979  0.00  0.00    -0.092 F 
ENDROOT
TORSDOF 0
ENDMDL
