MODEL 1
REMARK minimizedAffinity 9.63595104
REMARK minimizedRMSD -1
REMARK  0 active torsions:
REMARK  status: ('A' for Active; 'I' for Inactive)
ROOT
ATOM      1  C   UNL d   1       0.970   0.469  -0.020  0.00  0.00     0.124 A 
ATOM      2  C1  UNL d   1       1.660  -0.178  -1.036  0.00  0.00     0.062 A 
ATOM      3  C2  UNL d   1       1.000  -1.079  -1.867  0.00  0.00     0.162 A 
ATOM      4  C3  UNL d   1      -0.359  -1.336  -1.687  0.00  0.00    -0.034 A 
ATOM      5  C4  UNL d   1      -1.046  -0.682  -0.662  0.00  0.00     0.162 A 
ATOM      6  C5  UNL d   1      -0.382   0.217   0.166  0.00  0.00     0.062 A 
ATOM      7  F   UNL d   1      -1.050   0.842   1.146  0.00  0.00    -0.097 F 
ATOM      8  F1  UNL d   1      -2.353  -0.906  -0.461  0.00  0.00    -0.096 F 
ATOM      9  I   UNL d   1      -1.350  -2.681  -2.927  0.00  0.00    -0.060 I 
ATOM     10  F2  UNL d   1       1.691  -1.690  -2.840  0.00  0.00    -0.096 F 
ATOM     11  F3  UNL d   1       2.967   0.063  -1.216  0.00  0.00    -0.097 F 
ATOM     12  F4  UNL d   1       1.609   1.334   0.779  0.00  0.00    -0.092 F 
ENDROOT
TORSDOF 0
ENDMDL
