MODEL 1
REMARK minimizedAffinity 15.1379223
REMARK minimizedRMSD -1
REMARK  0 active torsions:
REMARK  status: ('A' for Active; 'I' for Inactive)
ROOT
ATOM      1  C   UNL d   1       0.969   0.145   0.164  0.00  0.00     0.124 A 
ATOM      2  C1  UNL d   1       0.062   1.189   0.043  0.00  0.00     0.062 A 
ATOM      3  C2  UNL d   1      -0.482   1.504  -1.199  0.00  0.00     0.162 A 
ATOM      4  C3  UNL d   1      -0.121   0.773  -2.331  0.00  0.00    -0.034 A 
ATOM      5  C4  UNL d   1       0.793  -0.275  -2.202  0.00  0.00     0.162 A 
ATOM      6  C5  UNL d   1       1.333  -0.586  -0.958  0.00  0.00     0.062 A 
ATOM      7  F   UNL d   1       2.209  -1.595  -0.844  0.00  0.00    -0.097 F 
ATOM      8  F1  UNL d   1       1.161  -0.998  -3.270  0.00  0.00    -0.096 F 
ATOM      9  I   UNL d   1      -0.931   1.241  -4.190  0.00  0.00    -0.060 I 
ATOM     10  F2  UNL d   1      -1.355   2.518  -1.286  0.00  0.00    -0.096 F 
ATOM     11  F3  UNL d   1      -0.291   1.897   1.125  0.00  0.00    -0.097 F 
ATOM     12  F4  UNL d   1       1.491  -0.155   1.360  0.00  0.00    -0.092 F 
ENDROOT
TORSDOF 0
ENDMDL
