MODEL 1
REMARK minimizedAffinity 15.8665218
REMARK minimizedRMSD -1
REMARK  0 active torsions:
REMARK  status: ('A' for Active; 'I' for Inactive)
ROOT
ATOM      1  C   UNL d   1       3.043   0.128  -1.142  0.00  0.00     0.124 A 
ATOM      2  C1  UNL d   1       1.747   0.579  -0.932  0.00  0.00     0.062 A 
ATOM      3  C2  UNL d   1       1.508   1.926  -0.671  0.00  0.00     0.162 A 
ATOM      4  C3  UNL d   1       2.568   2.831  -0.619  0.00  0.00    -0.034 A 
ATOM      5  C4  UNL d   1       3.869   2.370  -0.829  0.00  0.00     0.162 A 
ATOM      6  C5  UNL d   1       4.102   1.023  -1.090  0.00  0.00     0.062 A 
ATOM      7  F   UNL d   1       5.355   0.589  -1.291  0.00  0.00    -0.097 F 
ATOM      8  F1  UNL d   1       4.911   3.213  -0.786  0.00  0.00    -0.096 F 
ATOM      9  I   UNL d   1       2.215   4.845  -0.229  0.00  0.00    -0.060 I 
ATOM     10  F2  UNL d   1       0.246   2.334  -0.473  0.00  0.00    -0.096 F 
ATOM     11  F3  UNL d   1       0.722  -0.284  -0.981  0.00  0.00    -0.097 F 
ATOM     12  F4  UNL d   1       3.270  -1.168  -1.391  0.00  0.00    -0.092 F 
ENDROOT
TORSDOF 0
ENDMDL
