MODEL 1
REMARK minimizedAffinity 12.1996269
REMARK minimizedRMSD -1
REMARK  0 active torsions:
REMARK  status: ('A' for Active; 'I' for Inactive)
ROOT
ATOM      1  C   UNL d   1       0.590   0.558  -0.393  0.00  0.00     0.124 A 
ATOM      2  C1  UNL d   1      -0.432   1.419  -0.768  0.00  0.00     0.062 A 
ATOM      3  C2  UNL d   1      -1.007   1.315  -2.032  0.00  0.00     0.162 A 
ATOM      4  C3  UNL d   1      -0.561   0.344  -2.929  0.00  0.00    -0.034 A 
ATOM      5  C4  UNL d   1       0.467  -0.517  -2.545  0.00  0.00     0.162 A 
ATOM      6  C5  UNL d   1       1.038  -0.409  -1.281  0.00  0.00     0.062 A 
ATOM      7  F   UNL d   1       2.025  -1.242  -0.920  0.00  0.00    -0.097 F 
ATOM      8  F1  UNL d   1       0.920  -1.462  -3.383  0.00  0.00    -0.096 F 
ATOM      9  I   UNL d   1      -1.418   0.185  -4.819  0.00  0.00    -0.060 I 
ATOM     10  F2  UNL d   1      -1.992   2.160  -2.368  0.00  0.00    -0.096 F 
ATOM     11  F3  UNL d   1      -0.867   2.355   0.088  0.00  0.00    -0.097 F 
ATOM     12  F4  UNL d   1       1.141   0.661   0.823  0.00  0.00    -0.092 F 
ENDROOT
TORSDOF 0
ENDMDL
