MODEL 1
REMARK minimizedAffinity 2.81481671
REMARK minimizedRMSD -1
REMARK  0 active torsions:
REMARK  status: ('A' for Active; 'I' for Inactive)
ROOT
ATOM      1  C   UNL d   1      -2.349   2.300  -5.916  0.00  0.00     0.124 A 
ATOM      2  C1  UNL d   1      -2.064   0.942  -5.946  0.00  0.00     0.062 A 
ATOM      3  C2  UNL d   1      -3.098   0.011  -5.970  0.00  0.00     0.162 A 
ATOM      4  C3  UNL d   1      -4.427   0.434  -5.964  0.00  0.00    -0.034 A 
ATOM      5  C4  UNL d   1      -4.705   1.802  -5.932  0.00  0.00     0.162 A 
ATOM      6  C5  UNL d   1      -3.668   2.729  -5.909  0.00  0.00     0.062 A 
ATOM      7  F   UNL d   1      -3.945   4.040  -5.879  0.00  0.00    -0.097 F 
ATOM      8  F1  UNL d   1      -5.972   2.244  -5.926  0.00  0.00    -0.096 F 
ATOM      9  I   UNL d   1      -5.976  -0.955  -6.000  0.00  0.00    -0.060 I 
ATOM     10  F2  UNL d   1      -2.794  -1.296  -6.000  0.00  0.00    -0.096 F 
ATOM     11  F3  UNL d   1      -0.790   0.525  -5.952  0.00  0.00    -0.097 F 
ATOM     12  F4  UNL d   1      -1.352   3.194  -5.892  0.00  0.00    -0.092 F 
ENDROOT
TORSDOF 0
ENDMDL
