MODEL 1
REMARK minimizedAffinity 0.712768257
REMARK minimizedRMSD -1
REMARK  0 active torsions:
REMARK  status: ('A' for Active; 'I' for Inactive)
ROOT
ATOM      1  C   UNL d   1      -3.433   3.624  -5.963  0.00  0.00     0.124 A 
ATOM      2  C1  UNL d   1      -4.675   3.004  -5.961  0.00  0.00     0.062 A 
ATOM      3  C2  UNL d   1      -4.765   1.615  -5.972  0.00  0.00     0.162 A 
ATOM      4  C3  UNL d   1      -3.608   0.836  -5.984  0.00  0.00    -0.034 A 
ATOM      5  C4  UNL d   1      -2.363   1.466  -5.987  0.00  0.00     0.162 A 
ATOM      6  C5  UNL d   1      -2.279   2.854  -5.976  0.00  0.00     0.062 A 
ATOM      7  F   UNL d   1      -1.078   3.451  -5.979  0.00  0.00    -0.097 F 
ATOM      8  F1  UNL d   1      -1.231   0.747  -5.998  0.00  0.00    -0.096 F 
ATOM      9  I   UNL d   1      -3.738  -1.242  -6.000  0.00  0.00    -0.060 I 
ATOM     10  F2  UNL d   1      -5.978   1.044  -5.969  0.00  0.00    -0.096 F 
ATOM     11  F3  UNL d   1      -5.793   3.745  -5.950  0.00  0.00    -0.097 F 
ATOM     12  F4  UNL d   1      -3.350   4.960  -5.954  0.00  0.00    -0.092 F 
ENDROOT
TORSDOF 0
ENDMDL
