MODEL 1
REMARK minimizedAffinity 4.79395437
REMARK minimizedRMSD -1
REMARK  0 active torsions:
REMARK  status: ('A' for Active; 'I' for Inactive)
ROOT
ATOM      1  C   UNL d   1      -1.913   1.973  -5.997  0.00  0.00     0.124 A 
ATOM      2  C1  UNL d   1      -3.153   1.348  -5.998  0.00  0.00     0.062 A 
ATOM      3  C2  UNL d   1      -4.319   2.107  -5.997  0.00  0.00     0.162 A 
ATOM      4  C3  UNL d   1      -4.252   3.501  -5.998  0.00  0.00    -0.034 A 
ATOM      5  C4  UNL d   1      -3.002   4.122  -5.996  0.00  0.00     0.162 A 
ATOM      6  C5  UNL d   1      -1.839   3.359  -5.996  0.00  0.00     0.062 A 
ATOM      7  F   UNL d   1      -0.643   3.964  -5.996  0.00  0.00    -0.097 F 
ATOM      8  F1  UNL d   1      -2.901   5.460  -5.996  0.00  0.00    -0.096 F 
ATOM      9  I   UNL d   1      -5.994   4.639  -5.997  0.00  0.00    -0.060 I 
ATOM     10  F2  UNL d   1      -5.503   1.477  -5.998  0.00  0.00    -0.096 F 
ATOM     11  F3  UNL d   1      -3.227   0.010  -5.997  0.00  0.00    -0.097 F 
ATOM     12  F4  UNL d   1      -0.792   1.240  -5.996  0.00  0.00    -0.092 F 
ENDROOT
TORSDOF 0
ENDMDL
