MODEL 1
REMARK minimizedAffinity 15.9195518
REMARK minimizedRMSD -1
REMARK  0 active torsions:
REMARK  status: ('A' for Active; 'I' for Inactive)
ROOT
ATOM      1  C   UNL d   1      -2.345   1.737  -5.506  0.00  0.00     0.124 A 
ATOM      2  C1  UNL d   1      -2.072   0.376  -5.512  0.00  0.00     0.062 A 
ATOM      3  C2  UNL d   1      -3.107  -0.544  -5.652  0.00  0.00     0.162 A 
ATOM      4  C3  UNL d   1      -4.424  -0.107  -5.788  0.00  0.00    -0.034 A 
ATOM      5  C4  UNL d   1      -4.691   1.264  -5.781  0.00  0.00     0.162 A 
ATOM      6  C5  UNL d   1      -3.653   2.180  -5.640  0.00  0.00     0.062 A 
ATOM      7  F   UNL d   1      -3.919   3.494  -5.635  0.00  0.00    -0.097 F 
ATOM      8  F1  UNL d   1      -5.946   1.719  -5.910  0.00  0.00    -0.096 F 
ATOM      9  I   UNL d   1      -5.974  -1.480  -5.998  0.00  0.00    -0.060 I 
ATOM     10  F2  UNL d   1      -2.814  -1.853  -5.654  0.00  0.00    -0.096 F 
ATOM     11  F3  UNL d   1      -0.809  -0.053  -5.381  0.00  0.00    -0.097 F 
ATOM     12  F4  UNL d   1      -1.348   2.621  -5.370  0.00  0.00    -0.092 F 
ENDROOT
TORSDOF 0
ENDMDL
