MODEL 1
REMARK minimizedAffinity 9.85218048
REMARK minimizedRMSD -1
REMARK  0 active torsions:
REMARK  status: ('A' for Active; 'I' for Inactive)
ROOT
ATOM      1  C   UNL d   1       1.821  -1.462  -2.032  0.00  0.00     0.124 A 
ATOM      2  C1  UNL d   1       2.997  -1.161  -1.357  0.00  0.00     0.062 A 
ATOM      3  C2  UNL d   1       3.040  -0.088  -0.473  0.00  0.00     0.162 A 
ATOM      4  C3  UNL d   1       1.905   0.693  -0.256  0.00  0.00    -0.034 A 
ATOM      5  C4  UNL d   1       0.727   0.385  -0.939  0.00  0.00     0.162 A 
ATOM      6  C5  UNL d   1       0.688  -0.689  -1.823  0.00  0.00     0.062 A 
ATOM      7  F   UNL d   1      -0.448  -0.978  -2.474  0.00  0.00    -0.097 F 
ATOM      8  F1  UNL d   1      -0.383   1.115  -0.755  0.00  0.00    -0.096 F 
ATOM      9  I   UNL d   1       1.966   2.299   1.066  0.00  0.00    -0.060 I 
ATOM     10  F2  UNL d   1       4.189   0.180   0.166  0.00  0.00    -0.096 F 
ATOM     11  F3  UNL d   1       4.093  -1.906  -1.559  0.00  0.00    -0.097 F 
ATOM     12  F4  UNL d   1       1.782  -2.495  -2.884  0.00  0.00    -0.092 F 
ENDROOT
TORSDOF 0
ENDMDL
