MODEL 1
REMARK minimizedAffinity 7.13486814
REMARK minimizedRMSD -1
REMARK  0 active torsions:
REMARK  status: ('A' for Active; 'I' for Inactive)
ROOT
ATOM      1  C   UNL d   1      -0.072  -2.702  -3.441  0.00  0.00     0.124 A 
ATOM      2  C1  UNL d   1      -0.860  -3.809  -3.725  0.00  0.00     0.062 A 
ATOM      3  C2  UNL d   1      -2.097  -3.648  -4.342  0.00  0.00     0.162 A 
ATOM      4  C3  UNL d   1      -2.554  -2.375  -4.680  0.00  0.00    -0.034 A 
ATOM      5  C4  UNL d   1      -1.757  -1.266  -4.390  0.00  0.00     0.162 A 
ATOM      6  C5  UNL d   1      -0.521  -1.432  -3.774  0.00  0.00     0.062 A 
ATOM      7  F   UNL d   1       0.238  -0.362  -3.500  0.00  0.00    -0.097 F 
ATOM      8  F1  UNL d   1      -2.166  -0.027  -4.702  0.00  0.00    -0.096 F 
ATOM      9  I   UNL d   1      -4.404  -2.130  -5.603  0.00  0.00    -0.060 I 
ATOM     10  F2  UNL d   1      -2.837  -4.736  -4.604  0.00  0.00    -0.096 F 
ATOM     11  F3  UNL d   1      -0.429  -5.037  -3.403  0.00  0.00    -0.097 F 
ATOM     12  F4  UNL d   1       1.117  -2.860  -2.846  0.00  0.00    -0.092 F 
ENDROOT
TORSDOF 0
ENDMDL
