MODEL 1
REMARK minimizedAffinity 5.12248278
REMARK minimizedRMSD -1
REMARK  0 active torsions:
REMARK  status: ('A' for Active; 'I' for Inactive)
ROOT
ATOM      1  C   UNL d   1      -2.447   2.346  -5.996  0.00  0.00     0.124 A 
ATOM      2  C1  UNL d   1      -3.825   2.515  -5.997  0.00  0.00     0.062 A 
ATOM      3  C2  UNL d   1      -4.666   1.406  -5.998  0.00  0.00     0.162 A 
ATOM      4  C3  UNL d   1      -4.132   0.118  -5.997  0.00  0.00    -0.034 A 
ATOM      5  C4  UNL d   1      -2.745  -0.044  -5.997  0.00  0.00     0.162 A 
ATOM      6  C5  UNL d   1      -1.909   1.067  -5.996  0.00  0.00     0.062 A 
ATOM      7  F   UNL d   1      -0.578   0.902  -5.994  0.00  0.00    -0.097 F 
ATOM      8  F1  UNL d   1      -2.198  -1.269  -5.996  0.00  0.00    -0.096 F 
ATOM      9  I   UNL d   1      -5.386  -1.543  -5.999  0.00  0.00    -0.060 I 
ATOM     10  F2  UNL d   1      -5.993   1.599  -5.999  0.00  0.00    -0.096 F 
ATOM     11  F3  UNL d   1      -4.347   3.750  -5.998  0.00  0.00    -0.097 F 
ATOM     12  F4  UNL d   1      -1.640   3.415  -5.995  0.00  0.00    -0.092 F 
ENDROOT
TORSDOF 0
ENDMDL
