MODEL 1
REMARK minimizedAffinity -5.32071209
REMARK minimizedRMSD -1
REMARK  0 active torsions:
REMARK  status: ('A' for Active; 'I' for Inactive)
ROOT
ATOM      1  C4' PXY d   1      -1.408   0.009   1.362  0.00  0.00     0.077 C 
ATOM      2  C1' PXY d   1       2.765  -1.466  -2.356  0.00  0.00     0.077 C 
ATOM      3  C1  PXY d   1       1.665  -1.091  -1.383  0.00  0.00    -0.082 A 
ATOM      4  C2  PXY d   1       1.403   0.186  -1.151  0.00  0.00     0.003 A 
ATOM      5  C3  PXY d   1       0.434   0.543  -0.250  0.00  0.00     0.003 A 
ATOM      6  C4  PXY d   1      -0.313  -0.416   0.380  0.00  0.00    -0.082 A 
ATOM      7  C5  PXY d   1      -0.059  -1.720   0.142  0.00  0.00     0.003 A 
ATOM      8  C6  PXY d   1       0.957  -2.062  -0.745  0.00  0.00     0.003 A 
ENDROOT
TORSDOF 0
ENDMDL
