MODEL 1
REMARK minimizedAffinity -3.30349636
REMARK minimizedRMSD -1
REMARK  0 active torsions:
REMARK  status: ('A' for Active; 'I' for Inactive)
ROOT
ATOM      1  C4' PXY d   1      -1.245   0.271   1.019  0.00  0.00     0.077 C 
ATOM      2  C1' PXY d   1       2.759  -2.630  -1.976  0.00  0.00     0.077 C 
ATOM      3  C1  PXY d   1       1.717  -1.859  -1.190  0.00  0.00    -0.082 A 
ATOM      4  C2  PXY d   1       0.776  -2.516  -0.531  0.00  0.00     0.003 A 
ATOM      5  C3  PXY d   1      -0.193  -1.834   0.159  0.00  0.00     0.003 A 
ATOM      6  C4  PXY d   1      -0.167  -0.467   0.219  0.00  0.00    -0.082 A 
ATOM      7  C5  PXY d   1       0.796   0.211  -0.441  0.00  0.00     0.003 A 
ATOM      8  C6  PXY d   1       1.746  -0.499  -1.169  0.00  0.00     0.003 A 
ENDROOT
TORSDOF 0
ENDMDL
