MODEL 1
REMARK minimizedAffinity -5.15087509
REMARK minimizedRMSD -1
REMARK  0 active torsions:
REMARK  status: ('A' for Active; 'I' for Inactive)
ROOT
ATOM      1  C4' PXY d   1       1.686  -3.310  -1.408  0.00  0.00     0.077 C 
ATOM      2  C1' PXY d   1       0.445   2.272  -0.563  0.00  0.00     0.077 C 
ATOM      3  C1  PXY d   1       0.765   0.806  -0.773  0.00  0.00    -0.082 A 
ATOM      4  C2  PXY d   1       1.740   0.460  -1.599  0.00  0.00     0.003 A 
ATOM      5  C3  PXY d   1       2.022  -0.862  -1.825  0.00  0.00     0.003 A 
ATOM      6  C4  PXY d   1       1.334  -1.841  -1.158  0.00  0.00    -0.082 A 
ATOM      7  C5  PXY d   1       0.345  -1.496  -0.306  0.00  0.00     0.003 A 
ATOM      8  C6  PXY d   1       0.047  -0.149  -0.122  0.00  0.00     0.003 A 
ENDROOT
TORSDOF 0
ENDMDL
