MODEL 1
REMARK minimizedAffinity -3.40418005
REMARK minimizedRMSD -1
REMARK  0 active torsions:
REMARK  status: ('A' for Active; 'I' for Inactive)
ROOT
ATOM      1  C4' PXY d   1       2.381  -2.735  -1.505  0.00  0.00     0.077 C 
ATOM      2  C1' PXY d   1      -1.378   0.491   1.475  0.00  0.00     0.077 C 
ATOM      3  C1  PXY d   1      -0.391  -0.345   0.685  0.00  0.00    -0.082 A 
ATOM      4  C2  PXY d   1      -0.449  -1.665   0.753  0.00  0.00     0.003 A 
ATOM      5  C3  PXY d   1       0.456  -2.436   0.071  0.00  0.00     0.003 A 
ATOM      6  C4  PXY d   1       1.398  -1.851  -0.732  0.00  0.00    -0.082 A 
ATOM      7  C5  PXY d   1       1.458  -0.505  -0.816  0.00  0.00     0.003 A 
ATOM      8  C6  PXY d   1       0.556   0.260  -0.083  0.00  0.00     0.003 A 
ENDROOT
TORSDOF 0
ENDMDL
