MODEL 1
REMARK minimizedAffinity -0.240489781
REMARK minimizedRMSD -1
REMARK  0 active torsions:
REMARK  status: ('A' for Active; 'I' for Inactive)
ROOT
ATOM      1  C4' PXY d   1       0.671  -2.102  -0.104  0.00  0.00     0.077 C 
ATOM      2  C1' PXY d   1       0.932   3.671  -0.235  0.00  0.00     0.077 C 
ATOM      3  C1  PXY d   1       0.870   2.156  -0.212  0.00  0.00    -0.082 A 
ATOM      4  C2  PXY d   1      -0.075   1.551   0.489  0.00  0.00     0.003 A 
ATOM      5  C3  PXY d   1      -0.126   0.182   0.547  0.00  0.00     0.003 A 
ATOM      6  C4  PXY d   1       0.766  -0.575  -0.164  0.00  0.00    -0.082 A 
ATOM      7  C5  PXY d   1       1.726   0.035  -0.890  0.00  0.00     0.003 A 
ATOM      8  C6  PXY d   1       1.787   1.426  -0.902  0.00  0.00     0.003 A 
ENDROOT
TORSDOF 0
ENDMDL
