MODEL 1
REMARK minimizedAffinity -1.30133939
REMARK minimizedRMSD -1
REMARK  0 active torsions:
REMARK  status: ('A' for Active; 'I' for Inactive)
ROOT
ATOM      1  C4' PXY d   1      -4.797   5.240  -6.000  0.00  0.00     0.077 C 
ATOM      2  C1' PXY d   1      -0.826   1.157  -5.007  0.00  0.00     0.077 C 
ATOM      3  C1  PXY d   1      -1.860   2.237  -5.260  0.00  0.00    -0.082 A 
ATOM      4  C2  PXY d   1      -3.117   1.896  -5.498  0.00  0.00     0.003 A 
ATOM      5  C3  PXY d   1      -4.058   2.857  -5.762  0.00  0.00     0.003 A 
ATOM      6  C4  PXY d   1      -3.721   4.184  -5.729  0.00  0.00    -0.082 A 
ATOM      7  C5  PXY d   1      -2.444   4.540  -5.476  0.00  0.00     0.003 A 
ATOM      8  C6  PXY d   1      -1.495   3.547  -5.252  0.00  0.00     0.003 A 
ENDROOT
TORSDOF 0
ENDMDL
