MODEL 1
REMARK minimizedAffinity 4.5294981
REMARK minimizedRMSD -1
REMARK  0 active torsions:
REMARK  status: ('A' for Active; 'I' for Inactive)
ROOT
ATOM      1  C4' PXY d   1       1.094   4.525  -0.249  0.00  0.00     0.077 C 
ATOM      2  C1' PXY d   1       1.994  -0.657  -2.648  0.00  0.00     0.077 C 
ATOM      3  C1  PXY d   1       1.762   0.707  -2.030  0.00  0.00    -0.082 A 
ATOM      4  C2  PXY d   1       1.804   0.846  -0.715  0.00  0.00     0.003 A 
ATOM      5  C3  PXY d   1       1.564   2.066  -0.138  0.00  0.00     0.003 A 
ATOM      6  C4  PXY d   1       1.332   3.168  -0.917  0.00  0.00    -0.082 A 
ATOM      7  C5  PXY d   1       1.298   3.037  -2.260  0.00  0.00     0.003 A 
ATOM      8  C6  PXY d   1       1.503   1.781  -2.825  0.00  0.00     0.003 A 
ENDROOT
TORSDOF 0
ENDMDL
