MODEL 1
REMARK minimizedAffinity 2.06507778
REMARK minimizedRMSD -1
REMARK  0 active torsions:
REMARK  status: ('A' for Active; 'I' for Inactive)
ROOT
ATOM      1  C4' PXY d   1       1.422   3.970  -0.207  0.00  0.00     0.077 C 
ATOM      2  C1' PXY d   1       1.719  -1.115  -2.941  0.00  0.00     0.077 C 
ATOM      3  C1  PXY d   1       1.641   0.213  -2.212  0.00  0.00    -0.082 A 
ATOM      4  C2  PXY d   1       1.148   1.272  -2.833  0.00  0.00     0.003 A 
ATOM      5  C3  PXY d   1       1.100   2.487  -2.200  0.00  0.00     0.003 A 
ATOM      6  C4  PXY d   1       1.511   2.608  -0.900  0.00  0.00    -0.082 A 
ATOM      7  C5  PXY d   1       2.005   1.529  -0.256  0.00  0.00     0.003 A 
ATOM      8  C6  PXY d   1       2.084   0.314  -0.929  0.00  0.00     0.003 A 
ENDROOT
TORSDOF 0
ENDMDL
