MODEL 1
REMARK minimizedAffinity 4.41266251
REMARK minimizedRMSD -1
REMARK  0 active torsions:
REMARK  status: ('A' for Active; 'I' for Inactive)
ROOT
ATOM      1  C4' PXY d   1       0.857   4.668  -1.521  0.00  0.00     0.077 C 
ATOM      2  C1' PXY d   1       2.230  -0.943  -1.288  0.00  0.00     0.077 C 
ATOM      3  C1  PXY d   1       1.879   0.531  -1.358  0.00  0.00    -0.082 A 
ATOM      4  C2  PXY d   1       1.291   1.113  -0.326  0.00  0.00     0.003 A 
ATOM      5  C3  PXY d   1       0.938   2.436  -0.385  0.00  0.00     0.003 A 
ATOM      6  C4  PXY d   1       1.237   3.185  -1.491  0.00  0.00    -0.082 A 
ATOM      7  C5  PXY d   1       1.846   2.601  -2.545  0.00  0.00     0.003 A 
ATOM      8  C6  PXY d   1       2.159   1.246  -2.481  0.00  0.00     0.003 A 
ENDROOT
TORSDOF 0
ENDMDL
