MODEL 1
REMARK minimizedAffinity 1.63176131
REMARK minimizedRMSD -1
REMARK  0 active torsions:
REMARK  status: ('A' for Active; 'I' for Inactive)
ROOT
ATOM      1  C4' PXY d   1       1.284  -0.893  -0.892  0.00  0.00     0.077 C 
ATOM      2  C1' PXY d   1       1.784   4.832  -1.516  0.00  0.00     0.077 C 
ATOM      3  C1  PXY d   1       1.654   3.329  -1.365  0.00  0.00    -0.082 A 
ATOM      4  C2  PXY d   1       1.056   2.828  -0.297  0.00  0.00     0.003 A 
ATOM      5  C3  PXY d   1       0.958   1.470  -0.129  0.00  0.00     0.003 A 
ATOM      6  C4  PXY d   1       1.430   0.618  -1.091  0.00  0.00    -0.082 A 
ATOM      7  C5  PXY d   1       2.032   1.121  -2.189  0.00  0.00     0.003 A 
ATOM      8  C6  PXY d   1       2.158   2.501  -2.321  0.00  0.00     0.003 A 
ENDROOT
TORSDOF 0
ENDMDL
