MODEL 1
REMARK minimizedAffinity 4.37484074
REMARK minimizedRMSD -1
REMARK  0 active torsions:
REMARK  status: ('A' for Active; 'I' for Inactive)
ROOT
ATOM      1  C4' PXY d   1       1.351   4.672  -1.125  0.00  0.00     0.077 C 
ATOM      2  C1' PXY d   1       1.761  -1.022  -2.032  0.00  0.00     0.077 C 
ATOM      3  C1  PXY d   1       1.651   0.473  -1.807  0.00  0.00    -0.082 A 
ATOM      4  C2  PXY d   1       2.234   1.020  -0.753  0.00  0.00     0.003 A 
ATOM      5  C3  PXY d   1       2.119   2.366  -0.517  0.00  0.00     0.003 A 
ATOM      6  C4  PXY d   1       1.443   3.168  -1.397  0.00  0.00    -0.082 A 
ATOM      7  C5  PXY d   1       0.854   2.619  -2.480  0.00  0.00     0.003 A 
ATOM      8  C6  PXY d   1       0.949   1.245  -2.680  0.00  0.00     0.003 A 
ENDROOT
TORSDOF 0
ENDMDL
