MODEL 1
REMARK minimizedAffinity 8.70798016
REMARK minimizedRMSD -1
REMARK  0 active torsions:
REMARK  status: ('A' for Active; 'I' for Inactive)
ROOT
ATOM      1  C4' PXY d   1      -3.642  -1.892   0.461  0.00  0.00     0.077 C 
ATOM      2  C1' PXY d   1       1.683  -3.072  -1.456  0.00  0.00     0.077 C 
ATOM      3  C1  PXY d   1       0.285  -2.755  -0.963  0.00  0.00    -0.082 A 
ATOM      4  C2  PXY d   1      -0.015  -2.933   0.313  0.00  0.00     0.003 A 
ATOM      5  C3  PXY d   1      -1.284  -2.681   0.769  0.00  0.00     0.003 A 
ATOM      6  C4  PXY d   1      -2.240  -2.191  -0.079  0.00  0.00    -0.082 A 
ATOM      7  C5  PXY d   1      -1.939  -1.996  -1.381  0.00  0.00     0.003 A 
ATOM      8  C6  PXY d   1      -0.657  -2.297  -1.832  0.00  0.00     0.003 A 
ENDROOT
TORSDOF 0
ENDMDL
