MODEL 1
REMARK minimizedAffinity -5.02198362
REMARK minimizedRMSD -1
REMARK  0 active torsions:
REMARK  status: ('A' for Active; 'I' for Inactive)
ROOT
ATOM      1  C4' PXY d   1      -1.516   2.522  -1.340  0.00  0.00     0.077 C 
ATOM      2  C1' PXY d   1      -0.222  -2.677   0.830  0.00  0.00     0.077 C 
ATOM      3  C1  PXY d   1      -0.553  -1.308   0.269  0.00  0.00    -0.082 A 
ATOM      4  C2  PXY d   1      -1.719  -1.108  -0.324  0.00  0.00     0.003 A 
ATOM      5  C3  PXY d   1      -2.022   0.115  -0.865  0.00  0.00     0.003 A 
ATOM      6  C4  PXY d   1      -1.143   1.159  -0.751  0.00  0.00    -0.082 A 
ATOM      7  C5  PXY d   1       0.044   0.966  -0.138  0.00  0.00     0.003 A 
ATOM      8  C6  PXY d   1       0.349  -0.294   0.368  0.00  0.00     0.003 A 
ENDROOT
TORSDOF 0
ENDMDL
