MODEL 1
REMARK minimizedAffinity -0.538624287
REMARK minimizedRMSD -1
REMARK  0 active torsions:
REMARK  status: ('A' for Active; 'I' for Inactive)
ROOT
ATOM      1  C4' PXY d   1      -6.000   0.568  -5.964  0.00  0.00     0.077 C 
ATOM      2  C1' PXY d   1      -3.217   5.635  -5.996  0.00  0.00     0.077 C 
ATOM      3  C1  PXY d   1      -3.958   4.312  -5.983  0.00  0.00    -0.082 A 
ATOM      4  C2  PXY d   1      -3.273   3.180  -5.973  0.00  0.00     0.003 A 
ATOM      5  C3  PXY d   1      -3.926   1.974  -5.993  0.00  0.00     0.003 A 
ATOM      6  C4  PXY d   1      -5.295   1.927  -5.969  0.00  0.00    -0.082 A 
ATOM      7  C5  PXY d   1      -6.000   3.078  -5.967  0.00  0.00     0.003 A 
ATOM      8  C6  PXY d   1      -5.318   4.291  -5.989  0.00  0.00     0.003 A 
ENDROOT
TORSDOF 0
ENDMDL
