MODEL 1
REMARK minimizedAffinity 1.34532499
REMARK minimizedRMSD -1
REMARK  0 active torsions:
REMARK  status: ('A' for Active; 'I' for Inactive)
ROOT
ATOM      1  C4' PXY d   1      -0.737  -2.292  -0.011  0.00  0.00     0.077 C 
ATOM      2  C1' PXY d   1       1.852   2.808   0.828  0.00  0.00     0.077 C 
ATOM      3  C1  PXY d   1       1.172   1.473   0.595  0.00  0.00    -0.082 A 
ATOM      4  C2  PXY d   1       0.499   0.900   1.580  0.00  0.00     0.003 A 
ATOM      5  C3  PXY d   1      -0.094  -0.322   1.397  0.00  0.00     0.003 A 
ATOM      6  C4  PXY d   1      -0.043  -0.940   0.176  0.00  0.00    -0.082 A 
ATOM      7  C5  PXY d   1       0.632  -0.358  -0.837  0.00  0.00     0.003 A 
ATOM      8  C6  PXY d   1       1.262   0.864  -0.619  0.00  0.00     0.003 A 
ENDROOT
TORSDOF 0
ENDMDL
