MODEL 1
REMARK minimizedAffinity 6.02824402
REMARK minimizedRMSD -1
REMARK  0 active torsions:
REMARK  status: ('A' for Active; 'I' for Inactive)
ROOT
ATOM      1  C4' PXY d   1       1.635   3.508   0.775  0.00  0.00     0.077 C 
ATOM      2  C1' PXY d   1      -0.427  -1.865   0.236  0.00  0.00     0.077 C 
ATOM      3  C1  PXY d   1       0.124  -0.459   0.369  0.00  0.00    -0.082 A 
ATOM      4  C2  PXY d   1      -0.147   0.250   1.453  0.00  0.00     0.003 A 
ATOM      5  C3  PXY d   1       0.316   1.534   1.575  0.00  0.00     0.003 A 
ATOM      6  C4  PXY d   1       1.109   2.081   0.602  0.00  0.00    -0.082 A 
ATOM      7  C5  PXY d   1       1.398   1.361  -0.503  0.00  0.00     0.003 A 
ATOM      8  C6  PXY d   1       0.884   0.073  -0.626  0.00  0.00     0.003 A 
ENDROOT
TORSDOF 0
ENDMDL
