MODEL 1
REMARK minimizedAffinity 0.234611407
REMARK minimizedRMSD -1
REMARK  0 active torsions:
REMARK  status: ('A' for Active; 'I' for Inactive)
ROOT
ATOM      1  C4' PXY d   1      -4.741  -0.646  -5.980  0.00  0.00     0.077 C 
ATOM      2  C1' PXY d   1      -1.438   4.077  -5.533  0.00  0.00     0.077 C 
ATOM      3  C1  PXY d   1      -2.313   2.844  -5.643  0.00  0.00    -0.082 A 
ATOM      4  C2  PXY d   1      -1.757   1.664  -5.864  0.00  0.00     0.003 A 
ATOM      5  C3  PXY d   1      -2.536   0.544  -5.998  0.00  0.00     0.003 A 
ATOM      6  C4  PXY d   1      -3.895   0.624  -5.852  0.00  0.00    -0.082 A 
ATOM      7  C5  PXY d   1      -4.469   1.823  -5.616  0.00  0.00     0.003 A 
ATOM      8  C6  PXY d   1      -3.664   2.954  -5.524  0.00  0.00     0.003 A 
ENDROOT
TORSDOF 0
ENDMDL
