MODEL 1
REMARK minimizedAffinity 0.790338874
REMARK minimizedRMSD -1
REMARK  0 active torsions:
REMARK  status: ('A' for Active; 'I' for Inactive)
ROOT
ATOM      1  C4' PXY d   1      -0.774  -5.136  -4.499  0.00  0.00     0.077 C 
ATOM      2  C1' PXY d   1      -5.994  -3.058  -5.855  0.00  0.00     0.077 C 
ATOM      3  C1  PXY d   1      -4.621  -3.591  -5.497  0.00  0.00    -0.082 A 
ATOM      4  C2  PXY d   1      -4.229  -4.761  -5.973  0.00  0.00     0.003 A 
ATOM      5  C3  PXY d   1      -3.003  -5.273  -5.634  0.00  0.00     0.003 A 
ATOM      6  C4  PXY d   1      -2.148  -4.555  -4.841  0.00  0.00    -0.082 A 
ATOM      7  C5  PXY d   1      -2.536  -3.355  -4.360  0.00  0.00     0.003 A 
ATOM      8  C6  PXY d   1      -3.801  -2.872  -4.683  0.00  0.00     0.003 A 
ENDROOT
TORSDOF 0
ENDMDL
