MODEL 1
REMARK minimizedAffinity -2.14826417
REMARK minimizedRMSD -1
REMARK  0 active torsions:
REMARK  status: ('A' for Active; 'I' for Inactive)
ROOT
ATOM      1  C4' PXY d   1      -2.599   0.594   1.711  0.00  0.00     0.077 C 
ATOM      2  C1' PXY d   1       2.355   0.556  -1.268  0.00  0.00     0.077 C 
ATOM      3  C1  PXY d   1       1.053   0.554  -0.491  0.00  0.00    -0.082 A 
ATOM      4  C2  PXY d   1       0.488   1.703  -0.159  0.00  0.00     0.003 A 
ATOM      5  C3  PXY d   1      -0.673   1.720   0.571  0.00  0.00     0.003 A 
ATOM      6  C4  PXY d   1      -1.289   0.548   0.919  0.00  0.00    -0.082 A 
ATOM      7  C5  PXY d   1      -0.724  -0.629   0.575  0.00  0.00     0.003 A 
ATOM      8  C6  PXY d   1       0.475  -0.624  -0.131  0.00  0.00     0.003 A 
ENDROOT
TORSDOF 0
ENDMDL
