MODEL 1
REMARK minimizedAffinity -4.5918746
REMARK minimizedRMSD -1
REMARK  0 active torsions:
REMARK  status: ('A' for Active; 'I' for Inactive)
ROOT
ATOM      1  C4' PXY d   1      -3.712   1.641   2.331  0.00  0.00     0.077 C 
ATOM      2  C1' PXY d   1      -0.092  -2.387   0.308  0.00  0.00     0.077 C 
ATOM      3  C1  PXY d   1      -1.051  -1.334   0.830  0.00  0.00    -0.082 A 
ATOM      4  C2  PXY d   1      -0.574  -0.254   1.427  0.00  0.00     0.003 A 
ATOM      5  C3  PXY d   1      -1.428   0.692   1.933  0.00  0.00     0.003 A 
ATOM      6  C4  PXY d   1      -2.782   0.557   1.780  0.00  0.00    -0.082 A 
ATOM      7  C5  PXY d   1      -3.275  -0.538   1.163  0.00  0.00     0.003 A 
ATOM      8  C6  PXY d   1      -2.394  -1.506   0.693  0.00  0.00     0.003 A 
ENDROOT
TORSDOF 0
ENDMDL
