MODEL 1
REMARK minimizedAffinity 6.38012028
REMARK minimizedRMSD -1
REMARK  2 active torsions:
REMARK  status: ('A' for Active; 'I' for Inactive)
REMARK    1  A    between atoms: C1_2  and  C2_3 
REMARK    2  A    between atoms: C2_3  and  C3_4 
ROOT
ATOM      1  C3  UNL d   1      -2.140  -0.000   2.417  0.00  0.00    -0.075 A 
ATOM      2  C4  UNL d   1      -1.186  -0.381   3.372  0.00  0.00     0.002 A 
ATOM      3  C5  UNL d   1      -1.530  -1.245   4.412  0.00  0.00     0.002 A 
ATOM      4  C6  UNL d   1      -2.832  -1.730   4.517  0.00  0.00    -0.004 A 
ATOM      5  C7  UNL d   1      -3.792  -1.345   3.583  0.00  0.00     0.002 A 
ATOM      6  C8  UNL d   1      -3.449  -0.484   2.539  0.00  0.00     0.002 A 
ENDROOT
BRANCH   1   7
ATOM      7  C2  UNL d   1      -1.766   0.911   1.273  0.00  0.00     0.056 C 
BRANCH   7   8
ATOM      8  C1  UNL d   1      -1.165   0.182   0.066  0.00  0.00     0.007 C 
ATOM      9  C   UNL d   1      -2.216  -0.403  -0.867  0.00  0.00     0.009 C 
ENDBRANCH   7   8
ENDBRANCH   1   7
TORSDOF 2
ENDMDL
