MODEL 1
REMARK minimizedAffinity 6.26580524
REMARK minimizedRMSD -1
REMARK  2 active torsions:
REMARK  status: ('A' for Active; 'I' for Inactive)
REMARK    1  A    between atoms: C1_2  and  C2_3 
REMARK    2  A    between atoms: C2_3  and  C3_4 
ROOT
ATOM      1  C3  UNL d   1      -0.142  -0.321   0.575  0.00  0.00    -0.075 A 
ATOM      2  C4  UNL d   1      -1.186   0.361   1.218  0.00  0.00     0.002 A 
ATOM      3  C5  UNL d   1      -2.475   0.347   0.685  0.00  0.00     0.002 A 
ATOM      4  C6  UNL d   1      -2.735  -0.338  -0.500  0.00  0.00    -0.004 A 
ATOM      5  C7  UNL d   1      -1.702  -1.004  -1.156  0.00  0.00     0.002 A 
ATOM      6  C8  UNL d   1      -0.412  -0.996  -0.623  0.00  0.00     0.002 A 
ENDROOT
BRANCH   1   7
ATOM      7  C2  UNL d   1       1.249  -0.335   1.162  0.00  0.00     0.056 C 
BRANCH   7   8
ATOM      8  C1  UNL d   1       2.277   0.459   0.350  0.00  0.00     0.007 C 
ATOM      9  C   UNL d   1       2.924   1.588   1.140  0.00  0.00     0.009 C 
ENDBRANCH   7   8
ENDBRANCH   1   7
TORSDOF 2
ENDMDL
