MODEL 1
REMARK minimizedAffinity -0.911143243
REMARK minimizedRMSD -1
REMARK  2 active torsions:
REMARK  status: ('A' for Active; 'I' for Inactive)
REMARK    1  A    between atoms: C1_2  and  C2_3 
REMARK    2  A    between atoms: C2_3  and  C3_4 
ROOT
ATOM      1  C3  UNL d   1      -0.256  -0.911   2.961  0.00  0.00    -0.075 A 
ATOM      2  C4  UNL d   1      -1.553  -0.380   3.015  0.00  0.00     0.002 A 
ATOM      3  C5  UNL d   1      -2.110   0.243   1.898  0.00  0.00     0.002 A 
ATOM      4  C6  UNL d   1      -1.376   0.353   0.719  0.00  0.00    -0.004 A 
ATOM      5  C7  UNL d   1      -0.081  -0.156   0.659  0.00  0.00     0.002 A 
ATOM      6  C8  UNL d   1       0.478  -0.784   1.774  0.00  0.00     0.002 A 
ENDROOT
BRANCH   1   7
ATOM      7  C2  UNL d   1       0.342  -1.613   4.157  0.00  0.00     0.056 C 
BRANCH   7   8
ATOM      8  C1  UNL d   1       1.745  -1.123   4.530  0.00  0.00     0.007 C 
ATOM      9  C   UNL d   1       1.875  -0.734   5.997  0.00  0.00     0.009 C 
ENDBRANCH   7   8
ENDBRANCH   1   7
TORSDOF 2
ENDMDL
