MODEL 1
REMARK minimizedAffinity 0.785522997
REMARK minimizedRMSD -1
REMARK  2 active torsions:
REMARK  status: ('A' for Active; 'I' for Inactive)
REMARK    1  A    between atoms: C1_2  and  C2_3 
REMARK    2  A    between atoms: C2_3  and  C3_4 
ROOT
ATOM      1  C3  UNL d   1       0.092  -0.881   3.350  0.00  0.00    -0.075 A 
ATOM      2  C4  UNL d   1      -0.095  -1.801   4.392  0.00  0.00     0.002 A 
ATOM      3  C5  UNL d   1      -1.374  -2.067   4.882  0.00  0.00     0.002 A 
ATOM      4  C6  UNL d   1      -2.479  -1.410   4.344  0.00  0.00    -0.004 A 
ATOM      5  C7  UNL d   1      -2.303  -0.482   3.320  0.00  0.00     0.002 A 
ATOM      6  C8  UNL d   1      -1.025  -0.218   2.825  0.00  0.00     0.002 A 
ENDROOT
BRANCH   1   7
ATOM      7  C2  UNL d   1       1.471  -0.611   2.796  0.00  0.00     0.056 C 
BRANCH   7   8
ATOM      8  C1  UNL d   1       1.484  -0.248   1.307  0.00  0.00     0.007 C 
ATOM      9  C   UNL d   1       2.415   0.912   0.981  0.00  0.00     0.009 C 
ENDBRANCH   7   8
ENDBRANCH   1   7
TORSDOF 2
ENDMDL
