MODEL 1
REMARK minimizedAffinity 5.62495232
REMARK minimizedRMSD -1
REMARK  2 active torsions:
REMARK  status: ('A' for Active; 'I' for Inactive)
REMARK    1  A    between atoms: C1_2  and  C2_3 
REMARK    2  A    between atoms: C2_3  and  C3_4 
ROOT
ATOM      1  C3  UNL d   1       0.050   0.190   0.521  0.00  0.00    -0.075 A 
ATOM      2  C4  UNL d   1      -0.717   1.012   1.360  0.00  0.00     0.002 A 
ATOM      3  C5  UNL d   1      -2.088   1.160   1.145  0.00  0.00     0.002 A 
ATOM      4  C6  UNL d   1      -2.705   0.499   0.085  0.00  0.00    -0.004 A 
ATOM      5  C7  UNL d   1      -1.950  -0.307  -0.764  0.00  0.00     0.002 A 
ATOM      6  C8  UNL d   1      -0.579  -0.460  -0.549  0.00  0.00     0.002 A 
ENDROOT
BRANCH   1   7
ATOM      7  C2  UNL d   1       1.528   0.002   0.766  0.00  0.00     0.056 C 
BRANCH   7   8
ATOM      8  C1  UNL d   1       2.288   1.307   1.026  0.00  0.00     0.007 C 
ATOM      9  C   UNL d   1       3.221   1.696  -0.114  0.00  0.00     0.009 C 
ENDBRANCH   7   8
ENDBRANCH   1   7
TORSDOF 2
ENDMDL
