MODEL 1
REMARK minimizedAffinity -1.56517112
REMARK minimizedRMSD -1
REMARK  2 active torsions:
REMARK  status: ('A' for Active; 'I' for Inactive)
REMARK    1  A    between atoms: C1_2  and  C2_3 
REMARK    2  A    between atoms: C2_3  and  C3_4 
ROOT
ATOM      1  C3  UNL d   1       0.602  -0.218   1.689  0.00  0.00    -0.075 A 
ATOM      2  C4  UNL d   1      -0.427   0.245   0.856  0.00  0.00     0.002 A 
ATOM      3  C5  UNL d   1      -1.722   0.404   1.351  0.00  0.00     0.002 A 
ATOM      4  C6  UNL d   1      -2.006   0.092   2.678  0.00  0.00    -0.004 A 
ATOM      5  C7  UNL d   1      -0.996  -0.384   3.511  0.00  0.00     0.002 A 
ATOM      6  C8  UNL d   1       0.302  -0.540   3.020  0.00  0.00     0.002 A 
ENDROOT
BRANCH   1   7
ATOM      7  C2  UNL d   1       2.012  -0.364   1.168  0.00  0.00     0.056 C 
BRANCH   7   8
ATOM      8  C1  UNL d   1       2.297   0.454  -0.096  0.00  0.00     0.007 C 
ATOM      9  C   UNL d   1       3.374   1.512   0.104  0.00  0.00     0.009 C 
ENDBRANCH   7   8
ENDBRANCH   1   7
TORSDOF 2
ENDMDL
