MODEL 1
REMARK minimizedAffinity -1.68456125
REMARK minimizedRMSD -1
REMARK  1 active torsions:
REMARK  status: ('A' for Active; 'I' for Inactive)
REMARK    1  A    between atoms: C3_4  and  O_7 
ROOT
ATOM      1  C   UNL d   1      -1.244   3.726  -2.529  0.00  0.00    -0.033 A 
ATOM      2  C1  UNL d   1      -2.295   2.909  -2.108  0.00  0.00     0.039 A 
ATOM      3  C2  UNL d   1      -2.043   1.599  -1.698  0.00  0.00    -0.080 A 
ATOM      4  C3  UNL d   1      -0.737   1.118  -1.714  0.00  0.00     0.150 A 
ATOM      5  C4  UNL d   1       0.316   1.927  -2.129  0.00  0.00    -0.007 A 
ATOM      6  C5  UNL d   1       0.062   3.235  -2.539  0.00  0.00     0.039 A 
ENDROOT
BRANCH   4   7
ATOM      7  O   UNL d   1      -0.442  -0.156  -1.328  0.00  0.00    -0.526 OA
ATOM      8  H5  UNL d   1      -1.270  -0.607  -1.094  0.00  0.00     0.418 HD
ENDBRANCH   4   7
TORSDOF 1
ENDMDL
