MODEL 1
REMARK minimizedAffinity -4.12733984
REMARK minimizedRMSD -1
REMARK  1 active torsions:
REMARK  status: ('A' for Active; 'I' for Inactive)
REMARK    1  A    between atoms: C3_4  and  O_7 
ROOT
ATOM      1  C   UNL d   1       0.868  -1.381   2.199  0.00  0.00    -0.033 A 
ATOM      2  C1  UNL d   1      -0.398  -0.801   2.297  0.00  0.00     0.039 A 
ATOM      3  C2  UNL d   1      -0.981  -0.198   1.180  0.00  0.00    -0.080 A 
ATOM      4  C3  UNL d   1      -0.288  -0.184  -0.028  0.00  0.00     0.150 A 
ATOM      5  C4  UNL d   1       0.972  -0.763  -0.134  0.00  0.00    -0.007 A 
ATOM      6  C5  UNL d   1       1.552  -1.363   0.983  0.00  0.00     0.039 A 
ENDROOT
BRANCH   4   7
ATOM      7  O   UNL d   1      -0.814   0.396  -1.144  0.00  0.00    -0.526 OA
ATOM      8  H5  UNL d   1      -1.676   0.780  -0.914  0.00  0.00     0.418 HD
ENDBRANCH   4   7
TORSDOF 1
ENDMDL
