MODEL 1
REMARK minimizedAffinity -1.56967759
REMARK minimizedRMSD -1
REMARK  1 active torsions:
REMARK  status: ('A' for Active; 'I' for Inactive)
REMARK    1  A    between atoms: C3_4  and  O_7 
ROOT
ATOM      1  C   UNL d   1      -0.743  -0.147   0.457  0.00  0.00    -0.033 A 
ATOM      2  C1  UNL d   1       0.023   0.944   0.873  0.00  0.00     0.039 A 
ATOM      3  C2  UNL d   1       0.301   1.984  -0.015  0.00  0.00    -0.080 A 
ATOM      4  C3  UNL d   1      -0.192   1.922  -1.316  0.00  0.00     0.150 A 
ATOM      5  C4  UNL d   1      -0.958   0.840  -1.737  0.00  0.00    -0.007 A 
ATOM      6  C5  UNL d   1      -1.234  -0.198  -0.848  0.00  0.00     0.039 A 
ENDROOT
BRANCH   4   7
ATOM      7  O   UNL d   1       0.058   2.910  -2.221  0.00  0.00    -0.526 OA
ATOM      8  H5  UNL d   1       0.623   3.579  -1.798  0.00  0.00     0.418 HD
ENDBRANCH   4   7
TORSDOF 1
ENDMDL
