MODEL 1
REMARK minimizedAffinity -2.66592717
REMARK minimizedRMSD -1
REMARK  1 active torsions:
REMARK  status: ('A' for Active; 'I' for Inactive)
REMARK    1  A    between atoms: C3_4  and  O_7 
ROOT
ATOM      1  C   UNL d   1      -0.958   0.022   0.552  0.00  0.00    -0.033 A 
ATOM      2  C1  UNL d   1      -0.752   1.333   0.987  0.00  0.00     0.039 A 
ATOM      3  C2  UNL d   1      -0.526   2.350   0.058  0.00  0.00    -0.080 A 
ATOM      4  C3  UNL d   1      -0.510   2.045  -1.300  0.00  0.00     0.150 A 
ATOM      5  C4  UNL d   1      -0.718   0.742  -1.740  0.00  0.00    -0.007 A 
ATOM      6  C5  UNL d   1      -0.943  -0.273  -0.811  0.00  0.00     0.039 A 
ENDROOT
BRANCH   4   7
ATOM      7  O   UNL d   1      -0.288   3.004  -2.244  0.00  0.00    -0.526 OA
ATOM      8  H5  UNL d   1      -0.132   3.850  -1.792  0.00  0.00     0.418 HD
ENDBRANCH   4   7
TORSDOF 1
ENDMDL
