MODEL 1
REMARK minimizedAffinity -1.00872314
REMARK minimizedRMSD -1
REMARK  1 active torsions:
REMARK  status: ('A' for Active; 'I' for Inactive)
REMARK    1  A    between atoms: C3_4  and  O_7 
ROOT
ATOM      1  C   UNL d   1      -0.968  -0.264   1.314  0.00  0.00    -0.033 A 
ATOM      2  C1  UNL d   1      -0.917   0.037  -0.048  0.00  0.00     0.039 A 
ATOM      3  C2  UNL d   1       0.160  -0.400  -0.822  0.00  0.00    -0.080 A 
ATOM      4  C3  UNL d   1       1.178  -1.136  -0.223  0.00  0.00     0.150 A 
ATOM      5  C4  UNL d   1       1.132  -1.443   1.133  0.00  0.00    -0.007 A 
ATOM      6  C5  UNL d   1       0.056  -1.005   1.905  0.00  0.00     0.039 A 
ENDROOT
BRANCH   4   7
ATOM      7  O   UNL d   1       2.251  -1.580  -0.936  0.00  0.00    -0.526 OA
ATOM      8  H5  UNL d   1       2.162  -1.269  -1.852  0.00  0.00     0.418 HD
ENDBRANCH   4   7
TORSDOF 1
ENDMDL
