MODEL 1
REMARK minimizedAffinity -3.75445104
REMARK minimizedRMSD -1
REMARK  1 active torsions:
REMARK  status: ('A' for Active; 'I' for Inactive)
REMARK    1  A    between atoms: C3_4  and  O_7 
ROOT
ATOM      1  C   UNL d   1      -1.094   0.058   1.122  0.00  0.00    -0.033 A 
ATOM      2  C1  UNL d   1      -0.297  -0.745   1.940  0.00  0.00     0.039 A 
ATOM      3  C2  UNL d   1       0.760  -1.474   1.390  0.00  0.00    -0.080 A 
ATOM      4  C3  UNL d   1       1.009  -1.389   0.023  0.00  0.00     0.150 A 
ATOM      5  C4  UNL d   1       0.222  -0.588  -0.797  0.00  0.00    -0.007 A 
ATOM      6  C5  UNL d   1      -0.834   0.138  -0.246  0.00  0.00     0.039 A 
ENDROOT
BRANCH   4   7
ATOM      7  O   UNL d   1       2.026  -2.085  -0.560  0.00  0.00    -0.526 OA
ATOM      8  H5  UNL d   1       2.467  -2.617   0.124  0.00  0.00     0.418 HD
ENDBRANCH   4   7
TORSDOF 1
ENDMDL
