MODEL 1
REMARK minimizedAffinity -3.28927588
REMARK minimizedRMSD -1
REMARK  1 active torsions:
REMARK  status: ('A' for Active; 'I' for Inactive)
REMARK    1  A    between atoms: C3_4  and  O_7 
ROOT
ATOM      1  C   UNL d   1      -0.491   3.569  -2.299  0.00  0.00    -0.033 A 
ATOM      2  C1  UNL d   1      -1.469   2.862  -1.597  0.00  0.00     0.039 A 
ATOM      3  C2  UNL d   1      -1.404   1.470  -1.516  0.00  0.00    -0.080 A 
ATOM      4  C3  UNL d   1      -0.357   0.797  -2.139  0.00  0.00     0.150 A 
ATOM      5  C4  UNL d   1       0.624   1.495  -2.837  0.00  0.00    -0.007 A 
ATOM      6  C5  UNL d   1       0.556   2.886  -2.918  0.00  0.00     0.039 A 
ENDROOT
BRANCH   4   7
ATOM      7  O   UNL d   1      -0.254  -0.561  -2.092  0.00  0.00    -0.526 OA
ATOM      8  H5  UNL d   1      -1.016  -0.911  -1.601  0.00  0.00     0.418 HD
ENDBRANCH   4   7
TORSDOF 1
ENDMDL
