MODEL 1
REMARK minimizedAffinity -1.98907912
REMARK minimizedRMSD -1
REMARK  1 active torsions:
REMARK  status: ('A' for Active; 'I' for Inactive)
REMARK    1  A    between atoms: C3_4  and  O_7 
ROOT
ATOM      1  C   UNL d   1      -0.511  -0.787   1.193  0.00  0.00    -0.033 A 
ATOM      2  C1  UNL d   1       0.270  -0.961   0.048  0.00  0.00     0.039 A 
ATOM      3  C2  UNL d   1       0.061  -0.154  -1.072  0.00  0.00    -0.080 A 
ATOM      4  C3  UNL d   1      -0.930   0.822  -1.035  0.00  0.00     0.150 A 
ATOM      5  C4  UNL d   1      -1.709   1.004   0.103  0.00  0.00    -0.007 A 
ATOM      6  C5  UNL d   1      -1.500   0.197   1.220  0.00  0.00     0.039 A 
ENDROOT
BRANCH   4   7
ATOM      7  O   UNL d   1      -1.175   1.631  -2.105  0.00  0.00    -0.526 OA
ATOM      8  H5  UNL d   1      -0.580   1.371  -2.828  0.00  0.00     0.418 HD
ENDBRANCH   4   7
TORSDOF 1
ENDMDL
