MODEL 1
REMARK minimizedAffinity -3.27809143
REMARK minimizedRMSD -1
REMARK  0 active torsions:
REMARK  status: ('A' for Active; 'I' for Inactive)
ROOT
ATOM      1  C   UNL d   1       3.001  -1.967   2.158  0.00  0.00     0.020 A 
ATOM      2  C1  UNL d   1       3.579  -0.837   1.580  0.00  0.00     0.020 A 
ATOM      3  C2  UNL d   1       2.777   0.103   0.929  0.00  0.00     0.034 A 
ATOM      4  C3  UNL d   1       1.392  -0.085   0.854  0.00  0.00     0.017 A 
ATOM      5  C4  UNL d   1       0.812  -1.219   1.435  0.00  0.00     0.017 A 
ATOM      6  C5  UNL d   1       1.620  -2.157   2.085  0.00  0.00     0.034 A 
ATOM      7 Cl   UNL d   1      -0.889  -1.519   1.383  0.00  0.00    -0.070 Cl
ATOM      8 Cl1  UNL d   1       0.462   1.118   0.034  0.00  0.00    -0.070 Cl
ENDROOT
TORSDOF 0
ENDMDL
