MODEL 1
REMARK minimizedAffinity 3.27074599
REMARK minimizedRMSD -1
REMARK  0 active torsions:
REMARK  status: ('A' for Active; 'I' for Inactive)
ROOT
ATOM      1  C   UNL d   1      -1.485   0.400   0.262  0.00  0.00     0.020 A 
ATOM      2  C1  UNL d   1      -0.438   1.266  -0.050  0.00  0.00     0.020 A 
ATOM      3  C2  UNL d   1       0.878   0.801  -0.046  0.00  0.00     0.034 A 
ATOM      4  C3  UNL d   1       1.152  -0.535   0.271  0.00  0.00     0.017 A 
ATOM      5  C4  UNL d   1       0.100  -1.404   0.585  0.00  0.00     0.017 A 
ATOM      6  C5  UNL d   1      -1.216  -0.932   0.579  0.00  0.00     0.034 A 
ATOM      7 Cl   UNL d   1       0.359  -3.065   0.986  0.00  0.00    -0.070 Cl
ATOM      8 Cl1  UNL d   1       2.803  -1.042   0.257  0.00  0.00    -0.070 Cl
ENDROOT
TORSDOF 0
ENDMDL
