MODEL 1
REMARK minimizedAffinity -0.846244037
REMARK minimizedRMSD -1
REMARK  0 active torsions:
REMARK  status: ('A' for Active; 'I' for Inactive)
ROOT
ATOM      1  C   UNL d   1       0.257   1.551   0.203  0.00  0.00     0.020 A 
ATOM      2  C1  UNL d   1      -0.744   0.582   0.262  0.00  0.00     0.020 A 
ATOM      3  C2  UNL d   1      -0.468  -0.674   0.805  0.00  0.00     0.034 A 
ATOM      4  C3  UNL d   1       0.811  -0.966   1.291  0.00  0.00     0.017 A 
ATOM      5  C4  UNL d   1       1.816   0.007   1.231  0.00  0.00     0.017 A 
ATOM      6  C5  UNL d   1       1.534   1.264   0.686  0.00  0.00     0.034 A 
ATOM      7 Cl   UNL d   1       3.419  -0.279   1.811  0.00  0.00    -0.070 Cl
ATOM      8 Cl1  UNL d   1       1.081  -2.540   1.950  0.00  0.00    -0.070 Cl
ENDROOT
TORSDOF 0
ENDMDL
