MODEL 1
REMARK minimizedAffinity -1.33461595
REMARK minimizedRMSD -1
REMARK  0 active torsions:
REMARK  status: ('A' for Active; 'I' for Inactive)
ROOT
ATOM      1  C   UNL d   1      -0.676  -0.606   0.725  0.00  0.00     0.020 A 
ATOM      2  C1  UNL d   1       0.068   0.265  -0.069  0.00  0.00     0.020 A 
ATOM      3  C2  UNL d   1      -0.368   0.581  -1.357  0.00  0.00     0.034 A 
ATOM      4  C3  UNL d   1      -1.553   0.026  -1.855  0.00  0.00     0.017 A 
ATOM      5  C4  UNL d   1      -2.299  -0.849  -1.057  0.00  0.00     0.017 A 
ATOM      6  C5  UNL d   1      -1.857  -1.162   0.232  0.00  0.00     0.034 A 
ATOM      7 Cl   UNL d   1      -3.770  -1.574  -1.602  0.00  0.00    -0.070 Cl
ATOM      8 Cl1  UNL d   1      -2.033   0.461  -3.457  0.00  0.00    -0.070 Cl
ENDROOT
TORSDOF 0
ENDMDL
