MODEL 1
REMARK minimizedAffinity -0.207018659
REMARK minimizedRMSD -1
REMARK  0 active torsions:
REMARK  status: ('A' for Active; 'I' for Inactive)
ROOT
ATOM      1  C   UNL d   1       3.044  -0.584   0.736  0.00  0.00     0.020 A 
ATOM      2  C1  UNL d   1       2.966   0.465   1.651  0.00  0.00     0.020 A 
ATOM      3  C2  UNL d   1       1.761   1.147   1.830  0.00  0.00     0.034 A 
ATOM      4  C3  UNL d   1       0.629   0.782   1.092  0.00  0.00     0.017 A 
ATOM      5  C4  UNL d   1       0.708  -0.271   0.174  0.00  0.00     0.017 A 
ATOM      6  C5  UNL d   1       1.918  -0.951  -0.001  0.00  0.00     0.034 A 
ATOM      7 Cl   UNL d   1      -0.646  -0.780  -0.773  0.00  0.00    -0.070 Cl
ATOM      8 Cl1  UNL d   1      -0.829   1.669   1.365  0.00  0.00    -0.070 Cl
ENDROOT
TORSDOF 0
ENDMDL
