MODEL 1
REMARK minimizedAffinity -0.765701652
REMARK minimizedRMSD -1
REMARK  0 active torsions:
REMARK  status: ('A' for Active; 'I' for Inactive)
ROOT
ATOM      1  C   UNL d   1      -0.184  -0.838  -0.517  0.00  0.00     0.020 A 
ATOM      2  C1  UNL d   1       0.918  -1.355   0.164  0.00  0.00     0.020 A 
ATOM      3  C2  UNL d   1       1.696  -0.520   0.969  0.00  0.00     0.034 A 
ATOM      4  C3  UNL d   1       1.374   0.836   1.095  0.00  0.00     0.017 A 
ATOM      5  C4  UNL d   1       0.268   1.354   0.411  0.00  0.00     0.017 A 
ATOM      6  C5  UNL d   1      -0.508   0.513  -0.393  0.00  0.00     0.034 A 
ATOM      7 Cl   UNL d   1      -0.192   3.017   0.517  0.00  0.00    -0.070 Cl
ATOM      8 Cl1  UNL d   1       2.380   1.810   2.107  0.00  0.00    -0.070 Cl
ENDROOT
TORSDOF 0
ENDMDL
