MODEL 1
REMARK minimizedAffinity 16.9814854
REMARK minimizedRMSD -1
REMARK  0 active torsions:
REMARK  status: ('A' for Active; 'I' for Inactive)
ROOT
ATOM      1  C2' OXE d   1       0.102  -4.478  -4.766  0.00  0.00     0.078 C 
ATOM      2  C1' OXE d   1      -1.265  -2.319  -5.929  0.00  0.00     0.078 C 
ATOM      3  C1  OXE d   1      -2.038  -3.591  -5.683  0.00  0.00    -0.078 A 
ATOM      4  C2  OXE d   1      -1.349  -4.657  -5.157  0.00  0.00    -0.078 A 
ATOM      5  C3  OXE d   1      -2.027  -5.836  -4.860  0.00  0.00     0.003 A 
ATOM      6  C4  OXE d   1      -3.366  -5.998  -5.233  0.00  0.00    -0.002 A 
ATOM      7  C5  OXE d   1      -4.076  -4.937  -5.807  0.00  0.00    -0.002 A 
ATOM      8  C6  OXE d   1      -3.439  -3.716  -5.999  0.00  0.00     0.003 A 
ENDROOT
TORSDOF 0
ENDMDL
