MODEL 1
REMARK minimizedAffinity 19.6093826
REMARK minimizedRMSD -1
REMARK  0 active torsions:
REMARK  status: ('A' for Active; 'I' for Inactive)
ROOT
ATOM      1  C2' OXE d   1      -1.348   2.604   1.325  0.00  0.00     0.078 C 
ATOM      2  C1' OXE d   1      -2.311   1.126  -0.860  0.00  0.00     0.078 C 
ATOM      3  C1  OXE d   1      -1.154   2.064  -1.099  0.00  0.00    -0.078 A 
ATOM      4  C2  OXE d   1      -0.720   2.817  -0.036  0.00  0.00    -0.078 A 
ATOM      5  C3  OXE d   1       0.379   3.657  -0.189  0.00  0.00     0.003 A 
ATOM      6  C4  OXE d   1       0.948   3.857  -1.452  0.00  0.00    -0.002 A 
ATOM      7  C5  OXE d   1       0.495   3.129  -2.558  0.00  0.00    -0.002 A 
ATOM      8  C6  OXE d   1      -0.525   2.199  -2.390  0.00  0.00     0.003 A 
ENDROOT
TORSDOF 0
ENDMDL
