MODEL 1
REMARK minimizedAffinity 5.11885595
REMARK minimizedRMSD -1
REMARK  0 active torsions:
REMARK  status: ('A' for Active; 'I' for Inactive)
ROOT
ATOM      1  C2' OXE d   1      -2.754   1.228   3.044  0.00  0.00     0.078 C 
ATOM      2  C1' OXE d   1      -2.240   3.120   1.035  0.00  0.00     0.078 C 
ATOM      3  C1  OXE d   1      -1.072   2.334   1.576  0.00  0.00    -0.078 A 
ATOM      4  C2  OXE d   1      -1.326   1.443   2.592  0.00  0.00    -0.078 A 
ATOM      5  C3  OXE d   1      -0.294   0.653   3.089  0.00  0.00     0.003 A 
ATOM      6  C4  OXE d   1       1.026   0.865   2.672  0.00  0.00    -0.002 A 
ATOM      7  C5  OXE d   1       1.312   1.795   1.667  0.00  0.00    -0.002 A 
ATOM      8  C6  OXE d   1       0.271   2.506   1.080  0.00  0.00     0.003 A 
ENDROOT
TORSDOF 0
ENDMDL
