MODEL 1
REMARK minimizedAffinity 3.70002007
REMARK minimizedRMSD -1
REMARK  0 active torsions:
REMARK  status: ('A' for Active; 'I' for Inactive)
ROOT
ATOM      1  C2' OXE d   1       2.948  -1.106  -2.993  0.00  0.00     0.078 C 
ATOM      2  C1' OXE d   1       3.267  -3.329  -1.309  0.00  0.00     0.078 C 
ATOM      3  C1  OXE d   1       4.188  -3.209  -2.497  0.00  0.00    -0.078 A 
ATOM      4  C2  OXE d   1       3.994  -2.142  -3.342  0.00  0.00    -0.078 A 
ATOM      5  C3  OXE d   1       4.851  -1.954  -4.423  0.00  0.00     0.003 A 
ATOM      6  C4  OXE d   1       5.810  -2.923  -4.744  0.00  0.00    -0.002 A 
ATOM      7  C5  OXE d   1       5.997  -4.037  -3.919  0.00  0.00    -0.002 A 
ATOM      8  C6  OXE d   1       5.225  -4.173  -2.771  0.00  0.00     0.003 A 
ENDROOT
TORSDOF 0
ENDMDL
