MODEL 1
REMARK minimizedAffinity 1.16511285
REMARK minimizedRMSD -1
REMARK  0 active torsions:
REMARK  status: ('A' for Active; 'I' for Inactive)
ROOT
ATOM      1  C2' OXE d   1       0.668   0.713  -1.249  0.00  0.00     0.078 C 
ATOM      2  C1' OXE d   1       0.710   3.250  -0.049  0.00  0.00     0.078 C 
ATOM      3  C1  OXE d   1       0.547   2.050   0.850  0.00  0.00    -0.078 A 
ATOM      4  C2  OXE d   1       0.481   0.816   0.250  0.00  0.00    -0.078 A 
ATOM      5  C3  OXE d   1       0.386  -0.329   1.036  0.00  0.00     0.003 A 
ATOM      6  C4  OXE d   1       0.203  -0.225   2.420  0.00  0.00    -0.002 A 
ATOM      7  C5  OXE d   1       0.227   1.026   3.048  0.00  0.00    -0.002 A 
ATOM      8  C6  OXE d   1       0.441   2.167   2.283  0.00  0.00     0.003 A 
ENDROOT
TORSDOF 0
ENDMDL
