MODEL 1
REMARK minimizedAffinity 2.07312655
REMARK minimizedRMSD -1
REMARK  0 active torsions:
REMARK  status: ('A' for Active; 'I' for Inactive)
ROOT
ATOM      1  C2' OXE d   1      -0.102   3.972  -1.194  0.00  0.00     0.078 C 
ATOM      2  C1' OXE d   1      -0.527   2.364   1.067  0.00  0.00     0.078 C 
ATOM      3  C1  OXE d   1      -1.343   3.625   0.938  0.00  0.00    -0.078 A 
ATOM      4  C2  OXE d   1      -1.095   4.430  -0.148  0.00  0.00    -0.078 A 
ATOM      5  C3  OXE d   1      -1.858   5.578  -0.344  0.00  0.00     0.003 A 
ATOM      6  C4  OXE d   1      -2.768   6.000   0.633  0.00  0.00    -0.002 A 
ATOM      7  C5  OXE d   1      -3.007   5.215   1.766  0.00  0.00    -0.002 A 
ATOM      8  C6  OXE d   1      -2.336   4.006   1.912  0.00  0.00     0.003 A 
ENDROOT
TORSDOF 0
ENDMDL
