MODEL 1
REMARK minimizedAffinity 16.6390381
REMARK minimizedRMSD -1
REMARK  0 active torsions:
REMARK  status: ('A' for Active; 'I' for Inactive)
ROOT
ATOM      1  C2' OXE d   1       0.190   3.535  -1.078  0.00  0.00     0.078 C 
ATOM      2  C1' OXE d   1       0.690   1.574   0.868  0.00  0.00     0.078 C 
ATOM      3  C1  OXE d   1      -0.526   2.449   1.046  0.00  0.00    -0.078 A 
ATOM      4  C2  OXE d   1      -0.737   3.436   0.114  0.00  0.00    -0.078 A 
ATOM      5  C3  OXE d   1      -1.873   4.235   0.201  0.00  0.00     0.003 A 
ATOM      6  C4  OXE d   1      -2.720   4.145   1.312  0.00  0.00    -0.002 A 
ATOM      7  C5  OXE d   1      -2.501   3.172   2.294  0.00  0.00    -0.002 A 
ATOM      8  C6  OXE d   1      -1.435   2.291   2.154  0.00  0.00     0.003 A 
ENDROOT
TORSDOF 0
ENDMDL
