MODEL 1
REMARK minimizedAffinity 5.72159958
REMARK minimizedRMSD -1
REMARK  3 active torsions:
REMARK  status: ('A' for Active; 'I' for Inactive)
REMARK    1  A    between atoms: C3'_2  and  C2'_3 
REMARK    2  A    between atoms: C2'_3  and  C1'_4 
REMARK    3  A    between atoms: C1'_4  and  C1_5 
ROOT
ATOM      1  C1  N4B d   1       1.491   1.170  -1.019  0.00  0.00    -0.075 A 
ATOM      2  C2  N4B d   1       1.417   1.595   0.326  0.00  0.00     0.002 A 
ATOM      3  C3  N4B d   1       1.006   2.871   0.621  0.00  0.00     0.002 A 
ATOM      4  C4  N4B d   1       0.682   3.743  -0.408  0.00  0.00    -0.004 A 
ATOM      5  C5  N4B d   1       0.731   3.316  -1.703  0.00  0.00     0.002 A 
ATOM      6  C6  N4B d   1       1.139   2.035  -2.014  0.00  0.00     0.002 A 
ENDROOT
BRANCH   1   7
ATOM      7  C1' N4B d   1       2.017  -0.188  -1.395  0.00  0.00     0.057 C 
BRANCH   7   8
ATOM      8  C2' N4B d   1       2.460  -0.921  -0.132  0.00  0.00     0.009 C 
BRANCH   8   9
ATOM      9  C3' N4B d   1       3.973  -1.011  -0.029  0.00  0.00     0.004 C 
ATOM     10  C4' N4B d   1       4.455  -2.403   0.248  0.00  0.00     0.003 C 
ENDBRANCH   8   9
ENDBRANCH   7   8
ENDBRANCH   1   7
TORSDOF 3
ENDMDL
