MODEL 1
REMARK minimizedAffinity -0.0334106497
REMARK minimizedRMSD -1
REMARK  3 active torsions:
REMARK  status: ('A' for Active; 'I' for Inactive)
REMARK    1  A    between atoms: C3'_2  and  C2'_3 
REMARK    2  A    between atoms: C2'_3  and  C1'_4 
REMARK    3  A    between atoms: C1'_4  and  C1_5 
ROOT
ATOM      1  C1  N4B d   1       0.966   1.369  -1.046  0.00  0.00    -0.075 A 
ATOM      2  C2  N4B d   1       1.953   0.391  -0.793  0.00  0.00     0.002 A 
ATOM      3  C3  N4B d   1       2.132  -0.092   0.480  0.00  0.00     0.002 A 
ATOM      4  C4  N4B d   1       1.351   0.401   1.515  0.00  0.00    -0.004 A 
ATOM      5  C5  N4B d   1       0.383   1.327   1.258  0.00  0.00     0.002 A 
ATOM      6  C6  N4B d   1       0.190   1.817  -0.017  0.00  0.00     0.002 A 
ENDROOT
BRANCH   1   7
ATOM      7  C1' N4B d   1       0.792   1.988  -2.406  0.00  0.00     0.057 C 
BRANCH   7   8
ATOM      8  C2' N4B d   1       0.739   3.506  -2.261  0.00  0.00     0.009 C 
BRANCH   8   9
ATOM      9  C3' N4B d   1       1.713   4.012  -1.211  0.00  0.00     0.004 C 
ATOM     10  C4' N4B d   1       1.782   5.509  -1.156  0.00  0.00     0.003 C 
ENDBRANCH   8   9
ENDBRANCH   7   8
ENDBRANCH   1   7
TORSDOF 3
ENDMDL
