MODEL 1
REMARK minimizedAffinity -0.723054886
REMARK minimizedRMSD -1
REMARK  3 active torsions:
REMARK  status: ('A' for Active; 'I' for Inactive)
REMARK    1  A    between atoms: C3'_2  and  C2'_3 
REMARK    2  A    between atoms: C2'_3  and  C1'_4 
REMARK    3  A    between atoms: C1'_4  and  C1_5 
ROOT
ATOM      1  C1  N4B d   1      -2.640   2.424   4.821  0.00  0.00    -0.075 A 
ATOM      2  C2  N4B d   1      -4.045   2.297   4.747  0.00  0.00     0.002 A 
ATOM      3  C3  N4B d   1      -4.628   1.770   3.621  0.00  0.00     0.002 A 
ATOM      4  C4  N4B d   1      -3.833   1.383   2.553  0.00  0.00    -0.004 A 
ATOM      5  C5  N4B d   1      -2.475   1.486   2.642  0.00  0.00     0.002 A 
ATOM      6  C6  N4B d   1      -1.875   2.010   3.770  0.00  0.00     0.002 A 
ENDROOT
BRANCH   1   7
ATOM      7  C1' N4B d   1      -1.962   3.073   5.996  0.00  0.00     0.057 C 
BRANCH   7   8
ATOM      8  C2' N4B d   1      -2.284   4.564   6.000  0.00  0.00     0.009 C 
BRANCH   8   9
ATOM      9  C3' N4B d   1      -1.287   5.363   5.178  0.00  0.00     0.004 C 
ATOM     10  C4' N4B d   1      -1.907   5.996   3.968  0.00  0.00     0.003 C 
ENDBRANCH   8   9
ENDBRANCH   7   8
ENDBRANCH   1   7
TORSDOF 3
ENDMDL
