MODEL 1
REMARK minimizedAffinity 1.16625845
REMARK minimizedRMSD -1
REMARK  3 active torsions:
REMARK  status: ('A' for Active; 'I' for Inactive)
REMARK    1  A    between atoms: C3'_2  and  C2'_3 
REMARK    2  A    between atoms: C2'_3  and  C1'_4 
REMARK    3  A    between atoms: C1'_4  and  C1_5 
ROOT
ATOM      1  C1  N4B d   1       1.613   1.063   1.323  0.00  0.00    -0.075 A 
ATOM      2  C2  N4B d   1       1.892  -0.170   0.695  0.00  0.00     0.002 A 
ATOM      3  C3  N4B d   1       1.465  -0.398  -0.590  0.00  0.00     0.002 A 
ATOM      4  C4  N4B d   1       0.743   0.580  -1.257  0.00  0.00    -0.004 A 
ATOM      5  C5  N4B d   1       0.499   1.779  -0.652  0.00  0.00     0.002 A 
ATOM      6  C6  N4B d   1       0.926   2.023   0.638  0.00  0.00     0.002 A 
ENDROOT
BRANCH   1   7
ATOM      7  C1' N4B d   1       1.985   1.327   2.757  0.00  0.00     0.057 C 
BRANCH   7   8
ATOM      8  C2' N4B d   1       0.897   0.767   3.668  0.00  0.00     0.009 C 
BRANCH   8   9
ATOM      9  C3' N4B d   1       1.470   0.195   4.953  0.00  0.00     0.004 C 
ATOM     10  C4' N4B d   1       0.414  -0.115   5.972  0.00  0.00     0.003 C 
ENDBRANCH   8   9
ENDBRANCH   7   8
ENDBRANCH   1   7
TORSDOF 3
ENDMDL
