MODEL 1
REMARK minimizedAffinity -3.15026999
REMARK minimizedRMSD -1
REMARK  3 active torsions:
REMARK  status: ('A' for Active; 'I' for Inactive)
REMARK    1  A    between atoms: C3'_2  and  C2'_3 
REMARK    2  A    between atoms: C2'_3  and  C1'_4 
REMARK    3  A    between atoms: C1'_4  and  C1_5 
ROOT
ATOM      1  C1  N4B d   1       0.823   0.824  -1.552  0.00  0.00    -0.075 A 
ATOM      2  C2  N4B d   1       0.364   2.008  -0.934  0.00  0.00     0.002 A 
ATOM      3  C3  N4B d   1       0.754   2.309   0.348  0.00  0.00     0.002 A 
ATOM      4  C4  N4B d   1       1.584   1.436   1.035  0.00  0.00    -0.004 A 
ATOM      5  C5  N4B d   1       2.044   0.307   0.422  0.00  0.00     0.002 A 
ATOM      6  C6  N4B d   1       1.663  -0.006  -0.867  0.00  0.00     0.002 A 
ENDROOT
BRANCH   1   7
ATOM      7  C1' N4B d   1       0.356   0.410  -2.920  0.00  0.00     0.057 C 
BRANCH   7   8
ATOM      8  C2' N4B d   1       1.518  -0.227  -3.675  0.00  0.00     0.009 C 
BRANCH   8   9
ATOM      9  C3' N4B d   1       1.048  -1.299  -4.644  0.00  0.00     0.004 C 
ATOM     10  C4' N4B d   1       2.123  -1.736  -5.593  0.00  0.00     0.003 C 
ENDBRANCH   8   9
ENDBRANCH   7   8
ENDBRANCH   1   7
TORSDOF 3
ENDMDL
