MODEL 1
REMARK minimizedAffinity -4.28703594
REMARK minimizedRMSD -1
REMARK  0 active torsions:
REMARK  status: ('A' for Active; 'I' for Inactive)
ROOT
ATOM      1  C1  DEN d   1       0.547  -0.187  -0.799  0.00  0.00     0.130 A 
ATOM      2  C2  DEN d   1       1.479  -0.706   0.199  0.00  0.00    -0.031 A 
ATOM      3  C3  DEN d   1       0.966  -0.343   1.535  0.00  0.00     0.027 A 
ATOM      4  C4  DEN d   1      -1.172   0.959   2.154  0.00  0.00     0.027 A 
ATOM      5  C5  DEN d   1      -2.275   1.613   1.648  0.00  0.00    -0.003 A 
ATOM      6  C6  DEN d   1      -2.494   1.740   0.302  0.00  0.00     0.001 A 
ATOM      7  C7  DEN d   1      -1.622   1.167  -0.585  0.00  0.00     0.017 A 
ATOM      8  C8  DEN d   1      -0.504   0.513  -0.083  0.00  0.00    -0.094 A 
ATOM      9  C9  DEN d   1      -0.306   0.384   1.281  0.00  0.00    -0.072 A 
ENDROOT
TORSDOF 0
ENDMDL
