MODEL 1
REMARK minimizedAffinity -4.19749594
REMARK minimizedRMSD -1
REMARK  0 active torsions:
REMARK  status: ('A' for Active; 'I' for Inactive)
ROOT
ATOM      1  C1  DEN d   1       0.622  -1.135  -0.187  0.00  0.00     0.130 A 
ATOM      2  C2  DEN d   1       0.275  -0.950  -1.594  0.00  0.00    -0.031 A 
ATOM      3  C3  DEN d   1      -0.642   0.203  -1.690  0.00  0.00     0.027 A 
ATOM      4  C4  DEN d   1      -1.551   1.715   0.193  0.00  0.00     0.027 A 
ATOM      5  C5  DEN d   1      -1.546   1.941   1.551  0.00  0.00    -0.003 A 
ATOM      6  C6  DEN d   1      -0.852   1.144   2.422  0.00  0.00     0.001 A 
ATOM      7  C7  DEN d   1      -0.096   0.109   1.939  0.00  0.00     0.017 A 
ATOM      8  C8  DEN d   1      -0.101  -0.130   0.571  0.00  0.00    -0.094 A 
ATOM      9  C9  DEN d   1      -0.799   0.695  -0.294  0.00  0.00    -0.072 A 
ENDROOT
TORSDOF 0
ENDMDL
