MODEL 1
REMARK minimizedAffinity -5.63892841
REMARK minimizedRMSD -1
REMARK  0 active torsions:
REMARK  status: ('A' for Active; 'I' for Inactive)
ROOT
ATOM      1  C1  DEN d   1      -1.440   2.273  -0.343  0.00  0.00     0.130 A 
ATOM      2  C2  DEN d   1      -2.211   2.341   0.896  0.00  0.00    -0.031 A 
ATOM      3  C3  DEN d   1      -1.739   1.261   1.786  0.00  0.00     0.027 A 
ATOM      4  C4  DEN d   1       0.102  -0.496   1.371  0.00  0.00     0.027 A 
ATOM      5  C5  DEN d   1       1.027  -0.960   0.462  0.00  0.00    -0.003 A 
ATOM      6  C6  DEN d   1       1.171  -0.404  -0.782  0.00  0.00     0.001 A 
ATOM      7  C7  DEN d   1       0.407   0.677  -1.134  0.00  0.00     0.017 A 
ATOM      8  C8  DEN d   1      -0.534   1.145  -0.226  0.00  0.00    -0.094 A 
ATOM      9  C9  DEN d   1      -0.655   0.578   1.031  0.00  0.00    -0.072 A 
ENDROOT
TORSDOF 0
ENDMDL
