MODEL 1
REMARK minimizedAffinity 2.13880658
REMARK minimizedRMSD -1
REMARK  0 active torsions:
REMARK  status: ('A' for Active; 'I' for Inactive)
ROOT
ATOM      1  C1  DEN d   1       1.222  -0.851  -0.326  0.00  0.00     0.130 A 
ATOM      2  C2  DEN d   1       0.537  -1.584   0.735  0.00  0.00    -0.031 A 
ATOM      3  C3  DEN d   1      -0.721  -0.874   1.041  0.00  0.00     0.027 A 
ATOM      4  C4  DEN d   1      -1.673   1.274  -0.022  0.00  0.00     0.027 A 
ATOM      5  C5  DEN d   1      -1.443   2.262  -0.955  0.00  0.00    -0.003 A 
ATOM      6  C6  DEN d   1      -0.303   2.300  -1.713  0.00  0.00     0.001 A 
ATOM      7  C7  DEN d   1       0.631   1.306  -1.584  0.00  0.00     0.017 A 
ATOM      8  C8  DEN d   1       0.410   0.311  -0.641  0.00  0.00    -0.094 A 
ATOM      9  C9  DEN d   1      -0.754   0.284   0.107  0.00  0.00    -0.072 A 
ENDROOT
TORSDOF 0
ENDMDL
