MODEL 1
REMARK minimizedAffinity -5.21000576
REMARK minimizedRMSD -1
REMARK  0 active torsions:
REMARK  status: ('A' for Active; 'I' for Inactive)
ROOT
ATOM      1  C1  DEN d   1      -0.935  -0.339  -1.551  0.00  0.00     0.130 A 
ATOM      2  C2  DEN d   1       0.081  -1.385  -1.476  0.00  0.00    -0.031 A 
ATOM      3  C3  DEN d   1       0.595  -1.424  -0.092  0.00  0.00     0.027 A 
ATOM      4  C4  DEN d   1      -0.084   0.023   1.932  0.00  0.00     0.027 A 
ATOM      5  C5  DEN d   1      -0.897   1.052   2.354  0.00  0.00    -0.003 A 
ATOM      6  C6  DEN d   1      -1.748   1.706   1.503  0.00  0.00     0.001 A 
ATOM      7  C7  DEN d   1      -1.839   1.309   0.195  0.00  0.00     0.017 A 
ATOM      8  C8  DEN d   1      -1.017   0.277  -0.239  0.00  0.00    -0.094 A 
ATOM      9  C9  DEN d   1      -0.172  -0.380   0.639  0.00  0.00    -0.072 A 
ENDROOT
TORSDOF 0
ENDMDL
