MODEL 1
REMARK minimizedAffinity -3.62285161
REMARK minimizedRMSD -1
REMARK  0 active torsions:
REMARK  status: ('A' for Active; 'I' for Inactive)
ROOT
ATOM      1  C1  DEN d   1      -0.000   2.022  -1.583  0.00  0.00     0.130 A 
ATOM      2  C2  DEN d   1      -0.769   3.260  -1.678  0.00  0.00    -0.031 A 
ATOM      3  C3  DEN d   1      -1.457   3.470  -0.388  0.00  0.00     0.027 A 
ATOM      4  C4  DEN d   1      -1.403   2.008   1.736  0.00  0.00     0.027 A 
ATOM      5  C5  DEN d   1      -0.899   0.853   2.292  0.00  0.00    -0.003 A 
ATOM      6  C6  DEN d   1      -0.094  -0.004   1.589  0.00  0.00     0.001 A 
ATOM      7  C7  DEN d   1       0.268   0.305   0.304  0.00  0.00     0.017 A 
ATOM      8  C8  DEN d   1      -0.243   1.464  -0.265  0.00  0.00    -0.094 A 
ATOM      9  C9  DEN d   1      -1.045   2.323   0.466  0.00  0.00    -0.072 A 
ENDROOT
TORSDOF 0
ENDMDL
