MODEL 1
REMARK minimizedAffinity -3.29624319
REMARK minimizedRMSD -1
REMARK  0 active torsions:
REMARK  status: ('A' for Active; 'I' for Inactive)
ROOT
ATOM      1  C1  DEN d   1       0.846  -1.491  -0.320  0.00  0.00     0.130 A 
ATOM      2  C2  DEN d   1       0.256  -1.219  -1.628  0.00  0.00    -0.031 A 
ATOM      3  C3  DEN d   1      -0.714  -0.117  -1.470  0.00  0.00     0.027 A 
ATOM      4  C4  DEN d   1      -1.353   1.191   0.659  0.00  0.00     0.027 A 
ATOM      5  C5  DEN d   1      -1.127   1.312   2.013  0.00  0.00    -0.003 A 
ATOM      6  C6  DEN d   1      -0.260   0.491   2.684  0.00  0.00     0.001 A 
ATOM      7  C7  DEN d   1       0.448  -0.458   1.995  0.00  0.00     0.017 A 
ATOM      8  C8  DEN d   1       0.219  -0.591   0.632  0.00  0.00    -0.094 A 
ATOM      9  C9  DEN d   1      -0.652   0.256  -0.031  0.00  0.00    -0.072 A 
ENDROOT
TORSDOF 0
ENDMDL
