MODEL 1
REMARK minimizedAffinity -4.39179373
REMARK minimizedRMSD -1
REMARK  0 active torsions:
REMARK  status: ('A' for Active; 'I' for Inactive)
ROOT
ATOM      1  C1  DEN d   1      -1.128   1.129   2.205  0.00  0.00     0.130 A 
ATOM      2  C2  DEN d   1      -1.938   2.249   1.735  0.00  0.00    -0.031 A 
ATOM      3  C3  DEN d   1      -1.600   2.494   0.319  0.00  0.00     0.027 A 
ATOM      4  C4  DEN d   1       0.087   1.251  -1.185  0.00  0.00     0.027 A 
ATOM      5  C5  DEN d   1       1.018   0.238  -1.228  0.00  0.00    -0.003 A 
ATOM      6  C6  DEN d   1       1.322  -0.521  -0.129  0.00  0.00     0.001 A 
ATOM      7  C7  DEN d   1       0.655  -0.308   1.049  0.00  0.00     0.017 A 
ATOM      8  C8  DEN d   1      -0.280   0.717   1.101  0.00  0.00    -0.094 A 
ATOM      9  C9  DEN d   1      -0.582   1.465  -0.024  0.00  0.00    -0.072 A 
ENDROOT
TORSDOF 0
ENDMDL
