MODEL 1
REMARK minimizedAffinity -1.36834204
REMARK minimizedRMSD -1
REMARK  0 active torsions:
REMARK  status: ('A' for Active; 'I' for Inactive)
ROOT
ATOM      1  C1  DEN d   1       1.186  -1.043  -1.103  0.00  0.00     0.130 A 
ATOM      2  C2  DEN d   1       0.641  -1.954  -0.100  0.00  0.00    -0.031 A 
ATOM      3  C3  DEN d   1      -0.457  -1.258   0.600  0.00  0.00     0.027 A 
ATOM      4  C4  DEN d   1      -1.365   1.127   0.226  0.00  0.00     0.027 A 
ATOM      5  C5  DEN d   1      -1.215   2.283  -0.507  0.00  0.00    -0.003 A 
ATOM      6  C6  DEN d   1      -0.240   2.423  -1.459  0.00  0.00     0.001 A 
ATOM      7  C7  DEN d   1       0.594   1.372  -1.735  0.00  0.00     0.017 A 
ATOM      8  C8  DEN d   1       0.454   0.206  -0.995  0.00  0.00    -0.094 A 
ATOM      9  C9  DEN d   1      -0.546   0.080  -0.045  0.00  0.00    -0.072 A 
ENDROOT
TORSDOF 0
ENDMDL
