MODEL 1
REMARK minimizedAffinity -3.61380792
REMARK minimizedRMSD -1
REMARK  0 active torsions:
REMARK  status: ('A' for Active; 'I' for Inactive)
ROOT
ATOM      1  C1  DEN d   1       1.542  -0.603  -0.514  0.00  0.00     0.130 A 
ATOM      2  C2  DEN d   1       1.035  -1.455  -1.586  0.00  0.00    -0.031 A 
ATOM      3  C3  DEN d   1      -0.439  -1.365  -1.581  0.00  0.00     0.027 A 
ATOM      4  C4  DEN d   1      -1.976   0.005  -0.029  0.00  0.00     0.027 A 
ATOM      5  C5  DEN d   1      -2.007   0.872   1.041  0.00  0.00    -0.003 A 
ATOM      6  C6  DEN d   1      -0.867   1.278   1.684  0.00  0.00     0.001 A 
ATOM      7  C7  DEN d   1       0.354   0.852   1.234  0.00  0.00     0.017 A 
ATOM      8  C8  DEN d   1       0.392  -0.028   0.160  0.00  0.00    -0.094 A 
ATOM      9  C9  DEN d   1      -0.770  -0.417  -0.484  0.00  0.00    -0.072 A 
ENDROOT
TORSDOF 0
ENDMDL
