MODEL 1
REMARK minimizedAffinity -4.61856031
REMARK minimizedRMSD -1
REMARK  0 active torsions:
REMARK  status: ('A' for Active; 'I' for Inactive)
ROOT
ATOM      1  C1  DEN d   1      -2.084   1.515   0.187  0.00  0.00     0.130 A 
ATOM      2  C2  DEN d   1      -2.602   1.260   1.528  0.00  0.00    -0.031 A 
ATOM      3  C3  DEN d   1      -1.581   0.497   2.274  0.00  0.00     0.027 A 
ATOM      4  C4  DEN d   1       0.740  -0.307   1.486  0.00  0.00     0.027 A 
ATOM      5  C5  DEN d   1       1.616  -0.340   0.424  0.00  0.00    -0.003 A 
ATOM      6  C6  DEN d   1       1.308   0.209  -0.793  0.00  0.00     0.001 A 
ATOM      7  C7  DEN d   1       0.112   0.855  -0.963  0.00  0.00     0.017 A 
ATOM      8  C8  DEN d   1      -0.779   0.886   0.101  0.00  0.00    -0.094 A 
ATOM      9  C9  DEN d   1      -0.445   0.335   1.327  0.00  0.00    -0.072 A 
ENDROOT
TORSDOF 0
ENDMDL
