MODEL 1
REMARK minimizedAffinity -3.53973746
REMARK minimizedRMSD -1
REMARK  0 active torsions:
REMARK  status: ('A' for Active; 'I' for Inactive)
ROOT
ATOM      1  C1  DEN d   1      -0.077  -0.368  -0.666  0.00  0.00     0.130 A 
ATOM      2  C2  DEN d   1       1.132  -0.746   0.061  0.00  0.00    -0.031 A 
ATOM      3  C3  DEN d   1       1.089  -0.098   1.387  0.00  0.00     0.027 A 
ATOM      4  C4  DEN d   1      -0.725   1.442   2.382  0.00  0.00     0.027 A 
ATOM      5  C5  DEN d   1      -1.931   2.059   2.137  0.00  0.00    -0.003 A 
ATOM      6  C6  DEN d   1      -2.583   1.939   0.938  0.00  0.00     0.001 A 
ATOM      7  C7  DEN d   1      -2.052   1.147  -0.046  0.00  0.00     0.017 A 
ATOM      8  C8  DEN d   1      -0.832   0.528   0.191  0.00  0.00    -0.094 A 
ATOM      9  C9  DEN d   1      -0.195   0.652   1.414  0.00  0.00    -0.072 A 
ENDROOT
TORSDOF 0
ENDMDL
