MODEL 1
REMARK minimizedAffinity -5.12907457
REMARK minimizedRMSD -1
REMARK  0 active torsions:
REMARK  status: ('A' for Active; 'I' for Inactive)
ROOT
ATOM      1  C1  DEN d   1       1.305   0.029  -0.308  0.00  0.00     0.130 A 
ATOM      2  C2  DEN d   1       1.136   0.905  -1.464  0.00  0.00    -0.031 A 
ATOM      3  C3  DEN d   1      -0.118   1.665  -1.282  0.00  0.00     0.027 A 
ATOM      4  C4  DEN d   1      -1.801   1.573   0.670  0.00  0.00     0.027 A 
ATOM      5  C5  DEN d   1      -2.091   0.972   1.875  0.00  0.00    -0.003 A 
ATOM      6  C6  DEN d   1      -1.294  -0.002   2.416  0.00  0.00     0.001 A 
ATOM      7  C7  DEN d   1      -0.142  -0.372   1.772  0.00  0.00     0.017 A 
ATOM      8  C8  DEN d   1       0.153   0.224   0.553  0.00  0.00    -0.094 A 
ATOM      9  C9  DEN d   1      -0.659   1.216   0.029  0.00  0.00    -0.072 A 
ENDROOT
TORSDOF 0
ENDMDL
