MODEL 1
REMARK minimizedAffinity -3.57101917
REMARK minimizedRMSD -1
REMARK  0 active torsions:
REMARK  status: ('A' for Active; 'I' for Inactive)
ROOT
ATOM      1  C1  DEN d   1      -0.218  -0.429  -1.848  0.00  0.00     0.130 A 
ATOM      2  C2  DEN d   1       0.345  -0.246  -0.513  0.00  0.00    -0.031 A 
ATOM      3  C3  DEN d   1       1.124  -1.454  -0.176  0.00  0.00     0.027 A 
ATOM      4  C4  DEN d   1       1.516  -3.578  -1.585  0.00  0.00     0.027 A 
ATOM      5  C5  DEN d   1       1.231  -4.200  -2.781  0.00  0.00    -0.003 A 
ATOM      6  C6  DEN d   1       0.423  -3.628  -3.727  0.00  0.00     0.001 A 
ATOM      7  C7  DEN d   1      -0.093  -2.378  -3.513  0.00  0.00     0.017 A 
ATOM      8  C8  DEN d   1       0.183  -1.747  -2.307  0.00  0.00    -0.094 A 
ATOM      9  C9  DEN d   1       1.013  -2.337  -1.368  0.00  0.00    -0.072 A 
ENDROOT
TORSDOF 0
ENDMDL
