MODEL 1
REMARK minimizedAffinity -2.71877074
REMARK minimizedRMSD -1
REMARK  0 active torsions:
REMARK  status: ('A' for Active; 'I' for Inactive)
ROOT
ATOM      1  C   UNL d   1       0.202  -1.804  -3.652  0.00  0.00     0.077 C 
ATOM      2  C1  UNL d   1      -0.193  -1.984  -2.217  0.00  0.00    -0.074 A 
ATOM      3  C2  UNL d   1      -0.696  -3.205  -1.757  0.00  0.00    -0.005 A 
ATOM      4  C3  UNL d   1      -1.051  -3.360  -0.417  0.00  0.00     0.006 A 
ATOM      5  C4  UNL d   1      -0.907  -2.297   0.475  0.00  0.00    -0.005 A 
ATOM      6  C5  UNL d   1      -0.405  -1.069   0.034  0.00  0.00    -0.074 A 
ATOM      7  C6  UNL d   1      -0.234   0.081   0.982  0.00  0.00     0.077 C 
ATOM      8  C7  UNL d   1      -0.044  -0.923  -1.312  0.00  0.00    -0.001 A 
ENDROOT
TORSDOF 0
ENDMDL
