MODEL 1
REMARK minimizedAffinity -4.43269587
REMARK minimizedRMSD -1
REMARK  0 active torsions:
REMARK  status: ('A' for Active; 'I' for Inactive)
ROOT
ATOM      1  C   UNL d   1      -0.326  -2.330  -2.418  0.00  0.00     0.077 C 
ATOM      2  C1  UNL d   1      -0.556  -1.623  -1.115  0.00  0.00    -0.074 A 
ATOM      3  C2  UNL d   1      -1.054  -2.310  -0.003  0.00  0.00    -0.005 A 
ATOM      4  C3  UNL d   1      -1.255  -1.641   1.205  0.00  0.00     0.006 A 
ATOM      5  C4  UNL d   1      -0.960  -0.282   1.312  0.00  0.00    -0.005 A 
ATOM      6  C5  UNL d   1      -0.460   0.421   0.211  0.00  0.00    -0.074 A 
ATOM      7  C6  UNL d   1      -0.129   1.881   0.313  0.00  0.00     0.077 C 
ATOM      8  C7  UNL d   1      -0.255  -0.259  -0.997  0.00  0.00    -0.001 A 
ENDROOT
TORSDOF 0
ENDMDL
