MODEL 1
REMARK minimizedAffinity -2.16276789
REMARK minimizedRMSD -1
REMARK  0 active torsions:
REMARK  status: ('A' for Active; 'I' for Inactive)
ROOT
ATOM      1  C   UNL d   1      -0.792  -2.950  -2.299  0.00  0.00     0.077 C 
ATOM      2  C1  UNL d   1      -0.679  -2.275  -0.964  0.00  0.00    -0.074 A 
ATOM      3  C2  UNL d   1      -0.792  -3.005   0.223  0.00  0.00    -0.005 A 
ATOM      4  C3  UNL d   1      -0.675  -2.365   1.456  0.00  0.00     0.006 A 
ATOM      5  C4  UNL d   1      -0.445  -0.990   1.516  0.00  0.00    -0.005 A 
ATOM      6  C5  UNL d   1      -0.328  -0.243   0.339  0.00  0.00    -0.074 A 
ATOM      7  C6  UNL d   1      -0.070   1.233   0.385  0.00  0.00     0.077 C 
ATOM      8  C7  UNL d   1      -0.439  -0.895  -0.897  0.00  0.00    -0.001 A 
ENDROOT
TORSDOF 0
ENDMDL
