MODEL 1
REMARK minimizedAffinity -2.29087138
REMARK minimizedRMSD -1
REMARK  0 active torsions:
REMARK  status: ('A' for Active; 'I' for Inactive)
ROOT
ATOM      1  C   UNL d   1      -0.451  -2.444  -2.027  0.00  0.00     0.077 C 
ATOM      2  C1  UNL d   1      -0.495  -1.582  -0.800  0.00  0.00    -0.074 A 
ATOM      3  C2  UNL d   1      -0.859  -2.116   0.440  0.00  0.00    -0.005 A 
ATOM      4  C3  UNL d   1      -0.887  -1.305   1.574  0.00  0.00     0.006 A 
ATOM      5  C4  UNL d   1      -0.550   0.046   1.480  0.00  0.00    -0.005 A 
ATOM      6  C5  UNL d   1      -0.182   0.597   0.249  0.00  0.00    -0.074 A 
ATOM      7  C6  UNL d   1       0.192   2.045   0.132  0.00  0.00     0.077 C 
ATOM      8  C7  UNL d   1      -0.150  -0.226  -0.885  0.00  0.00    -0.001 A 
ENDROOT
TORSDOF 0
ENDMDL
