MODEL 1
REMARK minimizedAffinity -3.57894802
REMARK minimizedRMSD -1
REMARK  0 active torsions:
REMARK  status: ('A' for Active; 'I' for Inactive)
ROOT
ATOM      1  C   UNL d   1       0.642   0.632   0.406  0.00  0.00     0.077 C 
ATOM      2  C1  UNL d   1       0.378  -0.757  -0.095  0.00  0.00    -0.074 A 
ATOM      3  C2  UNL d   1      -0.084  -1.756   0.768  0.00  0.00    -0.005 A 
ATOM      4  C3  UNL d   1      -0.334  -3.041   0.286  0.00  0.00     0.006 A 
ATOM      5  C4  UNL d   1      -0.124  -3.340  -1.061  0.00  0.00    -0.005 A 
ATOM      6  C5  UNL d   1       0.337  -2.354  -1.938  0.00  0.00    -0.074 A 
ATOM      7  C6  UNL d   1       0.557  -2.655  -3.391  0.00  0.00     0.077 C 
ATOM      8  C7  UNL d   1       0.579  -1.063  -1.448  0.00  0.00    -0.001 A 
ENDROOT
TORSDOF 0
ENDMDL
