MODEL 1
REMARK minimizedAffinity -3.59959006
REMARK minimizedRMSD -1
REMARK  0 active torsions:
REMARK  status: ('A' for Active; 'I' for Inactive)
ROOT
ATOM      1  C   UNL d   1       0.119   1.235  -0.093  0.00  0.00     0.077 C 
ATOM      2  C1  UNL d   1      -0.267  -0.214  -0.113  0.00  0.00    -0.074 A 
ATOM      3  C2  UNL d   1      -0.782  -0.836   1.029  0.00  0.00    -0.005 A 
ATOM      4  C3  UNL d   1      -1.146  -2.182   0.993  0.00  0.00     0.006 A 
ATOM      5  C4  UNL d   1      -0.999  -2.918  -0.184  0.00  0.00    -0.005 A 
ATOM      6  C5  UNL d   1      -0.487  -2.313  -1.336  0.00  0.00    -0.074 A 
ATOM      7  C6  UNL d   1      -0.332  -3.087  -2.611  0.00  0.00     0.077 C 
ATOM      8  C7  UNL d   1      -0.130  -0.958  -1.293  0.00  0.00    -0.001 A 
ENDROOT
TORSDOF 0
ENDMDL
