MODEL 1
REMARK minimizedAffinity -0.913045049
REMARK minimizedRMSD -1
REMARK  0 active torsions:
REMARK  status: ('A' for Active; 'I' for Inactive)
ROOT
ATOM      1  C   UNL d   1       2.272   3.345   1.098  0.00  0.00     0.077 C 
ATOM      2  C1  UNL d   1       1.181   2.412   0.662  0.00  0.00    -0.074 A 
ATOM      3  C2  UNL d   1       0.229   2.811  -0.282  0.00  0.00    -0.005 A 
ATOM      4  C3  UNL d   1      -0.774   1.930  -0.685  0.00  0.00     0.006 A 
ATOM      5  C4  UNL d   1      -0.835   0.643  -0.150  0.00  0.00    -0.005 A 
ATOM      6  C5  UNL d   1       0.109   0.225   0.794  0.00  0.00    -0.074 A 
ATOM      7  C6  UNL d   1       0.064  -1.158   1.372  0.00  0.00     0.077 C 
ATOM      8  C7  UNL d   1       1.118   1.115   1.189  0.00  0.00    -0.001 A 
ENDROOT
TORSDOF 0
ENDMDL
