MODEL 1
REMARK minimizedAffinity 0.240339398
REMARK minimizedRMSD -1
REMARK  0 active torsions:
REMARK  status: ('A' for Active; 'I' for Inactive)
ROOT
ATOM      1  C   UNL d   1       0.312   1.946  -0.766  0.00  0.00     0.077 C 
ATOM      2  C1  UNL d   1      -0.351   0.934   0.120  0.00  0.00    -0.074 A 
ATOM      3  C2  UNL d   1      -1.037   1.327   1.273  0.00  0.00    -0.005 A 
ATOM      4  C3  UNL d   1      -1.657   0.375   2.082  0.00  0.00     0.006 A 
ATOM      5  C4  UNL d   1      -1.598  -0.978   1.745  0.00  0.00    -0.005 A 
ATOM      6  C5  UNL d   1      -0.918  -1.390   0.595  0.00  0.00    -0.074 A 
ATOM      7  C6  UNL d   1      -0.853  -2.839   0.214  0.00  0.00     0.077 C 
ATOM      8  C7  UNL d   1      -0.303  -0.427  -0.216  0.00  0.00    -0.001 A 
ENDROOT
TORSDOF 0
ENDMDL
