MODEL 1
REMARK minimizedAffinity -4.47469378
REMARK minimizedRMSD -1
REMARK  0 active torsions:
REMARK  status: ('A' for Active; 'I' for Inactive)
ROOT
ATOM      1  C   UNL d   1       0.659   1.962   0.074  0.00  0.00     0.077 C 
ATOM      2  C1  UNL d   1      -0.143   0.769   0.500  0.00  0.00    -0.074 A 
ATOM      3  C2  UNL d   1      -1.199   0.900   1.408  0.00  0.00    -0.005 A 
ATOM      4  C3  UNL d   1      -1.942  -0.218   1.788  0.00  0.00     0.006 A 
ATOM      5  C4  UNL d   1      -1.638  -1.475   1.265  0.00  0.00    -0.005 A 
ATOM      6  C5  UNL d   1      -0.586  -1.625   0.356  0.00  0.00    -0.074 A 
ATOM      7  C6  UNL d   1      -0.251  -2.968  -0.223  0.00  0.00     0.077 C 
ATOM      8  C7  UNL d   1       0.152  -0.497  -0.026  0.00  0.00    -0.001 A 
ENDROOT
TORSDOF 0
ENDMDL
