MODEL 1
REMARK minimizedAffinity -3.97569323
REMARK minimizedRMSD -1
REMARK  0 active torsions:
REMARK  status: ('A' for Active; 'I' for Inactive)
ROOT
ATOM      1  C   UNL d   1      -0.026   1.736  -0.139  0.00  0.00     0.077 C 
ATOM      2  C1  UNL d   1      -0.337   0.270  -0.094  0.00  0.00    -0.074 A 
ATOM      3  C2  UNL d   1      -0.799  -0.331   1.081  0.00  0.00    -0.005 A 
ATOM      4  C3  UNL d   1      -1.094  -1.694   1.105  0.00  0.00     0.006 A 
ATOM      5  C4  UNL d   1      -0.929  -2.469  -0.043  0.00  0.00    -0.005 A 
ATOM      6  C5  UNL d   1      -0.469  -1.886  -1.228  0.00  0.00    -0.074 A 
ATOM      7  C6  UNL d   1      -0.295  -2.702  -2.474  0.00  0.00     0.077 C 
ATOM      8  C7  UNL d   1      -0.181  -0.514  -1.246  0.00  0.00    -0.001 A 
ENDROOT
TORSDOF 0
ENDMDL
