MODEL 1
REMARK minimizedAffinity -3.66170788
REMARK minimizedRMSD -1
REMARK  0 active torsions:
REMARK  status: ('A' for Active; 'I' for Inactive)
ROOT
ATOM      1  C   UNL d   1       0.123   1.315  -0.199  0.00  0.00     0.077 C 
ATOM      2  C1  UNL d   1      -0.234  -0.138  -0.102  0.00  0.00    -0.074 A 
ATOM      3  C2  UNL d   1      -0.660  -0.694   1.109  0.00  0.00    -0.005 A 
ATOM      4  C3  UNL d   1      -0.997  -2.046   1.182  0.00  0.00     0.006 A 
ATOM      5  C4  UNL d   1      -0.913  -2.853   0.047  0.00  0.00    -0.005 A 
ATOM      6  C5  UNL d   1      -0.490  -2.315  -1.172  0.00  0.00    -0.074 A 
ATOM      7  C6  UNL d   1      -0.403  -3.166  -2.404  0.00  0.00     0.077 C 
ATOM      8  C7  UNL d   1      -0.159  -0.954  -1.239  0.00  0.00    -0.001 A 
ENDROOT
TORSDOF 0
ENDMDL
