MODEL 1
REMARK minimizedAffinity -2.29984045
REMARK minimizedRMSD -1
REMARK  0 active torsions:
REMARK  status: ('A' for Active; 'I' for Inactive)
ROOT
ATOM      1  C   UNL d   1      -0.433  -0.781   1.095  0.00  0.00     0.077 C 
ATOM      2  C1  UNL d   1       0.052   0.548   0.598  0.00  0.00    -0.074 A 
ATOM      3  C2  UNL d   1      -0.372   1.053  -0.635  0.00  0.00    -0.005 A 
ATOM      4  C3  UNL d   1       0.080   2.295  -1.080  0.00  0.00     0.006 A 
ATOM      5  C4  UNL d   1       0.960   3.044  -0.298  0.00  0.00    -0.005 A 
ATOM      6  C5  UNL d   1       1.395   2.556   0.939  0.00  0.00    -0.074 A 
ATOM      7  C6  UNL d   1       2.333   3.352   1.796  0.00  0.00     0.077 C 
ATOM      8  C7  UNL d   1       0.930   1.310   1.382  0.00  0.00    -0.001 A 
ENDROOT
TORSDOF 0
ENDMDL
