MODEL 1
REMARK minimizedAffinity -3.20724869
REMARK minimizedRMSD -1
REMARK  0 active torsions:
REMARK  status: ('A' for Active; 'I' for Inactive)
ROOT
ATOM      1  C   UNL d   1       0.014   1.572   0.276  0.00  0.00     0.077 C 
ATOM      2  C1  UNL d   1      -0.238   0.118   0.008  0.00  0.00    -0.074 A 
ATOM      3  C2  UNL d   1      -0.731  -0.723   1.012  0.00  0.00    -0.005 A 
ATOM      4  C3  UNL d   1      -0.969  -2.071   0.746  0.00  0.00     0.006 A 
ATOM      5  C4  UNL d   1      -0.718  -2.592  -0.524  0.00  0.00    -0.005 A 
ATOM      6  C5  UNL d   1      -0.226  -1.766  -1.541  0.00  0.00    -0.074 A 
ATOM      7  C6  UNL d   1       0.040  -2.307  -2.914  0.00  0.00     0.077 C 
ATOM      8  C7  UNL d   1       0.005  -0.411  -1.267  0.00  0.00    -0.001 A 
ENDROOT
TORSDOF 0
ENDMDL
