MODEL 1
REMARK minimizedAffinity -1.91395342
REMARK minimizedRMSD -1
REMARK  0 active torsions:
REMARK  status: ('A' for Active; 'I' for Inactive)
ROOT
ATOM      1  C   UNL d   1       2.662   2.744   0.905  0.00  0.00     0.077 C 
ATOM      2  C1  UNL d   1       1.493   1.914   0.466  0.00  0.00    -0.074 A 
ATOM      3  C2  UNL d   1       0.667   2.332  -0.581  0.00  0.00    -0.005 A 
ATOM      4  C3  UNL d   1      -0.411   1.545  -0.985  0.00  0.00     0.006 A 
ATOM      5  C4  UNL d   1      -0.673   0.332  -0.346  0.00  0.00    -0.005 A 
ATOM      6  C5  UNL d   1       0.143  -0.103   0.703  0.00  0.00    -0.074 A 
ATOM      7  C6  UNL d   1      -0.119  -1.409   1.394  0.00  0.00     0.077 C 
ATOM      8  C7  UNL d   1       1.228   0.691   1.098  0.00  0.00    -0.001 A 
ENDROOT
TORSDOF 0
ENDMDL
