MODEL 1
REMARK minimizedAffinity 0.548057318
REMARK minimizedRMSD -1
REMARK  0 active torsions:
REMARK  status: ('A' for Active; 'I' for Inactive)
ROOT
ATOM      1  C   UNL d   1      -1.072  -1.027   2.155  0.00  0.00     0.077 C 
ATOM      2  C1  UNL d   1      -0.602  -0.229   0.974  0.00  0.00    -0.074 A 
ATOM      3  C2  UNL d   1      -0.687  -0.746  -0.322  0.00  0.00    -0.005 A 
ATOM      4  C3  UNL d   1      -0.255   0.011  -1.411  0.00  0.00     0.006 A 
ATOM      5  C4  UNL d   1       0.266   1.291  -1.214  0.00  0.00    -0.005 A 
ATOM      6  C5  UNL d   1       0.358   1.824   0.075  0.00  0.00    -0.074 A 
ATOM      7  C6  UNL d   1       0.906   3.202   0.303  0.00  0.00     0.077 C 
ATOM      8  C7  UNL d   1      -0.085   1.060   1.163  0.00  0.00    -0.001 A 
ENDROOT
TORSDOF 0
ENDMDL
