MODEL 1
REMARK minimizedAffinity -3.47142339
REMARK minimizedRMSD -1
REMARK  0 active torsions:
REMARK  status: ('A' for Active; 'I' for Inactive)
ROOT
ATOM      1  C   UNL d   1      -1.055  -3.334   0.427  0.00  0.00     0.077 C 
ATOM      2  C1  UNL d   1      -0.555  -2.182  -0.393  0.00  0.00    -0.074 A 
ATOM      3  C2  UNL d   1      -0.315  -2.326  -1.764  0.00  0.00    -0.005 A 
ATOM      4  C3  UNL d   1       0.140  -1.243  -2.515  0.00  0.00     0.006 A 
ATOM      5  C4  UNL d   1       0.361  -0.008  -1.905  0.00  0.00    -0.005 A 
ATOM      6  C5  UNL d   1       0.127   0.155  -0.536  0.00  0.00    -0.074 A 
ATOM      7  C6  UNL d   1       0.350   1.478   0.133  0.00  0.00     0.077 C 
ATOM      8  C7  UNL d   1      -0.338  -0.936   0.211  0.00  0.00    -0.001 A 
ENDROOT
TORSDOF 0
ENDMDL
