MODEL 1
REMARK minimizedAffinity -3.06104159
REMARK minimizedRMSD -1
REMARK  0 active torsions:
REMARK  status: ('A' for Active; 'I' for Inactive)
ROOT
ATOM      1  C1  BNZ d   1      -1.197   0.660   0.410  0.00  0.00     0.000 A 
ATOM      2  C2  BNZ d   1      -1.036   1.858  -0.234  0.00  0.00     0.000 A 
ATOM      3  C3  BNZ d   1       0.106   2.128  -0.935  0.00  0.00     0.000 A 
ATOM      4  C4  BNZ d   1       1.100   1.217  -0.958  0.00  0.00     0.000 A 
ATOM      5  C5  BNZ d   1       0.957   0.008  -0.307  0.00  0.00     0.000 A 
ATOM      6  C6  BNZ d   1      -0.210  -0.275   0.365  0.00  0.00     0.000 A 
ENDROOT
TORSDOF 0
ENDMDL
