MODEL 1
REMARK minimizedAffinity -4.34469891
REMARK minimizedRMSD -1
REMARK  0 active torsions:
REMARK  status: ('A' for Active; 'I' for Inactive)
ROOT
ATOM      1  C1  BNZ d   1       2.135  -2.233  -1.967  0.00  0.00     0.000 A 
ATOM      2  C2  BNZ d   1       1.070  -1.910  -1.168  0.00  0.00     0.000 A 
ATOM      3  C3  BNZ d   1       1.095  -0.786  -0.390  0.00  0.00     0.000 A 
ATOM      4  C4  BNZ d   1       2.198  -0.010  -0.381  0.00  0.00     0.000 A 
ATOM      5  C5  BNZ d   1       3.282  -0.327  -1.174  0.00  0.00     0.000 A 
ATOM      6  C6  BNZ d   1       3.239  -1.438  -1.986  0.00  0.00     0.000 A 
ENDROOT
TORSDOF 0
ENDMDL
