MODEL 1
REMARK minimizedAffinity -5.28538418
REMARK minimizedRMSD -1
REMARK  0 active torsions:
REMARK  status: ('A' for Active; 'I' for Inactive)
ROOT
ATOM      1  C1  BNZ d   1       0.356   0.460  -0.840  0.00  0.00     0.000 A 
ATOM      2  C2  BNZ d   1       0.618   1.375  -1.823  0.00  0.00     0.000 A 
ATOM      3  C3  BNZ d   1       1.678   1.208  -2.671  0.00  0.00     0.000 A 
ATOM      4  C4  BNZ d   1       2.496   0.149  -2.508  0.00  0.00     0.000 A 
ATOM      5  C5  BNZ d   1       2.250  -0.778  -1.515  0.00  0.00     0.000 A 
ATOM      6  C6  BNZ d   1       1.160  -0.628  -0.689  0.00  0.00     0.000 A 
ENDROOT
TORSDOF 0
ENDMDL
