MODEL 1
REMARK minimizedAffinity -3.30746484
REMARK minimizedRMSD -1
REMARK  0 active torsions:
REMARK  status: ('A' for Active; 'I' for Inactive)
ROOT
ATOM      1  C1  BNZ d   1       0.616   0.660  -0.326  0.00  0.00     0.000 A 
ATOM      2  C2  BNZ d   1       1.785   0.340  -0.964  0.00  0.00     0.000 A 
ATOM      3  C3  BNZ d   1       2.109  -0.963  -1.218  0.00  0.00     0.000 A 
ATOM      4  C4  BNZ d   1       1.286  -1.945  -0.800  0.00  0.00     0.000 A 
ATOM      5  C5  BNZ d   1       0.108  -1.640  -0.147  0.00  0.00     0.000 A 
ATOM      6  C6  BNZ d   1      -0.234  -0.325   0.073  0.00  0.00     0.000 A 
ENDROOT
TORSDOF 0
ENDMDL
