MODEL 1
REMARK minimizedAffinity -2.97445631
REMARK minimizedRMSD -1
REMARK  0 active torsions:
REMARK  status: ('A' for Active; 'I' for Inactive)
ROOT
ATOM      1  C1  BNZ d   1      -2.167   1.067   1.088  0.00  0.00     0.000 A 
ATOM      2  C2  BNZ d   1      -1.529   0.626  -0.041  0.00  0.00     0.000 A 
ATOM      3  C3  BNZ d   1      -0.440  -0.196   0.047  0.00  0.00     0.000 A 
ATOM      4  C4  BNZ d   1       0.033  -0.543   1.261  0.00  0.00     0.000 A 
ATOM      5  C5  BNZ d   1      -0.594  -0.099   2.408  0.00  0.00     0.000 A 
ATOM      6  C6  BNZ d   1      -1.713   0.697   2.316  0.00  0.00     0.000 A 
ENDROOT
TORSDOF 0
ENDMDL
