MODEL 1
REMARK minimizedAffinity -2.60517049
REMARK minimizedRMSD -1
REMARK  0 active torsions:
REMARK  status: ('A' for Active; 'I' for Inactive)
ROOT
ATOM      1  C1  BNZ d   1      -2.355   0.000   3.032  0.00  0.00     0.000 A 
ATOM      2  C2  BNZ d   1      -1.906  -0.325   1.779  0.00  0.00     0.000 A 
ATOM      3  C3  BNZ d   1      -0.947   0.429   1.162  0.00  0.00     0.000 A 
ATOM      4  C4  BNZ d   1      -0.468   1.527   1.780  0.00  0.00     0.000 A 
ATOM      5  C5  BNZ d   1      -0.917   1.873   3.039  0.00  0.00     0.000 A 
ATOM      6  C6  BNZ d   1      -1.854   1.091   3.673  0.00  0.00     0.000 A 
ENDROOT
TORSDOF 0
ENDMDL
