MODEL 1
REMARK minimizedAffinity -5.09088707
REMARK minimizedRMSD -1
REMARK  0 active torsions:
REMARK  status: ('A' for Active; 'I' for Inactive)
ROOT
ATOM      1  C1  BNZ d   1       0.324  -1.564  -0.102  0.00  0.00     0.000 A 
ATOM      2  C2  BNZ d   1       1.506  -1.289  -0.737  0.00  0.00     0.000 A 
ATOM      3  C3  BNZ d   1       1.802  -0.019  -1.146  0.00  0.00     0.000 A 
ATOM      4  C4  BNZ d   1       0.899   0.965  -0.957  0.00  0.00     0.000 A 
ATOM      5  C5  BNZ d   1      -0.301   0.702  -0.327  0.00  0.00     0.000 A 
ATOM      6  C6  BNZ d   1      -0.578  -0.570   0.118  0.00  0.00     0.000 A 
ENDROOT
TORSDOF 0
ENDMDL
