MODEL 1
REMARK minimizedAffinity -4.30310297
REMARK minimizedRMSD -1
REMARK  0 active torsions:
REMARK  status: ('A' for Active; 'I' for Inactive)
ROOT
ATOM      1  C1  BNZ d   1       1.028  -1.555  -0.340  0.00  0.00     0.000 A 
ATOM      2  C2  BNZ d   1       2.157  -0.859  -0.683  0.00  0.00     0.000 A 
ATOM      3  C3  BNZ d   1       2.151   0.507  -0.723  0.00  0.00     0.000 A 
ATOM      4  C4  BNZ d   1       1.008   1.174  -0.461  0.00  0.00     0.000 A 
ATOM      5  C5  BNZ d   1      -0.140   0.486  -0.123  0.00  0.00     0.000 A 
ATOM      6  C6  BNZ d   1      -0.121  -0.888  -0.045  0.00  0.00     0.000 A 
ENDROOT
TORSDOF 0
ENDMDL
