MODEL 1
REMARK minimizedAffinity -4.6895175
REMARK minimizedRMSD -1
REMARK  0 active torsions:
REMARK  status: ('A' for Active; 'I' for Inactive)
ROOT
ATOM      1  C1  BNZ d   1       2.002   0.568  -1.241  0.00  0.00     0.000 A 
ATOM      2  C2  BNZ d   1       0.894   0.630  -0.440  0.00  0.00     0.000 A 
ATOM      3  C3  BNZ d   1       0.277  -0.511  -0.009  0.00  0.00     0.000 A 
ATOM      4  C4  BNZ d   1       0.744  -1.710  -0.413  0.00  0.00     0.000 A 
ATOM      5  C5  BNZ d   1       1.855  -1.789  -1.229  0.00  0.00     0.000 A 
ATOM      6  C6  BNZ d   1       2.497  -0.639  -1.628  0.00  0.00     0.000 A 
ENDROOT
TORSDOF 0
ENDMDL
