MODEL 1
REMARK minimizedAffinity -3.67294192
REMARK minimizedRMSD -1
REMARK  0 active torsions:
REMARK  status: ('A' for Active; 'I' for Inactive)
ROOT
ATOM      1  C1  BNZ d   1      -0.000  -0.924   0.451  0.00  0.00     0.000 A 
ATOM      2  C2  BNZ d   1       1.239  -0.643  -0.060  0.00  0.00     0.000 A 
ATOM      3  C3  BNZ d   1       1.497   0.567  -0.643  0.00  0.00     0.000 A 
ATOM      4  C4  BNZ d   1       0.507   1.476  -0.750  0.00  0.00     0.000 A 
ATOM      5  C5  BNZ d   1      -0.750   1.203  -0.247  0.00  0.00     0.000 A 
ATOM      6  C6  BNZ d   1      -0.996   0.000   0.374  0.00  0.00     0.000 A 
ENDROOT
TORSDOF 0
ENDMDL
