MODEL 1
REMARK minimizedAffinity -3.26164079
REMARK minimizedRMSD -1
REMARK  0 active torsions:
REMARK  status: ('A' for Active; 'I' for Inactive)
ROOT
ATOM      1  C1  BNZ d   1      -2.310   0.794   3.242  0.00  0.00     0.000 A 
ATOM      2  C2  BNZ d   1      -2.591   0.262   2.012  0.00  0.00     0.000 A 
ATOM      3  C3  BNZ d   1      -1.724   0.419   0.967  0.00  0.00     0.000 A 
ATOM      4  C4  BNZ d   1      -0.599   1.142   1.142  0.00  0.00     0.000 A 
ATOM      5  C5  BNZ d   1      -0.307   1.693   2.373  0.00  0.00     0.000 A 
ATOM      6  C6  BNZ d   1      -1.162   1.499   3.434  0.00  0.00     0.000 A 
ENDROOT
TORSDOF 0
ENDMDL
