MODEL 1
REMARK minimizedAffinity -3.10851908
REMARK minimizedRMSD -1
REMARK  0 active torsions:
REMARK  status: ('A' for Active; 'I' for Inactive)
ROOT
ATOM      1  C1  BNZ d   1      -1.447   2.389   2.471  0.00  0.00     0.000 A 
ATOM      2  C2  BNZ d   1      -0.593   2.186   1.420  0.00  0.00     0.000 A 
ATOM      3  C3  BNZ d   1      -0.347   0.925   0.951  0.00  0.00     0.000 A 
ATOM      4  C4  BNZ d   1      -0.923  -0.132   1.559  0.00  0.00     0.000 A 
ATOM      5  C5  BNZ d   1      -1.779   0.056   2.626  0.00  0.00     0.000 A 
ATOM      6  C6  BNZ d   1      -2.054   1.329   3.070  0.00  0.00     0.000 A 
ENDROOT
TORSDOF 0
ENDMDL
