MODEL 1
REMARK minimizedAffinity -3.2495091
REMARK minimizedRMSD -1
REMARK  0 active torsions:
REMARK  status: ('A' for Active; 'I' for Inactive)
ROOT
ATOM      1  C1  BNZ d   1       0.011   0.928   2.198  0.00  0.00     0.000 A 
ATOM      2  C2  BNZ d   1      -0.753   1.346   3.256  0.00  0.00     0.000 A 
ATOM      3  C3  BNZ d   1      -2.094   1.086   3.296  0.00  0.00     0.000 A 
ATOM      4  C4  BNZ d   1      -2.677   0.446   2.263  0.00  0.00     0.000 A 
ATOM      5  C5  BNZ d   1      -1.923   0.027   1.185  0.00  0.00     0.000 A 
ATOM      6  C6  BNZ d   1      -0.566   0.255   1.165  0.00  0.00     0.000 A 
ENDROOT
TORSDOF 0
ENDMDL
