MODEL 1
REMARK minimizedAffinity -3.51007009
REMARK minimizedRMSD -1
REMARK  0 active torsions:
REMARK  status: ('A' for Active; 'I' for Inactive)
ROOT
ATOM      1  C1  BNZ d   1       0.585   0.021  -0.813  0.00  0.00     0.000 A 
ATOM      2  C2  BNZ d   1       0.855   0.879  -1.846  0.00  0.00     0.000 A 
ATOM      3  C3  BNZ d   1       1.752   0.540  -2.819  0.00  0.00     0.000 A 
ATOM      4  C4  BNZ d   1       2.408  -0.635  -2.738  0.00  0.00     0.000 A 
ATOM      5  C5  BNZ d   1       2.153  -1.507  -1.697  0.00  0.00     0.000 A 
ATOM      6  C6  BNZ d   1       1.220  -1.180  -0.740  0.00  0.00     0.000 A 
ENDROOT
TORSDOF 0
ENDMDL
