MODEL 1
REMARK minimizedAffinity -2.60262179
REMARK minimizedRMSD -1
REMARK  0 active torsions:
REMARK  status: ('A' for Active; 'I' for Inactive)
ROOT
ATOM      1  C1  BNZ d   1       0.178  -2.175  -0.788  0.00  0.00     0.000 A 
ATOM      2  C2  BNZ d   1       1.238  -2.145  -1.654  0.00  0.00     0.000 A 
ATOM      3  C3  BNZ d   1       1.955  -0.997  -1.843  0.00  0.00     0.000 A 
ATOM      4  C4  BNZ d   1       1.587   0.128  -1.196  0.00  0.00     0.000 A 
ATOM      5  C5  BNZ d   1       0.515   0.116  -0.326  0.00  0.00     0.000 A 
ATOM      6  C6  BNZ d   1      -0.180  -1.051  -0.109  0.00  0.00     0.000 A 
ENDROOT
TORSDOF 0
ENDMDL
