MODEL 1
REMARK minimizedAffinity -3.05313683
REMARK minimizedRMSD -1
REMARK  0 active torsions:
REMARK  status: ('A' for Active; 'I' for Inactive)
ROOT
ATOM      1  C1  BNZ d   1       1.393  -0.253  -1.137  0.00  0.00     0.000 A 
ATOM      2  C2  BNZ d   1       0.272  -0.088  -0.368  0.00  0.00     0.000 A 
ATOM      3  C3  BNZ d   1      -0.437  -1.169   0.077  0.00  0.00     0.000 A 
ATOM      4  C4  BNZ d   1      -0.047  -2.410  -0.281  0.00  0.00     0.000 A 
ATOM      5  C5  BNZ d   1       1.075  -2.592  -1.064  0.00  0.00     0.000 A 
ATOM      6  C6  BNZ d   1       1.808  -1.503  -1.477  0.00  0.00     0.000 A 
ENDROOT
TORSDOF 0
ENDMDL
