MODEL 1
REMARK minimizedAffinity 0.907891095
REMARK minimizedRMSD -1
REMARK  0 active torsions:
REMARK  status: ('A' for Active; 'I' for Inactive)
ROOT
ATOM      1  C4' PXY d   1      -3.380   0.749  -5.991  0.00  0.00     0.077 C 
ATOM      2  C1' PXY d   1      -2.035   4.013  -1.414  0.00  0.00     0.077 C 
ATOM      3  C1  PXY d   1      -2.385   3.147  -2.608  0.00  0.00    -0.082 A 
ATOM      4  C2  PXY d   1      -2.345   3.663  -3.825  0.00  0.00     0.003 A 
ATOM      5  C3  PXY d   1      -2.689   2.903  -4.913  0.00  0.00     0.003 A 
ATOM      6  C4  PXY d   1      -3.026   1.585  -4.758  0.00  0.00    -0.082 A 
ATOM      7  C5  PXY d   1      -3.059   1.047  -3.520  0.00  0.00     0.003 A 
ATOM      8  C6  PXY d   1      -2.746   1.848  -2.425  0.00  0.00     0.003 A 
ENDROOT
TORSDOF 0
ENDMDL
