MODEL 1
REMARK minimizedAffinity -1.33417225
REMARK minimizedRMSD -1
REMARK  0 active torsions:
REMARK  status: ('A' for Active; 'I' for Inactive)
ROOT
ATOM      1  C4' PXY d   1      -1.395  -1.132   2.092  0.00  0.00     0.077 C 
ATOM      2  C1' PXY d   1       1.887   0.441  -2.400  0.00  0.00     0.077 C 
ATOM      3  C1  PXY d   1       1.015   0.033  -1.228  0.00  0.00    -0.082 A 
ATOM      4  C2  PXY d   1       1.543  -0.049  -0.018  0.00  0.00     0.003 A 
ATOM      5  C3  PXY d   1       0.777  -0.448   1.047  0.00  0.00     0.003 A 
ATOM      6  C4  PXY d   1      -0.556  -0.714   0.881  0.00  0.00    -0.082 A 
ATOM      7  C5  PXY d   1      -1.104  -0.623  -0.349  0.00  0.00     0.003 A 
ATOM      8  C6  PXY d   1      -0.300  -0.256  -1.424  0.00  0.00     0.003 A 
ENDROOT
TORSDOF 0
ENDMDL
