MODEL 1
REMARK minimizedAffinity -3.40190768
REMARK minimizedRMSD -1
REMARK  0 active torsions:
REMARK  status: ('A' for Active; 'I' for Inactive)
ROOT
ATOM      1  C4' PXY d   1      -1.415   0.113   1.459  0.00  0.00     0.077 C 
ATOM      2  C1' PXY d   1       2.065  -4.455   2.115  0.00  0.00     0.077 C 
ATOM      3  C1  PXY d   1       1.161  -3.251   1.936  0.00  0.00    -0.082 A 
ATOM      4  C2  PXY d   1       0.219  -3.001   2.831  0.00  0.00     0.003 A 
ATOM      5  C3  PXY d   1      -0.627  -1.935   2.667  0.00  0.00     0.003 A 
ATOM      6  C4  PXY d   1      -0.474  -1.085   1.604  0.00  0.00    -0.082 A 
ATOM      7  C5  PXY d   1       0.492  -1.328   0.693  0.00  0.00     0.003 A 
ATOM      8  C6  PXY d   1       1.314  -2.439   0.855  0.00  0.00     0.003 A 
ENDROOT
TORSDOF 0
ENDMDL
