MODEL 1
REMARK minimizedAffinity -4.93038511
REMARK minimizedRMSD -1
REMARK  0 active torsions:
REMARK  status: ('A' for Active; 'I' for Inactive)
ROOT
ATOM      1  C4' PXY d   1      -4.112  -0.353   1.706  0.00  0.00     0.077 C 
ATOM      2  C1' PXY d   1       1.001  -1.511  -0.728  0.00  0.00     0.077 C 
ATOM      3  C1  PXY d   1      -0.337  -1.217  -0.080  0.00  0.00    -0.082 A 
ATOM      4  C2  PXY d   1      -1.309  -0.681  -0.801  0.00  0.00     0.003 A 
ATOM      5  C3  PXY d   1      -2.515  -0.379  -0.224  0.00  0.00     0.003 A 
ATOM      6  C4  PXY d   1      -2.748  -0.676   1.092  0.00  0.00    -0.082 A 
ATOM      7  C5  PXY d   1      -1.765  -1.233   1.832  0.00  0.00     0.003 A 
ATOM      8  C6  PXY d   1      -0.534  -1.494   1.237  0.00  0.00     0.003 A 
ENDROOT
TORSDOF 0
ENDMDL
