MODEL 1
REMARK minimizedAffinity 0.824934065
REMARK minimizedRMSD -1
REMARK  0 active torsions:
REMARK  status: ('A' for Active; 'I' for Inactive)
ROOT
ATOM      1  C4' PXY d   1      -0.332  -0.462   0.191  0.00  0.00     0.077 C 
ATOM      2  C1' PXY d   1      -4.252   0.559   4.315  0.00  0.00     0.077 C 
ATOM      3  C1  PXY d   1      -3.215   0.288   3.243  0.00  0.00    -0.082 A 
ATOM      4  C2  PXY d   1      -3.333   0.866   2.059  0.00  0.00     0.003 A 
ATOM      5  C3  PXY d   1      -2.422   0.607   1.067  0.00  0.00     0.003 A 
ATOM      6  C4  PXY d   1      -1.350  -0.210   1.307  0.00  0.00    -0.082 A 
ATOM      7  C5  PXY d   1      -1.217  -0.795   2.516  0.00  0.00     0.003 A 
ATOM      8  C6  PXY d   1      -2.175  -0.551   3.496  0.00  0.00     0.003 A 
ENDROOT
TORSDOF 0
ENDMDL
