MODEL 1
REMARK minimizedAffinity -3.53462982
REMARK minimizedRMSD -1
REMARK  0 active torsions:
REMARK  status: ('A' for Active; 'I' for Inactive)
ROOT
ATOM      1  C4' PXY d   1      -1.440   0.468  -2.334  0.00  0.00     0.077 C 
ATOM      2  C1' PXY d   1       0.251  -1.682   2.759  0.00  0.00     0.077 C 
ATOM      3  C1  PXY d   1      -0.180  -1.115   1.420  0.00  0.00    -0.082 A 
ATOM      4  C2  PXY d   1      -1.430  -0.714   1.252  0.00  0.00     0.003 A 
ATOM      5  C3  PXY d   1      -1.845  -0.228   0.038  0.00  0.00     0.003 A 
ATOM      6  C4  PXY d   1      -0.958  -0.103  -0.997  0.00  0.00    -0.082 A 
ATOM      7  C5  PXY d   1       0.321  -0.500  -0.830  0.00  0.00     0.003 A 
ATOM      8  C6  PXY d   1       0.712  -1.029   0.397  0.00  0.00     0.003 A 
ENDROOT
TORSDOF 0
ENDMDL
