MODEL 1
REMARK minimizedAffinity -1.51658583
REMARK minimizedRMSD -1
REMARK  0 active torsions:
REMARK  status: ('A' for Active; 'I' for Inactive)
ROOT
ATOM      1  C4' PXY d   1       1.907  -3.751   1.390  0.00  0.00     0.077 C 
ATOM      2  C1' PXY d   1      -1.654   0.803   1.401  0.00  0.00     0.077 C 
ATOM      3  C1  PXY d   1      -0.721  -0.391   1.385  0.00  0.00    -0.082 A 
ATOM      4  C2  PXY d   1      -0.622  -1.158   2.459  0.00  0.00     0.003 A 
ATOM      5  C3  PXY d   1       0.241  -2.224   2.473  0.00  0.00     0.003 A 
ATOM      6  C4  PXY d   1       0.970  -2.539   1.358  0.00  0.00    -0.082 A 
ATOM      7  C5  PXY d   1       0.867  -1.768   0.255  0.00  0.00     0.003 A 
ATOM      8  C6  PXY d   1       0.016  -0.667   0.275  0.00  0.00     0.003 A 
ENDROOT
TORSDOF 0
ENDMDL
