MODEL 1
REMARK minimizedAffinity 0.133619949
REMARK minimizedRMSD -1
REMARK  0 active torsions:
REMARK  status: ('A' for Active; 'I' for Inactive)
ROOT
ATOM      1  C4' PXY d   1      -0.752   5.999   5.984  0.00  0.00     0.077 C 
ATOM      2  C1' PXY d   1       2.754   4.433   1.663  0.00  0.00     0.077 C 
ATOM      3  C1  PXY d   1       1.845   4.845   2.804  0.00  0.00    -0.082 A 
ATOM      4  C2  PXY d   1       0.583   4.448   2.811  0.00  0.00     0.003 A 
ATOM      5  C3  PXY d   1      -0.261   4.838   3.819  0.00  0.00     0.003 A 
ATOM      6  C4  PXY d   1       0.205   5.599   4.857  0.00  0.00    -0.082 A 
ATOM      7  C5  PXY d   1       1.494   5.999   4.863  0.00  0.00     0.003 A 
ATOM      8  C6  PXY d   1       2.324   5.627   3.810  0.00  0.00     0.003 A 
ENDROOT
TORSDOF 0
ENDMDL
