MODEL 1
REMARK minimizedAffinity -2.18560052
REMARK minimizedRMSD -1
REMARK  0 active torsions:
REMARK  status: ('A' for Active; 'I' for Inactive)
ROOT
ATOM      1  C4' PXY d   1       2.038  -4.057   0.884  0.00  0.00     0.077 C 
ATOM      2  C1' PXY d   1      -2.237  -0.728   2.899  0.00  0.00     0.077 C 
ATOM      3  C1  PXY d   1      -1.115  -1.593   2.360  0.00  0.00    -0.082 A 
ATOM      4  C2  PXY d   1      -1.004  -2.848   2.765  0.00  0.00     0.003 A 
ATOM      5  C3  PXY d   1       0.023  -3.635   2.312  0.00  0.00     0.003 A 
ATOM      6  C4  PXY d   1       0.916  -3.149   1.394  0.00  0.00    -0.082 A 
ATOM      7  C5  PXY d   1       0.803  -1.873   0.968  0.00  0.00     0.003 A 
ATOM      8  C6  PXY d   1      -0.222  -1.078   1.471  0.00  0.00     0.003 A 
ENDROOT
TORSDOF 0
ENDMDL
