MODEL 1
REMARK minimizedAffinity 4.52817583
REMARK minimizedRMSD -1
REMARK  0 active torsions:
REMARK  status: ('A' for Active; 'I' for Inactive)
ROOT
ATOM      1  C4' PXY d   1       2.460   2.970  -2.668  0.00  0.00     0.077 C 
ATOM      2  C1' PXY d   1      -3.318   2.849  -2.783  0.00  0.00     0.077 C 
ATOM      3  C1  PXY d   1      -1.802   2.880  -2.766  0.00  0.00    -0.082 A 
ATOM      4  C2  PXY d   1      -1.153   2.501  -1.677  0.00  0.00     0.003 A 
ATOM      5  C3  PXY d   1       0.217   2.553  -1.633  0.00  0.00     0.003 A 
ATOM      6  C4  PXY d   1       0.931   2.947  -2.733  0.00  0.00    -0.082 A 
ATOM      7  C5  PXY d   1       0.275   3.324  -3.851  0.00  0.00     0.003 A 
ATOM      8  C6  PXY d   1      -1.116   3.304  -3.862  0.00  0.00     0.003 A 
ENDROOT
TORSDOF 0
ENDMDL
