MODEL 1
REMARK minimizedAffinity -0.451507568
REMARK minimizedRMSD -1
REMARK  0 active torsions:
REMARK  status: ('A' for Active; 'I' for Inactive)
ROOT
ATOM      1  C4' PXY d   1      -1.939  -2.963   3.927  0.00  0.00     0.077 C 
ATOM      2  C1' PXY d   1       2.908  -4.644   1.264  0.00  0.00     0.077 C 
ATOM      3  C1  PXY d   1       1.643  -4.192   1.965  0.00  0.00    -0.082 A 
ATOM      4  C2  PXY d   1       0.782  -5.094   2.408  0.00  0.00     0.003 A 
ATOM      5  C3  PXY d   1      -0.382  -4.702   3.016  0.00  0.00     0.003 A 
ATOM      6  C4  PXY d   1      -0.644  -3.374   3.221  0.00  0.00    -0.082 A 
ATOM      7  C5  PXY d   1       0.234  -2.447   2.782  0.00  0.00     0.003 A 
ATOM      8  C6  PXY d   1       1.391  -2.865   2.130  0.00  0.00     0.003 A 
ENDROOT
TORSDOF 0
ENDMDL
