MODEL 1
REMARK minimizedAffinity 3.43352365
REMARK minimizedRMSD -1
REMARK  0 active torsions:
REMARK  status: ('A' for Active; 'I' for Inactive)
ROOT
ATOM      1  C4' PXY d   1       2.792   5.991   5.999  0.00  0.00     0.077 C 
ATOM      2  C1' PXY d   1       3.878   5.552   0.338  0.00  0.00     0.077 C 
ATOM      3  C1  PXY d   1       3.581   5.670   1.820  0.00  0.00    -0.082 A 
ATOM      4  C2  PXY d   1       4.570   5.896   2.669  0.00  0.00     0.003 A 
ATOM      5  C3  PXY d   1       4.323   5.974   4.016  0.00  0.00     0.003 A 
ATOM      6  C4  PXY d   1       3.044   5.873   4.493  0.00  0.00    -0.082 A 
ATOM      7  C5  PXY d   1       2.028   5.653   3.632  0.00  0.00     0.003 A 
ATOM      8  C6  PXY d   1       2.305   5.536   2.272  0.00  0.00     0.003 A 
ENDROOT
TORSDOF 0
ENDMDL
