MODEL 1
REMARK minimizedAffinity 1.38914394
REMARK minimizedRMSD -1
REMARK  0 active torsions:
REMARK  status: ('A' for Active; 'I' for Inactive)
ROOT
ATOM      1  C4' PXY d   1       1.615  -1.160  -0.634  0.00  0.00     0.077 C 
ATOM      2  C1' PXY d   1      -3.200   0.157   2.281  0.00  0.00     0.077 C 
ATOM      3  C1  PXY d   1      -1.944  -0.187   1.505  0.00  0.00    -0.082 A 
ATOM      4  C2  PXY d   1      -0.999  -0.913   2.080  0.00  0.00     0.003 A 
ATOM      5  C3  PXY d   1       0.158  -1.206   1.404  0.00  0.00     0.003 A 
ATOM      6  C4  PXY d   1       0.326  -0.797   0.108  0.00  0.00    -0.082 A 
ATOM      7  C5  PXY d   1      -0.639  -0.064  -0.488  0.00  0.00     0.003 A 
ATOM      8  C6  PXY d   1      -1.787   0.258   0.229  0.00  0.00     0.003 A 
ENDROOT
TORSDOF 0
ENDMDL
