MODEL 1
REMARK minimizedAffinity -3.19216084
REMARK minimizedRMSD -1
REMARK  1 active torsions:
REMARK  status: ('A' for Active; 'I' for Inactive)
REMARK    1  A    between atoms: N_2  and  C1_3 
ROOT
ATOM      1  C1  UNL d   1       0.674   0.132  -1.925  0.00  0.00     0.143 A 
ATOM      2  C2  UNL d   1       1.746   0.528  -2.731  0.00  0.00    -0.057 A 
ATOM      3  C3  UNL d   1       2.187  -0.268  -3.795  0.00  0.00     0.033 A 
ATOM      4  C4  UNL d   1       1.578  -1.492  -4.055  0.00  0.00    -0.042 A 
ATOM      5  C5  UNL d   1       0.526  -1.917  -3.251  0.00  0.00     0.033 A 
ATOM      6  C6  UNL d   1       0.087  -1.114  -2.194  0.00  0.00    -0.057 A 
ENDROOT
BRANCH   1   7
ATOM      7  N   UNL d   1       0.253   0.833  -0.791  0.00  0.00    -0.732 N 
ATOM      8  C   UNL d   1       0.563   0.343   0.535  0.00  0.00     0.284 C 
ATOM      9  H3  UNL d   1       0.354   1.840  -0.897  0.00  0.00     0.395 HD
ENDBRANCH   1   7
TORSDOF 1
ENDMDL
