MODEL 1
REMARK minimizedAffinity -2.38369989
REMARK minimizedRMSD -1
REMARK  1 active torsions:
REMARK  status: ('A' for Active; 'I' for Inactive)
REMARK    1  A    between atoms: N_2  and  C1_3 
ROOT
ATOM      1  C1  UNL d   1       0.865  -0.393  -2.683  0.00  0.00     0.143 A 
ATOM      2  C2  UNL d   1       1.317  -0.788  -1.419  0.00  0.00    -0.057 A 
ATOM      3  C3  UNL d   1       0.876  -0.143  -0.257  0.00  0.00     0.033 A 
ATOM      4  C4  UNL d   1      -0.005   0.930  -0.341  0.00  0.00    -0.042 A 
ATOM      5  C5  UNL d   1      -0.448   1.355  -1.588  0.00  0.00     0.033 A 
ATOM      6  C6  UNL d   1      -0.009   0.703  -2.745  0.00  0.00    -0.057 A 
ENDROOT
BRANCH   1   7
ATOM      7  N   UNL d   1       1.342  -0.930  -3.882  0.00  0.00    -0.732 N 
ATOM      8  C   UNL d   1       2.079  -2.175  -3.890  0.00  0.00     0.284 C 
ATOM      9  H3  UNL d   1       0.671  -0.839  -4.642  0.00  0.00     0.395 HD
ENDBRANCH   1   7
TORSDOF 1
ENDMDL
