MODEL 1
REMARK minimizedAffinity -4.03017092
REMARK minimizedRMSD -1
REMARK  1 active torsions:
REMARK  status: ('A' for Active; 'I' for Inactive)
REMARK    1  A    between atoms: N_2  and  C1_3 
ROOT
ATOM      1  C1  UNL d   1      -0.489  -0.360   1.359  0.00  0.00     0.143 A 
ATOM      2  C2  UNL d   1      -1.481  -0.449   0.377  0.00  0.00    -0.057 A 
ATOM      3  C3  UNL d   1      -1.239  -0.036  -0.939  0.00  0.00     0.033 A 
ATOM      4  C4  UNL d   1      -0.005   0.502  -1.290  0.00  0.00    -0.042 A 
ATOM      5  C5  UNL d   1       0.988   0.624  -0.324  0.00  0.00     0.033 A 
ATOM      6  C6  UNL d   1       0.742   0.203   0.987  0.00  0.00    -0.057 A 
ENDROOT
BRANCH   1   7
ATOM      7  N   UNL d   1      -0.699  -0.662   2.707  0.00  0.00    -0.732 N 
ATOM      8  C   UNL d   1      -1.997  -0.462   3.313  0.00  0.00     0.284 C 
ATOM      9  H3  UNL d   1      -0.237  -1.524   2.988  0.00  0.00     0.395 HD
ENDBRANCH   1   7
TORSDOF 1
ENDMDL
