MODEL 1
REMARK minimizedAffinity -4.03823233
REMARK minimizedRMSD -1
REMARK  1 active torsions:
REMARK  status: ('A' for Active; 'I' for Inactive)
REMARK    1  A    between atoms: N_2  and  C1_3 
ROOT
ATOM      1  C1  UNL d   1       3.711   2.104  -4.481  0.00  0.00     0.143 A 
ATOM      2  C2  UNL d   1       5.108   2.174  -4.515  0.00  0.00    -0.057 A 
ATOM      3  C3  UNL d   1       5.767   3.163  -5.255  0.00  0.00     0.033 A 
ATOM      4  C4  UNL d   1       5.039   4.085  -5.999  0.00  0.00    -0.042 A 
ATOM      5  C5  UNL d   1       3.650   4.019  -6.000  0.00  0.00     0.033 A 
ATOM      6  C6  UNL d   1       2.997   3.033  -5.254  0.00  0.00    -0.057 A 
ENDROOT
BRANCH   1   7
ATOM      7  N   UNL d   1       2.999   1.084  -3.844  0.00  0.00    -0.732 N 
ATOM      8  C   UNL d   1       3.206  -0.300  -4.211  0.00  0.00     0.284 C 
ATOM      9  H3  UNL d   1       2.911   1.240  -2.842  0.00  0.00     0.395 HD
ENDBRANCH   1   7
TORSDOF 1
ENDMDL
