MODEL 1
REMARK minimizedAffinity -2.918262
REMARK minimizedRMSD -1
REMARK  1 active torsions:
REMARK  status: ('A' for Active; 'I' for Inactive)
REMARK    1  A    between atoms: N_2  and  C1_3 
ROOT
ATOM      1  C1  UNL d   1       0.142   0.087  -0.364  0.00  0.00     0.143 A 
ATOM      2  C2  UNL d   1       0.992   0.569   0.637  0.00  0.00    -0.057 A 
ATOM      3  C3  UNL d   1       0.644   0.481   1.990  0.00  0.00     0.033 A 
ATOM      4  C4  UNL d   1      -0.579  -0.066   2.365  0.00  0.00    -0.042 A 
ATOM      5  C5  UNL d   1      -1.450  -0.529   1.386  0.00  0.00     0.033 A 
ATOM      6  C6  UNL d   1      -1.094  -0.444   0.037  0.00  0.00    -0.057 A 
ENDROOT
BRANCH   1   7
ATOM      7  N   UNL d   1       0.388   0.235  -1.731  0.00  0.00    -0.732 N 
ATOM      8  C   UNL d   1       0.604  -0.923  -2.571  0.00  0.00     0.284 C 
ATOM      9  H3  UNL d   1      -0.195   0.953  -2.156  0.00  0.00     0.395 HD
ENDBRANCH   1   7
TORSDOF 1
ENDMDL
