MODEL 1
REMARK minimizedAffinity -1.98320079
REMARK minimizedRMSD -1
REMARK  1 active torsions:
REMARK  status: ('A' for Active; 'I' for Inactive)
REMARK    1  A    between atoms: N_2  and  C1_3 
ROOT
ATOM      1  C1  UNL d   1       0.192   0.425  -0.582  0.00  0.00     0.143 A 
ATOM      2  C2  UNL d   1       1.318   0.770   0.173  0.00  0.00    -0.057 A 
ATOM      3  C3  UNL d   1       1.371   0.527   1.551  0.00  0.00     0.033 A 
ATOM      4  C4  UNL d   1       0.283  -0.041   2.205  0.00  0.00    -0.042 A 
ATOM      5  C5  UNL d   1      -0.856  -0.370   1.479  0.00  0.00     0.033 A 
ATOM      6  C6  UNL d   1      -0.901  -0.130   0.102  0.00  0.00    -0.057 A 
ENDROOT
BRANCH   1   7
ATOM      7  N   UNL d   1       0.040   0.731  -1.937  0.00  0.00    -0.732 N 
ATOM      8  C   UNL d   1       0.639  -0.107  -2.953  0.00  0.00     0.284 C 
ATOM      9  H3  UNL d   1      -0.901   1.048  -2.160  0.00  0.00     0.395 HD
ENDBRANCH   1   7
TORSDOF 1
ENDMDL
