MODEL 1
REMARK minimizedAffinity -4.75183487
REMARK minimizedRMSD -1
REMARK  1 active torsions:
REMARK  status: ('A' for Active; 'I' for Inactive)
REMARK    1  A    between atoms: N_2  and  C1_3 
ROOT
ATOM      1  C1  UNL d   1      -0.063   0.027   0.120  0.00  0.00     0.143 A 
ATOM      2  C2  UNL d   1      -1.188  -0.569   0.700  0.00  0.00    -0.057 A 
ATOM      3  C3  UNL d   1      -1.228  -0.867   2.068  0.00  0.00     0.033 A 
ATOM      4  C4  UNL d   1      -0.128  -0.598   2.877  0.00  0.00    -0.042 A 
ATOM      5  C5  UNL d   1       1.010  -0.029   2.317  0.00  0.00     0.033 A 
ATOM      6  C6  UNL d   1       1.041   0.271   0.951  0.00  0.00    -0.057 A 
ENDROOT
BRANCH   1   7
ATOM      7  N   UNL d   1       0.075   0.256  -1.251  0.00  0.00    -0.732 N 
ATOM      8  C   UNL d   1       0.836  -0.657  -2.078  0.00  0.00     0.284 C 
ATOM      9  H3  UNL d   1      -0.787   0.584  -1.679  0.00  0.00     0.395 HD
ENDBRANCH   1   7
TORSDOF 1
ENDMDL
