MODEL 1
REMARK minimizedAffinity -4.85585833
REMARK minimizedRMSD -1
REMARK  1 active torsions:
REMARK  status: ('A' for Active; 'I' for Inactive)
REMARK    1  A    between atoms: N_2  and  C1_3 
ROOT
ATOM      1  C1  UNL d   1       0.262  -0.053   0.714  0.00  0.00     0.143 A 
ATOM      2  C2  UNL d   1       0.822   0.109   1.986  0.00  0.00    -0.057 A 
ATOM      3  C3  UNL d   1       0.043  -0.015   3.143  0.00  0.00     0.033 A 
ATOM      4  C4  UNL d   1      -1.319  -0.277   3.047  0.00  0.00    -0.042 A 
ATOM      5  C5  UNL d   1      -1.902  -0.417   1.793  0.00  0.00     0.033 A 
ATOM      6  C6  UNL d   1      -1.119  -0.298   0.641  0.00  0.00    -0.057 A 
ENDROOT
BRANCH   1   7
ATOM      7  N   UNL d   1       0.962   0.156  -0.477  0.00  0.00    -0.732 N 
ATOM      8  C   UNL d   1       0.346  -0.132  -1.754  0.00  0.00     0.284 C 
ATOM      9  H3  UNL d   1       1.506   1.015  -0.461  0.00  0.00     0.395 HD
ENDBRANCH   1   7
TORSDOF 1
ENDMDL
