MODEL 1
REMARK minimizedAffinity -5.23026037
REMARK minimizedRMSD -1
REMARK  1 active torsions:
REMARK  status: ('A' for Active; 'I' for Inactive)
REMARK    1  A    between atoms: N_2  and  C1_3 
ROOT
ATOM      1  C1  UNL d   1      -1.036  -0.107   0.572  0.00  0.00     0.143 A 
ATOM      2  C2  UNL d   1      -0.127  -0.387   1.597  0.00  0.00    -0.057 A 
ATOM      3  C3  UNL d   1      -0.536  -0.445   2.935  0.00  0.00     0.033 A 
ATOM      4  C4  UNL d   1      -1.861  -0.194   3.274  0.00  0.00    -0.042 A 
ATOM      5  C5  UNL d   1      -2.778   0.111   2.274  0.00  0.00     0.033 A 
ATOM      6  C6  UNL d   1      -2.364   0.161   0.940  0.00  0.00    -0.057 A 
ENDROOT
BRANCH   1   7
ATOM      7  N   UNL d   1      -0.672   0.062  -0.767  0.00  0.00    -0.732 N 
ATOM      8  C   UNL d   1       0.701   0.339  -1.127  0.00  0.00     0.284 C 
ATOM      9  H3  UNL d   1      -1.138  -0.601  -1.382  0.00  0.00     0.395 HD
ENDBRANCH   1   7
TORSDOF 1
ENDMDL
