MODEL 1
REMARK minimizedAffinity -3.58360314
REMARK minimizedRMSD -1
REMARK  1 active torsions:
REMARK  status: ('A' for Active; 'I' for Inactive)
REMARK    1  A    between atoms: N_2  and  C1_3 
ROOT
ATOM      1  C1  UNL d   1      -0.823  -0.418   0.795  0.00  0.00     0.143 A 
ATOM      2  C2  UNL d   1      -0.418  -0.531   2.129  0.00  0.00    -0.057 A 
ATOM      3  C3  UNL d   1      -1.275  -0.181   3.180  0.00  0.00     0.033 A 
ATOM      4  C4  UNL d   1      -2.546   0.316   2.913  0.00  0.00    -0.042 A 
ATOM      5  C5  UNL d   1      -2.961   0.460   1.594  0.00  0.00     0.033 A 
ATOM      6  C6  UNL d   1      -2.103   0.103   0.549  0.00  0.00    -0.057 A 
ENDROOT
BRANCH   1   7
ATOM      7  N   UNL d   1       0.017  -0.656  -0.296  0.00  0.00    -0.732 N 
ATOM      8  C   UNL d   1       0.074   0.279  -1.399  0.00  0.00     0.284 C 
ATOM      9  H3  UNL d   1       0.923  -1.024  -0.015  0.00  0.00     0.395 HD
ENDBRANCH   1   7
TORSDOF 1
ENDMDL
