MODEL 1
REMARK minimizedAffinity -2.29699612
REMARK minimizedRMSD -1
REMARK  0 active torsions:
REMARK  status: ('A' for Active; 'I' for Inactive)
ROOT
ATOM      1  C   UNL d   1       2.024   2.713   0.978  0.00  0.00    -0.002 A 
ATOM      2  C1  UNL d   1       1.902   2.060   2.197  0.00  0.00     0.010 A 
ATOM      3  C2  UNL d   1       1.039   0.971   2.337  0.00  0.00     0.041 A 
ATOM      4  C3  UNL d   1       0.295   0.544   1.219  0.00  0.00    -0.075 A 
ATOM      5  S   UNL d   1      -0.823  -0.767   1.154  0.00  0.00     0.015 SA
ATOM      6  C4  UNL d   1      -1.164  -0.493  -0.493  0.00  0.00     0.022 A 
ATOM      7  C5  UNL d   1      -0.451   0.569  -0.997  0.00  0.00     0.026 A 
ATOM      8  C6  UNL d   1       0.402   1.184  -0.019  0.00  0.00    -0.082 A 
ATOM      9  C7  UNL d   1       1.284   2.285  -0.128  0.00  0.00     0.045 A 
ENDROOT
TORSDOF 0
ENDMDL
