MODEL 1
REMARK minimizedAffinity -3.4570663
REMARK minimizedRMSD -1
REMARK  0 active torsions:
REMARK  status: ('A' for Active; 'I' for Inactive)
ROOT
ATOM      1  C   UNL d   1       1.853  -1.162  -1.076  0.00  0.00    -0.002 A 
ATOM      2  C1  UNL d   1       0.609  -1.707  -0.788  0.00  0.00     0.010 A 
ATOM      3  C2  UNL d   1      -0.284  -1.035   0.049  0.00  0.00     0.041 A 
ATOM      4  C3  UNL d   1       0.096   0.207   0.595  0.00  0.00    -0.075 A 
ATOM      5  S   UNL d   1      -0.835   1.209   1.644  0.00  0.00     0.015 SA
ATOM      6  C4  UNL d   1       0.395   2.385   1.734  0.00  0.00     0.022 A 
ATOM      7  C5  UNL d   1       1.496   2.037   0.989  0.00  0.00     0.026 A 
ATOM      8  C6  UNL d   1       1.342   0.776   0.319  0.00  0.00    -0.082 A 
ATOM      9  C7  UNL d   1       2.226   0.070  -0.532  0.00  0.00     0.045 A 
ENDROOT
TORSDOF 0
ENDMDL
