MODEL 1
REMARK minimizedAffinity 2.17795324
REMARK minimizedRMSD -1
REMARK  0 active torsions:
REMARK  status: ('A' for Active; 'I' for Inactive)
ROOT
ATOM      1  C   UNL d   1       1.271   3.674  -2.504  0.00  0.00    -0.002 A 
ATOM      2  C1  UNL d   1       2.235   3.082  -1.699  0.00  0.00     0.010 A 
ATOM      3  C2  UNL d   1       3.429   2.612  -2.249  0.00  0.00     0.041 A 
ATOM      4  C3  UNL d   1       3.641   2.750  -3.635  0.00  0.00    -0.075 A 
ATOM      5  S   UNL d   1       5.028   2.250  -4.529  0.00  0.00     0.015 SA
ATOM      6  C4  UNL d   1       4.375   2.810  -6.000  0.00  0.00     0.022 A 
ATOM      7  C5  UNL d   1       3.130   3.368  -5.832  0.00  0.00     0.026 A 
ATOM      8  C6  UNL d   1       2.687   3.343  -4.466  0.00  0.00    -0.082 A 
ATOM      9  C7  UNL d   1       1.486   3.809  -3.878  0.00  0.00     0.045 A 
ENDROOT
TORSDOF 0
ENDMDL
