MODEL 1
REMARK minimizedAffinity -0.46095112
REMARK minimizedRMSD -1
REMARK  0 active torsions:
REMARK  status: ('A' for Active; 'I' for Inactive)
ROOT
ATOM      1  C   UNL d   1       0.429   1.499   2.179  0.00  0.00    -0.002 A 
ATOM      2  C1  UNL d   1       1.090   2.404   1.361  0.00  0.00     0.010 A 
ATOM      3  C2  UNL d   1       0.991   2.310  -0.028  0.00  0.00     0.041 A 
ATOM      4  C3  UNL d   1       0.206   1.283  -0.588  0.00  0.00    -0.075 A 
ATOM      5  S   UNL d   1      -0.062   0.974  -2.263  0.00  0.00     0.015 SA
ATOM      6  C4  UNL d   1      -1.061  -0.367  -1.932  0.00  0.00     0.022 A 
ATOM      7  C5  UNL d   1      -1.198  -0.588  -0.582  0.00  0.00     0.026 A 
ATOM      8  C6  UNL d   1      -0.470   0.359   0.215  0.00  0.00    -0.082 A 
ATOM      9  C7  UNL d   1      -0.348   0.480   1.620  0.00  0.00     0.045 A 
ENDROOT
TORSDOF 0
ENDMDL
