MODEL 1
REMARK minimizedAffinity -4.74115419
REMARK minimizedRMSD -1
REMARK  0 active torsions:
REMARK  status: ('A' for Active; 'I' for Inactive)
ROOT
ATOM      1  C   UNL d   1       2.110  -0.940  -1.339  0.00  0.00    -0.002 A 
ATOM      2  C1  UNL d   1       0.893  -1.539  -1.045  0.00  0.00     0.010 A 
ATOM      3  C2  UNL d   1      -0.020  -0.911  -0.194  0.00  0.00     0.041 A 
ATOM      4  C3  UNL d   1       0.314   0.340   0.359  0.00  0.00    -0.075 A 
ATOM      5  S   UNL d   1      -0.647   1.295   1.426  0.00  0.00     0.015 SA
ATOM      6  C4  UNL d   1       0.535   2.520   1.515  0.00  0.00     0.022 A 
ATOM      7  C5  UNL d   1       1.642   2.224   0.756  0.00  0.00     0.026 A 
ATOM      8  C6  UNL d   1       1.533   0.963   0.077  0.00  0.00    -0.082 A 
ATOM      9  C7  UNL d   1       2.437   0.301  -0.788  0.00  0.00     0.045 A 
ENDROOT
TORSDOF 0
ENDMDL
