MODEL 1
REMARK minimizedAffinity -1.22192669
REMARK minimizedRMSD -1
REMARK  0 active torsions:
REMARK  status: ('A' for Active; 'I' for Inactive)
ROOT
ATOM      1  C   UNL d   1      -1.443   5.986  -3.200  0.00  0.00    -0.002 A 
ATOM      2  C1  UNL d   1      -1.179   5.978  -4.562  0.00  0.00     0.010 A 
ATOM      3  C2  UNL d   1      -2.224   5.971  -5.488  0.00  0.00     0.041 A 
ATOM      4  C3  UNL d   1      -3.552   5.974  -5.017  0.00  0.00    -0.075 A 
ATOM      5  S   UNL d   1      -4.992   5.967  -5.966  0.00  0.00     0.015 SA
ATOM      6  C4  UNL d   1      -5.991   5.975  -4.585  0.00  0.00     0.022 A 
ATOM      7  C5  UNL d   1      -5.260   5.982  -3.420  0.00  0.00     0.026 A 
ATOM      8  C6  UNL d   1      -3.843   5.982  -3.650  0.00  0.00    -0.082 A 
ATOM      9  C7  UNL d   1      -2.761   5.988  -2.736  0.00  0.00     0.045 A 
ENDROOT
TORSDOF 0
ENDMDL
