MODEL 1
REMARK minimizedAffinity -1.94824302
REMARK minimizedRMSD -1
REMARK  0 active torsions:
REMARK  status: ('A' for Active; 'I' for Inactive)
ROOT
ATOM      1  C   UNL d   1       3.749   0.882   0.345  0.00  0.00    -0.002 A 
ATOM      2  C1  UNL d   1       3.191   1.656   1.352  0.00  0.00     0.010 A 
ATOM      3  C2  UNL d   1       1.856   1.485   1.723  0.00  0.00     0.041 A 
ATOM      4  C3  UNL d   1       1.084   0.510   1.059  0.00  0.00    -0.075 A 
ATOM      5  S   UNL d   1      -0.571   0.123   1.345  0.00  0.00     0.015 SA
ATOM      6  C4  UNL d   1      -0.576  -1.080   0.138  0.00  0.00     0.022 A 
ATOM      7  C5  UNL d   1       0.647  -1.196  -0.478  0.00  0.00     0.026 A 
ATOM      8  C6  UNL d   1       1.624  -0.282   0.042  0.00  0.00    -0.082 A 
ATOM      9  C7  UNL d   1       2.981  -0.083  -0.311  0.00  0.00     0.045 A 
ENDROOT
TORSDOF 0
ENDMDL
