MODEL 1
REMARK minimizedAffinity -3.98864818
REMARK minimizedRMSD -1
REMARK  0 active torsions:
REMARK  status: ('A' for Active; 'I' for Inactive)
ROOT
ATOM      1  C   UNL d   1       3.789   1.472   0.942  0.00  0.00    -0.002 A 
ATOM      2  C1  UNL d   1       3.905   0.395   0.074  0.00  0.00     0.010 A 
ATOM      3  C2  UNL d   1       2.770  -0.288  -0.366  0.00  0.00     0.041 A 
ATOM      4  C3  UNL d   1       1.503   0.135   0.083  0.00  0.00    -0.075 A 
ATOM      5  S   UNL d   1      -0.026  -0.549  -0.324  0.00  0.00     0.015 SA
ATOM      6  C4  UNL d   1      -0.870   0.572   0.643  0.00  0.00     0.022 A 
ATOM      7  C5  UNL d   1      -0.021   1.454   1.269  0.00  0.00     0.026 A 
ATOM      8  C6  UNL d   1       1.360   1.217   0.956  0.00  0.00    -0.082 A 
ATOM      9  C7  UNL d   1       2.531   1.888   1.385  0.00  0.00     0.045 A 
ENDROOT
TORSDOF 0
ENDMDL
