MODEL 1
REMARK minimizedAffinity -1.26951993
REMARK minimizedRMSD -1
REMARK  0 active torsions:
REMARK  status: ('A' for Active; 'I' for Inactive)
ROOT
ATOM      1  C   UNL d   1      -1.602  -2.070  -2.205  0.00  0.00    -0.002 A 
ATOM      2  C1  UNL d   1      -2.477  -1.350  -3.005  0.00  0.00     0.010 A 
ATOM      3  C2  UNL d   1      -3.855  -1.425  -2.798  0.00  0.00     0.041 A 
ATOM      4  C3  UNL d   1      -4.345  -2.244  -1.761  0.00  0.00    -0.075 A 
ATOM      5  S   UNL d   1      -5.993  -2.491  -1.321  0.00  0.00     0.015 SA
ATOM      6  C4  UNL d   1      -5.575  -3.558  -0.060  0.00  0.00     0.022 A 
ATOM      7  C5  UNL d   1      -4.215  -3.733   0.038  0.00  0.00     0.026 A 
ATOM      8  C6  UNL d   1      -3.483  -2.978  -0.941  0.00  0.00    -0.082 A 
ATOM      9  C7  UNL d   1      -2.091  -2.881  -1.177  0.00  0.00     0.045 A 
ENDROOT
TORSDOF 0
ENDMDL
