MODEL 1
REMARK minimizedAffinity -2.44817185
REMARK minimizedRMSD -1
REMARK  0 active torsions:
REMARK  status: ('A' for Active; 'I' for Inactive)
ROOT
ATOM      1  C   UNL d   1      -2.612  -1.522  -3.079  0.00  0.00    -0.002 A 
ATOM      2  C1  UNL d   1      -3.046  -2.219  -1.959  0.00  0.00     0.010 A 
ATOM      3  C2  UNL d   1      -2.466  -1.988  -0.710  0.00  0.00     0.041 A 
ATOM      4  C3  UNL d   1      -1.434  -1.035  -0.604  0.00  0.00    -0.075 A 
ATOM      5  S   UNL d   1      -0.577  -0.586   0.823  0.00  0.00     0.015 SA
ATOM      6  C4  UNL d   1       0.384   0.542  -0.019  0.00  0.00     0.022 A 
ATOM      7  C5  UNL d   1       0.072   0.588  -1.357  0.00  0.00     0.026 A 
ATOM      8  C6  UNL d   1      -0.981  -0.320  -1.716  0.00  0.00    -0.082 A 
ATOM      9  C7  UNL d   1      -1.588  -0.577  -2.969  0.00  0.00     0.045 A 
ENDROOT
TORSDOF 0
ENDMDL
