MODEL 1
REMARK minimizedAffinity 5.19450426
REMARK minimizedRMSD -1
REMARK  0 active torsions:
REMARK  status: ('A' for Active; 'I' for Inactive)
ROOT
ATOM      1  C4' PXY d   1       0.662   4.989  -1.316  0.00  0.00     0.077 C 
ATOM      2  C1' PXY d   1       0.732  -0.355   0.886  0.00  0.00     0.077 C 
ATOM      3  C1  PXY d   1       0.719   1.042   0.297  0.00  0.00    -0.082 A 
ATOM      4  C2  PXY d   1       0.741   2.091   1.103  0.00  0.00     0.003 A 
ATOM      5  C3  PXY d   1       0.697   3.362   0.588  0.00  0.00     0.003 A 
ATOM      6  C4  PXY d   1       0.684   3.560  -0.766  0.00  0.00    -0.082 A 
ATOM      7  C5  PXY d   1       0.672   2.495  -1.595  0.00  0.00     0.003 A 
ATOM      8  C6  PXY d   1       0.675   1.213  -1.052  0.00  0.00     0.003 A 
ENDROOT
TORSDOF 0
ENDMDL
