MODEL 1
REMARK minimizedAffinity 0.563526034
REMARK minimizedRMSD -1
REMARK  0 active torsions:
REMARK  status: ('A' for Active; 'I' for Inactive)
ROOT
ATOM      1  C4' PXY d   1      -0.503   4.591  -0.910  0.00  0.00     0.077 C 
ATOM      2  C1' PXY d   1       1.383  -0.586   0.836  0.00  0.00     0.077 C 
ATOM      3  C1  PXY d   1       0.881   0.766   0.369  0.00  0.00    -0.082 A 
ATOM      4  C2  PXY d   1       1.606   1.848   0.600  0.00  0.00     0.003 A 
ATOM      5  C3  PXY d   1       1.152   3.083   0.213  0.00  0.00     0.003 A 
ATOM      6  C4  PXY d   1      -0.031   3.204  -0.465  0.00  0.00    -0.082 A 
ATOM      7  C5  PXY d   1      -0.772   2.103  -0.714  0.00  0.00     0.003 A 
ATOM      8  C6  PXY d   1      -0.313   0.864  -0.276  0.00  0.00     0.003 A 
ENDROOT
TORSDOF 0
ENDMDL
