MODEL 1
REMARK minimizedAffinity -0.400666684
REMARK minimizedRMSD -1
REMARK  0 active torsions:
REMARK  status: ('A' for Active; 'I' for Inactive)
ROOT
ATOM      1  C4' PXY d   1       0.718   0.187   0.509  0.00  0.00     0.077 C 
ATOM      2  C1' PXY d   1      -0.621   5.533  -1.237  0.00  0.00     0.077 C 
ATOM      3  C1  PXY d   1      -0.282   4.128  -0.776  0.00  0.00    -0.082 A 
ATOM      4  C2  PXY d   1       0.944   3.854  -0.361  0.00  0.00     0.003 A 
ATOM      5  C3  PXY d   1       1.275   2.582   0.029  0.00  0.00     0.003 A 
ATOM      6  C4  PXY d   1       0.328   1.593   0.044  0.00  0.00    -0.082 A 
ATOM      7  C5  PXY d   1      -0.927   1.868  -0.369  0.00  0.00     0.003 A 
ATOM      8  C6  PXY d   1      -1.233   3.155  -0.799  0.00  0.00     0.003 A 
ENDROOT
TORSDOF 0
ENDMDL
