MODEL 1
REMARK minimizedAffinity 9.69004726
REMARK minimizedRMSD -1
REMARK  0 active torsions:
REMARK  status: ('A' for Active; 'I' for Inactive)
ROOT
ATOM      1  C4' PXY d   1      -5.340   4.872  -4.329  0.00  0.00     0.077 C 
ATOM      2  C1' PXY d   1      -4.163  -0.389  -2.245  0.00  0.00     0.077 C 
ATOM      3  C1  PXY d   1      -4.460   0.995  -2.787  0.00  0.00    -0.082 A 
ATOM      4  C2  PXY d   1      -5.714   1.358  -3.001  0.00  0.00     0.003 A 
ATOM      5  C3  PXY d   1      -5.999   2.594  -3.521  0.00  0.00     0.003 A 
ATOM      6  C4  PXY d   1      -4.993   3.488  -3.774  0.00  0.00    -0.082 A 
ATOM      7  C5  PXY d   1      -3.712   3.129  -3.548  0.00  0.00     0.003 A 
ATOM      8  C6  PXY d   1      -3.441   1.855  -3.059  0.00  0.00     0.003 A 
ENDROOT
TORSDOF 0
ENDMDL
