MODEL 1
REMARK minimizedAffinity 3.05259657
REMARK minimizedRMSD -1
REMARK  0 active torsions:
REMARK  status: ('A' for Active; 'I' for Inactive)
ROOT
ATOM      1  C4' PXY d   1       4.320  -6.000  -3.338  0.00  0.00     0.077 C 
ATOM      2  C1' PXY d   1      -0.933  -3.685  -2.658  0.00  0.00     0.077 C 
ATOM      3  C1  PXY d   1       0.444  -4.298  -2.825  0.00  0.00    -0.082 A 
ATOM      4  C2  PXY d   1       1.317  -3.732  -3.643  0.00  0.00     0.003 A 
ATOM      5  C3  PXY d   1       2.555  -4.291  -3.830  0.00  0.00     0.003 A 
ATOM      6  C4  PXY d   1       2.922  -5.410  -3.132  0.00  0.00    -0.082 A 
ATOM      7  C5  PXY d   1       2.041  -5.987  -2.287  0.00  0.00     0.003 A 
ATOM      8  C6  PXY d   1       0.775  -5.427  -2.142  0.00  0.00     0.003 A 
ENDROOT
TORSDOF 0
ENDMDL
