MODEL 1
REMARK minimizedAffinity 0.562908232
REMARK minimizedRMSD -1
REMARK  0 active torsions:
REMARK  status: ('A' for Active; 'I' for Inactive)
ROOT
ATOM      1  C4' PXY d   1       0.958  -2.038   1.492  0.00  0.00     0.077 C 
ATOM      2  C1' PXY d   1       5.970  -2.635  -1.325  0.00  0.00     0.077 C 
ATOM      3  C1  PXY d   1       4.659  -2.466  -0.583  0.00  0.00    -0.082 A 
ATOM      4  C2  PXY d   1       4.040  -3.530  -0.099  0.00  0.00     0.003 A 
ATOM      5  C3  PXY d   1       2.838  -3.399   0.547  0.00  0.00     0.003 A 
ATOM      6  C4  PXY d   1       2.289  -2.160   0.745  0.00  0.00    -0.082 A 
ATOM      7  C5  PXY d   1       2.920  -1.068   0.262  0.00  0.00     0.003 A 
ATOM      8  C6  PXY d   1       4.119  -1.227  -0.426  0.00  0.00     0.003 A 
ENDROOT
TORSDOF 0
ENDMDL
