MODEL 1
REMARK minimizedAffinity 15.1626778
REMARK minimizedRMSD -1
REMARK  0 active torsions:
REMARK  status: ('A' for Active; 'I' for Inactive)
ROOT
ATOM      1  C4' PXY d   1       0.057   1.755   1.022  0.00  0.00     0.077 C 
ATOM      2  C1' PXY d   1      -0.130   5.999  -2.899  0.00  0.00     0.077 C 
ATOM      3  C1  PXY d   1      -0.094   4.888  -1.868  0.00  0.00    -0.082 A 
ATOM      4  C2  PXY d   1       1.064   4.522  -1.342  0.00  0.00     0.003 A 
ATOM      5  C3  PXY d   1       1.119   3.498  -0.432  0.00  0.00     0.003 A 
ATOM      6  C4  PXY d   1      -0.029   2.878  -0.016  0.00  0.00    -0.082 A 
ATOM      7  C5  PXY d   1      -1.215   3.253  -0.540  0.00  0.00     0.003 A 
ATOM      8  C6  PXY d   1      -1.245   4.267  -1.493  0.00  0.00     0.003 A 
ENDROOT
TORSDOF 0
ENDMDL
