MODEL 1
REMARK minimizedAffinity -0.125293612
REMARK minimizedRMSD -1
REMARK  0 active torsions:
REMARK  status: ('A' for Active; 'I' for Inactive)
ROOT
ATOM      1  C4' PXY d   1      -3.002   1.440  -3.010  0.00  0.00     0.077 C 
ATOM      2  C1' PXY d   1      -5.997   5.378  -6.000  0.00  0.00     0.077 C 
ATOM      3  C1  PXY d   1      -5.219   4.336  -5.220  0.00  0.00    -0.082 A 
ATOM      4  C2  PXY d   1      -4.543   4.696  -4.142  0.00  0.00     0.003 A 
ATOM      5  C3  PXY d   1      -3.808   3.772  -3.444  0.00  0.00     0.003 A 
ATOM      6  C4  PXY d   1      -3.809   2.457  -3.822  0.00  0.00    -0.082 A 
ATOM      7  C5  PXY d   1      -4.505   2.080  -4.916  0.00  0.00     0.003 A 
ATOM      8  C6  PXY d   1      -5.211   3.040  -5.635  0.00  0.00     0.003 A 
ENDROOT
TORSDOF 0
ENDMDL
