MODEL 1
REMARK minimizedAffinity 6.22871113
REMARK minimizedRMSD -1
REMARK  0 active torsions:
REMARK  status: ('A' for Active; 'I' for Inactive)
ROOT
ATOM      1  C4' PXY d   1      -6.000   5.999  -4.968  0.00  0.00     0.077 C 
ATOM      2  C1' PXY d   1      -2.665   2.099  -2.306  0.00  0.00     0.077 C 
ATOM      3  C1  PXY d   1      -3.548   3.113  -3.007  0.00  0.00    -0.082 A 
ATOM      4  C2  PXY d   1      -3.012   4.218  -3.500  0.00  0.00     0.003 A 
ATOM      5  C3  PXY d   1      -3.801   5.159  -4.108  0.00  0.00     0.003 A 
ATOM      6  C4  PXY d   1      -5.145   4.944  -4.261  0.00  0.00    -0.082 A 
ATOM      7  C5  PXY d   1      -5.697   3.814  -3.771  0.00  0.00     0.003 A 
ATOM      8  C6  PXY d   1      -4.886   2.889  -3.120  0.00  0.00     0.003 A 
ENDROOT
TORSDOF 0
ENDMDL
