MODEL 1
REMARK minimizedAffinity -3.77120423
REMARK minimizedRMSD -1
REMARK  0 active torsions:
REMARK  status: ('A' for Active; 'I' for Inactive)
ROOT
ATOM      1  C4' PXY d   1      -5.624  -1.819   5.124  0.00  0.00     0.077 C 
ATOM      2  C1' PXY d   1      -4.333   0.856   0.165  0.00  0.00     0.077 C 
ATOM      3  C1  PXY d   1      -4.659   0.156   1.470  0.00  0.00    -0.082 A 
ATOM      4  C2  PXY d   1      -5.670  -0.696   1.520  0.00  0.00     0.003 A 
ATOM      5  C3  PXY d   1      -5.999  -1.313   2.699  0.00  0.00     0.003 A 
ATOM      6  C4  PXY d   1      -5.252  -1.097   3.826  0.00  0.00    -0.082 A 
ATOM      7  C5  PXY d   1      -4.212  -0.237   3.780  0.00  0.00     0.003 A 
ATOM      8  C6  PXY d   1      -3.920   0.410   2.584  0.00  0.00     0.003 A 
ENDROOT
TORSDOF 0
ENDMDL
