MODEL 1
REMARK minimizedAffinity -2.48736238
REMARK minimizedRMSD -1
REMARK  0 active torsions:
REMARK  status: ('A' for Active; 'I' for Inactive)
ROOT
ATOM      1  C   UNL d   1      -0.661   2.274   0.733  0.00  0.00     0.020 A 
ATOM      2  C1  UNL d   1      -1.698   1.404   0.398  0.00  0.00     0.020 A 
ATOM      3  C2  UNL d   1      -1.411   0.098  -0.006  0.00  0.00     0.034 A 
ATOM      4  C3  UNL d   1      -0.084  -0.341  -0.077  0.00  0.00     0.017 A 
ATOM      5  C4  UNL d   1       0.956   0.533   0.259  0.00  0.00     0.017 A 
ATOM      6  C5  UNL d   1       0.663   1.839   0.663  0.00  0.00     0.034 A 
ATOM      7 Cl   UNL d   1       2.618   0.063   0.197  0.00  0.00    -0.070 Cl
ATOM      8 Cl1  UNL d   1       0.197  -1.969  -0.584  0.00  0.00    -0.070 Cl
ENDROOT
TORSDOF 0
ENDMDL
