MODEL 1
REMARK minimizedAffinity -4.7549715
REMARK minimizedRMSD -1
REMARK  0 active torsions:
REMARK  status: ('A' for Active; 'I' for Inactive)
ROOT
ATOM      1  C   UNL d   1       0.810   2.866  -0.497  0.00  0.00     0.020 A 
ATOM      2  C1  UNL d   1       0.194   3.148   0.722  0.00  0.00     0.020 A 
ATOM      3  C2  UNL d   1      -0.632   2.196   1.323  0.00  0.00     0.034 A 
ATOM      4  C3  UNL d   1      -0.844   0.958   0.706  0.00  0.00     0.017 A 
ATOM      5  C4  UNL d   1      -0.225   0.676  -0.517  0.00  0.00     0.017 A 
ATOM      6  C5  UNL d   1       0.601   1.633  -1.115  0.00  0.00     0.034 A 
ATOM      7 Cl   UNL d   1      -0.440  -0.829  -1.339  0.00  0.00    -0.070 Cl
ATOM      8 Cl1  UNL d   1      -1.877  -0.172   1.506  0.00  0.00    -0.070 Cl
ENDROOT
TORSDOF 0
ENDMDL
