MODEL 1
REMARK minimizedAffinity -2.91398144
REMARK minimizedRMSD -1
REMARK  0 active torsions:
REMARK  status: ('A' for Active; 'I' for Inactive)
ROOT
ATOM      1  C   UNL d   1      -1.283   2.248   0.733  0.00  0.00     0.020 A 
ATOM      2  C1  UNL d   1      -0.122   2.985   0.967  0.00  0.00     0.020 A 
ATOM      3  C2  UNL d   1       1.120   2.347   0.978  0.00  0.00     0.034 A 
ATOM      4  C3  UNL d   1       1.205   0.968   0.757  0.00  0.00     0.017 A 
ATOM      5  C4  UNL d   1       0.040   0.228   0.523  0.00  0.00     0.017 A 
ATOM      6  C5  UNL d   1      -1.202   0.872   0.512  0.00  0.00     0.034 A 
ATOM      7 Cl   UNL d   1       0.065  -1.477   0.241  0.00  0.00    -0.070 Cl
ATOM      8 Cl1  UNL d   1       2.774   0.244   0.785  0.00  0.00    -0.070 Cl
ENDROOT
TORSDOF 0
ENDMDL
