MODEL 1
REMARK minimizedAffinity -2.37291646
REMARK minimizedRMSD -1
REMARK  0 active torsions:
REMARK  status: ('A' for Active; 'I' for Inactive)
ROOT
ATOM      1  C   UNL d   1       0.457  -1.505   0.382  0.00  0.00     0.020 A 
ATOM      2  C1  UNL d   1       1.458  -0.707  -0.170  0.00  0.00     0.020 A 
ATOM      3  C2  UNL d   1       1.285   0.676  -0.252  0.00  0.00     0.034 A 
ATOM      4  C3  UNL d   1       0.106   1.266   0.220  0.00  0.00     0.017 A 
ATOM      5  C4  UNL d   1      -0.899   0.465   0.774  0.00  0.00     0.017 A 
ATOM      6  C5  UNL d   1      -0.719  -0.920   0.853  0.00  0.00     0.034 A 
ATOM      7 Cl   UNL d   1      -2.380   1.121   1.377  0.00  0.00    -0.070 Cl
ATOM      8 Cl1  UNL d   1      -0.041   2.982   0.088  0.00  0.00    -0.070 Cl
ENDROOT
TORSDOF 0
ENDMDL
