MODEL 1
REMARK minimizedAffinity -4.21137428
REMARK minimizedRMSD -1
REMARK  0 active torsions:
REMARK  status: ('A' for Active; 'I' for Inactive)
ROOT
ATOM      1  C   UNL d   1       1.252   2.937  -0.950  0.00  0.00     0.020 A 
ATOM      2  C1  UNL d   1       1.787   1.656  -0.815  0.00  0.00     0.020 A 
ATOM      3  C2  UNL d   1       1.094   0.683  -0.091  0.00  0.00     0.034 A 
ATOM      4  C3  UNL d   1      -0.137   0.990   0.500  0.00  0.00     0.017 A 
ATOM      5  C4  UNL d   1      -0.673   2.276   0.364  0.00  0.00     0.017 A 
ATOM      6  C5  UNL d   1       0.025   3.246  -0.362  0.00  0.00     0.034 A 
ATOM      7 Cl   UNL d   1      -2.186   2.729   1.065  0.00  0.00    -0.070 Cl
ATOM      8 Cl1  UNL d   1      -0.940  -0.262   1.381  0.00  0.00    -0.070 Cl
ENDROOT
TORSDOF 0
ENDMDL
