MODEL 1
REMARK minimizedAffinity -4.55820417
REMARK minimizedRMSD -1
REMARK  0 active torsions:
REMARK  status: ('A' for Active; 'I' for Inactive)
ROOT
ATOM      1  C   UNL d   1       1.383   2.698  -0.626  0.00  0.00     0.020 A 
ATOM      2  C1  UNL d   1       0.478   3.454   0.118  0.00  0.00     0.020 A 
ATOM      3  C2  UNL d   1      -0.731   2.888   0.530  0.00  0.00     0.034 A 
ATOM      4  C3  UNL d   1      -1.038   1.564   0.197  0.00  0.00     0.017 A 
ATOM      5  C4  UNL d   1      -0.128   0.806  -0.550  0.00  0.00     0.017 A 
ATOM      6  C5  UNL d   1       1.081   1.377  -0.959  0.00  0.00     0.034 A 
ATOM      7 Cl   UNL d   1      -0.437  -0.834  -0.998  0.00  0.00    -0.070 Cl
ATOM      8 Cl1  UNL d   1      -2.550   0.929   0.740  0.00  0.00    -0.070 Cl
ENDROOT
TORSDOF 0
ENDMDL
