MODEL 1
REMARK minimizedAffinity -3.91660738
REMARK minimizedRMSD -1
REMARK  0 active torsions:
REMARK  status: ('A' for Active; 'I' for Inactive)
ROOT
ATOM      1  C   UNL d   1       1.628  -1.214   0.715  0.00  0.00     0.020 A 
ATOM      2  C1  UNL d   1       2.539  -0.169   0.568  0.00  0.00     0.020 A 
ATOM      3  C2  UNL d   1       2.085   1.114   0.253  0.00  0.00     0.034 A 
ATOM      4  C3  UNL d   1       0.717   1.354   0.083  0.00  0.00     0.017 A 
ATOM      5  C4  UNL d   1      -0.197   0.304   0.231  0.00  0.00     0.017 A 
ATOM      6  C5  UNL d   1       0.263  -0.978   0.547  0.00  0.00     0.034 A 
ATOM      7 Cl   UNL d   1      -1.900   0.523   0.037  0.00  0.00    -0.070 Cl
ATOM      8 Cl1  UNL d   1       0.226   2.964  -0.306  0.00  0.00    -0.070 Cl
ENDROOT
TORSDOF 0
ENDMDL
