MODEL 1
REMARK minimizedAffinity -3.15883565
REMARK minimizedRMSD -1
REMARK  0 active torsions:
REMARK  status: ('A' for Active; 'I' for Inactive)
ROOT
ATOM      1  C   UNL d   1      -1.053  -1.001   0.339  0.00  0.00     0.020 A 
ATOM      2  C1  UNL d   1      -0.324  -0.811  -0.834  0.00  0.00     0.020 A 
ATOM      3  C2  UNL d   1       0.186   0.451  -1.143  0.00  0.00     0.034 A 
ATOM      4  C3  UNL d   1      -0.032   1.529  -0.277  0.00  0.00     0.017 A 
ATOM      5  C4  UNL d   1      -0.763   1.338   0.900  0.00  0.00     0.017 A 
ATOM      6  C5  UNL d   1      -1.272   0.072   1.204  0.00  0.00     0.034 A 
ATOM      7 Cl   UNL d   1      -1.073   2.620   2.018  0.00  0.00    -0.070 Cl
ATOM      8 Cl1  UNL d   1       0.629   3.063  -0.722  0.00  0.00    -0.070 Cl
ENDROOT
TORSDOF 0
ENDMDL
