MODEL 1
REMARK minimizedAffinity -0.925016463
REMARK minimizedRMSD -1
REMARK  0 active torsions:
REMARK  status: ('A' for Active; 'I' for Inactive)
ROOT
ATOM      1  C   UNL d   1      -1.486   2.827   1.358  0.00  0.00     0.020 A 
ATOM      2  C1  UNL d   1      -0.442   3.431   0.659  0.00  0.00     0.020 A 
ATOM      3  C2  UNL d   1       0.593   2.651   0.140  0.00  0.00     0.034 A 
ATOM      4  C3  UNL d   1       0.587   1.263   0.318  0.00  0.00     0.017 A 
ATOM      5  C4  UNL d   1      -0.462   0.658   1.020  0.00  0.00     0.017 A 
ATOM      6  C5  UNL d   1      -1.496   1.444   1.538  0.00  0.00     0.034 A 
ATOM      7 Cl   UNL d   1      -0.540  -1.049   1.281  0.00  0.00    -0.070 Cl
ATOM      8 Cl1  UNL d   1       1.899   0.360  -0.351  0.00  0.00    -0.070 Cl
ENDROOT
TORSDOF 0
ENDMDL
