MODEL 1
REMARK minimizedAffinity -3.56656575
REMARK minimizedRMSD -1
REMARK  0 active torsions:
REMARK  status: ('A' for Active; 'I' for Inactive)
ROOT
ATOM      1  C   UNL d   1       1.119   2.369   0.105  0.00  0.00     0.020 A 
ATOM      2  C1  UNL d   1      -0.156   2.137  -0.410  0.00  0.00     0.020 A 
ATOM      3  C2  UNL d   1      -0.667   0.838  -0.450  0.00  0.00     0.034 A 
ATOM      4  C3  UNL d   1       0.097  -0.233   0.027  0.00  0.00     0.017 A 
ATOM      5  C4  UNL d   1       1.376   0.001   0.543  0.00  0.00     0.017 A 
ATOM      6  C5  UNL d   1       1.883   1.303   0.581  0.00  0.00     0.034 A 
ATOM      7 Cl   UNL d   1       2.378  -1.271   1.149  0.00  0.00    -0.070 Cl
ATOM      8 Cl1  UNL d   1      -0.599  -1.813  -0.052  0.00  0.00    -0.070 Cl
ENDROOT
TORSDOF 0
ENDMDL
