MODEL 1
REMARK minimizedAffinity -3.22717881
REMARK minimizedRMSD -1
REMARK  0 active torsions:
REMARK  status: ('A' for Active; 'I' for Inactive)
ROOT
ATOM      1  C   UNL d   1      -1.709   0.415   0.925  0.00  0.00     0.020 A 
ATOM      2  C1  UNL d   1      -0.901   0.658  -0.185  0.00  0.00     0.020 A 
ATOM      3  C2  UNL d   1      -0.191   1.856  -0.284  0.00  0.00     0.034 A 
ATOM      4  C3  UNL d   1      -0.287   2.817   0.730  0.00  0.00     0.017 A 
ATOM      5  C4  UNL d   1      -1.098   2.572   1.844  0.00  0.00     0.017 A 
ATOM      6  C5  UNL d   1      -1.807   1.370   1.938  0.00  0.00     0.034 A 
ATOM      7 Cl   UNL d   1      -1.266   3.709   3.135  0.00  0.00    -0.070 Cl
ATOM      8 Cl1  UNL d   1       0.619   4.276   0.543  0.00  0.00    -0.070 Cl
ENDROOT
TORSDOF 0
ENDMDL
