MODEL 1
REMARK minimizedAffinity -4.47618628
REMARK minimizedRMSD -1
REMARK  0 active torsions:
REMARK  status: ('A' for Active; 'I' for Inactive)
ROOT
ATOM      1  C   UNL d   1       0.399   2.976   0.895  0.00  0.00     0.020 A 
ATOM      2  C1  UNL d   1      -0.868   2.542   0.509  0.00  0.00     0.020 A 
ATOM      3  C2  UNL d   1      -1.054   1.227   0.076  0.00  0.00     0.034 A 
ATOM      4  C3  UNL d   1       0.029   0.341   0.030  0.00  0.00     0.017 A 
ATOM      5  C4  UNL d   1       1.301   0.778   0.419  0.00  0.00     0.017 A 
ATOM      6  C5  UNL d   1       1.481   2.096   0.851  0.00  0.00     0.034 A 
ATOM      7 Cl   UNL d   1       2.685  -0.256   0.389  0.00  0.00    -0.070 Cl
ATOM      8 Cl1  UNL d   1      -0.274  -1.270  -0.514  0.00  0.00    -0.070 Cl
ENDROOT
TORSDOF 0
ENDMDL
