MODEL 1
REMARK minimizedAffinity -2.67259479
REMARK minimizedRMSD -1
REMARK  0 active torsions:
REMARK  status: ('A' for Active; 'I' for Inactive)
ROOT
ATOM      1  C   UNL d   1      -1.687   0.027   0.251  0.00  0.00     0.020 A 
ATOM      2  C1  UNL d   1      -0.750   0.371  -0.723  0.00  0.00     0.020 A 
ATOM      3  C2  UNL d   1      -0.000   1.542  -0.587  0.00  0.00     0.034 A 
ATOM      4  C3  UNL d   1      -0.187   2.372   0.524  0.00  0.00     0.017 A 
ATOM      5  C4  UNL d   1      -1.127   2.026   1.500  0.00  0.00     0.017 A 
ATOM      6  C5  UNL d   1      -1.875   0.852   1.360  0.00  0.00     0.034 A 
ATOM      7 Cl   UNL d   1      -1.413   3.000   2.899  0.00  0.00    -0.070 Cl
ATOM      8 Cl1  UNL d   1       0.775   3.804   0.627  0.00  0.00    -0.070 Cl
ENDROOT
TORSDOF 0
ENDMDL
