MODEL 1
REMARK minimizedAffinity -2.27216601
REMARK minimizedRMSD -1
REMARK  0 active torsions:
REMARK  status: ('A' for Active; 'I' for Inactive)
ROOT
ATOM      1  C   UNL d   1      -1.694   2.093   0.529  0.00  0.00     0.020 A 
ATOM      2  C1  UNL d   1      -0.590   2.665   1.161  0.00  0.00     0.020 A 
ATOM      3  C2  UNL d   1       0.638   2.000   1.156  0.00  0.00     0.034 A 
ATOM      4  C3  UNL d   1       0.765   0.760   0.519  0.00  0.00     0.017 A 
ATOM      5  C4  UNL d   1      -0.343   0.188  -0.114  0.00  0.00     0.017 A 
ATOM      6  C5  UNL d   1      -1.571   0.858  -0.107  0.00  0.00     0.034 A 
ATOM      7 Cl   UNL d   1      -0.264  -1.339  -0.921  0.00  0.00    -0.070 Cl
ATOM      8 Cl1  UNL d   1       2.314  -0.005   0.553  0.00  0.00    -0.070 Cl
ENDROOT
TORSDOF 0
ENDMDL
