MODEL 1
REMARK minimizedAffinity -2.50027442
REMARK minimizedRMSD -1
REMARK  0 active torsions:
REMARK  status: ('A' for Active; 'I' for Inactive)
ROOT
ATOM      1  C   UNL d   1       0.899   0.939  -0.903  0.00  0.00     0.020 A 
ATOM      2  C1  UNL d   1       0.901   2.322  -0.727  0.00  0.00     0.020 A 
ATOM      3  C2  UNL d   1       0.091   2.903   0.250  0.00  0.00     0.034 A 
ATOM      4  C3  UNL d   1      -0.726   2.101   1.055  0.00  0.00     0.017 A 
ATOM      5  C4  UNL d   1      -0.727   0.713   0.878  0.00  0.00     0.017 A 
ATOM      6  C5  UNL d   1       0.086   0.136  -0.102  0.00  0.00     0.034 A 
ATOM      7 Cl   UNL d   1      -1.708  -0.342   1.834  0.00  0.00    -0.070 Cl
ATOM      8 Cl1  UNL d   1      -1.703   2.887   2.244  0.00  0.00    -0.070 Cl
ENDROOT
TORSDOF 0
ENDMDL
