MODEL 1
REMARK minimizedAffinity 0.0139366919
REMARK minimizedRMSD -1
REMARK  0 active torsions:
REMARK  status: ('A' for Active; 'I' for Inactive)
ROOT
ATOM      1  C2' OXE d   1      -0.361   1.943   0.804  0.00  0.00     0.078 C 
ATOM      2  C1' OXE d   1      -0.723   1.872  -1.979  0.00  0.00     0.078 C 
ATOM      3  C1  OXE d   1       0.151   0.812  -1.357  0.00  0.00    -0.078 A 
ATOM      4  C2  OXE d   1       0.361   0.882  -0.000  0.00  0.00    -0.078 A 
ATOM      5  C3  OXE d   1       1.114  -0.102   0.633  0.00  0.00     0.003 A 
ATOM      6  C4  OXE d   1       1.786  -1.073  -0.119  0.00  0.00    -0.002 A 
ATOM      7  C5  OXE d   1       1.618  -1.139  -1.507  0.00  0.00    -0.002 A 
ATOM      8  C6  OXE d   1       0.772  -0.231  -2.134  0.00  0.00     0.003 A 
ENDROOT
TORSDOF 0
ENDMDL
