MODEL 1
REMARK minimizedAffinity -3.56233478
REMARK minimizedRMSD -1
REMARK  0 active torsions:
REMARK  status: ('A' for Active; 'I' for Inactive)
ROOT
ATOM      1  C2' OXE d   1      -2.109   0.028   1.352  0.00  0.00     0.078 C 
ATOM      2  C1' OXE d   1      -0.122   0.826  -0.463  0.00  0.00     0.078 C 
ATOM      3  C1  OXE d   1       0.310   0.054   0.758  0.00  0.00    -0.078 A 
ATOM      4  C2  OXE d   1      -0.663  -0.292   1.665  0.00  0.00    -0.078 A 
ATOM      5  C3  OXE d   1      -0.327  -1.052   2.781  0.00  0.00     0.003 A 
ATOM      6  C4  OXE d   1       1.014  -1.335   3.068  0.00  0.00    -0.002 A 
ATOM      7  C5  OXE d   1       2.025  -0.957   2.179  0.00  0.00    -0.002 A 
ATOM      8  C6  OXE d   1       1.687  -0.301   1.001  0.00  0.00     0.003 A 
ENDROOT
TORSDOF 0
ENDMDL
