MODEL 1
REMARK minimizedAffinity 3.16822457
REMARK minimizedRMSD -1
REMARK  0 active torsions:
REMARK  status: ('A' for Active; 'I' for Inactive)
ROOT
ATOM      1  C2' OXE d   1      -0.759   0.395   0.586  0.00  0.00     0.078 C 
ATOM      2  C1' OXE d   1       1.471   0.397   2.290  0.00  0.00     0.078 C 
ATOM      3  C1  OXE d   1       1.636  -0.202   0.916  0.00  0.00    -0.078 A 
ATOM      4  C2  OXE d   1       0.527  -0.241   0.106  0.00  0.00    -0.078 A 
ATOM      5  C3  OXE d   1       0.638  -0.734  -1.191  0.00  0.00     0.003 A 
ATOM      6  C4  OXE d   1       1.828  -1.330  -1.624  0.00  0.00    -0.002 A 
ATOM      7  C5  OXE d   1       2.959  -1.337  -0.800  0.00  0.00    -0.002 A 
ATOM      8  C6  OXE d   1       2.892  -0.740   0.454  0.00  0.00     0.003 A 
ENDROOT
TORSDOF 0
ENDMDL
