MODEL 1
REMARK minimizedAffinity -1.93596566
REMARK minimizedRMSD -1
REMARK  0 active torsions:
REMARK  status: ('A' for Active; 'I' for Inactive)
ROOT
ATOM      1  C2' OXE d   1      -2.952  -1.344   0.280  0.00  0.00     0.078 C 
ATOM      2  C1' OXE d   1      -1.401  -2.061   2.508  0.00  0.00     0.078 C 
ATOM      3  C1  OXE d   1      -0.740  -1.248   1.423  0.00  0.00    -0.078 A 
ATOM      4  C2  OXE d   1      -1.493  -0.941   0.315  0.00  0.00    -0.078 A 
ATOM      5  C3  OXE d   1      -0.949  -0.147  -0.690  0.00  0.00     0.003 A 
ATOM      6  C4  OXE d   1       0.404   0.213  -0.655  0.00  0.00    -0.002 A 
ATOM      7  C5  OXE d   1       1.199  -0.122   0.446  0.00  0.00    -0.002 A 
ATOM      8  C6  OXE d   1       0.632  -0.814   1.511  0.00  0.00     0.003 A 
ENDROOT
TORSDOF 0
ENDMDL
