MODEL 1
REMARK minimizedAffinity 5.92673254
REMARK minimizedRMSD -1
REMARK  0 active torsions:
REMARK  status: ('A' for Active; 'I' for Inactive)
ROOT
ATOM      1  C2' OXE d   1      -1.353   2.620  -2.335  0.00  0.00     0.078 C 
ATOM      2  C1' OXE d   1       0.533   4.680  -2.048  0.00  0.00     0.078 C 
ATOM      3  C1  OXE d   1       0.636   3.797  -3.267  0.00  0.00    -0.078 A 
ATOM      4  C2  OXE d   1      -0.262   2.762  -3.375  0.00  0.00    -0.078 A 
ATOM      5  C3  OXE d   1      -0.246   1.951  -4.507  0.00  0.00     0.003 A 
ATOM      6  C4  OXE d   1       0.772   2.083  -5.459  0.00  0.00    -0.002 A 
ATOM      7  C5  OXE d   1       1.720   3.105  -5.347  0.00  0.00    -0.002 A 
ATOM      8  C6  OXE d   1       1.641   3.995  -4.281  0.00  0.00     0.003 A 
ENDROOT
TORSDOF 0
ENDMDL
