MODEL 1
REMARK minimizedAffinity -0.752664268
REMARK minimizedRMSD -1
REMARK  0 active torsions:
REMARK  status: ('A' for Active; 'I' for Inactive)
ROOT
ATOM      1  C2' OXE d   1      -2.977   2.402  -2.786  0.00  0.00     0.078 C 
ATOM      2  C1' OXE d   1      -0.951   1.374  -1.137  0.00  0.00     0.078 C 
ATOM      3  C1  OXE d   1      -0.539   2.240  -2.301  0.00  0.00    -0.078 A 
ATOM      4  C2  OXE d   1      -1.534   2.701  -3.130  0.00  0.00    -0.078 A 
ATOM      5  C3  OXE d   1      -1.214   3.549  -4.186  0.00  0.00     0.003 A 
ATOM      6  C4  OXE d   1       0.124   3.812  -4.503  0.00  0.00    -0.002 A 
ATOM      7  C5  OXE d   1       1.155   3.320  -3.696  0.00  0.00    -0.002 A 
ATOM      8  C6  OXE d   1       0.839   2.570  -2.569  0.00  0.00     0.003 A 
ENDROOT
TORSDOF 0
ENDMDL
