MODEL 1
REMARK minimizedAffinity -2.58334422
REMARK minimizedRMSD -1
REMARK  0 active torsions:
REMARK  status: ('A' for Active; 'I' for Inactive)
ROOT
ATOM      1  C2' OXE d   1      -2.279  -0.685   0.515  0.00  0.00     0.078 C 
ATOM      2  C1' OXE d   1      -0.365   0.884  -0.810  0.00  0.00     0.078 C 
ATOM      3  C1  OXE d   1       0.006   0.308   0.535  0.00  0.00    -0.078 A 
ATOM      4  C2  OXE d   1      -0.954  -0.420   1.196  0.00  0.00    -0.078 A 
ATOM      5  C3  OXE d   1      -0.646  -1.019   2.415  0.00  0.00     0.003 A 
ATOM      6  C4  OXE d   1       0.578  -0.760   3.043  0.00  0.00    -0.002 A 
ATOM      7  C5  OXE d   1       1.555   0.012   2.404  0.00  0.00    -0.002 A 
ATOM      8  C6  OXE d   1       1.301   0.517   1.133  0.00  0.00     0.003 A 
ENDROOT
TORSDOF 0
ENDMDL
