MODEL 1
REMARK minimizedAffinity -2.86567235
REMARK minimizedRMSD -1
REMARK  0 active torsions:
REMARK  status: ('A' for Active; 'I' for Inactive)
ROOT
ATOM      1  C2' OXE d   1      -1.088  -1.779   3.294  0.00  0.00     0.078 C 
ATOM      2  C1' OXE d   1      -1.409  -0.384   0.879  0.00  0.00     0.078 C 
ATOM      3  C1  OXE d   1      -0.031  -0.422   1.492  0.00  0.00    -0.078 A 
ATOM      4  C2  OXE d   1       0.107  -1.067   2.698  0.00  0.00    -0.078 A 
ATOM      5  C3  OXE d   1       1.366  -1.178   3.280  0.00  0.00     0.003 A 
ATOM      6  C4  OXE d   1       2.464  -0.507   2.727  0.00  0.00    -0.002 A 
ATOM      7  C5  OXE d   1       2.337   0.189   1.521  0.00  0.00    -0.002 A 
ATOM      8  C6  OXE d   1       1.108   0.206   0.870  0.00  0.00     0.003 A 
ENDROOT
TORSDOF 0
ENDMDL
