MODEL 1
REMARK minimizedAffinity -5.2461977
REMARK minimizedRMSD -1
REMARK  0 active torsions:
REMARK  status: ('A' for Active; 'I' for Inactive)
ROOT
ATOM      1  C2' OXE d   1      -0.088   0.128  -0.707  0.00  0.00     0.078 C 
ATOM      2  C1' OXE d   1      -1.340   0.219   1.804  0.00  0.00     0.078 C 
ATOM      3  C1  OXE d   1       0.024  -0.419   1.721  0.00  0.00    -0.078 A 
ATOM      4  C2  OXE d   1       0.609  -0.501   0.480  0.00  0.00    -0.078 A 
ATOM      5  C3  OXE d   1       1.890  -1.031   0.356  0.00  0.00     0.003 A 
ATOM      6  C4  OXE d   1       2.524  -1.620   1.457  0.00  0.00    -0.002 A 
ATOM      7  C5  OXE d   1       1.928  -1.583   2.722  0.00  0.00    -0.002 A 
ATOM      8  C6  OXE d   1       0.700  -0.950   2.879  0.00  0.00     0.003 A 
ENDROOT
TORSDOF 0
ENDMDL
