MODEL 1
REMARK minimizedAffinity 0.0936192498
REMARK minimizedRMSD -1
REMARK  0 active torsions:
REMARK  status: ('A' for Active; 'I' for Inactive)
ROOT
ATOM      1  C2' OXE d   1       2.160   0.402   1.987  0.00  0.00     0.078 C 
ATOM      2  C1' OXE d   1       3.454  -1.137   0.029  0.00  0.00     0.078 C 
ATOM      3  C1  OXE d   1       2.072  -0.621  -0.283  0.00  0.00    -0.078 A 
ATOM      4  C2  OXE d   1       1.427   0.092   0.699  0.00  0.00    -0.078 A 
ATOM      5  C3  OXE d   1       0.173   0.638   0.444  0.00  0.00     0.003 A 
ATOM      6  C4  OXE d   1      -0.502   0.338  -0.746  0.00  0.00    -0.002 A 
ATOM      7  C5  OXE d   1       0.121  -0.419  -1.743  0.00  0.00    -0.002 A 
ATOM      8  C6  OXE d   1       1.421  -0.869  -1.545  0.00  0.00     0.003 A 
ENDROOT
TORSDOF 0
ENDMDL
