MODEL 1
REMARK minimizedAffinity -5.0126338
REMARK minimizedRMSD -1
REMARK  0 active torsions:
REMARK  status: ('A' for Active; 'I' for Inactive)
ROOT
ATOM      1  C2' OXE d   1      -2.279  -0.394   0.899  0.00  0.00     0.078 C 
ATOM      2  C1' OXE d   1      -0.375   0.527  -0.947  0.00  0.00     0.078 C 
ATOM      3  C1  OXE d   1       0.122   0.029   0.386  0.00  0.00    -0.078 A 
ATOM      4  C2  OXE d   1      -0.820  -0.376   1.301  0.00  0.00    -0.078 A 
ATOM      5  C3  OXE d   1      -0.412  -0.896   2.526  0.00  0.00     0.003 A 
ATOM      6  C4  OXE d   1       0.939  -0.867   2.895  0.00  0.00    -0.002 A 
ATOM      7  C5  OXE d   1       1.911  -0.422   1.993  0.00  0.00    -0.002 A 
ATOM      8  C6  OXE d   1       1.524  -0.011   0.722  0.00  0.00     0.003 A 
ENDROOT
TORSDOF 0
ENDMDL
