MODEL 1
REMARK minimizedAffinity -0.0745029375
REMARK minimizedRMSD -1
REMARK  0 active torsions:
REMARK  status: ('A' for Active; 'I' for Inactive)
ROOT
ATOM      1  C2' OXE d   1      -2.533  -0.467   1.393  0.00  0.00     0.078 C 
ATOM      2  C1' OXE d   1      -2.484  -0.678  -1.406  0.00  0.00     0.078 C 
ATOM      3  C1  OXE d   1      -1.164  -0.693  -0.676  0.00  0.00    -0.078 A 
ATOM      4  C2  OXE d   1      -1.195  -0.542   0.690  0.00  0.00    -0.078 A 
ATOM      5  C3  OXE d   1      -0.010  -0.603   1.417  0.00  0.00     0.003 A 
ATOM      6  C4  OXE d   1       1.224  -0.663   0.757  0.00  0.00    -0.002 A 
ATOM      7  C5  OXE d   1       1.280  -0.778  -0.636  0.00  0.00    -0.002 A 
ATOM      8  C6  OXE d   1       0.096  -0.837  -1.362  0.00  0.00     0.003 A 
ENDROOT
TORSDOF 0
ENDMDL
