MODEL 1
REMARK minimizedAffinity -1.30439866
REMARK minimizedRMSD -1
REMARK  0 active torsions:
REMARK  status: ('A' for Active; 'I' for Inactive)
ROOT
ATOM      1  C2' OXE d   1      -1.478  -0.176  -1.248  0.00  0.00     0.078 C 
ATOM      2  C1' OXE d   1       0.747  -1.434  -2.410  0.00  0.00     0.078 C 
ATOM      3  C1  OXE d   1       0.896  -0.893  -1.010  0.00  0.00    -0.078 A 
ATOM      4  C2  OXE d   1      -0.183  -0.238  -0.467  0.00  0.00    -0.078 A 
ATOM      5  C3  OXE d   1      -0.116   0.232   0.841  0.00  0.00     0.003 A 
ATOM      6  C4  OXE d   1       1.088   0.180   1.553  0.00  0.00    -0.002 A 
ATOM      7  C5  OXE d   1       2.211  -0.447   1.004  0.00  0.00    -0.002 A 
ATOM      8  C6  OXE d   1       2.119  -1.025  -0.258  0.00  0.00     0.003 A 
ENDROOT
TORSDOF 0
ENDMDL
