MODEL 1
REMARK minimizedAffinity -2.68376184
REMARK minimizedRMSD -1
REMARK  1 active torsions:
REMARK  status: ('A' for Active; 'I' for Inactive)
REMARK    1  A    between atoms: C1_2  and  C2_3 
ROOT
ATOM      1  C2  UNL d   1      -0.809   0.227   0.025  0.00  0.00    -0.081 A 
ATOM      2  C3  UNL d   1      -0.676  -1.144  -0.227  0.00  0.00     0.006 A 
ATOM      3  C4  UNL d   1       0.522  -1.804   0.061  0.00  0.00     0.002 A 
ATOM      4  C5  UNL d   1       1.602  -1.106   0.612  0.00  0.00    -0.080 A 
ATOM      5  C6  UNL d   1       2.882  -1.808   0.954  0.00  0.00     0.076 C 
ATOM      6  C7  UNL d   1       1.474   0.268   0.847  0.00  0.00     0.002 A 
ATOM      7  C8  UNL d   1       0.278   0.927   0.559  0.00  0.00     0.006 A 
ENDROOT
BRANCH   1   8
ATOM      8  C1  UNL d   1      -2.120   0.927  -0.224  0.00  0.00     0.054 C 
ATOM      9  C   UNL d   1      -3.036   0.836   0.989  0.00  0.00     0.018 C 
ENDBRANCH   1   8
TORSDOF 1
ENDMDL
