MODEL 1
REMARK minimizedAffinity -2.26464701
REMARK minimizedRMSD -1
REMARK  1 active torsions:
REMARK  status: ('A' for Active; 'I' for Inactive)
REMARK    1  A    between atoms: C1_2  and  C2_3 
ROOT
ATOM      1  C2  UNL d   1      -0.803  -0.363   0.058  0.00  0.00    -0.081 A 
ATOM      2  C3  UNL d   1      -0.293   0.158   1.254  0.00  0.00     0.006 A 
ATOM      3  C4  UNL d   1       1.085   0.208   1.474  0.00  0.00     0.002 A 
ATOM      4  C5  UNL d   1       1.977  -0.253   0.500  0.00  0.00    -0.080 A 
ATOM      5  C6  UNL d   1       3.460  -0.177   0.711  0.00  0.00     0.076 C 
ATOM      6  C7  UNL d   1       1.468  -0.790  -0.687  0.00  0.00     0.002 A 
ATOM      7  C8  UNL d   1       0.090  -0.841  -0.908  0.00  0.00     0.006 A 
ENDROOT
BRANCH   1   8
ATOM      8  C1  UNL d   1      -2.286  -0.359  -0.209  0.00  0.00     0.054 C 
ATOM      9  C   UNL d   1      -2.881   1.028  -0.011  0.00  0.00     0.018 C 
ENDBRANCH   1   8
TORSDOF 1
ENDMDL
