MODEL 1
REMARK minimizedAffinity -3.36920881
REMARK minimizedRMSD -1
REMARK  1 active torsions:
REMARK  status: ('A' for Active; 'I' for Inactive)
REMARK    1  A    between atoms: C1_2  and  C2_3 
ROOT
ATOM      1  C2  UNL d   1      -0.857   0.291  -0.300  0.00  0.00    -0.081 A 
ATOM      2  C3  UNL d   1      -0.555  -1.046  -0.586  0.00  0.00     0.006 A 
ATOM      3  C4  UNL d   1       0.708  -1.565  -0.294  0.00  0.00     0.002 A 
ATOM      4  C5  UNL d   1       1.688  -0.758   0.296  0.00  0.00    -0.080 A 
ATOM      5  C6  UNL d   1       3.038  -1.311   0.642  0.00  0.00     0.076 C 
ATOM      6  C7  UNL d   1       1.392   0.582   0.566  0.00  0.00     0.002 A 
ATOM      7  C8  UNL d   1       0.129   1.102   0.273  0.00  0.00     0.006 A 
ENDROOT
BRANCH   1   8
ATOM      8  C1  UNL d   1      -2.240   0.836  -0.554  0.00  0.00     0.054 C 
ATOM      9  C   UNL d   1      -3.055   0.896   0.730  0.00  0.00     0.018 C 
ENDBRANCH   1   8
TORSDOF 1
ENDMDL
