MODEL 1
REMARK minimizedAffinity -2.5111289
REMARK minimizedRMSD -1
REMARK  1 active torsions:
REMARK  status: ('A' for Active; 'I' for Inactive)
REMARK    1  A    between atoms: C1_2  and  C2_3 
ROOT
ATOM      1  C2  UNL d   1      -1.042   0.019  -0.282  0.00  0.00    -0.081 A 
ATOM      2  C3  UNL d   1       0.084   0.646   0.265  0.00  0.00     0.006 A 
ATOM      3  C4  UNL d   1       1.344   0.050   0.165  0.00  0.00     0.002 A 
ATOM      4  C5  UNL d   1       1.499  -1.176  -0.490  0.00  0.00    -0.080 A 
ATOM      5  C6  UNL d   1       2.851  -1.811  -0.630  0.00  0.00     0.076 C 
ATOM      6  C7  UNL d   1       0.371  -1.811  -1.021  0.00  0.00     0.002 A 
ATOM      7  C8  UNL d   1      -0.888  -1.216  -0.921  0.00  0.00     0.006 A 
ENDROOT
BRANCH   1   8
ATOM      8  C1  UNL d   1      -2.392   0.689  -0.233  0.00  0.00     0.054 C 
ATOM      9  C   UNL d   1      -2.971   0.665   1.174  0.00  0.00     0.018 C 
ENDBRANCH   1   8
TORSDOF 1
ENDMDL
