MODEL 1
REMARK minimizedAffinity -1.69646943
REMARK minimizedRMSD -1
REMARK  1 active torsions:
REMARK  status: ('A' for Active; 'I' for Inactive)
REMARK    1  A    between atoms: C1_2  and  C2_3 
ROOT
ATOM      1  C2  UNL d   1       0.882   0.827   0.536  0.00  0.00    -0.081 A 
ATOM      2  C3  UNL d   1      -0.228   1.202  -0.229  0.00  0.00     0.006 A 
ATOM      3  C4  UNL d   1      -0.756   0.332  -1.186  0.00  0.00     0.002 A 
ATOM      4  C5  UNL d   1      -0.187  -0.930  -1.388  0.00  0.00    -0.080 A 
ATOM      5  C6  UNL d   1      -0.762  -1.885  -2.392  0.00  0.00     0.076 C 
ATOM      6  C7  UNL d   1       0.933  -1.298  -0.636  0.00  0.00     0.002 A 
ATOM      7  C8  UNL d   1       1.462  -0.429   0.321  0.00  0.00     0.006 A 
ENDROOT
BRANCH   1   8
ATOM      8  C1  UNL d   1       1.413   1.737   1.614  0.00  0.00     0.054 C 
ATOM      9  C   UNL d   1       1.587   0.993   2.931  0.00  0.00     0.018 C 
ENDBRANCH   1   8
TORSDOF 1
ENDMDL
