MODEL 1
REMARK minimizedAffinity 5.68300486
REMARK minimizedRMSD -1
REMARK  0 active torsions:
REMARK  status: ('A' for Active; 'I' for Inactive)
ROOT
ATOM      1  O1  BZF d   1       1.472  -5.933  -3.377  0.00  0.00    -0.204 OA
ATOM      2  C2  BZF d   1       2.661  -5.911  -4.080  0.00  0.00     0.174 A 
ATOM      3  C3  BZF d   1       3.714  -5.868  -3.237  0.00  0.00    -0.012 A 
ATOM      4  C3A BZF d   1       3.149  -5.955  -1.925  0.00  0.00    -0.107 A 
ATOM      5  C4  BZF d   1       3.689  -5.978  -0.671  0.00  0.00     0.055 A 
ATOM      6  C5  BZF d   1       2.858  -5.995   0.405  0.00  0.00    -0.016 A 
ATOM      7  C6  BZF d   1       1.486  -5.986   0.263  0.00  0.00     0.022 A 
ATOM      8  C7  BZF d   1       0.905  -5.969  -0.961  0.00  0.00     0.029 A 
ATOM      9  C7A BZF d   1       1.741  -5.984  -2.050  0.00  0.00     0.058 A 
ENDROOT
TORSDOF 0
ENDMDL
