MODEL 1
REMARK minimizedAffinity 8.17035389
REMARK minimizedRMSD -1
REMARK  0 active torsions:
REMARK  status: ('A' for Active; 'I' for Inactive)
ROOT
ATOM      1  O1  BZF d   1       5.373  -4.900  -4.980  0.00  0.00    -0.204 OA
ATOM      2  C2  BZF d   1       5.932  -4.864  -3.717  0.00  0.00     0.174 A 
ATOM      3  C3  BZF d   1       5.006  -5.143  -2.777  0.00  0.00    -0.012 A 
ATOM      4  C3A BZF d   1       3.814  -5.458  -3.504  0.00  0.00    -0.107 A 
ATOM      5  C4  BZF d   1       2.556  -5.831  -3.127  0.00  0.00     0.055 A 
ATOM      6  C5  BZF d   1       1.601  -5.992  -4.081  0.00  0.00    -0.016 A 
ATOM      7  C6  BZF d   1       1.868  -5.783  -5.418  0.00  0.00     0.022 A 
ATOM      8  C7  BZF d   1       3.103  -5.416  -5.840  0.00  0.00     0.029 A 
ATOM      9  C7A BZF d   1       4.078  -5.285  -4.882  0.00  0.00     0.058 A 
ENDROOT
TORSDOF 0
ENDMDL
