MODEL 1
REMARK minimizedAffinity 2.38919067
REMARK minimizedRMSD -1
REMARK  0 active torsions:
REMARK  status: ('A' for Active; 'I' for Inactive)
ROOT
ATOM      1  O1  BZF d   1       3.291  -1.129   2.083  0.00  0.00    -0.204 OA
ATOM      2  C2  BZF d   1       2.247  -0.240   1.914  0.00  0.00     0.174 A 
ATOM      3  C3  BZF d   1       1.144  -0.669   2.560  0.00  0.00    -0.012 A 
ATOM      4  C3A BZF d   1       1.549  -1.857   3.248  0.00  0.00    -0.107 A 
ATOM      5  C4  BZF d   1       0.901  -2.730   4.074  0.00  0.00     0.055 A 
ATOM      6  C5  BZF d   1       1.562  -3.831   4.520  0.00  0.00    -0.016 A 
ATOM      7  C6  BZF d   1       2.867  -4.091   4.157  0.00  0.00     0.022 A 
ATOM      8  C7  BZF d   1       3.553  -3.251   3.344  0.00  0.00     0.029 A 
ATOM      9  C7A BZF d   1       2.898  -2.121   2.918  0.00  0.00     0.058 A 
ENDROOT
TORSDOF 0
ENDMDL
