MODEL 1
REMARK minimizedAffinity 8.18358135
REMARK minimizedRMSD -1
REMARK  0 active torsions:
REMARK  status: ('A' for Active; 'I' for Inactive)
ROOT
ATOM      1  O1  BZF d   1      -2.693   0.312  -2.550  0.00  0.00    -0.204 OA
ATOM      2  C2  BZF d   1      -3.553   0.869  -3.477  0.00  0.00     0.174 A 
ATOM      3  C3  BZF d   1      -4.141   1.976  -2.981  0.00  0.00    -0.012 A 
ATOM      4  C3A BZF d   1      -3.546   2.173  -1.694  0.00  0.00    -0.107 A 
ATOM      5  C4  BZF d   1      -3.706   3.117  -0.720  0.00  0.00     0.055 A 
ATOM      6  C5  BZF d   1      -3.028   2.981   0.449  0.00  0.00    -0.016 A 
ATOM      7  C6  BZF d   1      -2.187   1.912   0.681  0.00  0.00     0.022 A 
ATOM      8  C7  BZF d   1      -1.992   0.953  -0.257  0.00  0.00     0.029 A 
ATOM      9  C7A BZF d   1      -2.651   1.105  -1.453  0.00  0.00     0.058 A 
ENDROOT
TORSDOF 0
ENDMDL
