MODEL 1
REMARK minimizedAffinity 1.53635097
REMARK minimizedRMSD -1
REMARK  0 active torsions:
REMARK  status: ('A' for Active; 'I' for Inactive)
ROOT
ATOM      1  O1  BZF d   1       3.504  -5.998  -5.489  0.00  0.00    -0.204 OA
ATOM      2  C2  BZF d   1       2.145  -5.994  -5.738  0.00  0.00     0.174 A 
ATOM      3  C3  BZF d   1       1.447  -5.999  -4.584  0.00  0.00    -0.012 A 
ATOM      4  C3A BZF d   1       2.431  -5.913  -3.549  0.00  0.00    -0.107 A 
ATOM      5  C4  BZF d   1       2.357  -5.862  -2.186  0.00  0.00     0.055 A 
ATOM      6  C5  BZF d   1       3.508  -5.856  -1.463  0.00  0.00    -0.016 A 
ATOM      7  C6  BZF d   1       4.746  -5.905  -2.068  0.00  0.00     0.022 A 
ATOM      8  C7  BZF d   1       4.870  -5.951  -3.417  0.00  0.00     0.029 A 
ATOM      9  C7A BZF d   1       3.710  -5.925  -4.152  0.00  0.00     0.058 A 
ENDROOT
TORSDOF 0
ENDMDL
