MODEL 1
REMARK minimizedAffinity 13.2078161
REMARK minimizedRMSD -1
REMARK  0 active torsions:
REMARK  status: ('A' for Active; 'I' for Inactive)
ROOT
ATOM      1  O1  BZF d   1      -5.637   3.261   1.950  0.00  0.00    -0.204 OA
ATOM      2  C2  BZF d   1      -5.704   1.883   2.018  0.00  0.00     0.174 A 
ATOM      3  C3  BZF d   1      -5.905   1.353   0.794  0.00  0.00    -0.012 A 
ATOM      4  C3A BZF d   1      -5.875   2.464  -0.107  0.00  0.00    -0.107 A 
ATOM      5  C4  BZF d   1      -6.000   2.577  -1.462  0.00  0.00     0.055 A 
ATOM      6  C5  BZF d   1      -5.997   3.814  -2.024  0.00  0.00    -0.016 A 
ATOM      7  C6  BZF d   1      -5.877   4.958  -1.262  0.00  0.00     0.022 A 
ATOM      8  C7  BZF d   1      -5.746   4.896   0.086  0.00  0.00     0.029 A 
ATOM      9  C7A BZF d   1      -5.715   3.645   0.653  0.00  0.00     0.058 A 
ENDROOT
TORSDOF 0
ENDMDL
