MODEL 1
REMARK minimizedAffinity -1.99498332
REMARK minimizedRMSD -1
REMARK  0 active torsions:
REMARK  status: ('A' for Active; 'I' for Inactive)
ROOT
ATOM      1  O1  BZF d   1       3.894  -0.239   2.002  0.00  0.00    -0.204 OA
ATOM      2  C2  BZF d   1       4.861  -0.946   1.315  0.00  0.00     0.174 A 
ATOM      3  C3  BZF d   1       4.591  -2.267   1.332  0.00  0.00    -0.012 A 
ATOM      4  C3A BZF d   1       3.329  -2.384   1.997  0.00  0.00    -0.107 A 
ATOM      5  C4  BZF d   1       2.527  -3.445   2.308  0.00  0.00     0.055 A 
ATOM      6  C5  BZF d   1       1.395  -3.227   3.027  0.00  0.00    -0.016 A 
ATOM      7  C6  BZF d   1       1.038  -1.966   3.456  0.00  0.00     0.022 A 
ATOM      8  C7  BZF d   1       1.799  -0.882   3.168  0.00  0.00     0.029 A 
ATOM      9  C7A BZF d   1       2.927  -1.094   2.413  0.00  0.00     0.058 A 
ENDROOT
TORSDOF 0
ENDMDL
