MODEL 1
REMARK minimizedAffinity 5.28895473
REMARK minimizedRMSD -1
REMARK  0 active torsions:
REMARK  status: ('A' for Active; 'I' for Inactive)
ROOT
ATOM      1  O1  BZF d   1       1.392  -5.968  -4.583  0.00  0.00    -0.204 OA
ATOM      2  C2  BZF d   1       1.793  -5.984  -5.905  0.00  0.00     0.174 A 
ATOM      3  C3  BZF d   1       3.138  -5.942  -5.997  0.00  0.00    -0.012 A 
ATOM      4  C3A BZF d   1       3.610  -5.992  -4.647  0.00  0.00    -0.107 A 
ATOM      5  C4  BZF d   1       4.855  -5.998  -4.087  0.00  0.00     0.055 A 
ATOM      6  C5  BZF d   1       4.971  -5.978  -2.733  0.00  0.00    -0.016 A 
ATOM      7  C6  BZF d   1       3.864  -5.946  -1.910  0.00  0.00     0.022 A 
ATOM      8  C7  BZF d   1       2.608  -5.943  -2.419  0.00  0.00     0.029 A 
ATOM      9  C7A BZF d   1       2.487  -5.997  -3.786  0.00  0.00     0.058 A 
ENDROOT
TORSDOF 0
ENDMDL
