MODEL 1
REMARK minimizedAffinity 2.9242301
REMARK minimizedRMSD -1
REMARK  0 active torsions:
REMARK  status: ('A' for Active; 'I' for Inactive)
ROOT
ATOM      1  C2' OXE d   1       2.312  -5.298  -4.708  0.00  0.00     0.078 C 
ATOM      2  C1' OXE d   1       4.705  -5.999  -5.997  0.00  0.00     0.078 C 
ATOM      3  C1  OXE d   1       4.769  -5.665  -4.528  0.00  0.00    -0.078 A 
ATOM      4  C2  OXE d   1       3.601  -5.278  -3.916  0.00  0.00    -0.078 A 
ATOM      5  C3  OXE d   1       3.594  -5.012  -2.550  0.00  0.00     0.003 A 
ATOM      6  C4  OXE d   1       4.793  -4.986  -1.826  0.00  0.00    -0.002 A 
ATOM      7  C5  OXE d   1       6.000  -5.339  -2.439  0.00  0.00    -0.002 A 
ATOM      8  C6  OXE d   1       5.999  -5.721  -3.776  0.00  0.00     0.003 A 
ENDROOT
TORSDOF 0
ENDMDL
