MODEL 1
REMARK minimizedAffinity 1.51773345
REMARK minimizedRMSD -1
REMARK  0 active torsions:
REMARK  status: ('A' for Active; 'I' for Inactive)
ROOT
ATOM      1  C2' OXE d   1      -6.000   1.943  -4.582  0.00  0.00     0.078 C 
ATOM      2  C1' OXE d   1      -6.000   4.366  -6.000  0.00  0.00     0.078 C 
ATOM      3  C1  OXE d   1      -4.666   3.767  -5.629  0.00  0.00    -0.078 A 
ATOM      4  C2  OXE d   1      -4.676   2.606  -4.895  0.00  0.00    -0.078 A 
ATOM      5  C3  OXE d   1      -3.473   1.983  -4.574  0.00  0.00     0.003 A 
ATOM      6  C4  OXE d   1      -2.253   2.608  -4.859  0.00  0.00    -0.002 A 
ATOM      7  C5  OXE d   1      -2.221   3.811  -5.571  0.00  0.00    -0.002 A 
ATOM      8  C6  OXE d   1      -3.414   4.381  -6.000  0.00  0.00     0.003 A 
ENDROOT
TORSDOF 0
ENDMDL
