MODEL 1
REMARK minimizedAffinity 15.4730387
REMARK minimizedRMSD -1
REMARK  0 active torsions:
REMARK  status: ('A' for Active; 'I' for Inactive)
ROOT
ATOM      1  C2' OXE d   1      -0.277   3.480  -0.939  0.00  0.00     0.078 C 
ATOM      2  C1' OXE d   1      -1.145   2.241   1.425  0.00  0.00     0.078 C 
ATOM      3  C1  OXE d   1       0.301   2.072   1.033  0.00  0.00    -0.078 A 
ATOM      4  C2  OXE d   1       0.706   2.643  -0.150  0.00  0.00    -0.078 A 
ATOM      5  C3  OXE d   1       2.042   2.563  -0.532  0.00  0.00     0.003 A 
ATOM      6  C4  OXE d   1       2.943   1.778   0.199  0.00  0.00    -0.002 A 
ATOM      7  C5  OXE d   1       2.541   1.156   1.385  0.00  0.00    -0.002 A 
ATOM      8  C6  OXE d   1       1.237   1.327   1.838  0.00  0.00     0.003 A 
ENDROOT
TORSDOF 0
ENDMDL
