MODEL 1
REMARK minimizedAffinity 10.987505
REMARK minimizedRMSD -1
REMARK  0 active torsions:
REMARK  status: ('A' for Active; 'I' for Inactive)
ROOT
ATOM      1  C2' OXE d   1       4.769  -0.277  -1.146  0.00  0.00     0.078 C 
ATOM      2  C1' OXE d   1       4.600   2.356  -2.106  0.00  0.00     0.078 C 
ATOM      3  C1  OXE d   1       3.621   1.931  -1.040  0.00  0.00    -0.078 A 
ATOM      4  C2  OXE d   1       3.681   0.628  -0.609  0.00  0.00    -0.078 A 
ATOM      5  C3  OXE d   1       2.837   0.199   0.412  0.00  0.00     0.003 A 
ATOM      6  C4  OXE d   1       1.827   1.039   0.895  0.00  0.00    -0.002 A 
ATOM      7  C5  OXE d   1       1.723   2.359   0.442  0.00  0.00    -0.002 A 
ATOM      8  C6  OXE d   1       2.637   2.832  -0.492  0.00  0.00     0.003 A 
ENDROOT
TORSDOF 0
ENDMDL
