MODEL 1
REMARK minimizedAffinity 4.96510744
REMARK minimizedRMSD -1
REMARK  0 active torsions:
REMARK  status: ('A' for Active; 'I' for Inactive)
ROOT
ATOM      1  C2' OXE d   1       2.507   2.036   0.352  0.00  0.00     0.078 C 
ATOM      2  C1' OXE d   1       3.451   1.832   2.987  0.00  0.00     0.078 C 
ATOM      3  C1  OXE d   1       1.978   2.082   2.785  0.00  0.00    -0.078 A 
ATOM      4  C2  OXE d   1       1.533   2.227   1.493  0.00  0.00    -0.078 A 
ATOM      5  C3  OXE d   1       0.174   2.405   1.249  0.00  0.00     0.003 A 
ATOM      6  C4  OXE d   1      -0.720   2.590   2.311  0.00  0.00    -0.002 A 
ATOM      7  C5  OXE d   1      -0.280   2.486   3.634  0.00  0.00    -0.002 A 
ATOM      8  C6  OXE d   1       1.055   2.190   3.888  0.00  0.00     0.003 A 
ENDROOT
TORSDOF 0
ENDMDL
