MODEL 1
REMARK minimizedAffinity 7.51137304
REMARK minimizedRMSD -1
REMARK  0 active torsions:
REMARK  status: ('A' for Active; 'I' for Inactive)
ROOT
ATOM      1  C2' OXE d   1       5.984  -4.665  -5.915  0.00  0.00     0.078 C 
ATOM      2  C1' OXE d   1       4.934  -2.907  -3.995  0.00  0.00     0.078 C 
ATOM      3  C1  OXE d   1       4.025  -3.983  -4.534  0.00  0.00    -0.078 A 
ATOM      4  C2  OXE d   1       4.533  -4.810  -5.508  0.00  0.00    -0.078 A 
ATOM      5  C3  OXE d   1       3.755  -5.854  -6.000  0.00  0.00     0.003 A 
ATOM      6  C4  OXE d   1       2.412  -5.974  -5.625  0.00  0.00    -0.002 A 
ATOM      7  C5  OXE d   1       1.863  -5.118  -4.665  0.00  0.00    -0.002 A 
ATOM      8  C6  OXE d   1       2.667  -4.146  -4.079  0.00  0.00     0.003 A 
ENDROOT
TORSDOF 0
ENDMDL
