MODEL 1
REMARK minimizedAffinity 9.67643547
REMARK minimizedRMSD -1
REMARK  0 active torsions:
REMARK  status: ('A' for Active; 'I' for Inactive)
ROOT
ATOM      1  C2' OXE d   1       2.392  -5.831  -2.384  0.00  0.00     0.078 C 
ATOM      2  C1' OXE d   1       1.281  -5.613  -4.952  0.00  0.00     0.078 C 
ATOM      3  C1  OXE d   1       2.784  -5.575  -4.830  0.00  0.00    -0.078 A 
ATOM      4  C2  OXE d   1       3.317  -5.635  -3.566  0.00  0.00    -0.078 A 
ATOM      5  C3  OXE d   1       4.699  -5.659  -3.401  0.00  0.00     0.003 A 
ATOM      6  C4  OXE d   1       5.547  -5.468  -4.498  0.00  0.00    -0.002 A 
ATOM      7  C5  OXE d   1       5.023  -5.364  -5.791  0.00  0.00    -0.002 A 
ATOM      8  C6  OXE d   1       3.649  -5.459  -5.979  0.00  0.00     0.003 A 
ENDROOT
TORSDOF 0
ENDMDL
