MODEL 1
REMARK minimizedAffinity 18.3577538
REMARK minimizedRMSD -1
REMARK  0 active torsions:
REMARK  status: ('A' for Active; 'I' for Inactive)
ROOT
ATOM      1  C2' OXE d   1      -2.244  -3.434   1.547  0.00  0.00     0.078 C 
ATOM      2  C1' OXE d   1      -3.371  -6.000   1.718  0.00  0.00     0.078 C 
ATOM      3  C1  OXE d   1      -2.890  -5.356   2.995  0.00  0.00    -0.078 A 
ATOM      4  C2  OXE d   1      -2.298  -4.120   2.896  0.00  0.00    -0.078 A 
ATOM      5  C3  OXE d   1      -1.887  -3.458   4.049  0.00  0.00     0.003 A 
ATOM      6  C4  OXE d   1      -1.931  -4.104   5.291  0.00  0.00    -0.002 A 
ATOM      7  C5  OXE d   1      -2.494  -5.379   5.408  0.00  0.00    -0.002 A 
ATOM      8  C6  OXE d   1      -3.016  -6.000   4.279  0.00  0.00     0.003 A 
ENDROOT
TORSDOF 0
ENDMDL
