MODEL 1
REMARK minimizedAffinity -0.827366829
REMARK minimizedRMSD -1
REMARK  0 active torsions:
REMARK  status: ('A' for Active; 'I' for Inactive)
ROOT
ATOM      1  C2' OXE d   1       5.684  -4.174  -3.482  0.00  0.00     0.078 C 
ATOM      2  C1' OXE d   1       5.984  -5.470  -5.954  0.00  0.00     0.078 C 
ATOM      3  C1  OXE d   1       4.605  -5.427  -5.345  0.00  0.00    -0.078 A 
ATOM      4  C2  OXE d   1       4.476  -4.832  -4.113  0.00  0.00    -0.078 A 
ATOM      5  C3  OXE d   1       3.216  -4.717  -3.532  0.00  0.00     0.003 A 
ATOM      6  C4  OXE d   1       2.106  -5.337  -4.118  0.00  0.00    -0.002 A 
ATOM      7  C5  OXE d   1       2.223  -5.983  -5.353  0.00  0.00    -0.002 A 
ATOM      8  C6  OXE d   1       3.454  -6.000  -5.999  0.00  0.00     0.003 A 
ENDROOT
TORSDOF 0
ENDMDL
