MODEL 1
REMARK minimizedAffinity 22.920042
REMARK minimizedRMSD -1
REMARK  0 active torsions:
REMARK  status: ('A' for Active; 'I' for Inactive)
ROOT
ATOM      1  C2' OXE d   1       0.760   1.997   0.314  0.00  0.00     0.078 C 
ATOM      2  C1' OXE d   1       3.204   1.288  -0.869  0.00  0.00     0.078 C 
ATOM      3  C1  OXE d   1       3.237   1.844   0.532  0.00  0.00    -0.078 A 
ATOM      4  C2  OXE d   1       2.041   2.232   1.086  0.00  0.00    -0.078 A 
ATOM      5  C3  OXE d   1       2.007   2.701   2.396  0.00  0.00     0.003 A 
ATOM      6  C4  OXE d   1       3.197   2.925   3.099  0.00  0.00    -0.002 A 
ATOM      7  C5  OXE d   1       4.430   2.574   2.538  0.00  0.00    -0.002 A 
ATOM      8  C6  OXE d   1       4.464   1.994   1.275  0.00  0.00     0.003 A 
ENDROOT
TORSDOF 0
ENDMDL
