MODEL 1
REMARK minimizedAffinity 18.064846
REMARK minimizedRMSD -1
REMARK  0 active torsions:
REMARK  status: ('A' for Active; 'I' for Inactive)
ROOT
ATOM      1  C2' OXE d   1       5.839  -5.300  -5.750  0.00  0.00     0.078 C 
ATOM      2  C1' OXE d   1       5.216  -4.024  -3.329  0.00  0.00     0.078 C 
ATOM      3  C1  OXE d   1       4.097  -4.715  -4.068  0.00  0.00    -0.078 A 
ATOM      4  C2  OXE d   1       4.402  -5.296  -5.275  0.00  0.00    -0.078 A 
ATOM      5  C3  OXE d   1       3.419  -5.993  -5.972  0.00  0.00     0.003 A 
ATOM      6  C4  OXE d   1       2.090  -5.976  -5.531  0.00  0.00    -0.002 A 
ATOM      7  C5  OXE d   1       1.751  -5.356  -4.324  0.00  0.00    -0.002 A 
ATOM      8  C6  OXE d   1       2.748  -4.758  -3.561  0.00  0.00     0.003 A 
ENDROOT
TORSDOF 0
ENDMDL
