MODEL 1
REMARK minimizedAffinity 7.92595005
REMARK minimizedRMSD -1
REMARK  0 active torsions:
REMARK  status: ('A' for Active; 'I' for Inactive)
ROOT
ATOM      1  C2' OXE d   1      -2.307  -2.417   1.502  0.00  0.00     0.078 C 
ATOM      2  C1' OXE d   1      -2.997  -4.979   2.418  0.00  0.00     0.078 C 
ATOM      3  C1  OXE d   1      -2.533  -4.844   0.989  0.00  0.00    -0.078 A 
ATOM      4  C2  OXE d   1      -2.242  -3.580   0.536  0.00  0.00    -0.078 A 
ATOM      5  C3  OXE d   1      -1.758  -3.406  -0.758  0.00  0.00     0.003 A 
ATOM      6  C4  OXE d   1      -1.711  -4.485  -1.648  0.00  0.00    -0.002 A 
ATOM      7  C5  OXE d   1      -2.041  -5.775  -1.219  0.00  0.00    -0.002 A 
ATOM      8  C6  OXE d   1      -2.412  -5.978   0.106  0.00  0.00     0.003 A 
ENDROOT
TORSDOF 0
ENDMDL
