MODEL 1
REMARK minimizedAffinity 18.4040298
REMARK minimizedRMSD -1
REMARK  0 active torsions:
REMARK  status: ('A' for Active; 'I' for Inactive)
ROOT
ATOM      1  C2' OXE d   1       4.218   1.787   2.703  0.00  0.00     0.078 C 
ATOM      2  C1' OXE d   1       4.061   2.196  -0.070  0.00  0.00     0.078 C 
ATOM      3  C1  OXE d   1       2.772   2.180   0.713  0.00  0.00    -0.078 A 
ATOM      4  C2  OXE d   1       2.855   1.932   2.062  0.00  0.00    -0.078 A 
ATOM      5  C3  OXE d   1       1.701   1.961   2.840  0.00  0.00     0.003 A 
ATOM      6  C4  OXE d   1       0.443   2.086   2.238  0.00  0.00    -0.002 A 
ATOM      7  C5  OXE d   1       0.334   2.299   0.860  0.00  0.00    -0.002 A 
ATOM      8  C6  OXE d   1       1.489   2.391   0.091  0.00  0.00     0.003 A 
ENDROOT
TORSDOF 0
ENDMDL
