MODEL 1
REMARK minimizedAffinity 4.27153349
REMARK minimizedRMSD -1
REMARK  0 active torsions:
REMARK  status: ('A' for Active; 'I' for Inactive)
ROOT
ATOM      1  C2' OXE d   1       6.000   2.631  -2.262  0.00  0.00     0.078 C 
ATOM      2  C1' OXE d   1       3.695   1.079  -2.662  0.00  0.00     0.078 C 
ATOM      3  C1  OXE d   1       4.131   1.992  -3.780  0.00  0.00    -0.078 A 
ATOM      4  C2  OXE d   1       5.233   2.782  -3.558  0.00  0.00    -0.078 A 
ATOM      5  C3  OXE d   1       5.710   3.603  -4.576  0.00  0.00     0.003 A 
ATOM      6  C4  OXE d   1       4.989   3.745  -5.768  0.00  0.00    -0.002 A 
ATOM      7  C5  OXE d   1       3.842   2.978  -6.000  0.00  0.00    -0.002 A 
ATOM      8  C6  OXE d   1       3.424   2.068  -5.035  0.00  0.00     0.003 A 
ENDROOT
TORSDOF 0
ENDMDL
