MODEL 1
REMARK minimizedAffinity 12.7862282
REMARK minimizedRMSD -1
REMARK  0 active torsions:
REMARK  status: ('A' for Active; 'I' for Inactive)
ROOT
ATOM      1  C2' OXE d   1       4.577   1.036   2.705  0.00  0.00     0.078 C 
ATOM      2  C1' OXE d   1       2.252   1.902   4.017  0.00  0.00     0.078 C 
ATOM      3  C1  OXE d   1       2.214   1.800   2.513  0.00  0.00    -0.078 A 
ATOM      4  C2  OXE d   1       3.371   1.420   1.876  0.00  0.00    -0.078 A 
ATOM      5  C3  OXE d   1       3.375   1.257   0.493  0.00  0.00     0.003 A 
ATOM      6  C4  OXE d   1       2.258   1.625  -0.267  0.00  0.00    -0.002 A 
ATOM      7  C5  OXE d   1       1.083   2.052   0.359  0.00  0.00    -0.002 A 
ATOM      8  C6  OXE d   1       1.030   2.104   1.748  0.00  0.00     0.003 A 
ENDROOT
TORSDOF 0
ENDMDL
