MODEL 1
REMARK minimizedAffinity 11.9880257
REMARK minimizedRMSD -1
REMARK  0 active torsions:
REMARK  status: ('A' for Active; 'I' for Inactive)
ROOT
ATOM      1  C2' OXE d   1       1.724   1.465   1.020  0.00  0.00     0.078 C 
ATOM      2  C1' OXE d   1       3.499   2.542   2.911  0.00  0.00     0.078 C 
ATOM      3  C1  OXE d   1       3.939   2.514   1.469  0.00  0.00    -0.078 A 
ATOM      4  C2  OXE d   1       3.084   1.942   0.557  0.00  0.00    -0.078 A 
ATOM      5  C3  OXE d   1       3.418   1.940  -0.794  0.00  0.00     0.003 A 
ATOM      6  C4  OXE d   1       4.681   2.374  -1.213  0.00  0.00    -0.002 A 
ATOM      7  C5  OXE d   1       5.583   2.923  -0.295  0.00  0.00    -0.002 A 
ATOM      8  C6  OXE d   1       5.212   3.039   1.040  0.00  0.00     0.003 A 
ENDROOT
TORSDOF 0
ENDMDL
