MODEL 1
REMARK minimizedAffinity 15.1741276
REMARK minimizedRMSD -1
REMARK  0 active torsions:
REMARK  status: ('A' for Active; 'I' for Inactive)
ROOT
ATOM      1  C2' OXE d   1       0.988   1.887  -1.068  0.00  0.00     0.078 C 
ATOM      2  C1' OXE d   1      -0.322   2.257   1.386  0.00  0.00     0.078 C 
ATOM      3  C1  OXE d   1       1.184   2.178   1.398  0.00  0.00    -0.078 A 
ATOM      4  C2  OXE d   1       1.814   1.950   0.198  0.00  0.00    -0.078 A 
ATOM      5  C3  OXE d   1       3.205   1.922   0.145  0.00  0.00     0.003 A 
ATOM      6  C4  OXE d   1       3.961   1.971   1.322  0.00  0.00    -0.002 A 
ATOM      7  C5  OXE d   1       3.336   2.163   2.559  0.00  0.00    -0.002 A 
ATOM      8  C6  OXE d   1       1.955   2.311   2.609  0.00  0.00     0.003 A 
ENDROOT
TORSDOF 0
ENDMDL
