MODEL 1
REMARK minimizedAffinity 0.539143205
REMARK minimizedRMSD -1
REMARK  0 active torsions:
REMARK  status: ('A' for Active; 'I' for Inactive)
ROOT
ATOM      1  C2' OXE d   1       1.378   0.184  -0.651  0.00  0.00     0.078 C 
ATOM      2  C1' OXE d   1      -1.077   0.234   0.710  0.00  0.00     0.078 C 
ATOM      3  C1  OXE d   1       0.050   1.073   1.260  0.00  0.00    -0.078 A 
ATOM      4  C2  OXE d   1       1.261   1.006   0.614  0.00  0.00    -0.078 A 
ATOM      5  C3  OXE d   1       2.318   1.801   1.048  0.00  0.00     0.003 A 
ATOM      6  C4  OXE d   1       2.205   2.551   2.225  0.00  0.00    -0.002 A 
ATOM      7  C5  OXE d   1       0.992   2.602   2.920  0.00  0.00    -0.002 A 
ATOM      8  C6  OXE d   1      -0.106   1.903   2.428  0.00  0.00     0.003 A 
ENDROOT
TORSDOF 0
ENDMDL
