MODEL 1
REMARK minimizedAffinity 7.90688229
REMARK minimizedRMSD -1
REMARK  0 active torsions:
REMARK  status: ('A' for Active; 'I' for Inactive)
ROOT
ATOM      1  C   UNL d   1       3.046  -0.336   0.685  0.00  0.00     0.124 A 
ATOM      2  C1  UNL d   1       2.193  -0.698   1.719  0.00  0.00     0.062 A 
ATOM      3  C2  UNL d   1       0.814  -0.602   1.554  0.00  0.00     0.162 A 
ATOM      4  C3  UNL d   1       0.280  -0.143   0.350  0.00  0.00    -0.034 A 
ATOM      5  C4  UNL d   1       1.144   0.219  -0.685  0.00  0.00     0.162 A 
ATOM      6  C5  UNL d   1       2.521   0.121  -0.515  0.00  0.00     0.062 A 
ATOM      7  F   UNL d   1       3.344   0.471  -1.514  0.00  0.00    -0.097 F 
ATOM      8  F1  UNL d   1       0.664   0.664  -1.855  0.00  0.00    -0.096 F 
ATOM      9  I   UNL d   1      -1.781   0.002   0.099  0.00  0.00    -0.060 I 
ATOM     10  F2  UNL d   1       0.013  -0.958   2.569  0.00  0.00    -0.096 F 
ATOM     11  F3  UNL d   1       2.698  -1.140   2.880  0.00  0.00    -0.097 F 
ATOM     12  F4  UNL d   1       4.373  -0.429   0.847  0.00  0.00    -0.092 F 
ENDROOT
TORSDOF 0
ENDMDL
