MODEL 1
REMARK minimizedAffinity -0.308186561
REMARK minimizedRMSD -1
REMARK  0 active torsions:
REMARK  status: ('A' for Active; 'I' for Inactive)
ROOT
ATOM      1  C   UNL d   1      -1.127  -0.355   4.653  0.00  0.00     0.124 A 
ATOM      2  C1  UNL d   1      -2.177  -1.173   4.258  0.00  0.00     0.062 A 
ATOM      3  C2  UNL d   1      -2.818  -0.950   3.043  0.00  0.00     0.162 A 
ATOM      4  C3  UNL d   1      -2.412   0.095   2.213  0.00  0.00    -0.034 A 
ATOM      5  C4  UNL d   1      -1.356   0.914   2.618  0.00  0.00     0.162 A 
ATOM      6  C5  UNL d   1      -0.718   0.687   3.833  0.00  0.00     0.062 A 
ATOM      7  F   UNL d   1       0.296   1.478   4.213  0.00  0.00    -0.097 F 
ATOM      8  F1  UNL d   1      -0.940   1.927   1.844  0.00  0.00    -0.096 F 
ATOM      9  I   UNL d   1      -3.369   0.431   0.396  0.00  0.00    -0.060 I 
ATOM     10  F2  UNL d   1      -3.830  -1.756   2.687  0.00  0.00    -0.096 F 
ATOM     11  F3  UNL d   1      -2.574  -2.180   5.049  0.00  0.00    -0.097 F 
ATOM     12  F4  UNL d   1      -0.512  -0.571   5.823  0.00  0.00    -0.092 F 
ENDROOT
TORSDOF 0
ENDMDL
