MODEL 1
REMARK minimizedAffinity 6.09058666
REMARK minimizedRMSD -1
REMARK  0 active torsions:
REMARK  status: ('A' for Active; 'I' for Inactive)
ROOT
ATOM      1  C   UNL d   1      -1.978   0.131  -0.015  0.00  0.00     0.124 A 
ATOM      2  C1  UNL d   1      -0.821  -0.233   0.660  0.00  0.00     0.062 A 
ATOM      3  C2  UNL d   1      -0.672   0.072   2.010  0.00  0.00     0.162 A 
ATOM      4  C3  UNL d   1      -1.684   0.745   2.695  0.00  0.00    -0.034 A 
ATOM      5  C4  UNL d   1      -2.845   1.108   2.009  0.00  0.00     0.162 A 
ATOM      6  C5  UNL d   1      -2.988   0.801   0.660  0.00  0.00     0.062 A 
ATOM      7  F   UNL d   1      -4.107   1.153   0.009  0.00  0.00    -0.097 F 
ATOM      8  F1  UNL d   1      -3.838   1.756   2.637  0.00  0.00    -0.096 F 
ATOM      9  I   UNL d   1      -1.467   1.203   4.713  0.00  0.00    -0.060 I 
ATOM     10  F2  UNL d   1       0.456  -0.291   2.637  0.00  0.00    -0.096 F 
ATOM     11  F3  UNL d   1       0.158  -0.880   0.010  0.00  0.00    -0.097 F 
ATOM     12  F4  UNL d   1      -2.117  -0.164  -1.314  0.00  0.00    -0.092 F 
ENDROOT
TORSDOF 0
ENDMDL
