MODEL 1
REMARK minimizedAffinity 5.3660264
REMARK minimizedRMSD -1
REMARK  0 active torsions:
REMARK  status: ('A' for Active; 'I' for Inactive)
ROOT
ATOM      1  C   UNL d   1      -1.749   0.120   1.911  0.00  0.00     0.124 A 
ATOM      2  C1  UNL d   1      -0.557   0.371   2.575  0.00  0.00     0.062 A 
ATOM      3  C2  UNL d   1       0.646  -0.099   2.055  0.00  0.00     0.162 A 
ATOM      4  C3  UNL d   1       0.662  -0.825   0.864  0.00  0.00    -0.034 A 
ATOM      5  C4  UNL d   1      -0.542  -1.074   0.203  0.00  0.00     0.162 A 
ATOM      6  C5  UNL d   1      -1.741  -0.602   0.726  0.00  0.00     0.062 A 
ATOM      7  F   UNL d   1      -2.893  -0.845   0.083  0.00  0.00    -0.097 F 
ATOM      8  F1  UNL d   1      -0.563  -1.768  -0.945  0.00  0.00    -0.096 F 
ATOM      9  I   UNL d   1       2.458  -1.530   0.084  0.00  0.00    -0.060 I 
ATOM     10  F2  UNL d   1       1.783   0.158   2.718  0.00  0.00    -0.096 F 
ATOM     11  F3  UNL d   1      -0.562   1.067   3.721  0.00  0.00    -0.097 F 
ATOM     12  F4  UNL d   1      -2.905   0.573   2.414  0.00  0.00    -0.092 F 
ENDROOT
TORSDOF 0
ENDMDL
