MODEL 1
REMARK minimizedAffinity 8.67671776
REMARK minimizedRMSD -1
REMARK  0 active torsions:
REMARK  status: ('A' for Active; 'I' for Inactive)
ROOT
ATOM      1  C   UNL d   1      -1.701   0.870   2.430  0.00  0.00     0.124 A 
ATOM      2  C1  UNL d   1      -1.959   0.124   1.288  0.00  0.00     0.062 A 
ATOM      3  C2  UNL d   1      -0.915  -0.487   0.600  0.00  0.00     0.162 A 
ATOM      4  C3  UNL d   1       0.399  -0.354   1.052  0.00  0.00    -0.034 A 
ATOM      5  C4  UNL d   1       0.650   0.399   2.200  0.00  0.00     0.162 A 
ATOM      6  C5  UNL d   1      -0.397   1.007   2.884  0.00  0.00     0.062 A 
ATOM      7  F   UNL d   1      -0.146   1.728   3.987  0.00  0.00    -0.097 F 
ATOM      8  F1  UNL d   1       1.901   0.547   2.662  0.00  0.00    -0.096 F 
ATOM      9  I   UNL d   1       1.963  -1.265   0.026  0.00  0.00    -0.060 I 
ATOM     10  F2  UNL d   1      -1.193  -1.202  -0.500  0.00  0.00    -0.096 F 
ATOM     11  F3  UNL d   1      -3.218  -0.010   0.847  0.00  0.00    -0.097 F 
ATOM     12  F4  UNL d   1      -2.708   1.457   3.089  0.00  0.00    -0.092 F 
ENDROOT
TORSDOF 0
ENDMDL
