MODEL 1
REMARK minimizedAffinity 9.15931129
REMARK minimizedRMSD -1
REMARK  0 active torsions:
REMARK  status: ('A' for Active; 'I' for Inactive)
ROOT
ATOM      1  C   UNL d   1      -1.684  -4.800  -4.479  0.00  0.00     0.124 A 
ATOM      2  C1  UNL d   1      -2.227  -3.833  -3.644  0.00  0.00     0.062 A 
ATOM      3  C2  UNL d   1      -1.613  -2.590  -3.521  0.00  0.00     0.162 A 
ATOM      4  C3  UNL d   1      -0.449  -2.306  -4.236  0.00  0.00    -0.034 A 
ATOM      5  C4  UNL d   1       0.091  -3.283  -5.073  0.00  0.00     0.162 A 
ATOM      6  C5  UNL d   1      -0.526  -4.524  -5.193  0.00  0.00     0.062 A 
ATOM      7  F   UNL d   1      -0.000  -5.457  -6.000  0.00  0.00    -0.097 F 
ATOM      8  F1  UNL d   1       1.209  -3.044  -5.774  0.00  0.00    -0.096 F 
ATOM      9  I   UNL d   1       0.472  -0.448  -4.054  0.00  0.00    -0.060 I 
ATOM     10  F2  UNL d   1      -2.159  -1.675  -2.707  0.00  0.00    -0.096 F 
ATOM     11  F3  UNL d   1      -3.345  -4.097  -2.953  0.00  0.00    -0.097 F 
ATOM     12  F4  UNL d   1      -2.276  -5.995  -4.595  0.00  0.00    -0.092 F 
ENDROOT
TORSDOF 0
ENDMDL
