MODEL 1
REMARK minimizedAffinity 9.47064304
REMARK minimizedRMSD -1
REMARK  0 active torsions:
REMARK  status: ('A' for Active; 'I' for Inactive)
ROOT
ATOM      1  C   UNL d   1      -3.429  -0.030  -0.739  0.00  0.00     0.124 A 
ATOM      2  C1  UNL d   1      -3.223   1.190  -0.109  0.00  0.00     0.062 A 
ATOM      3  C2  UNL d   1      -2.367   1.277   0.985  0.00  0.00     0.162 A 
ATOM      4  C3  UNL d   1      -1.709   0.140   1.456  0.00  0.00    -0.034 A 
ATOM      5  C4  UNL d   1      -1.922  -1.083   0.818  0.00  0.00     0.162 A 
ATOM      6  C5  UNL d   1      -2.779  -1.164  -0.275  0.00  0.00     0.062 A 
ATOM      7  F   UNL d   1      -2.977  -2.344  -0.883  0.00  0.00    -0.097 F 
ATOM      8  F1  UNL d   1      -1.305  -2.195   1.244  0.00  0.00    -0.096 F 
ATOM      9  I   UNL d   1      -0.428   0.266   3.091  0.00  0.00    -0.060 I 
ATOM     10  F2  UNL d   1      -2.186   2.468   1.574  0.00  0.00    -0.096 F 
ATOM     11  F3  UNL d   1      -3.851   2.287  -0.554  0.00  0.00    -0.097 F 
ATOM     12  F4  UNL d   1      -4.254  -0.111  -1.790  0.00  0.00    -0.092 F 
ENDROOT
TORSDOF 0
ENDMDL
