MODEL 1
REMARK minimizedAffinity 19.4890308
REMARK minimizedRMSD -1
REMARK  0 active torsions:
REMARK  status: ('A' for Active; 'I' for Inactive)
ROOT
ATOM      1  C   UNL d   1      -3.848   0.135   2.980  0.00  0.00     0.124 A 
ATOM      2  C1  UNL d   1      -2.987  -0.895   3.334  0.00  0.00     0.062 A 
ATOM      3  C2  UNL d   1      -1.661  -0.876   2.912  0.00  0.00     0.162 A 
ATOM      4  C3  UNL d   1      -1.186   0.178   2.131  0.00  0.00    -0.034 A 
ATOM      5  C4  UNL d   1      -2.058   1.210   1.778  0.00  0.00     0.162 A 
ATOM      6  C5  UNL d   1      -3.382   1.186   2.202  0.00  0.00     0.062 A 
ATOM      7  F   UNL d   1      -4.212   2.182   1.859  0.00  0.00    -0.097 F 
ATOM      8  F1  UNL d   1      -1.634   2.238   1.028  0.00  0.00    -0.096 F 
ATOM      9  I   UNL d   1       0.796   0.210   1.498  0.00  0.00    -0.060 I 
ATOM     10  F2  UNL d   1      -0.852  -1.885   3.269  0.00  0.00    -0.096 F 
ATOM     11  F3  UNL d   1      -3.434  -1.913   4.084  0.00  0.00    -0.097 F 
ATOM     12  F4  UNL d   1      -5.123   0.113   3.387  0.00  0.00    -0.092 F 
ENDROOT
TORSDOF 0
ENDMDL
