MODEL 1
REMARK minimizedAffinity -0.581106842
REMARK minimizedRMSD -1
REMARK  0 active torsions:
REMARK  status: ('A' for Active; 'I' for Inactive)
ROOT
ATOM      1  C   UNL d   1       0.455  -1.105   0.280  0.00  0.00    -0.002 A 
ATOM      2  C1  UNL d   1      -0.393  -0.061   0.624  0.00  0.00     0.010 A 
ATOM      3  C2  UNL d   1      -0.554   1.033  -0.228  0.00  0.00     0.041 A 
ATOM      4  C3  UNL d   1       0.156   1.060  -1.444  0.00  0.00    -0.075 A 
ATOM      5  S   UNL d   1       0.115   2.296  -2.645  0.00  0.00     0.015 SA
ATOM      6  C4  UNL d   1       1.220   1.468  -3.643  0.00  0.00     0.022 A 
ATOM      7  C5  UNL d   1       1.622   0.276  -3.089  0.00  0.00     0.026 A 
ATOM      8  C6  UNL d   1       1.015   0.020  -1.813  0.00  0.00    -0.082 A 
ATOM      9  C7  UNL d   1       1.158  -1.074  -0.927  0.00  0.00     0.045 A 
ENDROOT
TORSDOF 0
ENDMDL
