MODEL 1
REMARK minimizedAffinity -4.45632267
REMARK minimizedRMSD -1
REMARK  0 active torsions:
REMARK  status: ('A' for Active; 'I' for Inactive)
ROOT
ATOM      1  C   UNL d   1      -0.989  -2.531   0.771  0.00  0.00    -0.002 A 
ATOM      2  C1  UNL d   1      -2.092  -1.824   1.228  0.00  0.00     0.010 A 
ATOM      3  C2  UNL d   1      -2.163  -0.439   1.067  0.00  0.00     0.041 A 
ATOM      4  C3  UNL d   1      -1.099   0.230   0.430  0.00  0.00    -0.075 A 
ATOM      5  S   UNL d   1      -0.970   1.921   0.121  0.00  0.00     0.015 SA
ATOM      6  C4  UNL d   1       0.552   1.744  -0.626  0.00  0.00     0.022 A 
ATOM      7  C5  UNL d   1       0.966   0.433  -0.648  0.00  0.00     0.026 A 
ATOM      8  C6  UNL d   1       0.021  -0.461  -0.040  0.00  0.00    -0.082 A 
ATOM      9  C7  UNL d   1       0.065  -1.865   0.139  0.00  0.00     0.045 A 
ENDROOT
TORSDOF 0
ENDMDL
