MODEL 1
REMARK minimizedAffinity -0.445794523
REMARK minimizedRMSD -1
REMARK  0 active torsions:
REMARK  status: ('A' for Active; 'I' for Inactive)
ROOT
ATOM      1  C   UNL d   1      -0.189   2.005  -0.223  0.00  0.00    -0.002 A 
ATOM      2  C1  UNL d   1      -1.125   1.986   0.801  0.00  0.00     0.010 A 
ATOM      3  C2  UNL d   1      -1.374   0.812   1.513  0.00  0.00     0.041 A 
ATOM      4  C3  UNL d   1      -0.658  -0.354   1.178  0.00  0.00    -0.075 A 
ATOM      5  S   UNL d   1      -0.796  -1.907   1.915  0.00  0.00     0.015 SA
ATOM      6  C4  UNL d   1       0.386  -2.581   0.888  0.00  0.00     0.022 A 
ATOM      7  C5  UNL d   1       0.884  -1.658  -0.001  0.00  0.00     0.026 A 
ATOM      8  C6  UNL d   1       0.291  -0.359   0.152  0.00  0.00    -0.082 A 
ATOM      9  C7  UNL d   1       0.520   0.847  -0.553  0.00  0.00     0.045 A 
ENDROOT
TORSDOF 0
ENDMDL
