MODEL 1
REMARK minimizedAffinity -3.11717868
REMARK minimizedRMSD -1
REMARK  0 active torsions:
REMARK  status: ('A' for Active; 'I' for Inactive)
ROOT
ATOM      1  C   UNL d   1      -1.143  -3.030   0.850  0.00  0.00    -0.002 A 
ATOM      2  C1  UNL d   1      -2.325  -2.331   1.051  0.00  0.00     0.010 A 
ATOM      3  C2  UNL d   1      -2.364  -0.943   0.901  0.00  0.00     0.041 A 
ATOM      4  C3  UNL d   1      -1.184  -0.263   0.538  0.00  0.00    -0.075 A 
ATOM      5  S   UNL d   1      -0.995   1.433   0.296  0.00  0.00     0.015 SA
ATOM      6  C4  UNL d   1       0.659   1.270  -0.082  0.00  0.00     0.022 A 
ATOM      7  C5  UNL d   1       1.073  -0.040  -0.029  0.00  0.00     0.026 A 
ATOM      8  C6  UNL d   1       0.018  -0.945   0.329  0.00  0.00    -0.082 A 
ATOM      9  C7  UNL d   1       0.025  -2.352   0.491  0.00  0.00     0.045 A 
ENDROOT
TORSDOF 0
ENDMDL
