MODEL 1
REMARK minimizedAffinity -5.28588486
REMARK minimizedRMSD -1
REMARK  0 active torsions:
REMARK  status: ('A' for Active; 'I' for Inactive)
ROOT
ATOM      1  C   UNL d   1      -2.140  -2.273   1.767  0.00  0.00    -0.002 A 
ATOM      2  C1  UNL d   1      -2.666  -0.990   1.803  0.00  0.00     0.010 A 
ATOM      3  C2  UNL d   1      -1.951   0.086   1.274  0.00  0.00     0.041 A 
ATOM      4  C3  UNL d   1      -0.687  -0.152   0.700  0.00  0.00    -0.075 A 
ATOM      5  S   UNL d   1       0.369   1.012  -0.010  0.00  0.00     0.015 SA
ATOM      6  C4  UNL d   1       1.542  -0.168  -0.380  0.00  0.00     0.022 A 
ATOM      7  C5  UNL d   1       1.155  -1.424   0.022  0.00  0.00     0.026 A 
ATOM      8  C6  UNL d   1      -0.136  -1.436   0.650  0.00  0.00    -0.082 A 
ATOM      9  C7  UNL d   1      -0.886  -2.506   1.196  0.00  0.00     0.045 A 
ENDROOT
TORSDOF 0
ENDMDL
