MODEL 1
REMARK minimizedAffinity 1.86044002
REMARK minimizedRMSD -1
REMARK  0 active torsions:
REMARK  status: ('A' for Active; 'I' for Inactive)
ROOT
ATOM      1  C   UNL d   1      -0.260   2.336   0.105  0.00  0.00    -0.002 A 
ATOM      2  C1  UNL d   1      -1.485   1.988   0.657  0.00  0.00     0.010 A 
ATOM      3  C2  UNL d   1      -1.788   0.652   0.928  0.00  0.00     0.041 A 
ATOM      4  C3  UNL d   1      -0.829  -0.338   0.634  0.00  0.00    -0.075 A 
ATOM      5  S   UNL d   1      -0.979  -2.037   0.881  0.00  0.00     0.015 SA
ATOM      6  C4  UNL d   1       0.579  -2.341   0.260  0.00  0.00     0.022 A 
ATOM      7  C5  UNL d   1       1.212  -1.185  -0.132  0.00  0.00     0.026 A 
ATOM      8  C6  UNL d   1       0.411  -0.011   0.078  0.00  0.00    -0.082 A 
ATOM      9  C7  UNL d   1       0.688   1.352  -0.186  0.00  0.00     0.045 A 
ENDROOT
TORSDOF 0
ENDMDL
