MODEL 1
REMARK minimizedAffinity -3.96344924
REMARK minimizedRMSD -1
REMARK  0 active torsions:
REMARK  status: ('A' for Active; 'I' for Inactive)
ROOT
ATOM      1  C   UNL d   1      -5.483  -4.756   5.031  0.00  0.00    -0.002 A 
ATOM      2  C1  UNL d   1      -5.862  -4.807   3.697  0.00  0.00     0.010 A 
ATOM      3  C2  UNL d   1      -5.292  -3.939   2.763  0.00  0.00     0.041 A 
ATOM      4  C3  UNL d   1      -4.324  -3.012   3.196  0.00  0.00    -0.075 A 
ATOM      5  S   UNL d   1      -3.490  -1.853   2.231  0.00  0.00     0.015 SA
ATOM      6  C4  UNL d   1      -2.609  -1.264   3.566  0.00  0.00     0.022 A 
ATOM      7  C5  UNL d   1      -2.931  -1.924   4.728  0.00  0.00     0.026 A 
ATOM      8  C6  UNL d   1      -3.924  -2.943   4.534  0.00  0.00    -0.082 A 
ATOM      9  C7  UNL d   1      -4.521  -3.835   5.457  0.00  0.00     0.045 A 
ENDROOT
TORSDOF 0
ENDMDL
