MODEL 1
REMARK minimizedAffinity 8.7388382
REMARK minimizedRMSD -1
REMARK  0 active torsions:
REMARK  status: ('A' for Active; 'I' for Inactive)
ROOT
ATOM      1  C   UNL d   1      -4.862  -2.259  -5.758  0.00  0.00    -0.002 A 
ATOM      2  C1  UNL d   1      -5.612  -1.102  -5.918  0.00  0.00     0.010 A 
ATOM      3  C2  UNL d   1      -6.000  -0.348  -4.809  0.00  0.00     0.041 A 
ATOM      4  C3  UNL d   1      -5.615  -0.778  -3.524  0.00  0.00    -0.075 A 
ATOM      5  S   UNL d   1      -5.975  -0.013  -2.021  0.00  0.00     0.015 SA
ATOM      6  C4  UNL d   1      -5.140  -1.203  -1.131  0.00  0.00     0.022 A 
ATOM      7  C5  UNL d   1      -4.595  -2.168  -1.944  0.00  0.00     0.026 A 
ATOM      8  C6  UNL d   1      -4.859  -1.938  -3.337  0.00  0.00    -0.082 A 
ATOM      9  C7  UNL d   1      -4.483  -2.683  -4.481  0.00  0.00     0.045 A 
ENDROOT
TORSDOF 0
ENDMDL
