MODEL 1
REMARK minimizedAffinity -4.14220953
REMARK minimizedRMSD -1
REMARK  3 active torsions:
REMARK  status: ('A' for Active; 'I' for Inactive)
REMARK    1  A    between atoms: C3'_2  and  C2'_3 
REMARK    2  A    between atoms: C2'_3  and  C1'_4 
REMARK    3  A    between atoms: C1'_4  and  C1_5 
ROOT
ATOM      1  C1  N4B d   1      -5.778   3.345  -2.603  0.00  0.00    -0.075 A 
ATOM      2  C2  N4B d   1      -5.692   4.262  -3.673  0.00  0.00     0.002 A 
ATOM      3  C3  N4B d   1      -5.759   3.813  -4.969  0.00  0.00     0.002 A 
ATOM      4  C4  N4B d   1      -5.892   2.455  -5.219  0.00  0.00    -0.004 A 
ATOM      5  C5  N4B d   1      -6.000   1.579  -4.179  0.00  0.00     0.002 A 
ATOM      6  C6  N4B d   1      -5.938   2.016  -2.871  0.00  0.00     0.002 A 
ENDROOT
BRANCH   1   7
ATOM      7  C1' N4B d   1      -5.623   3.779  -1.171  0.00  0.00     0.057 C 
BRANCH   7   8
ATOM      8  C2' N4B d   1      -5.996   2.618  -0.253  0.00  0.00     0.009 C 
BRANCH   8   9
ATOM      9  C3' N4B d   1      -4.959   2.399   0.836  0.00  0.00     0.004 C 
ATOM     10  C4' N4B d   1      -5.452   1.507   1.936  0.00  0.00     0.003 C 
ENDBRANCH   8   9
ENDBRANCH   7   8
ENDBRANCH   1   7
TORSDOF 3
ENDMDL
