MODEL 1
REMARK minimizedAffinity 2.05463481
REMARK minimizedRMSD -1
REMARK  3 active torsions:
REMARK  status: ('A' for Active; 'I' for Inactive)
REMARK    1  A    between atoms: C3'_2  and  C2'_3 
REMARK    2  A    between atoms: C2'_3  and  C1'_4 
REMARK    3  A    between atoms: C1'_4  and  C1_5 
ROOT
ATOM      1  C1  N4B d   1      -5.820   2.211  -1.585  0.00  0.00    -0.075 A 
ATOM      2  C2  N4B d   1      -5.884   1.378  -2.724  0.00  0.00     0.002 A 
ATOM      3  C3  N4B d   1      -5.948   1.934  -3.978  0.00  0.00     0.002 A 
ATOM      4  C4  N4B d   1      -5.970   3.313  -4.117  0.00  0.00    -0.004 A 
ATOM      5  C5  N4B d   1      -5.883   4.111  -3.013  0.00  0.00     0.002 A 
ATOM      6  C6  N4B d   1      -5.813   3.566  -1.747  0.00  0.00     0.002 A 
ENDROOT
BRANCH   1   7
ATOM      7  C1' N4B d   1      -5.835   1.650  -0.189  0.00  0.00     0.057 C 
BRANCH   7   8
ATOM      8  C2' N4B d   1      -4.463   1.063   0.129  0.00  0.00     0.009 C 
BRANCH   8   9
ATOM      9  C3' N4B d   1      -3.918   1.577   1.450  0.00  0.00     0.004 C 
ATOM     10  C4' N4B d   1      -2.727   2.472   1.279  0.00  0.00     0.003 C 
ENDBRANCH   8   9
ENDBRANCH   7   8
ENDBRANCH   1   7
TORSDOF 3
ENDMDL
