MODEL 1
REMARK minimizedAffinity 8.78865623
REMARK minimizedRMSD -1
REMARK  3 active torsions:
REMARK  status: ('A' for Active; 'I' for Inactive)
REMARK    1  A    between atoms: C3'_2  and  C2'_3 
REMARK    2  A    between atoms: C2'_3  and  C1'_4 
REMARK    3  A    between atoms: C1'_4  and  C1_5 
ROOT
ATOM      1  C1  N4B d   1       2.029  -3.459  -0.016  0.00  0.00    -0.075 A 
ATOM      2  C2  N4B d   1       1.110  -2.389  -0.086  0.00  0.00     0.002 A 
ATOM      3  C3  N4B d   1      -0.162  -2.606  -0.556  0.00  0.00     0.002 A 
ATOM      4  C4  N4B d   1      -0.530  -3.875  -0.978  0.00  0.00    -0.004 A 
ATOM      5  C5  N4B d   1       0.356  -4.908  -0.884  0.00  0.00     0.002 A 
ATOM      6  C6  N4B d   1       1.636  -4.705  -0.409  0.00  0.00     0.002 A 
ENDROOT
BRANCH   1   7
ATOM      7  C1' N4B d   1       3.457  -3.252   0.410  0.00  0.00     0.057 C 
BRANCH   7   8
ATOM      8  C2' N4B d   1       4.231  -2.602  -0.733  0.00  0.00     0.009 C 
BRANCH   8   9
ATOM      9  C3' N4B d   1       5.544  -3.315  -1.007  0.00  0.00     0.004 C 
ATOM     10  C4' N4B d   1       5.367  -4.782  -1.261  0.00  0.00     0.003 C 
ENDBRANCH   8   9
ENDBRANCH   7   8
ENDBRANCH   1   7
TORSDOF 3
ENDMDL
