MODEL 1
REMARK minimizedAffinity -0.170839697
REMARK minimizedRMSD -1
REMARK  3 active torsions:
REMARK  status: ('A' for Active; 'I' for Inactive)
REMARK    1  A    between atoms: C3'_2  and  C2'_3 
REMARK    2  A    between atoms: C2'_3  and  C1'_4 
REMARK    3  A    between atoms: C1'_4  and  C1_5 
ROOT
ATOM      1  C1  N4B d   1       2.893  -4.194  -0.202  0.00  0.00    -0.075 A 
ATOM      2  C2  N4B d   1       3.187  -2.818  -0.087  0.00  0.00     0.002 A 
ATOM      3  C3  N4B d   1       4.404  -2.339  -0.504  0.00  0.00     0.002 A 
ATOM      4  C4  N4B d   1       5.347  -3.216  -1.019  0.00  0.00    -0.004 A 
ATOM      5  C5  N4B d   1       5.046  -4.540  -1.150  0.00  0.00     0.002 A 
ATOM      6  C6  N4B d   1       3.824  -5.035  -0.739  0.00  0.00     0.002 A 
ENDROOT
BRANCH   1   7
ATOM      7  C1' N4B d   1       1.608  -4.778   0.320  0.00  0.00     0.057 C 
BRANCH   7   8
ATOM      8  C2' N4B d   1       0.759  -5.250  -0.857  0.00  0.00     0.009 C 
BRANCH   8   9
ATOM      9  C3' N4B d   1      -0.128  -4.142  -1.398  0.00  0.00     0.004 C 
ATOM     10  C4' N4B d   1      -1.313  -4.664  -2.155  0.00  0.00     0.003 C 
ENDBRANCH   8   9
ENDBRANCH   7   8
ENDBRANCH   1   7
TORSDOF 3
ENDMDL
