MODEL 1
REMARK minimizedAffinity -2.17987466
REMARK minimizedRMSD -1
REMARK  0 active torsions:
REMARK  status: ('A' for Active; 'I' for Inactive)
ROOT
ATOM      1  C   UNL d   1      -1.342  -0.242   1.141  0.00  0.00     0.172 C 
ATOM      2  N   UNL d   1      -2.600   0.303   1.593  0.00  0.00    -0.070 N 
ATOM      3  C1  UNL d   1      -2.758   1.217   2.600  0.00  0.00    -0.004 A 
ATOM      4  C2  UNL d   1      -4.106   1.480   2.724  0.00  0.00    -0.047 A 
ATOM      5  C3  UNL d   1      -4.780   0.696   1.758  0.00  0.00    -0.047 A 
ATOM      6  C4  UNL d   1      -3.825  -0.024   1.072  0.00  0.00    -0.004 A 
ENDROOT
TORSDOF 0
ENDMDL
