MODEL 1
REMARK minimizedAffinity -2.01121616
REMARK minimizedRMSD -1
REMARK  0 active torsions:
REMARK  status: ('A' for Active; 'I' for Inactive)
ROOT
ATOM      1  C   UNL d   1      -2.278   3.608  -5.623  0.00  0.00     0.172 C 
ATOM      2  N   UNL d   1      -3.715   3.752  -5.657  0.00  0.00    -0.070 N 
ATOM      3  C1  UNL d   1      -4.398   4.938  -5.654  0.00  0.00    -0.004 A 
ATOM      4  C2  UNL d   1      -5.745   4.649  -5.693  0.00  0.00    -0.047 A 
ATOM      5  C3  UNL d   1      -5.876   3.240  -5.719  0.00  0.00    -0.047 A 
ATOM      6  C4  UNL d   1      -4.603   2.710  -5.696  0.00  0.00    -0.004 A 
ENDROOT
TORSDOF 0
ENDMDL
