MODEL 1
REMARK minimizedAffinity -1.57041597
REMARK minimizedRMSD -1
REMARK  0 active torsions:
REMARK  status: ('A' for Active; 'I' for Inactive)
ROOT
ATOM      1  C   UNL d   1      -0.996  -0.401   1.201  0.00  0.00     0.172 C 
ATOM      2  N   UNL d   1      -2.058   0.237   1.943  0.00  0.00    -0.070 N 
ATOM      3  C1  UNL d   1      -1.895   1.033   3.046  0.00  0.00    -0.004 A 
ATOM      4  C2  UNL d   1      -3.144   1.446   3.456  0.00  0.00    -0.047 A 
ATOM      5  C3  UNL d   1      -4.090   0.879   2.570  0.00  0.00    -0.047 A 
ATOM      6  C4  UNL d   1      -3.390   0.135   1.643  0.00  0.00    -0.004 A 
ENDROOT
TORSDOF 0
ENDMDL
