MODEL 1
REMARK minimizedAffinity -2.82804298
REMARK minimizedRMSD -1
REMARK  0 active torsions:
REMARK  status: ('A' for Active; 'I' for Inactive)
ROOT
ATOM      1  C   UNL d   1      -2.363   4.112  -5.977  0.00  0.00     0.172 C 
ATOM      2  N   UNL d   1      -3.807   4.159  -5.972  0.00  0.00    -0.070 N 
ATOM      3  C1  UNL d   1      -4.640   3.073  -5.939  0.00  0.00    -0.004 A 
ATOM      4  C2  UNL d   1      -5.938   3.536  -5.945  0.00  0.00    -0.047 A 
ATOM      5  C3  UNL d   1      -5.882   4.950  -5.984  0.00  0.00    -0.047 A 
ATOM      6  C4  UNL d   1      -4.551   5.308  -6.000  0.00  0.00    -0.004 A 
ENDROOT
TORSDOF 0
ENDMDL
