MODEL 1
REMARK minimizedAffinity -0.292886168
REMARK minimizedRMSD -1
REMARK  0 active torsions:
REMARK  status: ('A' for Active; 'I' for Inactive)
ROOT
ATOM      1  C   UNL d   1      -0.458   0.799   1.639  0.00  0.00     0.172 C 
ATOM      2  N   UNL d   1      -0.051  -0.033   0.531  0.00  0.00    -0.070 N 
ATOM      3  C1  UNL d   1      -0.267  -1.381   0.424  0.00  0.00    -0.004 A 
ATOM      4  C2  UNL d   1       0.270  -1.801  -0.774  0.00  0.00    -0.047 A 
ATOM      5  C3  UNL d   1       0.829  -0.666  -1.408  0.00  0.00    -0.047 A 
ATOM      6  C4  UNL d   1       0.616   0.415  -0.578  0.00  0.00    -0.004 A 
ENDROOT
TORSDOF 0
ENDMDL
