MODEL 1
REMARK minimizedAffinity -2.79603672
REMARK minimizedRMSD -1
REMARK  0 active torsions:
REMARK  status: ('A' for Active; 'I' for Inactive)
ROOT
ATOM      1  C   UNL d   1      -0.894  -0.408   1.454  0.00  0.00     0.172 C 
ATOM      2  N   UNL d   1      -2.062   0.196   2.052  0.00  0.00    -0.070 N 
ATOM      3  C1  UNL d   1      -3.362  -0.118   1.758  0.00  0.00    -0.004 A 
ATOM      4  C2  UNL d   1      -4.174   0.676   2.538  0.00  0.00    -0.047 A 
ATOM      5  C3  UNL d   1      -3.333   1.496   3.328  0.00  0.00    -0.047 A 
ATOM      6  C4  UNL d   1      -2.031   1.178   3.006  0.00  0.00    -0.004 A 
ENDROOT
TORSDOF 0
ENDMDL
