MODEL 1
REMARK minimizedAffinity 0.0255153645
REMARK minimizedRMSD -1
REMARK  0 active torsions:
REMARK  status: ('A' for Active; 'I' for Inactive)
ROOT
ATOM      1  C   UNL d   1      -4.431   0.459   1.979  0.00  0.00     0.172 C 
ATOM      2  N   UNL d   1      -3.653   1.469   2.659  0.00  0.00    -0.070 N 
ATOM      3  C1  UNL d   1      -4.160   2.493   3.413  0.00  0.00    -0.004 A 
ATOM      4  C2  UNL d   1      -3.098   3.233   3.888  0.00  0.00    -0.047 A 
ATOM      5  C3  UNL d   1      -1.913   2.633   3.400  0.00  0.00    -0.047 A 
ATOM      6  C4  UNL d   1      -2.285   1.543   2.642  0.00  0.00    -0.004 A 
ENDROOT
TORSDOF 0
ENDMDL
