MODEL 1
REMARK minimizedAffinity -3.31370425
REMARK minimizedRMSD -1
REMARK  0 active torsions:
REMARK  status: ('A' for Active; 'I' for Inactive)
ROOT
ATOM      1  C   UNL d   1      -0.718  -0.030   1.231  0.00  0.00     0.172 C 
ATOM      2  N   UNL d   1      -0.000  -0.180  -0.013  0.00  0.00    -0.070 N 
ATOM      3  C1  UNL d   1       0.839   0.749  -0.567  0.00  0.00    -0.004 A 
ATOM      4  C2  UNL d   1       1.324   0.230  -1.747  0.00  0.00    -0.047 A 
ATOM      5  C3  UNL d   1       0.755  -1.056  -1.909  0.00  0.00    -0.047 A 
ATOM      6  C4  UNL d   1      -0.060  -1.284  -0.821  0.00  0.00    -0.004 A 
ENDROOT
TORSDOF 0
ENDMDL
