MODEL 1
REMARK minimizedAffinity -2.31360912
REMARK minimizedRMSD -1
REMARK  0 active torsions:
REMARK  status: ('A' for Active; 'I' for Inactive)
ROOT
ATOM      1  C   UNL d   1      -4.745   1.000   1.194  0.00  0.00     0.172 C 
ATOM      2  N   UNL d   1      -4.128   1.551   2.378  0.00  0.00    -0.070 N 
ATOM      3  C1  UNL d   1      -4.706   2.450   3.235  0.00  0.00    -0.004 A 
ATOM      4  C2  UNL d   1      -3.797   2.725   4.234  0.00  0.00    -0.047 A 
ATOM      5  C3  UNL d   1      -2.633   1.965   3.968  0.00  0.00    -0.047 A 
ATOM      6  C4  UNL d   1      -2.865   1.248   2.814  0.00  0.00    -0.004 A 
ENDROOT
TORSDOF 0
ENDMDL
