MODEL 1
REMARK minimizedAffinity -1.43989754
REMARK minimizedRMSD -1
REMARK  0 active torsions:
REMARK  status: ('A' for Active; 'I' for Inactive)
ROOT
ATOM      1  C   UNL d   1       2.744   0.568  -1.553  0.00  0.00     0.172 C 
ATOM      2  N   UNL d   1       1.372   0.477  -1.111  0.00  0.00    -0.070 N 
ATOM      3  C1  UNL d   1       0.891  -0.402  -0.178  0.00  0.00    -0.004 A 
ATOM      4  C2  UNL d   1      -0.460  -0.170  -0.037  0.00  0.00    -0.047 A 
ATOM      5  C3  UNL d   1      -0.802   0.886  -0.915  0.00  0.00    -0.047 A 
ATOM      6  C4  UNL d   1       0.351   1.268  -1.567  0.00  0.00    -0.004 A 
ENDROOT
TORSDOF 0
ENDMDL
