MODEL 1
REMARK minimizedAffinity -3.12960482
REMARK minimizedRMSD -1
REMARK  0 active torsions:
REMARK  status: ('A' for Active; 'I' for Inactive)
ROOT
ATOM      1  C   UNL d   1      -0.392   0.082   0.747  0.00  0.00     0.172 C 
ATOM      2  N   UNL d   1       0.335   0.037  -0.500  0.00  0.00    -0.070 N 
ATOM      3  C1  UNL d   1       0.242  -0.952  -1.443  0.00  0.00    -0.004 A 
ATOM      4  C2  UNL d   1       1.089  -0.628  -2.480  0.00  0.00    -0.047 A 
ATOM      5  C3  UNL d   1       1.714   0.597  -2.149  0.00  0.00    -0.047 A 
ATOM      6  C4  UNL d   1       1.229   0.987  -0.918  0.00  0.00    -0.004 A 
ENDROOT
TORSDOF 0
ENDMDL
