MODEL 1
REMARK minimizedAffinity -3.56874847
REMARK minimizedRMSD -1
REMARK  0 active torsions:
REMARK  status: ('A' for Active; 'I' for Inactive)
ROOT
ATOM      1  C   UNL d   1      -0.632  -0.189   0.741  0.00  0.00     0.172 C 
ATOM      2  N   UNL d   1       0.301  -0.062  -0.354  0.00  0.00    -0.070 N 
ATOM      3  C1  UNL d   1       0.619  -1.048  -1.250  0.00  0.00    -0.004 A 
ATOM      4  C2  UNL d   1       1.542  -0.532  -2.134  0.00  0.00    -0.047 A 
ATOM      5  C3  UNL d   1       1.787   0.810  -1.756  0.00  0.00    -0.047 A 
ATOM      6  C4  UNL d   1       1.006   1.074  -0.651  0.00  0.00    -0.004 A 
ENDROOT
TORSDOF 0
ENDMDL
