MODEL 1
REMARK minimizedAffinity -1.42152059
REMARK minimizedRMSD -1
REMARK  0 active torsions:
REMARK  status: ('A' for Active; 'I' for Inactive)
ROOT
ATOM      1  C   UNL d   1      -0.077  -0.022   0.475  0.00  0.00     0.172 C 
ATOM      2  N   UNL d   1       0.633   0.269  -0.748  0.00  0.00    -0.070 N 
ATOM      3  C1  UNL d   1       0.202  -0.031  -2.012  0.00  0.00    -0.004 A 
ATOM      4  C2  UNL d   1       1.160   0.409  -2.901  0.00  0.00    -0.047 A 
ATOM      5  C3  UNL d   1       2.203   0.992  -2.144  0.00  0.00    -0.047 A 
ATOM      6  C4  UNL d   1       1.852   0.892  -0.814  0.00  0.00    -0.004 A 
ENDROOT
TORSDOF 0
ENDMDL
