MODEL 1
REMARK minimizedAffinity -3.71242785
REMARK minimizedRMSD -1
REMARK  0 active torsions:
REMARK  status: ('A' for Active; 'I' for Inactive)
ROOT
ATOM      1  C   UNL d   1      -0.636  -0.271   0.458  0.00  0.00     0.172 C 
ATOM      2  N   UNL d   1       0.159  -0.185  -0.745  0.00  0.00    -0.070 N 
ATOM      3  C1  UNL d   1       0.164   0.864  -1.625  0.00  0.00    -0.004 A 
ATOM      4  C2  UNL d   1       1.050   0.563  -2.636  0.00  0.00    -0.047 A 
ATOM      5  C3  UNL d   1       1.596  -0.712  -2.354  0.00  0.00    -0.047 A 
ATOM      6  C4  UNL d   1       1.027  -1.152  -1.178  0.00  0.00    -0.004 A 
ENDROOT
TORSDOF 0
ENDMDL
