MODEL 1
REMARK minimizedAffinity -0.777893484
REMARK minimizedRMSD -1
REMARK  0 active torsions:
REMARK  status: ('A' for Active; 'I' for Inactive)
ROOT
ATOM      1  C   UNL d   1      -5.255  -1.754  -5.832  0.00  0.00     0.172 C 
ATOM      2  N   UNL d   1      -4.272  -2.649  -5.268  0.00  0.00    -0.070 N 
ATOM      3  C1  UNL d   1      -4.026  -2.827  -3.933  0.00  0.00    -0.004 A 
ATOM      4  C2  UNL d   1      -3.020  -3.760  -3.810  0.00  0.00    -0.047 A 
ATOM      5  C3  UNL d   1      -2.648  -4.157  -5.116  0.00  0.00    -0.047 A 
ATOM      6  C4  UNL d   1      -3.439  -3.453  -6.000  0.00  0.00    -0.004 A 
ENDROOT
TORSDOF 0
ENDMDL
