MODEL 1
REMARK minimizedAffinity -0.278297216
REMARK minimizedRMSD -1
REMARK  0 active torsions:
REMARK  status: ('A' for Active; 'I' for Inactive)
ROOT
ATOM      1  C   UNL d   1      -5.987   2.403  -5.662  0.00  0.00     0.172 C 
ATOM      2  N   UNL d   1      -5.340   3.688  -5.789  0.00  0.00    -0.070 N 
ATOM      3  C1  UNL d   1      -3.988   3.901  -5.821  0.00  0.00    -0.004 A 
ATOM      4  C2  UNL d   1      -3.777   5.257  -5.951  0.00  0.00    -0.047 A 
ATOM      5  C3  UNL d   1      -5.046   5.880  -5.998  0.00  0.00    -0.047 A 
ATOM      6  C4  UNL d   1      -5.996   4.886  -5.895  0.00  0.00    -0.004 A 
ENDROOT
TORSDOF 0
ENDMDL
