MODEL 1
REMARK minimizedAffinity -0.928003252
REMARK minimizedRMSD -1
REMARK  0 active torsions:
REMARK  status: ('A' for Active; 'I' for Inactive)
ROOT
ATOM      1  C   UNL d   1      -0.113   0.455   3.400  0.00  0.00     0.172 C 
ATOM      2  N   UNL d   1      -1.386   1.127   3.288  0.00  0.00    -0.070 N 
ATOM      3  C1  UNL d   1      -2.422   1.028   4.179  0.00  0.00    -0.004 A 
ATOM      4  C2  UNL d   1      -3.453   1.817   3.717  0.00  0.00    -0.047 A 
ATOM      5  C3  UNL d   1      -3.022   2.410   2.506  0.00  0.00    -0.047 A 
ATOM      6  C4  UNL d   1      -1.739   1.965   2.264  0.00  0.00    -0.004 A 
ENDROOT
TORSDOF 0
ENDMDL
