MODEL 1
REMARK minimizedAffinity -0.179940701
REMARK minimizedRMSD -1
REMARK  0 active torsions:
REMARK  status: ('A' for Active; 'I' for Inactive)
ROOT
ATOM      1  C   UNL d   1      -6.000   4.810  -6.000  0.00  0.00     0.172 C 
ATOM      2  N   UNL d   1      -4.810   4.032  -5.748  0.00  0.00    -0.070 N 
ATOM      3  C1  UNL d   1      -4.774   2.684  -5.510  0.00  0.00    -0.004 A 
ATOM      4  C2  UNL d   1      -3.457   2.324  -5.319  0.00  0.00    -0.047 A 
ATOM      5  C3  UNL d   1      -2.675   3.497  -5.445  0.00  0.00    -0.047 A 
ATOM      6  C4  UNL d   1      -3.538   4.539  -5.710  0.00  0.00    -0.004 A 
ENDROOT
TORSDOF 0
ENDMDL
