MODEL 1
REMARK minimizedAffinity -2.96545863
REMARK minimizedRMSD -1
REMARK  0 active torsions:
REMARK  status: ('A' for Active; 'I' for Inactive)
ROOT
ATOM      1  C   UNL d   1      -0.950   0.786  -4.875  0.00  0.00     0.020 A 
ATOM      2  C1  UNL d   1      -0.570  -0.063  -5.914  0.00  0.00     0.020 A 
ATOM      3  C2  UNL d   1      -0.337  -1.416  -5.660  0.00  0.00     0.034 A 
ATOM      4  C3  UNL d   1      -0.485  -1.925  -4.365  0.00  0.00     0.017 A 
ATOM      5  C4  UNL d   1      -0.867  -1.073  -3.323  0.00  0.00     0.017 A 
ATOM      6  C5  UNL d   1      -1.099   0.282  -3.582  0.00  0.00     0.034 A 
ATOM      7 Cl   UNL d   1      -1.070  -1.627  -1.698  0.00  0.00    -0.070 Cl
ATOM      8 Cl1  UNL d   1      -0.182  -3.609  -4.124  0.00  0.00    -0.070 Cl
ENDROOT
TORSDOF 0
ENDMDL
