MODEL 1
REMARK minimizedAffinity 5.50101137
REMARK minimizedRMSD -1
REMARK  0 active torsions:
REMARK  status: ('A' for Active; 'I' for Inactive)
ROOT
ATOM      1  C   UNL d   1       0.800   0.103  -5.918  0.00  0.00     0.020 A 
ATOM      2  C1  UNL d   1      -0.115   1.137  -5.725  0.00  0.00     0.020 A 
ATOM      3  C2  UNL d   1      -1.478   0.851  -5.613  0.00  0.00     0.034 A 
ATOM      4  C3  UNL d   1      -1.928  -0.472  -5.694  0.00  0.00     0.017 A 
ATOM      5  C4  UNL d   1      -1.009  -1.509  -5.889  0.00  0.00     0.017 A 
ATOM      6  C5  UNL d   1       0.354  -1.217  -6.000  0.00  0.00     0.034 A 
ATOM      7 Cl   UNL d   1      -1.489  -3.165  -6.000  0.00  0.00    -0.070 Cl
ATOM      8 Cl1  UNL d   1      -3.627  -0.752  -5.547  0.00  0.00    -0.070 Cl
ENDROOT
TORSDOF 0
ENDMDL
