MODEL 1
REMARK minimizedAffinity 0.0362428986
REMARK minimizedRMSD -1
REMARK  0 active torsions:
REMARK  status: ('A' for Active; 'I' for Inactive)
ROOT
ATOM      1  C   UNL d   1      -1.903  -0.213   1.344  0.00  0.00     0.020 A 
ATOM      2  C1  UNL d   1      -2.535   0.961   1.752  0.00  0.00     0.020 A 
ATOM      3  C2  UNL d   1      -3.800   1.282   1.254  0.00  0.00     0.034 A 
ATOM      4  C3  UNL d   1      -4.436   0.428   0.346  0.00  0.00     0.017 A 
ATOM      5  C4  UNL d   1      -3.801  -0.750  -0.062  0.00  0.00     0.017 A 
ATOM      6  C5  UNL d   1      -2.535  -1.067   0.439  0.00  0.00     0.034 A 
ATOM      7 Cl   UNL d   1      -4.524  -1.853  -1.180  0.00  0.00    -0.070 Cl
ATOM      8 Cl1  UNL d   1      -6.000   0.888  -0.229  0.00  0.00    -0.070 Cl
ENDROOT
TORSDOF 0
ENDMDL
