MODEL 1
REMARK minimizedAffinity 1.66853511
REMARK minimizedRMSD -1
REMARK  0 active torsions:
REMARK  status: ('A' for Active; 'I' for Inactive)
ROOT
ATOM      1  C   UNL d   1      -4.035   0.827   1.197  0.00  0.00     0.020 A 
ATOM      2  C1  UNL d   1      -3.442   1.296   2.369  0.00  0.00     0.020 A 
ATOM      3  C2  UNL d   1      -2.229   0.756   2.801  0.00  0.00     0.034 A 
ATOM      4  C3  UNL d   1      -1.604  -0.255   2.062  0.00  0.00     0.017 A 
ATOM      5  C4  UNL d   1      -2.200  -0.724   0.886  0.00  0.00     0.017 A 
ATOM      6  C5  UNL d   1      -3.415  -0.181   0.457  0.00  0.00     0.034 A 
ATOM      7 Cl   UNL d   1      -1.490  -1.970  -0.080  0.00  0.00    -0.070 Cl
ATOM      8 Cl1  UNL d   1      -0.105  -0.875   2.655  0.00  0.00    -0.070 Cl
ENDROOT
TORSDOF 0
ENDMDL
