MODEL 1
REMARK minimizedAffinity 2.59694457
REMARK minimizedRMSD -1
REMARK  0 active torsions:
REMARK  status: ('A' for Active; 'I' for Inactive)
ROOT
ATOM      1  C   UNL d   1       2.261   0.252  -5.251  0.00  0.00     0.020 A 
ATOM      2  C1  UNL d   1       1.262   0.876  -5.997  0.00  0.00     0.020 A 
ATOM      3  C2  UNL d   1      -0.035   0.357  -6.000  0.00  0.00     0.034 A 
ATOM      4  C3  UNL d   1      -0.335  -0.790  -5.256  0.00  0.00     0.017 A 
ATOM      5  C4  UNL d   1       0.668  -1.416  -4.508  0.00  0.00     0.017 A 
ATOM      6  C5  UNL d   1       1.964  -0.892  -4.508  0.00  0.00     0.034 A 
ATOM      7 Cl   UNL d   1       0.373  -2.834  -3.565  0.00  0.00    -0.070 Cl
ATOM      8 Cl1  UNL d   1      -1.960  -1.377  -5.306  0.00  0.00    -0.070 Cl
ENDROOT
TORSDOF 0
ENDMDL
