MODEL 1
REMARK minimizedAffinity -1.13901997
REMARK minimizedRMSD -1
REMARK  0 active torsions:
REMARK  status: ('A' for Active; 'I' for Inactive)
ROOT
ATOM      1  C   UNL d   1      -1.634   0.799  -5.826  0.00  0.00     0.020 A 
ATOM      2  C1  UNL d   1      -2.210   0.713  -4.559  0.00  0.00     0.020 A 
ATOM      3  C2  UNL d   1      -1.433   0.328  -3.464  0.00  0.00     0.034 A 
ATOM      4  C3  UNL d   1      -0.077   0.028  -3.634  0.00  0.00     0.017 A 
ATOM      5  C4  UNL d   1       0.500   0.115  -4.906  0.00  0.00     0.017 A 
ATOM      6  C5  UNL d   1      -0.282   0.501  -5.999  0.00  0.00     0.034 A 
ATOM      7 Cl   UNL d   1       2.167  -0.240  -5.195  0.00  0.00    -0.070 Cl
ATOM      8 Cl1  UNL d   1       0.824  -0.441  -2.236  0.00  0.00    -0.070 Cl
ENDROOT
TORSDOF 0
ENDMDL
