MODEL 1
REMARK minimizedAffinity -0.27461043
REMARK minimizedRMSD -1
REMARK  0 active torsions:
REMARK  status: ('A' for Active; 'I' for Inactive)
ROOT
ATOM      1  C   UNL d   1      -1.355   0.691  -5.684  0.00  0.00     0.020 A 
ATOM      2  C1  UNL d   1      -1.997  -0.065  -4.704  0.00  0.00     0.020 A 
ATOM      3  C2  UNL d   1      -1.301  -1.072  -4.031  0.00  0.00     0.034 A 
ATOM      4  C3  UNL d   1       0.041  -1.324  -4.337  0.00  0.00     0.017 A 
ATOM      5  C4  UNL d   1       0.685  -0.565  -5.320  0.00  0.00     0.017 A 
ATOM      6  C5  UNL d   1      -0.017   0.441  -5.991  0.00  0.00     0.034 A 
ATOM      7 Cl   UNL d   1       2.339  -0.818  -5.752  0.00  0.00    -0.070 Cl
ATOM      8 Cl1  UNL d   1       0.840  -2.584  -3.464  0.00  0.00    -0.070 Cl
ENDROOT
TORSDOF 0
ENDMDL
