MODEL 1
REMARK minimizedAffinity -1.9297688
REMARK minimizedRMSD -1
REMARK  0 active torsions:
REMARK  status: ('A' for Active; 'I' for Inactive)
ROOT
ATOM      1  C   UNL d   1      -1.888  -0.288   2.830  0.00  0.00     0.020 A 
ATOM      2  C1  UNL d   1      -3.153   0.297   2.874  0.00  0.00     0.020 A 
ATOM      3  C2  UNL d   1      -3.890   0.456   1.698  0.00  0.00     0.034 A 
ATOM      4  C3  UNL d   1      -3.363   0.030   0.474  0.00  0.00     0.017 A 
ATOM      5  C4  UNL d   1      -2.093  -0.558   0.431  0.00  0.00     0.017 A 
ATOM      6  C5  UNL d   1      -1.360  -0.715   1.611  0.00  0.00     0.034 A 
ATOM      7 Cl   UNL d   1      -1.377  -1.109  -1.042  0.00  0.00    -0.070 Cl
ATOM      8 Cl1  UNL d   1      -4.330   0.257  -0.940  0.00  0.00    -0.070 Cl
ENDROOT
TORSDOF 0
ENDMDL
