MODEL 1
REMARK minimizedAffinity 2.81483126
REMARK minimizedRMSD -1
REMARK  0 active torsions:
REMARK  status: ('A' for Active; 'I' for Inactive)
ROOT
ATOM      1  C   UNL d   1      -1.572   0.810   3.117  0.00  0.00     0.020 A 
ATOM      2  C1  UNL d   1      -0.943  -0.271   2.499  0.00  0.00     0.020 A 
ATOM      3  C2  UNL d   1      -1.547  -0.900   1.409  0.00  0.00     0.034 A 
ATOM      4  C3  UNL d   1      -2.783  -0.450   0.932  0.00  0.00     0.017 A 
ATOM      5  C4  UNL d   1      -3.414   0.635   1.553  0.00  0.00     0.017 A 
ATOM      6  C5  UNL d   1      -2.805   1.261   2.644  0.00  0.00     0.034 A 
ATOM      7 Cl   UNL d   1      -4.941   1.247   1.021  0.00  0.00    -0.070 Cl
ATOM      8 Cl1  UNL d   1      -3.472  -1.275  -0.421  0.00  0.00    -0.070 Cl
ENDROOT
TORSDOF 0
ENDMDL
