MODEL 1
REMARK minimizedAffinity 3.93519926
REMARK minimizedRMSD -1
REMARK  0 active torsions:
REMARK  status: ('A' for Active; 'I' for Inactive)
ROOT
ATOM      1  C   UNL d   1      -3.887   1.351   2.228  0.00  0.00     0.020 A 
ATOM      2  C1  UNL d   1      -4.519   0.706   1.165  0.00  0.00     0.020 A 
ATOM      3  C2  UNL d   1      -3.884  -0.355   0.516  0.00  0.00     0.034 A 
ATOM      4  C3  UNL d   1      -2.614  -0.775   0.928  0.00  0.00     0.017 A 
ATOM      5  C4  UNL d   1      -1.981  -0.127   1.995  0.00  0.00     0.017 A 
ATOM      6  C5  UNL d   1      -2.621   0.935   2.641  0.00  0.00     0.034 A 
ATOM      7 Cl   UNL d   1      -0.414  -0.587   2.560  0.00  0.00    -0.070 Cl
ATOM      8 Cl1  UNL d   1      -1.889  -2.094   0.080  0.00  0.00    -0.070 Cl
ENDROOT
TORSDOF 0
ENDMDL
