MODEL 1
REMARK minimizedAffinity 6.96615791
REMARK minimizedRMSD -1
REMARK  0 active torsions:
REMARK  status: ('A' for Active; 'I' for Inactive)
ROOT
ATOM      1  C   UNL d   1       2.345   0.512  -1.898  0.00  0.00     0.124 A 
ATOM      2  C1  UNL d   1       2.352  -0.836  -1.566  0.00  0.00     0.062 A 
ATOM      3  C2  UNL d   1       2.275  -1.229  -0.233  0.00  0.00     0.162 A 
ATOM      4  C3  UNL d   1       2.190  -0.273   0.778  0.00  0.00    -0.034 A 
ATOM      5  C4  UNL d   1       2.185   1.081   0.437  0.00  0.00     0.162 A 
ATOM      6  C5  UNL d   1       2.262   1.469  -0.897  0.00  0.00     0.062 A 
ATOM      7  F   UNL d   1       2.256   2.771  -1.215  0.00  0.00    -0.097 F 
ATOM      8  F1  UNL d   1       2.104   2.026   1.385  0.00  0.00    -0.096 F 
ATOM      9  I   UNL d   1       2.074  -0.856   2.773  0.00  0.00    -0.060 I 
ATOM     10  F2  UNL d   1       2.283  -2.538   0.058  0.00  0.00    -0.096 F 
ATOM     11  F3  UNL d   1       2.433  -1.762  -2.532  0.00  0.00    -0.097 F 
ATOM     12  F4  UNL d   1       2.421   0.887  -3.182  0.00  0.00    -0.092 F 
ENDROOT
TORSDOF 0
ENDMDL
