MODEL 1
REMARK minimizedAffinity 15.9574099
REMARK minimizedRMSD -1
REMARK  0 active torsions:
REMARK  status: ('A' for Active; 'I' for Inactive)
ROOT
ATOM      1  C   UNL d   1      -1.103  -1.166   1.560  0.00  0.00     0.124 A 
ATOM      2  C1  UNL d   1      -0.136  -0.954   2.533  0.00  0.00     0.062 A 
ATOM      3  C2  UNL d   1       1.211  -0.917   2.184  0.00  0.00     0.162 A 
ATOM      4  C3  UNL d   1       1.599  -1.091   0.855  0.00  0.00    -0.034 A 
ATOM      5  C4  UNL d   1       0.620  -1.305  -0.117  0.00  0.00     0.162 A 
ATOM      6  C5  UNL d   1      -0.725  -1.341   0.237  0.00  0.00     0.062 A 
ATOM      7  F   UNL d   1      -1.658  -1.546  -0.704  0.00  0.00    -0.097 F 
ATOM      8  F1  UNL d   1       0.958  -1.476  -1.404  0.00  0.00    -0.096 F 
ATOM      9  I   UNL d   1       3.612  -1.036   0.329  0.00  0.00    -0.060 I 
ATOM     10  F2  UNL d   1       2.124  -0.711   3.144  0.00  0.00    -0.096 F 
ATOM     11  F3  UNL d   1      -0.499  -0.786   3.812  0.00  0.00    -0.097 F 
ATOM     12  F4  UNL d   1      -2.399  -1.202   1.899  0.00  0.00    -0.092 F 
ENDROOT
TORSDOF 0
ENDMDL
