MODEL 1
REMARK minimizedAffinity 23.2479553
REMARK minimizedRMSD -1
REMARK  0 active torsions:
REMARK  status: ('A' for Active; 'I' for Inactive)
ROOT
ATOM      1  C   UNL d   1       1.501  -0.422  -0.994  0.00  0.00     0.124 A 
ATOM      2  C1  UNL d   1       1.568   0.941  -1.246  0.00  0.00     0.062 A 
ATOM      3  C2  UNL d   1       2.516   1.727  -0.598  0.00  0.00     0.162 A 
ATOM      4  C3  UNL d   1       3.407   1.151   0.309  0.00  0.00    -0.034 A 
ATOM      5  C4  UNL d   1       3.332  -0.220   0.558  0.00  0.00     0.162 A 
ATOM      6  C5  UNL d   1       2.383  -1.001  -0.092  0.00  0.00     0.062 A 
ATOM      7  F   UNL d   1       2.319  -2.318   0.153  0.00  0.00    -0.097 F 
ATOM      8  F1  UNL d   1       4.173  -0.806   1.424  0.00  0.00    -0.096 F 
ATOM      9  I   UNL d   1       4.826   2.323   1.280  0.00  0.00    -0.060 I 
ATOM     10  F2  UNL d   1       2.559   3.042  -0.861  0.00  0.00    -0.096 F 
ATOM     11  F3  UNL d   1       0.717   1.503  -2.116  0.00  0.00    -0.097 F 
ATOM     12  F4  UNL d   1       0.587  -1.176  -1.618  0.00  0.00    -0.092 F 
ENDROOT
TORSDOF 0
ENDMDL
