MODEL 1
REMARK minimizedAffinity 16.6869984
REMARK minimizedRMSD -1
REMARK  0 active torsions:
REMARK  status: ('A' for Active; 'I' for Inactive)
ROOT
ATOM      1  C   UNL d   1       1.406  -0.570   3.441  0.00  0.00     0.124 A 
ATOM      2  C1  UNL d   1       0.073  -0.203   3.317  0.00  0.00     0.062 A 
ATOM      3  C2  UNL d   1      -0.584  -0.354   2.099  0.00  0.00     0.162 A 
ATOM      4  C3  UNL d   1       0.091  -0.876   0.996  0.00  0.00    -0.034 A 
ATOM      5  C4  UNL d   1       1.431  -1.242   1.128  0.00  0.00     0.162 A 
ATOM      6  C5  UNL d   1       2.083  -1.089   2.347  0.00  0.00     0.062 A 
ATOM      7  F   UNL d   1       3.371  -1.445   2.465  0.00  0.00    -0.097 F 
ATOM      8  F1  UNL d   1       2.109  -1.748   0.087  0.00  0.00    -0.096 F 
ATOM      9  I   UNL d   1      -0.889  -1.103  -0.827  0.00  0.00    -0.060 I 
ATOM     10  F2  UNL d   1      -1.872   0.010   2.008  0.00  0.00    -0.096 F 
ATOM     11  F3  UNL d   1      -0.583   0.300   4.372  0.00  0.00    -0.097 F 
ATOM     12  F4  UNL d   1       2.036  -0.423   4.614  0.00  0.00    -0.092 F 
ENDROOT
TORSDOF 0
ENDMDL
