MODEL 1
REMARK minimizedAffinity 10.2837343
REMARK minimizedRMSD -1
REMARK  0 active torsions:
REMARK  status: ('A' for Active; 'I' for Inactive)
ROOT
ATOM      1  C   UNL d   1       1.700  -1.068   2.235  0.00  0.00     0.124 A 
ATOM      2  C1  UNL d   1       2.137  -1.270   0.933  0.00  0.00     0.062 A 
ATOM      3  C2  UNL d   1       1.260  -1.099  -0.134  0.00  0.00     0.162 A 
ATOM      4  C3  UNL d   1      -0.063  -0.722   0.096  0.00  0.00    -0.034 A 
ATOM      5  C4  UNL d   1      -0.496  -0.522   1.408  0.00  0.00     0.162 A 
ATOM      6  C5  UNL d   1       0.385  -0.695   2.471  0.00  0.00     0.062 A 
ATOM      7  F   UNL d   1      -0.039  -0.500   3.729  0.00  0.00    -0.097 F 
ATOM      8  F1  UNL d   1      -1.761  -0.160   1.665  0.00  0.00    -0.096 F 
ATOM      9  I   UNL d   1      -1.377  -0.465  -1.497  0.00  0.00    -0.060 I 
ATOM     10  F2  UNL d   1       1.710  -1.300  -1.381  0.00  0.00    -0.096 F 
ATOM     11  F3  UNL d   1       3.408  -1.632   0.703  0.00  0.00    -0.097 F 
ATOM     12  F4  UNL d   1       2.546  -1.235   3.260  0.00  0.00    -0.092 F 
ENDROOT
TORSDOF 0
ENDMDL
