MODEL 1
REMARK minimizedAffinity 18.0370502
REMARK minimizedRMSD -1
REMARK  0 active torsions:
REMARK  status: ('A' for Active; 'I' for Inactive)
ROOT
ATOM      1  C   UNL d   1       0.373  -0.858   2.820  0.00  0.00     0.124 A 
ATOM      2  C1  UNL d   1      -0.584  -0.650   1.836  0.00  0.00     0.062 A 
ATOM      3  C2  UNL d   1      -0.236  -0.735   0.491  0.00  0.00     0.162 A 
ATOM      4  C3  UNL d   1       1.076  -1.032   0.122  0.00  0.00    -0.034 A 
ATOM      5  C4  UNL d   1       2.034  -1.239   1.116  0.00  0.00     0.162 A 
ATOM      6  C5  UNL d   1       1.681  -1.152   2.459  0.00  0.00     0.062 A 
ATOM      7  F   UNL d   1       2.607  -1.354   3.408  0.00  0.00    -0.097 F 
ATOM      8  F1  UNL d   1       3.304  -1.526   0.796  0.00  0.00    -0.096 F 
ATOM      9  I   UNL d   1       1.601  -1.161  -1.888  0.00  0.00    -0.060 I 
ATOM     10  F2  UNL d   1      -1.181  -0.529  -0.437  0.00  0.00    -0.096 F 
ATOM     11  F3  UNL d   1      -1.847  -0.364   2.182  0.00  0.00    -0.097 F 
ATOM     12  F4  UNL d   1       0.036  -0.774   4.113  0.00  0.00    -0.092 F 
ENDROOT
TORSDOF 0
ENDMDL
