MODEL 1
REMARK minimizedAffinity 6.92431927
REMARK minimizedRMSD -1
REMARK  0 active torsions:
REMARK  status: ('A' for Active; 'I' for Inactive)
ROOT
ATOM      1  C   UNL d   1       2.207  -1.890   0.639  0.00  0.00     0.124 A 
ATOM      2  C1  UNL d   1       1.166  -1.405  -0.141  0.00  0.00     0.062 A 
ATOM      3  C2  UNL d   1       0.087  -0.759   0.455  0.00  0.00     0.162 A 
ATOM      4  C3  UNL d   1       0.044  -0.593   1.840  0.00  0.00    -0.034 A 
ATOM      5  C4  UNL d   1       1.094  -1.085   2.617  0.00  0.00     0.162 A 
ATOM      6  C5  UNL d   1       2.170  -1.730   2.017  0.00  0.00     0.062 A 
ATOM      7  F   UNL d   1       3.175  -2.198   2.772  0.00  0.00    -0.097 F 
ATOM      8  F1  UNL d   1       1.084  -0.942   3.951  0.00  0.00    -0.096 F 
ATOM      9  I   UNL d   1      -1.568   0.372   2.735  0.00  0.00    -0.060 I 
ATOM     10  F2  UNL d   1      -0.904  -0.300  -0.323  0.00  0.00    -0.096 F 
ATOM     11  F3  UNL d   1       1.199  -1.560  -1.472  0.00  0.00    -0.097 F 
ATOM     12  F4  UNL d   1       3.244  -2.512   0.063  0.00  0.00    -0.092 F 
ENDROOT
TORSDOF 0
ENDMDL
