MODEL 1
REMARK minimizedAffinity 14.4675951
REMARK minimizedRMSD -1
REMARK  0 active torsions:
REMARK  status: ('A' for Active; 'I' for Inactive)
ROOT
ATOM      1  C   UNL d   1       1.741  -1.341   3.048  0.00  0.00     0.124 A 
ATOM      2  C1  UNL d   1       2.329  -1.700   1.843  0.00  0.00     0.062 A 
ATOM      3  C2  UNL d   1       1.630  -1.542   0.650  0.00  0.00     0.162 A 
ATOM      4  C3  UNL d   1       0.336  -1.022   0.655  0.00  0.00    -0.034 A 
ATOM      5  C4  UNL d   1      -0.249  -0.665   1.872  0.00  0.00     0.162 A 
ATOM      6  C5  UNL d   1       0.454  -0.824   3.062  0.00  0.00     0.062 A 
ATOM      7  F   UNL d   1      -0.115  -0.477   4.225  0.00  0.00    -0.097 F 
ATOM      8  F1  UNL d   1      -1.492  -0.162   1.913  0.00  0.00    -0.096 F 
ATOM      9  I   UNL d   1      -0.713  -0.785  -1.127  0.00  0.00    -0.060 I 
ATOM     10  F2  UNL d   1       2.222  -1.897  -0.500  0.00  0.00    -0.096 F 
ATOM     11  F3  UNL d   1       3.573  -2.201   1.827  0.00  0.00    -0.097 F 
ATOM     12  F4  UNL d   1       2.416  -1.495   4.195  0.00  0.00    -0.092 F 
ENDROOT
TORSDOF 0
ENDMDL
