MODEL 1
REMARK minimizedAffinity 17.9418545
REMARK minimizedRMSD -1
REMARK  0 active torsions:
REMARK  status: ('A' for Active; 'I' for Inactive)
ROOT
ATOM      1  C   UNL d   1       1.471  -1.662   1.037  0.00  0.00     0.124 A 
ATOM      2  C1  UNL d   1       0.526  -1.090   0.196  0.00  0.00     0.062 A 
ATOM      3  C2  UNL d   1      -0.604  -0.476   0.728  0.00  0.00     0.162 A 
ATOM      4  C3  UNL d   1      -0.796  -0.429   2.109  0.00  0.00    -0.034 A 
ATOM      5  C4  UNL d   1       0.158  -1.008   2.948  0.00  0.00     0.162 A 
ATOM      6  C5  UNL d   1       1.286  -1.621   2.412  0.00  0.00     0.062 A 
ATOM      7  F   UNL d   1       2.197  -2.173   3.226  0.00  0.00    -0.097 F 
ATOM      8  F1  UNL d   1       0.005  -0.982   4.281  0.00  0.00    -0.096 F 
ATOM      9  I   UNL d   1      -2.484   0.488   2.908  0.00  0.00    -0.060 I 
ATOM     10  F2  UNL d   1      -1.500   0.069  -0.108  0.00  0.00    -0.096 F 
ATOM     11  F3  UNL d   1       0.702  -1.129  -1.132  0.00  0.00    -0.097 F 
ATOM     12  F4  UNL d   1       2.557  -2.253   0.523  0.00  0.00    -0.092 F 
ENDROOT
TORSDOF 0
ENDMDL
