MODEL 1
REMARK minimizedAffinity 23.3605938
REMARK minimizedRMSD -1
REMARK  0 active torsions:
REMARK  status: ('A' for Active; 'I' for Inactive)
ROOT
ATOM      1  C   UNL d   1       4.499  -1.841  -0.080  0.00  0.00    -0.002 A 
ATOM      2  C1  UNL d   1       5.573  -2.276  -0.843  0.00  0.00     0.010 A 
ATOM      3  C2  UNL d   1       5.533  -3.515  -1.485  0.00  0.00     0.041 A 
ATOM      4  C3  UNL d   1       4.383  -4.317  -1.348  0.00  0.00    -0.075 A 
ATOM      5  S   UNL d   1       4.109  -5.870  -2.044  0.00  0.00     0.015 SA
ATOM      6  C4  UNL d   1       2.560  -5.993  -1.345  0.00  0.00     0.022 A 
ATOM      7  C5  UNL d   1       2.243  -4.885  -0.596  0.00  0.00     0.026 A 
ATOM      8  C6  UNL d   1       3.288  -3.901  -0.585  0.00  0.00    -0.082 A 
ATOM      9  C7  UNL d   1       3.360  -2.640   0.054  0.00  0.00     0.045 A 
ENDROOT
TORSDOF 0
ENDMDL
