MODEL 1
REMARK minimizedAffinity 5.13464785
REMARK minimizedRMSD -1
REMARK  0 active torsions:
REMARK  status: ('A' for Active; 'I' for Inactive)
ROOT
ATOM      1  C   UNL d   1      -1.726   5.593  -5.859  0.00  0.00    -0.002 A 
ATOM      2  C1  UNL d   1      -1.325   4.883  -4.736  0.00  0.00     0.010 A 
ATOM      3  C2  UNL d   1      -2.242   4.566  -3.732  0.00  0.00     0.041 A 
ATOM      4  C3  UNL d   1      -3.582   4.978  -3.877  0.00  0.00    -0.075 A 
ATOM      5  S   UNL d   1      -4.879   4.702  -2.776  0.00  0.00     0.015 SA
ATOM      6  C4  UNL d   1      -5.996   5.520  -3.771  0.00  0.00     0.022 A 
ATOM      7  C5  UNL d   1      -5.410   5.998  -4.919  0.00  0.00     0.026 A 
ATOM      8  C6  UNL d   1      -4.009   5.693  -4.999  0.00  0.00    -0.082 A 
ATOM      9  C7  UNL d   1      -3.055   6.000  -6.000  0.00  0.00     0.045 A 
ENDROOT
TORSDOF 0
ENDMDL
