MODEL 1
REMARK minimizedAffinity 0.246216297
REMARK minimizedRMSD -1
REMARK  0 active torsions:
REMARK  status: ('A' for Active; 'I' for Inactive)
ROOT
ATOM      1  C   UNL d   1      -5.249  -1.768   3.253  0.00  0.00    -0.002 A 
ATOM      2  C1  UNL d   1      -4.335  -1.382   2.282  0.00  0.00     0.010 A 
ATOM      3  C2  UNL d   1      -3.405  -0.375   2.544  0.00  0.00     0.041 A 
ATOM      4  C3  UNL d   1      -3.407   0.243   3.810  0.00  0.00    -0.075 A 
ATOM      5  S   UNL d   1      -2.360   1.499   4.355  0.00  0.00     0.015 SA
ATOM      6  C4  UNL d   1      -3.100   1.553   5.889  0.00  0.00     0.022 A 
ATOM      7  C5  UNL d   1      -4.124   0.642   6.000  0.00  0.00     0.026 A 
ATOM      8  C6  UNL d   1      -4.317  -0.129   4.803  0.00  0.00    -0.082 A 
ATOM      9  C7  UNL d   1      -5.248  -1.153   4.507  0.00  0.00     0.045 A 
ENDROOT
TORSDOF 0
ENDMDL
