MODEL 1
REMARK minimizedAffinity 9.77604389
REMARK minimizedRMSD -1
REMARK  0 active torsions:
REMARK  status: ('A' for Active; 'I' for Inactive)
ROOT
ATOM      1  C   UNL d   1       2.999   2.982  -3.583  0.00  0.00    -0.002 A 
ATOM      2  C1  UNL d   1       2.966   2.013  -2.591  0.00  0.00     0.010 A 
ATOM      3  C2  UNL d   1       3.716   2.167  -1.423  0.00  0.00     0.041 A 
ATOM      4  C3  UNL d   1       4.505   3.324  -1.267  0.00  0.00    -0.075 A 
ATOM      5  S   UNL d   1       5.504   3.727   0.079  0.00  0.00     0.015 SA
ATOM      6  C4  UNL d   1       5.997   5.195  -0.631  0.00  0.00     0.022 A 
ATOM      7  C5  UNL d   1       5.423   5.389  -1.866  0.00  0.00     0.026 A 
ATOM      8  C6  UNL d   1       4.553   4.314  -2.252  0.00  0.00    -0.082 A 
ATOM      9  C7  UNL d   1       3.783   4.128  -3.425  0.00  0.00     0.045 A 
ENDROOT
TORSDOF 0
ENDMDL
