MODEL 1
REMARK minimizedAffinity 6.48123789
REMARK minimizedRMSD -1
REMARK  0 active torsions:
REMARK  status: ('A' for Active; 'I' for Inactive)
ROOT
ATOM      1  C   UNL d   1      -5.907  -0.549   3.820  0.00  0.00    -0.002 A 
ATOM      2  C1  UNL d   1      -5.136  -0.742   2.683  0.00  0.00     0.010 A 
ATOM      3  C2  UNL d   1      -3.795  -0.352   2.660  0.00  0.00     0.041 A 
ATOM      4  C3  UNL d   1      -3.237   0.239   3.810  0.00  0.00    -0.075 A 
ATOM      5  S   UNL d   1      -1.618   0.794   4.012  0.00  0.00     0.015 SA
ATOM      6  C4  UNL d   1      -1.912   1.300   5.613  0.00  0.00     0.022 A 
ATOM      7  C5  UNL d   1      -3.209   1.059   6.000  0.00  0.00     0.026 A 
ATOM      8  C6  UNL d   1      -3.994   0.443   4.968  0.00  0.00    -0.082 A 
ATOM      9  C7  UNL d   1      -5.350   0.038   4.959  0.00  0.00     0.045 A 
ENDROOT
TORSDOF 0
ENDMDL
