MODEL 1
REMARK minimizedAffinity -0.323223621
REMARK minimizedRMSD -1
REMARK  0 active torsions:
REMARK  status: ('A' for Active; 'I' for Inactive)
ROOT
ATOM      1  C   UNL d   1      -4.563  -2.119   2.996  0.00  0.00    -0.002 A 
ATOM      2  C1  UNL d   1      -5.265  -2.044   4.190  0.00  0.00     0.010 A 
ATOM      3  C2  UNL d   1      -4.895  -1.127   5.176  0.00  0.00     0.041 A 
ATOM      4  C3  UNL d   1      -3.796  -0.277   4.937  0.00  0.00    -0.075 A 
ATOM      5  S   UNL d   1      -3.162   0.924   5.999  0.00  0.00     0.015 SA
ATOM      6  C4  UNL d   1      -1.944   1.367   4.891  0.00  0.00     0.022 A 
ATOM      7  C5  UNL d   1      -2.005   0.626   3.735  0.00  0.00     0.026 A 
ATOM      8  C6  UNL d   1      -3.074  -0.333   3.742  0.00  0.00    -0.082 A 
ATOM      9  C7  UNL d   1      -3.474  -1.274   2.763  0.00  0.00     0.045 A 
ENDROOT
TORSDOF 0
ENDMDL
