MODEL 1
REMARK minimizedAffinity 6.81638384
REMARK minimizedRMSD -1
REMARK  0 active torsions:
REMARK  status: ('A' for Active; 'I' for Inactive)
ROOT
ATOM      1  C   UNL d   1      -1.373  -0.932   1.848  0.00  0.00    -0.002 A 
ATOM      2  C1  UNL d   1      -0.981   0.066   2.729  0.00  0.00     0.010 A 
ATOM      3  C2  UNL d   1      -1.888   0.600   3.647  0.00  0.00     0.041 A 
ATOM      4  C3  UNL d   1      -3.208   0.108   3.665  0.00  0.00    -0.075 A 
ATOM      5  S   UNL d   1      -4.490   0.611   4.702  0.00  0.00     0.015 SA
ATOM      6  C4  UNL d   1      -5.588  -0.487   4.000  0.00  0.00     0.022 A 
ATOM      7  C5  UNL d   1      -5.008  -1.227   2.997  0.00  0.00     0.026 A 
ATOM      8  C6  UNL d   1      -3.626  -0.897   2.788  0.00  0.00    -0.082 A 
ATOM      9  C7  UNL d   1      -2.683  -1.417   1.869  0.00  0.00     0.045 A 
ENDROOT
TORSDOF 0
ENDMDL
