MODEL 1
REMARK minimizedAffinity 10.9558668
REMARK minimizedRMSD -1
REMARK  0 active torsions:
REMARK  status: ('A' for Active; 'I' for Inactive)
ROOT
ATOM      1  C   UNL d   1      -1.233   5.616  -5.310  0.00  0.00    -0.002 A 
ATOM      2  C1  UNL d   1      -1.327   4.940  -4.102  0.00  0.00     0.010 A 
ATOM      3  C2  UNL d   1      -2.574   4.635  -3.553  0.00  0.00     0.041 A 
ATOM      4  C3  UNL d   1      -3.737   5.023  -4.248  0.00  0.00    -0.075 A 
ATOM      5  S   UNL d   1      -5.372   4.756  -3.768  0.00  0.00     0.015 SA
ATOM      6  C4  UNL d   1      -5.984   5.532  -5.157  0.00  0.00     0.022 A 
ATOM      7  C5  UNL d   1      -4.980   5.989  -5.977  0.00  0.00     0.026 A 
ATOM      8  C6  UNL d   1      -3.669   5.703  -5.467  0.00  0.00    -0.082 A 
ATOM      9  C7  UNL d   1      -2.389   5.999  -5.996  0.00  0.00     0.045 A 
ENDROOT
TORSDOF 0
ENDMDL
