MODEL 1
REMARK minimizedAffinity 10.9477749
REMARK minimizedRMSD -1
REMARK  0 active torsions:
REMARK  status: ('A' for Active; 'I' for Inactive)
ROOT
ATOM      1  C   UNL d   1      -1.348  -0.810   1.668  0.00  0.00    -0.002 A 
ATOM      2  C1  UNL d   1      -2.629  -0.443   1.280  0.00  0.00     0.010 A 
ATOM      3  C2  UNL d   1      -3.546   0.035   2.218  0.00  0.00     0.041 A 
ATOM      4  C3  UNL d   1      -3.150   0.142   3.565  0.00  0.00    -0.075 A 
ATOM      5  S   UNL d   1      -4.103   0.703   4.888  0.00  0.00     0.015 SA
ATOM      6  C4  UNL d   1      -2.832   0.469   6.000  0.00  0.00     0.022 A 
ATOM      7  C5  UNL d   1      -1.701  -0.024   5.394  0.00  0.00     0.026 A 
ATOM      8  C6  UNL d   1      -1.865  -0.220   3.981  0.00  0.00    -0.082 A 
ATOM      9  C7  UNL d   1      -0.959  -0.703   3.006  0.00  0.00     0.045 A 
ENDROOT
TORSDOF 0
ENDMDL
