MODEL 1
REMARK minimizedAffinity 12.8584604
REMARK minimizedRMSD -1
REMARK  0 active torsions:
REMARK  status: ('A' for Active; 'I' for Inactive)
ROOT
ATOM      1  C   UNL d   1      -3.779   0.368   4.653  0.00  0.00    -0.002 A 
ATOM      2  C1  UNL d   1      -2.613   0.779   5.283  0.00  0.00     0.010 A 
ATOM      3  C2  UNL d   1      -1.369   0.550   4.693  0.00  0.00     0.041 A 
ATOM      4  C3  UNL d   1      -1.315  -0.103   3.446  0.00  0.00    -0.075 A 
ATOM      5  S   UNL d   1       0.097  -0.489   2.535  0.00  0.00     0.015 SA
ATOM      6  C4  UNL d   1      -0.815  -1.208   1.287  0.00  0.00     0.022 A 
ATOM      7  C5  UNL d   1      -2.165  -1.164   1.543  0.00  0.00     0.026 A 
ATOM      8  C6  UNL d   1      -2.475  -0.526   2.792  0.00  0.00    -0.082 A 
ATOM      9  C7  UNL d   1      -3.722  -0.280   3.416  0.00  0.00     0.045 A 
ENDROOT
TORSDOF 0
ENDMDL
