MODEL 1
REMARK minimizedAffinity 9.0967741
REMARK minimizedRMSD -1
REMARK  0 active torsions:
REMARK  status: ('A' for Active; 'I' for Inactive)
ROOT
ATOM      1  C   UNL d   1      -5.776   5.792  -4.929  0.00  0.00    -0.002 A 
ATOM      2  C1  UNL d   1      -5.562   5.471  -3.596  0.00  0.00     0.010 A 
ATOM      3  C2  UNL d   1      -4.264   5.334  -3.098  0.00  0.00     0.041 A 
ATOM      4  C3  UNL d   1      -3.176   5.528  -3.971  0.00  0.00    -0.075 A 
ATOM      5  S   UNL d   1      -1.500   5.412  -3.584  0.00  0.00     0.015 SA
ATOM      6  C4  UNL d   1      -1.029   5.786  -5.178  0.00  0.00     0.022 A 
ATOM      7  C5  UNL d   1      -2.111   5.997  -6.000  0.00  0.00     0.026 A 
ATOM      8  C6  UNL d   1      -3.366   5.852  -5.317  0.00  0.00    -0.082 A 
ATOM      9  C7  UNL d   1      -4.694   5.983  -5.791  0.00  0.00     0.045 A 
ENDROOT
TORSDOF 0
ENDMDL
