MODEL 1
REMARK minimizedAffinity 11.958354
REMARK minimizedRMSD -1
REMARK  0 active torsions:
REMARK  status: ('A' for Active; 'I' for Inactive)
ROOT
ATOM      1  C   UNL d   1      -0.868   5.206  -3.919  0.00  0.00    -0.002 A 
ATOM      2  C1  UNL d   1      -0.849   5.367  -5.297  0.00  0.00     0.010 A 
ATOM      3  C2  UNL d   1      -2.029   5.615  -6.000  0.00  0.00     0.041 A 
ATOM      4  C3  UNL d   1      -3.242   5.702  -5.287  0.00  0.00    -0.075 A 
ATOM      5  S   UNL d   1      -4.811   5.999  -5.937  0.00  0.00     0.015 SA
ATOM      6  C4  UNL d   1      -5.544   5.920  -4.400  0.00  0.00     0.022 A 
ATOM      7  C5  UNL d   1      -4.628   5.673  -3.404  0.00  0.00     0.026 A 
ATOM      8  C6  UNL d   1      -3.287   5.544  -3.899  0.00  0.00    -0.082 A 
ATOM      9  C7  UNL d   1      -2.073   5.292  -3.215  0.00  0.00     0.045 A 
ENDROOT
TORSDOF 0
ENDMDL
