MODEL 1
REMARK minimizedAffinity 9.43656349
REMARK minimizedRMSD -1
REMARK  0 active torsions:
REMARK  status: ('A' for Active; 'I' for Inactive)
ROOT
ATOM      1  C   UNL d   1      -5.997  -1.118   2.819  0.00  0.00    -0.002 A 
ATOM      2  C1  UNL d   1      -5.019  -2.092   2.668  0.00  0.00     0.010 A 
ATOM      3  C2  UNL d   1      -3.693  -1.827   3.016  0.00  0.00     0.041 A 
ATOM      4  C3  UNL d   1      -3.363  -0.556   3.525  0.00  0.00    -0.075 A 
ATOM      5  S   UNL d   1      -1.805  -0.006   4.019  0.00  0.00     0.015 SA
ATOM      6  C4  UNL d   1      -2.400   1.534   4.442  0.00  0.00     0.022 A 
ATOM      7  C5  UNL d   1      -3.753   1.643   4.219  0.00  0.00     0.026 A 
ATOM      8  C6  UNL d   1      -4.330   0.441   3.687  0.00  0.00    -0.082 A 
ATOM      9  C7  UNL d   1      -5.665   0.142   3.324  0.00  0.00     0.045 A 
ENDROOT
TORSDOF 0
ENDMDL
