MODEL 1
REMARK minimizedAffinity -2.72480583
REMARK minimizedRMSD -1
REMARK  1 active torsions:
REMARK  status: ('A' for Active; 'I' for Inactive)
REMARK    1  A    between atoms: C3_4  and  O_7 
ROOT
ATOM      1  C   UNL d   1       0.513  -0.082   0.824  0.00  0.00    -0.033 A 
ATOM      2  C1  UNL d   1       1.337   0.878   0.234  0.00  0.00     0.039 A 
ATOM      3  C2  UNL d   1       2.413   0.482  -0.562  0.00  0.00    -0.080 A 
ATOM      4  C3  UNL d   1       2.654  -0.874  -0.760  0.00  0.00     0.150 A 
ATOM      5  C4  UNL d   1       1.835  -1.836  -0.179  0.00  0.00    -0.007 A 
ATOM      6  C5  UNL d   1       0.761  -1.440   0.617  0.00  0.00     0.039 A 
ENDROOT
BRANCH   4   7
ATOM      7  O   UNL d   1       3.695  -1.309  -1.525  0.00  0.00    -0.526 OA
ATOM      8  H5  UNL d   1       4.192  -0.534  -1.838  0.00  0.00     0.418 HD
ENDBRANCH   4   7
TORSDOF 1
ENDMDL
