MODEL 1
REMARK minimizedAffinity -1.59913492
REMARK minimizedRMSD -1
REMARK  1 active torsions:
REMARK  status: ('A' for Active; 'I' for Inactive)
REMARK    1  A    between atoms: C3_4  and  O_7 
ROOT
ATOM      1  C   UNL d   1      -2.028   3.413  -4.029  0.00  0.00    -0.033 A 
ATOM      2  C1  UNL d   1      -2.358   4.234  -5.109  0.00  0.00     0.039 A 
ATOM      3  C2  UNL d   1      -3.691   4.370  -5.503  0.00  0.00    -0.080 A 
ATOM      4  C3  UNL d   1      -4.682   3.681  -4.809  0.00  0.00     0.150 A 
ATOM      5  C4  UNL d   1      -4.360   2.865  -3.730  0.00  0.00    -0.007 A 
ATOM      6  C5  UNL d   1      -3.029   2.729  -3.339  0.00  0.00     0.039 A 
ENDROOT
BRANCH   4   7
ATOM      7  O   UNL d   1      -5.996   3.779  -5.159  0.00  0.00    -0.526 OA
ATOM      8  H5  UNL d   1      -6.064   4.355  -5.939  0.00  0.00     0.418 HD
ENDBRANCH   4   7
TORSDOF 1
ENDMDL
