MODEL 1
REMARK minimizedAffinity 2.12302804
REMARK minimizedRMSD -1
REMARK  1 active torsions:
REMARK  status: ('A' for Active; 'I' for Inactive)
REMARK    1  A    between atoms: C3_4  and  O_7 
ROOT
ATOM      1  C   UNL d   1      -1.493  -2.379   2.187  0.00  0.00    -0.033 A 
ATOM      2  C1  UNL d   1      -0.653  -1.305   2.486  0.00  0.00     0.039 A 
ATOM      3  C2  UNL d   1      -1.179  -0.018   2.610  0.00  0.00    -0.080 A 
ATOM      4  C3  UNL d   1      -2.546   0.181   2.433  0.00  0.00     0.150 A 
ATOM      5  C4  UNL d   1      -3.389  -0.885   2.138  0.00  0.00    -0.007 A 
ATOM      6  C5  UNL d   1      -2.861  -2.169   2.014  0.00  0.00     0.039 A 
ENDROOT
BRANCH   4   7
ATOM      7  O   UNL d   1      -3.105   1.420   2.539  0.00  0.00    -0.526 OA
ATOM      8  H5  UNL d   1      -2.398   2.063   2.718  0.00  0.00     0.418 HD
ENDBRANCH   4   7
TORSDOF 1
ENDMDL
