MODEL 1
REMARK minimizedAffinity -0.189675897
REMARK minimizedRMSD -1
REMARK  1 active torsions:
REMARK  status: ('A' for Active; 'I' for Inactive)
REMARK    1  A    between atoms: C3_4  and  O_7 
ROOT
ATOM      1  C   UNL d   1       1.525  -1.217   0.950  0.00  0.00    -0.033 A 
ATOM      2  C1  UNL d   1       2.053  -1.808  -0.199  0.00  0.00     0.039 A 
ATOM      3  C2  UNL d   1       2.698  -1.024  -1.157  0.00  0.00    -0.080 A 
ATOM      4  C3  UNL d   1       2.809   0.349  -0.953  0.00  0.00     0.150 A 
ATOM      5  C4  UNL d   1       2.289   0.944   0.191  0.00  0.00    -0.007 A 
ATOM      6  C5  UNL d   1       1.644   0.159   1.146  0.00  0.00     0.039 A 
ENDROOT
BRANCH   4   7
ATOM      7  O   UNL d   1       3.426   1.157  -1.862  0.00  0.00    -0.526 OA
ATOM      8  H5  UNL d   1       3.710   0.612  -2.615  0.00  0.00     0.418 HD
ENDBRANCH   4   7
TORSDOF 1
ENDMDL
