MODEL 1
REMARK minimizedAffinity 1.06376708
REMARK minimizedRMSD -1
REMARK  1 active torsions:
REMARK  status: ('A' for Active; 'I' for Inactive)
REMARK    1  A    between atoms: C3_4  and  O_7 
ROOT
ATOM      1  C   UNL d   1       1.560  -2.075   0.286  0.00  0.00    -0.033 A 
ATOM      2  C1  UNL d   1       1.013  -1.155   1.182  0.00  0.00     0.039 A 
ATOM      3  C2  UNL d   1       1.354   0.196   1.093  0.00  0.00    -0.080 A 
ATOM      4  C3  UNL d   1       2.241   0.613   0.104  0.00  0.00     0.150 A 
ATOM      5  C4  UNL d   1       2.787  -0.298  -0.794  0.00  0.00    -0.007 A 
ATOM      6  C5  UNL d   1       2.446  -1.647  -0.703  0.00  0.00     0.039 A 
ENDROOT
BRANCH   4   7
ATOM      7  O   UNL d   1       2.608   1.921  -0.019  0.00  0.00    -0.526 OA
ATOM      8  H5  UNL d   1       2.175   2.429   0.687  0.00  0.00     0.418 HD
ENDBRANCH   4   7
TORSDOF 1
ENDMDL
