MODEL 1
REMARK minimizedAffinity -0.172883213
REMARK minimizedRMSD -1
REMARK  1 active torsions:
REMARK  status: ('A' for Active; 'I' for Inactive)
REMARK    1  A    between atoms: C3_4  and  O_7 
ROOT
ATOM      1  C   UNL d   1       2.031   0.477  -0.012  0.00  0.00    -0.033 A 
ATOM      2  C1  UNL d   1       1.910  -0.852  -0.423  0.00  0.00     0.039 A 
ATOM      3  C2  UNL d   1       0.935  -1.674   0.144  0.00  0.00    -0.080 A 
ATOM      4  C3  UNL d   1       0.087  -1.156   1.120  0.00  0.00     0.150 A 
ATOM      5  C4  UNL d   1       0.199   0.168   1.531  0.00  0.00    -0.007 A 
ATOM      6  C5  UNL d   1       1.174   0.987   0.965  0.00  0.00     0.039 A 
ENDROOT
BRANCH   4   7
ATOM      7  O   UNL d   1      -0.877  -1.922   1.705  0.00  0.00    -0.526 OA
ATOM      8  H5  UNL d   1      -0.818  -2.822   1.343  0.00  0.00     0.418 HD
ENDBRANCH   4   7
TORSDOF 1
ENDMDL
