MODEL 1
REMARK minimizedAffinity -0.704825342
REMARK minimizedRMSD -1
REMARK  1 active torsions:
REMARK  status: ('A' for Active; 'I' for Inactive)
REMARK    1  A    between atoms: C3_4  and  O_7 
ROOT
ATOM      1  C   UNL d   1       0.592   0.114   0.618  0.00  0.00    -0.033 A 
ATOM      2  C1  UNL d   1       1.525   0.882  -0.081  0.00  0.00     0.039 A 
ATOM      3  C2  UNL d   1       2.472   0.261  -0.898  0.00  0.00    -0.080 A 
ATOM      4  C3  UNL d   1       2.473  -1.127  -1.008  0.00  0.00     0.150 A 
ATOM      5  C4  UNL d   1       1.544  -1.898  -0.318  0.00  0.00    -0.007 A 
ATOM      6  C5  UNL d   1       0.600  -1.276   0.498  0.00  0.00     0.039 A 
ENDROOT
BRANCH   4   7
ATOM      7  O   UNL d   1       3.381  -1.779  -1.790  0.00  0.00    -0.526 OA
ATOM      8  H5  UNL d   1       3.977  -1.120  -2.183  0.00  0.00     0.418 HD
ENDBRANCH   4   7
TORSDOF 1
ENDMDL
