MODEL 1
REMARK minimizedAffinity -2.28644347
REMARK minimizedRMSD -1
REMARK  1 active torsions:
REMARK  status: ('A' for Active; 'I' for Inactive)
REMARK    1  A    between atoms: C3_4  and  O_7 
ROOT
ATOM      1  C   UNL d   1       1.462  -1.292   0.501  0.00  0.00    -0.033 A 
ATOM      2  C1  UNL d   1       1.280   0.073   0.737  0.00  0.00     0.039 A 
ATOM      3  C2  UNL d   1       1.927   1.014  -0.066  0.00  0.00    -0.080 A 
ATOM      4  C3  UNL d   1       2.750   0.579  -1.101  0.00  0.00     0.150 A 
ATOM      5  C4  UNL d   1       2.932  -0.778  -1.345  0.00  0.00    -0.007 A 
ATOM      6  C5  UNL d   1       2.286  -1.717  -0.541  0.00  0.00     0.039 A 
ENDROOT
BRANCH   4   7
ATOM      7  O   UNL d   1       3.405   1.461  -1.909  0.00  0.00    -0.526 OA
ATOM      8  H5  UNL d   1       3.207   2.362  -1.605  0.00  0.00     0.418 HD
ENDBRANCH   4   7
TORSDOF 1
ENDMDL
