MODEL 1
REMARK minimizedAffinity -4.03540993
REMARK minimizedRMSD -1
REMARK  3 active torsions:
REMARK  status: ('A' for Active; 'I' for Inactive)
REMARK    1  A    between atoms: C3'_2  and  C2'_3 
REMARK    2  A    between atoms: C2'_3  and  C1'_4 
REMARK    3  A    between atoms: C1'_4  and  C1_5 
ROOT
ATOM      1  C1  N4B d   1       0.551  -1.075   2.293  0.00  0.00    -0.075 A 
ATOM      2  C2  N4B d   1       0.226  -0.147   1.279  0.00  0.00     0.002 A 
ATOM      3  C3  N4B d   1      -1.085   0.046   0.920  0.00  0.00     0.002 A 
ATOM      4  C4  N4B d   1      -2.082  -0.688   1.544  0.00  0.00    -0.004 A 
ATOM      5  C5  N4B d   1      -1.763  -1.564   2.540  0.00  0.00     0.002 A 
ATOM      6  C6  N4B d   1      -0.449  -1.765   2.914  0.00  0.00     0.002 A 
ENDROOT
BRANCH   1   7
ATOM      7  C1' N4B d   1       1.977  -1.383   2.660  0.00  0.00     0.057 C 
BRANCH   7   8
ATOM      8  C2' N4B d   1       2.472  -2.550   1.811  0.00  0.00     0.009 C 
BRANCH   8   9
ATOM      9  C3' N4B d   1       3.578  -2.130   0.858  0.00  0.00     0.004 C 
ATOM     10  C4' N4B d   1       3.065  -1.767  -0.503  0.00  0.00     0.003 C 
ENDBRANCH   8   9
ENDBRANCH   7   8
ENDBRANCH   1   7
TORSDOF 3
ENDMDL
