MODEL 1
REMARK minimizedAffinity -5.89278126
REMARK minimizedRMSD -1
REMARK  3 active torsions:
REMARK  status: ('A' for Active; 'I' for Inactive)
REMARK    1  A    between atoms: C3'_2  and  C2'_3 
REMARK    2  A    between atoms: C2'_3  and  C1'_4 
REMARK    3  A    between atoms: C1'_4  and  C1_5 
ROOT
ATOM      1  C1  N4B d   1       0.370   0.091   0.605  0.00  0.00    -0.075 A 
ATOM      2  C2  N4B d   1       1.604  -0.588   0.493  0.00  0.00     0.002 A 
ATOM      3  C3  N4B d   1       2.010  -1.443   1.488  0.00  0.00     0.002 A 
ATOM      4  C4  N4B d   1       1.212  -1.620   2.608  0.00  0.00    -0.004 A 
ATOM      5  C5  N4B d   1       0.010  -0.980   2.697  0.00  0.00     0.002 A 
ATOM      6  C6  N4B d   1      -0.412  -0.120   1.703  0.00  0.00     0.002 A 
ENDROOT
BRANCH   1   7
ATOM      7  C1' N4B d   1      -0.076   1.101  -0.416  0.00  0.00     0.057 C 
BRANCH   7   8
ATOM      8  C2' N4B d   1      -0.791   0.380  -1.555  0.00  0.00     0.009 C 
BRANCH   8   9
ATOM      9  C3' N4B d   1      -1.142   1.323  -2.693  0.00  0.00     0.004 C 
ATOM     10  C4' N4B d   1      -0.353   2.597  -2.656  0.00  0.00     0.003 C 
ENDBRANCH   8   9
ENDBRANCH   7   8
ENDBRANCH   1   7
TORSDOF 3
ENDMDL
