MODEL 1
REMARK minimizedAffinity 11.6149673
REMARK minimizedRMSD -1
REMARK  1 active torsions:
REMARK  status: ('A' for Active; 'I' for Inactive)
REMARK    1  A    between atoms: C1_2  and  C2_3 
ROOT
ATOM      1  C2  UNL d   1       0.582  -0.602   3.234  0.00  0.00    -0.073 A 
ATOM      2  C3  UNL d   1       1.530   0.023   4.051  0.00  0.00    -0.002 A 
ATOM      3  C4  UNL d   1       1.314   0.132   5.426  0.00  0.00     0.004 A 
ATOM      4  C5  UNL d   1       0.153  -0.388   5.997  0.00  0.00    -0.004 A 
ATOM      5  C6  UNL d   1      -0.801  -1.027   5.199  0.00  0.00    -0.075 A 
ATOM      6  C7  UNL d   1      -2.056  -1.590   5.798  0.00  0.00     0.076 C 
ATOM      7  C8  UNL d   1      -0.578  -1.130   3.819  0.00  0.00     0.001 A 
ENDROOT
BRANCH   1   8
ATOM      8  C1  UNL d   1       0.814  -0.728   1.750  0.00  0.00     0.053 C 
ATOM      9  C   UNL d   1       0.810  -2.178   1.293  0.00  0.00     0.018 C 
ENDBRANCH   1   8
TORSDOF 1
ENDMDL
