MODEL 1
REMARK minimizedAffinity 12.409071
REMARK minimizedRMSD -1
REMARK  1 active torsions:
REMARK  status: ('A' for Active; 'I' for Inactive)
REMARK    1  A    between atoms: C1_2  and  C2_3 
ROOT
ATOM      1  C2  UNL d   1       2.000  -1.540   1.691  0.00  0.00    -0.073 A 
ATOM      2  C3  UNL d   1       1.487  -2.825   1.483  0.00  0.00    -0.002 A 
ATOM      3  C4  UNL d   1       2.033  -3.652   0.501  0.00  0.00     0.004 A 
ATOM      4  C5  UNL d   1       3.100  -3.206  -0.278  0.00  0.00    -0.004 A 
ATOM      5  C6  UNL d   1       3.635  -1.929  -0.078  0.00  0.00    -0.075 A 
ATOM      6  C7  UNL d   1       4.781  -1.433  -0.910  0.00  0.00     0.076 C 
ATOM      7  C8  UNL d   1       3.079  -1.104   0.908  0.00  0.00     0.001 A 
ENDROOT
BRANCH   1   8
ATOM      8  C1  UNL d   1       1.418  -0.646   2.755  0.00  0.00     0.053 C 
ATOM      9  C   UNL d   1      -0.099  -0.734   2.806  0.00  0.00     0.018 C 
ENDBRANCH   1   8
TORSDOF 1
ENDMDL
