MODEL 1
REMARK minimizedAffinity 2.71794415
REMARK minimizedRMSD -1
REMARK  1 active torsions:
REMARK  status: ('A' for Active; 'I' for Inactive)
REMARK    1  A    between atoms: C1_2  and  C2_3 
ROOT
ATOM      1  C2  UNL d   1       0.522  -1.599   2.895  0.00  0.00    -0.073 A 
ATOM      2  C3  UNL d   1       1.008  -0.653   3.805  0.00  0.00    -0.002 A 
ATOM      3  C4  UNL d   1       0.480  -0.578   5.094  0.00  0.00     0.004 A 
ATOM      4  C5  UNL d   1      -0.533  -1.452   5.490  0.00  0.00    -0.004 A 
ATOM      5  C6  UNL d   1      -1.024  -2.412   4.599  0.00  0.00    -0.075 A 
ATOM      6  C7  UNL d   1      -2.114  -3.358   5.008  0.00  0.00     0.076 C 
ATOM      7  C8  UNL d   1      -0.490  -2.479   3.305  0.00  0.00     0.001 A 
ENDROOT
BRANCH   1   8
ATOM      8  C1  UNL d   1       1.093  -1.687   1.504  0.00  0.00     0.053 C 
ATOM      9  C   UNL d   1       1.971  -0.491   1.171  0.00  0.00     0.018 C 
ENDBRANCH   1   8
TORSDOF 1
ENDMDL
