MODEL 1
REMARK minimizedAffinity 7.54100943
REMARK minimizedRMSD -1
REMARK  1 active torsions:
REMARK  status: ('A' for Active; 'I' for Inactive)
REMARK    1  A    between atoms: C1_2  and  C2_3 
ROOT
ATOM      1  C2  UNL d   1       2.508  -5.013  -5.275  0.00  0.00    -0.073 A 
ATOM      2  C3  UNL d   1       1.534  -5.760  -5.949  0.00  0.00    -0.002 A 
ATOM      3  C4  UNL d   1       0.293  -5.998  -5.356  0.00  0.00     0.004 A 
ATOM      4  C5  UNL d   1       0.011  -5.487  -4.089  0.00  0.00    -0.004 A 
ATOM      5  C6  UNL d   1       0.966  -4.729  -3.405  0.00  0.00    -0.075 A 
ATOM      6  C7  UNL d   1       0.679  -4.174  -2.041  0.00  0.00     0.076 C 
ATOM      7  C8  UNL d   1       2.211  -4.496  -4.006  0.00  0.00     0.001 A 
ENDROOT
BRANCH   1   8
ATOM      8  C1  UNL d   1       3.846  -4.748  -5.914  0.00  0.00     0.053 C 
ATOM      9  C   UNL d   1       4.728  -5.987  -5.925  0.00  0.00     0.018 C 
ENDBRANCH   1   8
TORSDOF 1
ENDMDL
