MODEL 1
REMARK minimizedAffinity 7.19773674
REMARK minimizedRMSD -1
REMARK  1 active torsions:
REMARK  status: ('A' for Active; 'I' for Inactive)
REMARK    1  A    between atoms: C1_2  and  C2_3 
ROOT
ATOM      1  C2  UNL d   1       1.330  -4.852  -3.121  0.00  0.00    -0.073 A 
ATOM      2  C3  UNL d   1       0.211  -5.487  -3.671  0.00  0.00    -0.002 A 
ATOM      3  C4  UNL d   1       0.256  -5.994  -4.970  0.00  0.00     0.004 A 
ATOM      4  C5  UNL d   1       1.421  -5.877  -5.729  0.00  0.00    -0.004 A 
ATOM      5  C6  UNL d   1       2.553  -5.257  -5.193  0.00  0.00    -0.075 A 
ATOM      6  C7  UNL d   1       3.813  -5.122  -5.997  0.00  0.00     0.076 C 
ATOM      7  C8  UNL d   1       2.499  -4.748  -3.888  0.00  0.00     0.001 A 
ENDROOT
BRANCH   1   8
ATOM      8  C1  UNL d   1       1.288  -4.309  -1.716  0.00  0.00     0.053 C 
ATOM      9  C   UNL d   1       2.671  -4.248  -1.087  0.00  0.00     0.018 C 
ENDBRANCH   1   8
TORSDOF 1
ENDMDL
