MODEL 1
REMARK minimizedAffinity 12.9056463
REMARK minimizedRMSD -1
REMARK  1 active torsions:
REMARK  status: ('A' for Active; 'I' for Inactive)
REMARK    1  A    between atoms: C1_2  and  C2_3 
ROOT
ATOM      1  C2  UNL d   1      -0.776   2.602  -1.468  0.00  0.00    -0.073 A 
ATOM      2  C3  UNL d   1      -1.023   2.720  -2.840  0.00  0.00    -0.002 A 
ATOM      3  C4  UNL d   1      -2.332   2.805  -3.316  0.00  0.00     0.004 A 
ATOM      4  C5  UNL d   1      -3.406   2.781  -2.425  0.00  0.00    -0.004 A 
ATOM      5  C6  UNL d   1      -3.179   2.676  -1.049  0.00  0.00    -0.075 A 
ATOM      6  C7  UNL d   1      -4.322   2.647  -0.078  0.00  0.00     0.076 C 
ATOM      7  C8  UNL d   1      -1.861   2.588  -0.580  0.00  0.00     0.001 A 
ENDROOT
BRANCH   1   8
ATOM      8  C1  UNL d   1       0.636   2.516  -0.949  0.00  0.00     0.053 C 
ATOM      9  C   UNL d   1       1.512   3.635  -1.491  0.00  0.00     0.018 C 
ENDBRANCH   1   8
TORSDOF 1
ENDMDL
