MODEL 1
REMARK minimizedAffinity 11.0169554
REMARK minimizedRMSD -1
REMARK  1 active torsions:
REMARK  status: ('A' for Active; 'I' for Inactive)
REMARK    1  A    between atoms: C1_2  and  C2_3 
ROOT
ATOM      1  C2  UNL d   1      -3.301  -4.351   1.207  0.00  0.00    -0.073 A 
ATOM      2  C3  UNL d   1      -2.357  -4.467   2.234  0.00  0.00    -0.002 A 
ATOM      3  C4  UNL d   1      -2.413  -3.619   3.341  0.00  0.00     0.004 A 
ATOM      4  C5  UNL d   1      -3.415  -2.653   3.436  0.00  0.00    -0.004 A 
ATOM      5  C6  UNL d   1      -4.374  -2.530   2.426  0.00  0.00    -0.075 A 
ATOM      6  C7  UNL d   1      -5.457  -1.496   2.513  0.00  0.00     0.076 C 
ATOM      7  C8  UNL d   1      -4.310  -3.384   1.316  0.00  0.00     0.001 A 
ENDROOT
BRANCH   1   8
ATOM      8  C1  UNL d   1      -3.249  -5.269   0.013  0.00  0.00     0.053 C 
ATOM      9  C   UNL d   1      -4.623  -5.479  -0.604  0.00  0.00     0.018 C 
ENDBRANCH   1   8
TORSDOF 1
ENDMDL
