MODEL 1
REMARK minimizedAffinity 14.9093437
REMARK minimizedRMSD -1
REMARK  1 active torsions:
REMARK  status: ('A' for Active; 'I' for Inactive)
REMARK    1  A    between atoms: C1_2  and  C2_3 
ROOT
ATOM      1  C2  UNL d   1       1.066  -0.458   1.914  0.00  0.00    -0.073 A 
ATOM      2  C3  UNL d   1       0.717  -1.722   1.427  0.00  0.00    -0.002 A 
ATOM      3  C4  UNL d   1      -0.155  -2.540   2.148  0.00  0.00     0.004 A 
ATOM      4  C5  UNL d   1      -0.691  -2.099   3.358  0.00  0.00    -0.004 A 
ATOM      5  C6  UNL d   1      -0.363  -0.834   3.856  0.00  0.00    -0.075 A 
ATOM      6  C7  UNL d   1      -0.929  -0.347   5.157  0.00  0.00     0.076 C 
ATOM      7  C8  UNL d   1       0.515  -0.020   3.127  0.00  0.00     0.001 A 
ENDROOT
BRANCH   1   8
ATOM      8  C1  UNL d   1       2.002   0.431   1.136  0.00  0.00     0.053 C 
ATOM      9  C   UNL d   1       1.252   1.465   0.312  0.00  0.00     0.018 C 
ENDBRANCH   1   8
TORSDOF 1
ENDMDL
