MODEL 1
REMARK minimizedAffinity -2.79878545
REMARK minimizedRMSD -1
REMARK  1 active torsions:
REMARK  status: ('A' for Active; 'I' for Inactive)
REMARK    1  A    between atoms: C1_2  and  C2_3 
ROOT
ATOM      1  C2  UNL d   1       1.133  -1.563   2.335  0.00  0.00    -0.073 A 
ATOM      2  C3  UNL d   1       0.663  -2.881   2.308  0.00  0.00    -0.002 A 
ATOM      3  C4  UNL d   1       1.200  -3.802   1.407  0.00  0.00     0.004 A 
ATOM      4  C5  UNL d   1       2.214  -3.417   0.530  0.00  0.00    -0.004 A 
ATOM      5  C6  UNL d   1       2.704  -2.108   0.550  0.00  0.00    -0.075 A 
ATOM      6  C7  UNL d   1       3.793  -1.677  -0.389  0.00  0.00     0.076 C 
ATOM      7  C8  UNL d   1       2.159  -1.188   1.455  0.00  0.00     0.001 A 
ENDROOT
BRANCH   1   8
ATOM      8  C1  UNL d   1       0.561  -0.567   3.310  0.00  0.00     0.053 C 
ATOM      9  C   UNL d   1       1.621  -0.023   4.256  0.00  0.00     0.018 C 
ENDBRANCH   1   8
TORSDOF 1
ENDMDL
