MODEL 1
REMARK minimizedAffinity 15.9185381
REMARK minimizedRMSD -1
REMARK  1 active torsions:
REMARK  status: ('A' for Active; 'I' for Inactive)
REMARK    1  A    between atoms: C1_2  and  C2_3 
ROOT
ATOM      1  C2  UNL d   1       1.981  -1.061   0.660  0.00  0.00    -0.073 A 
ATOM      2  C3  UNL d   1       2.239  -2.424   0.480  0.00  0.00    -0.002 A 
ATOM      3  C4  UNL d   1       3.071  -2.854  -0.554  0.00  0.00     0.004 A 
ATOM      4  C5  UNL d   1       3.659  -1.925  -1.414  0.00  0.00    -0.004 A 
ATOM      5  C6  UNL d   1       3.422  -0.558  -1.243  0.00  0.00    -0.075 A 
ATOM      6  C7  UNL d   1       4.045   0.454  -2.160  0.00  0.00     0.076 C 
ATOM      7  C8  UNL d   1       2.583  -0.134  -0.203  0.00  0.00     0.001 A 
ENDROOT
BRANCH   1   8
ATOM      8  C1  UNL d   1       1.087  -0.592   1.780  0.00  0.00     0.053 C 
ATOM      9  C   UNL d   1      -0.114  -1.504   1.971  0.00  0.00     0.018 C 
ENDBRANCH   1   8
TORSDOF 1
ENDMDL
