MODEL 1
REMARK minimizedAffinity 9.53938866
REMARK minimizedRMSD -1
REMARK  1 active torsions:
REMARK  status: ('A' for Active; 'I' for Inactive)
REMARK    1  A    between atoms: C1_2  and  C2_3 
ROOT
ATOM      1  C2  UNL d   1       5.412  -2.127  -3.239  0.00  0.00    -0.073 A 
ATOM      2  C3  UNL d   1       4.345  -1.396  -3.773  0.00  0.00    -0.002 A 
ATOM      3  C4  UNL d   1       3.822  -1.725  -5.025  0.00  0.00     0.004 A 
ATOM      4  C5  UNL d   1       4.355  -2.790  -5.751  0.00  0.00    -0.004 A 
ATOM      5  C6  UNL d   1       5.413  -3.540  -5.228  0.00  0.00    -0.075 A 
ATOM      6  C7  UNL d   1       5.999  -4.688  -5.997  0.00  0.00     0.076 C 
ATOM      7  C8  UNL d   1       5.935  -3.202  -3.972  0.00  0.00     0.001 A 
ENDROOT
BRANCH   1   8
ATOM      8  C1  UNL d   1       5.976  -1.780  -1.885  0.00  0.00     0.053 C 
ATOM      9  C   UNL d   1       4.892  -1.690  -0.823  0.00  0.00     0.018 C 
ENDBRANCH   1   8
TORSDOF 1
ENDMDL
