MODEL 1
REMARK minimizedAffinity 11.3625078
REMARK minimizedRMSD -1
REMARK  1 active torsions:
REMARK  status: ('A' for Active; 'I' for Inactive)
REMARK    1  A    between atoms: C1_2  and  C2_3 
ROOT
ATOM      1  C2  UNL d   1       2.277   2.501   0.733  0.00  0.00    -0.073 A 
ATOM      2  C3  UNL d   1       1.511   1.845  -0.237  0.00  0.00    -0.002 A 
ATOM      3  C4  UNL d   1       0.506   2.529  -0.922  0.00  0.00     0.004 A 
ATOM      4  C5  UNL d   1       0.262   3.875  -0.650  0.00  0.00    -0.004 A 
ATOM      5  C6  UNL d   1       1.025   4.551   0.307  0.00  0.00    -0.075 A 
ATOM      6  C7  UNL d   1       0.773   5.999   0.612  0.00  0.00     0.076 C 
ATOM      7  C8  UNL d   1       2.031   3.857   0.993  0.00  0.00     0.001 A 
ENDROOT
BRANCH   1   8
ATOM      8  C1  UNL d   1       3.368   1.769   1.471  0.00  0.00     0.053 C 
ATOM      9  C   UNL d   1       3.071   0.283   1.599  0.00  0.00     0.018 C 
ENDBRANCH   1   8
TORSDOF 1
ENDMDL
