MODEL 1
REMARK minimizedAffinity 11.6730175
REMARK minimizedRMSD -1
REMARK  0 active torsions:
REMARK  status: ('A' for Active; 'I' for Inactive)
ROOT
ATOM      1  O1  BZF d   1      -0.391  -3.824   0.450  0.00  0.00    -0.204 OA
ATOM      2  C2  BZF d   1      -1.052  -4.023   1.646  0.00  0.00     0.174 A 
ATOM      3  C3  BZF d   1      -1.950  -3.041   1.865  0.00  0.00    -0.012 A 
ATOM      4  C3A BZF d   1      -1.910  -2.225   0.691  0.00  0.00    -0.107 A 
ATOM      5  C4  BZF d   1      -2.586  -1.104   0.303  0.00  0.00     0.055 A 
ATOM      6  C5  BZF d   1      -2.259  -0.510  -0.875  0.00  0.00    -0.016 A 
ATOM      7  C6  BZF d   1      -1.258  -1.005  -1.685  0.00  0.00     0.022 A 
ATOM      8  C7  BZF d   1      -0.563  -2.118  -1.344  0.00  0.00     0.029 A 
ATOM      9  C7A BZF d   1      -0.914  -2.740  -0.171  0.00  0.00     0.058 A 
ENDROOT
TORSDOF 0
ENDMDL
