MODEL 1
REMARK minimizedAffinity 15.1513214
REMARK minimizedRMSD -1
REMARK  0 active torsions:
REMARK  status: ('A' for Active; 'I' for Inactive)
ROOT
ATOM      1  O1  BZF d   1       0.703   3.610  -3.679  0.00  0.00    -0.204 OA
ATOM      2  C2  BZF d   1      -0.185   3.483  -4.730  0.00  0.00     0.174 A 
ATOM      3  C3  BZF d   1      -0.251   2.203  -5.149  0.00  0.00    -0.012 A 
ATOM      4  C3A BZF d   1       0.583   1.469  -4.248  0.00  0.00    -0.107 A 
ATOM      5  C4  BZF d   1       0.911   0.148  -4.137  0.00  0.00     0.055 A 
ATOM      6  C5  BZF d   1       1.810  -0.232  -3.191  0.00  0.00    -0.016 A 
ATOM      7  C6  BZF d   1       2.403   0.681  -2.345  0.00  0.00     0.022 A 
ATOM      8  C7  BZF d   1       2.106   2.001  -2.413  0.00  0.00     0.029 A 
ATOM      9  C7A BZF d   1       1.173   2.384  -3.346  0.00  0.00     0.058 A 
ENDROOT
TORSDOF 0
ENDMDL
