MODEL 1
REMARK minimizedAffinity 6.93707705
REMARK minimizedRMSD -1
REMARK  0 active torsions:
REMARK  status: ('A' for Active; 'I' for Inactive)
ROOT
ATOM      1  O1  BZF d   1      -0.730  -5.375   1.944  0.00  0.00    -0.204 OA
ATOM      2  C2  BZF d   1      -0.156  -5.711   0.733  0.00  0.00     0.174 A 
ATOM      3  C3  BZF d   1      -0.398  -4.758  -0.191  0.00  0.00    -0.012 A 
ATOM      4  C3A BZF d   1      -1.093  -3.722   0.510  0.00  0.00    -0.107 A 
ATOM      5  C4  BZF d   1      -1.589  -2.506   0.137  0.00  0.00     0.055 A 
ATOM      6  C5  BZF d   1      -2.279  -1.767   1.045  0.00  0.00    -0.016 A 
ATOM      7  C6  BZF d   1      -2.496  -2.215   2.332  0.00  0.00     0.022 A 
ATOM      8  C7  BZF d   1      -2.018  -3.413   2.750  0.00  0.00     0.029 A 
ATOM      9  C7A BZF d   1      -1.293  -4.147   1.844  0.00  0.00     0.058 A 
ENDROOT
TORSDOF 0
ENDMDL
