MODEL 1
REMARK minimizedAffinity 18.2665234
REMARK minimizedRMSD -1
REMARK  0 active torsions:
REMARK  status: ('A' for Active; 'I' for Inactive)
ROOT
ATOM      1  O1  BZF d   1       0.929   3.629  -4.125  0.00  0.00    -0.204 OA
ATOM      2  C2  BZF d   1       0.150   3.455  -5.253  0.00  0.00     0.174 A 
ATOM      3  C3  BZF d   1      -0.157   2.153  -5.426  0.00  0.00    -0.012 A 
ATOM      4  C3A BZF d   1       0.392   1.482  -4.288  0.00  0.00    -0.107 A 
ATOM      5  C4  BZF d   1       0.402   0.179  -3.880  0.00  0.00     0.055 A 
ATOM      6  C5  BZF d   1       1.089  -0.157  -2.757  0.00  0.00    -0.016 A 
ATOM      7  C6  BZF d   1       1.780   0.783  -2.020  0.00  0.00     0.022 A 
ATOM      8  C7  BZF d   1       1.795   2.089  -2.382  0.00  0.00     0.029 A 
ATOM      9  C7A BZF d   1       1.074   2.437  -3.499  0.00  0.00     0.058 A 
ENDROOT
TORSDOF 0
ENDMDL
