MODEL 1
REMARK minimizedAffinity 15.4975891
REMARK minimizedRMSD -1
REMARK  0 active torsions:
REMARK  status: ('A' for Active; 'I' for Inactive)
ROOT
ATOM      1  O1  BZF d   1      -3.010   2.407  -4.797  0.00  0.00    -0.204 OA
ATOM      2  C2  BZF d   1      -2.991   1.645  -3.645  0.00  0.00     0.174 A 
ATOM      3  C3  BZF d   1      -1.755   1.624  -3.106  0.00  0.00    -0.012 A 
ATOM      4  C3A BZF d   1      -0.972   2.498  -3.925  0.00  0.00    -0.107 A 
ATOM      5  C4  BZF d   1       0.332   2.902  -3.888  0.00  0.00     0.055 A 
ATOM      6  C5  BZF d   1       0.803   3.706  -4.878  0.00  0.00    -0.016 A 
ATOM      7  C6  BZF d   1       0.000   4.119  -5.921  0.00  0.00     0.022 A 
ATOM      8  C7  BZF d   1      -1.301   3.748  -5.998  0.00  0.00     0.029 A 
ATOM      9  C7A BZF d   1      -1.789   2.964  -4.981  0.00  0.00     0.058 A 
ENDROOT
TORSDOF 0
ENDMDL
