MODEL 1
REMARK minimizedAffinity 19.9730568
REMARK minimizedRMSD -1
REMARK  0 active torsions:
REMARK  status: ('A' for Active; 'I' for Inactive)
ROOT
ATOM      1  O1  BZF d   1      -0.734   3.777  -5.706  0.00  0.00    -0.204 OA
ATOM      2  C2  BZF d   1       0.498   3.165  -5.830  0.00  0.00     0.174 A 
ATOM      3  C3  BZF d   1       0.569   2.068  -5.050  0.00  0.00    -0.012 A 
ATOM      4  C3A BZF d   1      -0.731   1.937  -4.467  0.00  0.00    -0.107 A 
ATOM      5  C4  BZF d   1      -1.289   1.031  -3.611  0.00  0.00     0.055 A 
ATOM      6  C5  BZF d   1      -2.562   1.229  -3.177  0.00  0.00    -0.016 A 
ATOM      7  C6  BZF d   1      -3.303   2.322  -3.575  0.00  0.00     0.022 A 
ATOM      8  C7  BZF d   1      -2.794   3.245  -4.427  0.00  0.00     0.029 A 
ATOM      9  C7A BZF d   1      -1.519   3.031  -4.893  0.00  0.00     0.058 A 
ENDROOT
TORSDOF 0
ENDMDL
