MODEL 1
REMARK minimizedAffinity 18.0573311
REMARK minimizedRMSD -1
REMARK  0 active torsions:
REMARK  status: ('A' for Active; 'I' for Inactive)
ROOT
ATOM      1  O1  BZF d   1      -0.056  -5.041   0.439  0.00  0.00    -0.204 OA
ATOM      2  C2  BZF d   1      -0.160  -5.609   1.694  0.00  0.00     0.174 A 
ATOM      3  C3  BZF d   1      -0.807  -4.782   2.541  0.00  0.00    -0.012 A 
ATOM      4  C3A BZF d   1      -1.208  -3.665   1.742  0.00  0.00    -0.107 A 
ATOM      5  C4  BZF d   1      -1.901  -2.519   2.011  0.00  0.00     0.055 A 
ATOM      6  C5  BZF d   1      -2.059  -1.596   1.026  0.00  0.00    -0.016 A 
ATOM      7  C6  BZF d   1      -1.535  -1.784  -0.236  0.00  0.00     0.022 A 
ATOM      8  C7  BZF d   1      -0.845  -2.907  -0.552  0.00  0.00     0.029 A 
ATOM      9  C7A BZF d   1      -0.711  -3.856   0.432  0.00  0.00     0.058 A 
ENDROOT
TORSDOF 0
ENDMDL
