MODEL 1
REMARK minimizedAffinity 16.2179146
REMARK minimizedRMSD -1
REMARK  0 active torsions:
REMARK  status: ('A' for Active; 'I' for Inactive)
ROOT
ATOM      1  O1  BZF d   1       4.073   4.389   1.422  0.00  0.00    -0.204 OA
ATOM      2  C2  BZF d   1       4.502   5.699   1.509  0.00  0.00     0.174 A 
ATOM      3  C3  BZF d   1       5.336   5.998   0.493  0.00  0.00    -0.012 A 
ATOM      4  C3A BZF d   1       5.362   4.827  -0.330  0.00  0.00    -0.107 A 
ATOM      5  C4  BZF d   1       5.998   4.513  -1.496  0.00  0.00     0.055 A 
ATOM      6  C5  BZF d   1       5.871   3.258  -2.001  0.00  0.00    -0.016 A 
ATOM      7  C6  BZF d   1       5.120   2.292  -1.363  0.00  0.00     0.022 A 
ATOM      8  C7  BZF d   1       4.467   2.558  -0.206  0.00  0.00     0.029 A 
ATOM      9  C7A BZF d   1       4.567   3.835   0.289  0.00  0.00     0.058 A 
ENDROOT
TORSDOF 0
ENDMDL
