MODEL 1
REMARK minimizedAffinity 15.5643435
REMARK minimizedRMSD -1
REMARK  0 active torsions:
REMARK  status: ('A' for Active; 'I' for Inactive)
ROOT
ATOM      1  O1  BZF d   1      -3.298   4.140  -1.615  0.00  0.00    -0.204 OA
ATOM      2  C2  BZF d   1      -3.505   5.136  -2.550  0.00  0.00     0.174 A 
ATOM      3  C3  BZF d   1      -4.490   5.968  -2.153  0.00  0.00    -0.012 A 
ATOM      4  C3A BZF d   1      -4.862   5.515  -0.848  0.00  0.00    -0.107 A 
ATOM      5  C4  BZF d   1      -5.776   5.946   0.070  0.00  0.00     0.055 A 
ATOM      6  C5  BZF d   1      -5.943   5.238   1.218  0.00  0.00    -0.016 A 
ATOM      7  C6  BZF d   1      -5.217   4.094   1.478  0.00  0.00     0.022 A 
ATOM      8  C7  BZF d   1      -4.296   3.630   0.599  0.00  0.00     0.029 A 
ATOM      9  C7A BZF d   1      -4.101   4.361  -0.547  0.00  0.00     0.058 A 
ENDROOT
TORSDOF 0
ENDMDL
