MODEL 1
REMARK minimizedAffinity 13.8916073
REMARK minimizedRMSD -1
REMARK  0 active torsions:
REMARK  status: ('A' for Active; 'I' for Inactive)
ROOT
ATOM      1  O1  BZF d   1      -3.719   3.859   5.940  0.00  0.00    -0.204 OA
ATOM      2  C2  BZF d   1      -4.891   4.588   5.998  0.00  0.00     0.174 A 
ATOM      3  C3  BZF d   1      -5.964   3.775   5.929  0.00  0.00    -0.012 A 
ATOM      4  C3A BZF d   1      -5.431   2.447   5.915  0.00  0.00    -0.107 A 
ATOM      5  C4  BZF d   1      -6.000   1.207   5.870  0.00  0.00     0.055 A 
ATOM      6  C5  BZF d   1      -5.196   0.114   5.794  0.00  0.00    -0.016 A 
ATOM      7  C6  BZF d   1      -3.822   0.224   5.755  0.00  0.00     0.022 A 
ATOM      8  C7  BZF d   1      -3.211   1.433   5.802  0.00  0.00     0.029 A 
ATOM      9  C7A BZF d   1      -4.019   2.538   5.912  0.00  0.00     0.058 A 
ENDROOT
TORSDOF 0
ENDMDL
