MODEL 1
REMARK minimizedAffinity 22.7902012
REMARK minimizedRMSD -1
REMARK  0 active torsions:
REMARK  status: ('A' for Active; 'I' for Inactive)
ROOT
ATOM      1  O1  BZF d   1      -0.173  -5.672  -1.324  0.00  0.00    -0.204 OA
ATOM      2  C2  BZF d   1      -0.078  -5.998   0.015  0.00  0.00     0.174 A 
ATOM      3  C3  BZF d   1      -0.272  -4.910   0.787  0.00  0.00    -0.012 A 
ATOM      4  C3A BZF d   1      -0.595  -3.855  -0.124  0.00  0.00    -0.107 A 
ATOM      5  C4  BZF d   1      -0.909  -2.536   0.040  0.00  0.00     0.055 A 
ATOM      6  C5  BZF d   1      -1.099  -1.760  -1.059  0.00  0.00    -0.016 A 
ATOM      7  C6  BZF d   1      -0.978  -2.269  -2.336  0.00  0.00     0.022 A 
ATOM      8  C7  BZF d   1      -0.673  -3.572  -2.549  0.00  0.00     0.029 A 
ATOM      9  C7A BZF d   1      -0.513  -4.366  -1.440  0.00  0.00     0.058 A 
ENDROOT
TORSDOF 0
ENDMDL
