MODEL 1
REMARK minimizedAffinity 12.0306158
REMARK minimizedRMSD -1
REMARK  0 active torsions:
REMARK  status: ('A' for Active; 'I' for Inactive)
ROOT
ATOM      1  O1  BZF d   1      -0.393  -5.660   2.224  0.00  0.00    -0.204 OA
ATOM      2  C2  BZF d   1      -0.116  -5.990   0.911  0.00  0.00     0.174 A 
ATOM      3  C3  BZF d   1      -0.600  -5.053   0.070  0.00  0.00    -0.012 A 
ATOM      4  C3A BZF d   1      -1.138  -4.031   0.915  0.00  0.00    -0.107 A 
ATOM      5  C4  BZF d   1      -1.745  -2.833   0.669  0.00  0.00     0.055 A 
ATOM      6  C5  BZF d   1      -2.219  -2.106   1.714  0.00  0.00    -0.016 A 
ATOM      7  C6  BZF d   1      -2.109  -2.548   3.016  0.00  0.00     0.022 A 
ATOM      8  C7  BZF d   1      -1.510  -3.728   3.310  0.00  0.00     0.029 A 
ATOM      9  C7A BZF d   1      -1.000  -4.450   2.258  0.00  0.00     0.058 A 
ENDROOT
TORSDOF 0
ENDMDL
