MODEL 1
REMARK minimizedAffinity 11.5797787
REMARK minimizedRMSD -1
REMARK  0 active torsions:
REMARK  status: ('A' for Active; 'I' for Inactive)
ROOT
ATOM      1  O1  BZF d   1      -1.870   0.600   5.911  0.00  0.00    -0.204 OA
ATOM      2  C2  BZF d   1      -1.701  -0.769   5.842  0.00  0.00     0.174 A 
ATOM      3  C3  BZF d   1      -2.893  -1.400   5.862  0.00  0.00    -0.012 A 
ATOM      4  C3A BZF d   1      -3.871  -0.356   5.856  0.00  0.00    -0.107 A 
ATOM      5  C4  BZF d   1      -5.237  -0.349   5.854  0.00  0.00     0.055 A 
ATOM      6  C5  BZF d   1      -5.892   0.839   5.922  0.00  0.00    -0.016 A 
ATOM      7  C6  BZF d   1      -5.214   2.038   6.000  0.00  0.00     0.022 A 
ATOM      8  C7  BZF d   1      -3.859   2.082   6.000  0.00  0.00     0.029 A 
ATOM      9  C7A BZF d   1      -3.194   0.885   5.897  0.00  0.00     0.058 A 
ENDROOT
TORSDOF 0
ENDMDL
