MODEL 1
REMARK minimizedAffinity 18.1761227
REMARK minimizedRMSD -1
REMARK  0 active torsions:
REMARK  status: ('A' for Active; 'I' for Inactive)
ROOT
ATOM      1  O1  BZF d   1      -0.406  -4.673  -0.104  0.00  0.00    -0.204 OA
ATOM      2  C2  BZF d   1      -0.501  -5.035   1.226  0.00  0.00     0.174 A 
ATOM      3  C3  BZF d   1      -1.086  -4.058   1.948  0.00  0.00    -0.012 A 
ATOM      4  C3A BZF d   1      -1.459  -3.058   0.994  0.00  0.00    -0.107 A 
ATOM      5  C4  BZF d   1      -2.092  -1.853   1.097  0.00  0.00     0.055 A 
ATOM      6  C5  BZF d   1      -2.238  -1.086  -0.016  0.00  0.00    -0.016 A 
ATOM      7  C6  BZF d   1      -1.758  -1.491  -1.244  0.00  0.00     0.022 A 
ATOM      8  C7  BZF d   1      -1.127  -2.681  -1.396  0.00  0.00     0.029 A 
ATOM      9  C7A BZF d   1      -1.008  -3.472  -0.280  0.00  0.00     0.058 A 
ENDROOT
TORSDOF 0
ENDMDL
