MODEL 1
REMARK minimizedAffinity 22.031414
REMARK minimizedRMSD -1
REMARK  0 active torsions:
REMARK  status: ('A' for Active; 'I' for Inactive)
ROOT
ATOM      1  O1  BZF d   1      -5.243   4.782  -5.992  0.00  0.00    -0.204 OA
ATOM      2  C2  BZF d   1      -5.200   5.987  -5.318  0.00  0.00     0.174 A 
ATOM      3  C3  BZF d   1      -4.191   5.999  -4.423  0.00  0.00    -0.012 A 
ATOM      4  C3A BZF d   1      -3.507   4.757  -4.610  0.00  0.00    -0.107 A 
ATOM      5  C4  BZF d   1      -2.410   4.192  -4.025  0.00  0.00     0.055 A 
ATOM      6  C5  BZF d   1      -2.044   2.934  -4.385  0.00  0.00    -0.016 A 
ATOM      7  C6  BZF d   1      -2.754   2.210  -5.321  0.00  0.00     0.022 A 
ATOM      8  C7  BZF d   1      -3.846   2.730  -5.931  0.00  0.00     0.029 A 
ATOM      9  C7A BZF d   1      -4.199   4.014  -5.594  0.00  0.00     0.058 A 
ENDROOT
TORSDOF 0
ENDMDL
