MODEL 1
REMARK minimizedAffinity 6.42100191
REMARK minimizedRMSD -1
REMARK  0 active torsions:
REMARK  status: ('A' for Active; 'I' for Inactive)
ROOT
ATOM      1  O1  BZF d   1      -1.117  -5.132   2.470  0.00  0.00    -0.204 OA
ATOM      2  C2  BZF d   1      -0.504  -5.813   1.437  0.00  0.00     0.174 A 
ATOM      3  C3  BZF d   1      -0.555  -5.097   0.295  0.00  0.00    -0.012 A 
ATOM      4  C3A BZF d   1      -1.161  -3.853   0.657  0.00  0.00    -0.107 A 
ATOM      5  C4  BZF d   1      -1.470  -2.721  -0.041  0.00  0.00     0.055 A 
ATOM      6  C5  BZF d   1      -2.124  -1.712   0.593  0.00  0.00    -0.016 A 
ATOM      7  C6  BZF d   1      -2.490  -1.805   1.920  0.00  0.00     0.022 A 
ATOM      8  C7  BZF d   1      -2.201  -2.906   2.655  0.00  0.00     0.029 A 
ATOM      9  C7A BZF d   1      -1.510  -3.914   2.026  0.00  0.00     0.058 A 
ENDROOT
TORSDOF 0
ENDMDL
