MODEL 1
REMARK minimizedAffinity 8.1263361
REMARK minimizedRMSD -1
REMARK  0 active torsions:
REMARK  status: ('A' for Active; 'I' for Inactive)
ROOT
ATOM      1  O1  BZF d   1       1.641  -0.542  -3.497  0.00  0.00    -0.204 OA
ATOM      2  C2  BZF d   1       2.956  -0.124  -3.421  0.00  0.00     0.174 A 
ATOM      3  C3  BZF d   1       3.054   1.196  -3.679  0.00  0.00    -0.012 A 
ATOM      4  C3A BZF d   1       1.707   1.649  -3.841  0.00  0.00    -0.107 A 
ATOM      5  C4  BZF d   1       1.151   2.869  -4.099  0.00  0.00     0.055 A 
ATOM      6  C5  BZF d   1      -0.194   2.960  -4.270  0.00  0.00    -0.016 A 
ATOM      7  C6  BZF d   1      -1.011   1.852  -4.195  0.00  0.00     0.022 A 
ATOM      8  C7  BZF d   1      -0.507   0.621  -3.937  0.00  0.00     0.029 A 
ATOM      9  C7A BZF d   1       0.848   0.531  -3.730  0.00  0.00     0.058 A 
ENDROOT
TORSDOF 0
ENDMDL
