MODEL 1
REMARK minimizedAffinity 21.6958046
REMARK minimizedRMSD -1
REMARK  0 active torsions:
REMARK  status: ('A' for Active; 'I' for Inactive)
ROOT
ATOM      1  O1  BZF d   1       4.722   5.185   1.471  0.00  0.00    -0.204 OA
ATOM      2  C2  BZF d   1       5.081   5.998   0.413  0.00  0.00     0.174 A 
ATOM      3  C3  BZF d   1       4.852   5.382  -0.764  0.00  0.00    -0.012 A 
ATOM      4  C3A BZF d   1       4.230   4.139  -0.423  0.00  0.00    -0.107 A 
ATOM      5  C4  BZF d   1       3.751   3.095  -1.162  0.00  0.00     0.055 A 
ATOM      6  C5  BZF d   1       3.271   1.998  -0.520  0.00  0.00    -0.016 A 
ATOM      7  C6  BZF d   1       3.258   1.909   0.857  0.00  0.00     0.022 A 
ATOM      8  C7  BZF d   1       3.718   2.921   1.632  0.00  0.00     0.029 A 
ATOM      9  C7A BZF d   1       4.174   4.045   0.987  0.00  0.00     0.058 A 
ENDROOT
TORSDOF 0
ENDMDL
