MODEL 1
REMARK minimizedAffinity 23.5708179
REMARK minimizedRMSD -1
REMARK  0 active torsions:
REMARK  status: ('A' for Active; 'I' for Inactive)
ROOT
ATOM      1  O1  BZF d   1       3.204   6.000   5.983  0.00  0.00    -0.204 OA
ATOM      2  C2  BZF d   1       1.823   5.996   6.000  0.00  0.00     0.174 A 
ATOM      3  C3  BZF d   1       1.342   4.814   5.563  0.00  0.00    -0.012 A 
ATOM      4  C3A BZF d   1       2.497   3.997   5.341  0.00  0.00    -0.107 A 
ATOM      5  C4  BZF d   1       2.669   2.710   4.919  0.00  0.00     0.055 A 
ATOM      6  C5  BZF d   1       3.930   2.238   4.738  0.00  0.00    -0.016 A 
ATOM      7  C6  BZF d   1       5.040   3.026   4.964  0.00  0.00     0.022 A 
ATOM      8  C7  BZF d   1       4.919   4.307   5.389  0.00  0.00     0.029 A 
ATOM      9  C7A BZF d   1       3.647   4.777   5.605  0.00  0.00     0.058 A 
ENDROOT
TORSDOF 0
ENDMDL
