MODEL 1
REMARK minimizedAffinity 21.1236134
REMARK minimizedRMSD -1
REMARK  0 active torsions:
REMARK  status: ('A' for Active; 'I' for Inactive)
ROOT
ATOM      1  O1  BZF d   1       3.696   2.993   1.478  0.00  0.00    -0.204 OA
ATOM      2  C2  BZF d   1       3.950   1.680   1.133  0.00  0.00     0.174 A 
ATOM      3  C3  BZF d   1       4.767   1.615   0.062  0.00  0.00    -0.012 A 
ATOM      4  C3A BZF d   1       5.115   2.972  -0.228  0.00  0.00    -0.107 A 
ATOM      5  C4  BZF d   1       5.912   3.556  -1.171  0.00  0.00     0.055 A 
ATOM      6  C5  BZF d   1       5.981   4.912  -1.229  0.00  0.00    -0.016 A 
ATOM      7  C6  BZF d   1       5.264   5.714  -0.365  0.00  0.00     0.022 A 
ATOM      8  C7  BZF d   1       4.464   5.180   0.590  0.00  0.00     0.029 A 
ATOM      9  C7A BZF d   1       4.417   3.810   0.673  0.00  0.00     0.058 A 
ENDROOT
TORSDOF 0
ENDMDL
