MODEL 1
REMARK minimizedAffinity -4.87167263
REMARK minimizedRMSD -1
REMARK  2 active torsions:
REMARK  status: ('A' for Active; 'I' for Inactive)
REMARK    1  A    between atoms: C1_2  and  C2_3 
REMARK    2  A    between atoms: C2_3  and  C3_4 
ROOT
ATOM      1  C3  UNL d   1       0.112  -0.052  -0.401  0.00  0.00    -0.075 A 
ATOM      2  C4  UNL d   1      -0.864   0.342   0.525  0.00  0.00     0.002 A 
ATOM      3  C5  UNL d   1      -0.793  -0.079   1.853  0.00  0.00     0.002 A 
ATOM      4  C6  UNL d   1       0.248  -0.907   2.269  0.00  0.00    -0.004 A 
ATOM      5  C7  UNL d   1       1.214  -1.319   1.354  0.00  0.00     0.002 A 
ATOM      6  C8  UNL d   1       1.147  -0.895   0.025  0.00  0.00     0.002 A 
ENDROOT
BRANCH   1   7
ATOM      7  C2  UNL d   1       0.057   0.425  -1.833  0.00  0.00     0.056 C 
BRANCH   7   8
ATOM      8  C1  UNL d   1      -0.807   1.673  -2.042  0.00  0.00     0.007 C 
ATOM      9  C   UNL d   1      -0.055   2.820  -2.704  0.00  0.00     0.009 C 
ENDBRANCH   7   8
ENDBRANCH   1   7
TORSDOF 2
ENDMDL
