MODEL 1
REMARK minimizedAffinity -0.776598632
REMARK minimizedRMSD -1
REMARK  2 active torsions:
REMARK  status: ('A' for Active; 'I' for Inactive)
REMARK    1  A    between atoms: C1_2  and  C2_3 
REMARK    2  A    between atoms: C2_3  and  C3_4 
ROOT
ATOM      1  C3  UNL d   1      -0.411   0.696  -0.678  0.00  0.00    -0.075 A 
ATOM      2  C4  UNL d   1      -1.091  -0.511  -0.896  0.00  0.00     0.002 A 
ATOM      3  C5  UNL d   1      -1.496  -1.300   0.181  0.00  0.00     0.002 A 
ATOM      4  C6  UNL d   1      -1.219  -0.898   1.486  0.00  0.00    -0.004 A 
ATOM      5  C7  UNL d   1      -0.530   0.291   1.713  0.00  0.00     0.002 A 
ATOM      6  C8  UNL d   1      -0.127   1.085   0.638  0.00  0.00     0.002 A 
ENDROOT
BRANCH   1   7
ATOM      7  C2  UNL d   1       0.004   1.569  -1.838  0.00  0.00     0.056 C 
BRANCH   7   8
ATOM      8  C1  UNL d   1      -1.169   2.202  -2.594  0.00  0.00     0.007 C 
ATOM      9  C   UNL d   1      -1.164   3.724  -2.547  0.00  0.00     0.009 C 
ENDBRANCH   7   8
ENDBRANCH   1   7
TORSDOF 2
ENDMDL
