MODEL 1
REMARK minimizedAffinity -1.70603812
REMARK minimizedRMSD -1
REMARK  2 active torsions:
REMARK  status: ('A' for Active; 'I' for Inactive)
REMARK    1  A    between atoms: C1_2  and  C2_3 
REMARK    2  A    between atoms: C2_3  and  C3_4 
ROOT
ATOM      1  C3  UNL d   1      -0.372   0.221  -1.280  0.00  0.00    -0.075 A 
ATOM      2  C4  UNL d   1      -0.694   0.226   0.085  0.00  0.00     0.002 A 
ATOM      3  C5  UNL d   1       0.204  -0.280   1.026  0.00  0.00     0.002 A 
ATOM      4  C6  UNL d   1       1.426  -0.806   0.615  0.00  0.00    -0.004 A 
ATOM      5  C7  UNL d   1       1.749  -0.831  -0.740  0.00  0.00     0.002 A 
ATOM      6  C8  UNL d   1       0.855  -0.322  -1.684  0.00  0.00     0.002 A 
ENDROOT
BRANCH   1   7
ATOM      7  C2  UNL d   1      -1.326   0.794  -2.300  0.00  0.00     0.056 C 
BRANCH   7   8
ATOM      8  C1  UNL d   1      -1.335   2.325  -2.355  0.00  0.00     0.007 C 
ATOM      9  C   UNL d   1      -0.089   2.909  -3.008  0.00  0.00     0.009 C 
ENDBRANCH   7   8
ENDBRANCH   1   7
TORSDOF 2
ENDMDL
