MODEL 1
REMARK minimizedAffinity -4.30649376
REMARK minimizedRMSD -1
REMARK  2 active torsions:
REMARK  status: ('A' for Active; 'I' for Inactive)
REMARK    1  A    between atoms: C1_2  and  C2_3 
REMARK    2  A    between atoms: C2_3  and  C3_4 
ROOT
ATOM      1  C3  UNL d   1      -0.172   0.113  -0.283  0.00  0.00    -0.075 A 
ATOM      2  C4  UNL d   1       1.136  -0.328  -0.038  0.00  0.00     0.002 A 
ATOM      3  C5  UNL d   1       1.508  -0.773   1.231  0.00  0.00     0.002 A 
ATOM      4  C6  UNL d   1       0.582  -0.773   2.272  0.00  0.00    -0.004 A 
ATOM      5  C7  UNL d   1      -0.716  -0.320   2.044  0.00  0.00     0.002 A 
ATOM      6  C8  UNL d   1      -1.092   0.121   0.774  0.00  0.00     0.002 A 
ENDROOT
BRANCH   1   7
ATOM      7  C2  UNL d   1      -0.589   0.568  -1.661  0.00  0.00     0.056 C 
BRANCH   7   8
ATOM      8  C1  UNL d   1      -1.087   2.017  -1.716  0.00  0.00     0.007 C 
ATOM      9  C   UNL d   1      -0.030   2.997  -2.204  0.00  0.00     0.009 C 
ENDBRANCH   7   8
ENDBRANCH   1   7
TORSDOF 2
ENDMDL
