MODEL 1
REMARK minimizedAffinity -5.51258516
REMARK minimizedRMSD -1
REMARK  2 active torsions:
REMARK  status: ('A' for Active; 'I' for Inactive)
REMARK    1  A    between atoms: C1_2  and  C2_3 
REMARK    2  A    between atoms: C2_3  and  C3_4 
ROOT
ATOM      1  C3  UNL d   1       0.522  -0.404  -0.229  0.00  0.00    -0.075 A 
ATOM      2  C4  UNL d   1       1.701  -1.149  -0.375  0.00  0.00     0.002 A 
ATOM      3  C5  UNL d   1       2.244  -1.837   0.710  0.00  0.00     0.002 A 
ATOM      4  C6  UNL d   1       1.623  -1.780   1.956  0.00  0.00    -0.004 A 
ATOM      5  C7  UNL d   1       0.461  -1.029   2.117  0.00  0.00     0.002 A 
ATOM      6  C8  UNL d   1      -0.087  -0.344   1.032  0.00  0.00     0.002 A 
ENDROOT
BRANCH   1   7
ATOM      7  C2  UNL d   1      -0.087   0.318  -1.407  0.00  0.00     0.056 C 
BRANCH   7   8
ATOM      8  C1  UNL d   1       0.259   1.810  -1.470  0.00  0.00     0.007 C 
ATOM      9  C   UNL d   1       0.275   2.362  -2.889  0.00  0.00     0.009 C 
ENDBRANCH   7   8
ENDBRANCH   1   7
TORSDOF 2
ENDMDL
