MODEL 1
REMARK minimizedAffinity -1.23112249
REMARK minimizedRMSD -1
REMARK  2 active torsions:
REMARK  status: ('A' for Active; 'I' for Inactive)
REMARK    1  A    between atoms: C1_2  and  C2_3 
REMARK    2  A    between atoms: C2_3  and  C3_4 
ROOT
ATOM      1  C3  UNL d   1      -2.442   1.807  -2.962  0.00  0.00    -0.075 A 
ATOM      2  C4  UNL d   1      -1.097   2.143  -3.179  0.00  0.00     0.002 A 
ATOM      3  C5  UNL d   1      -0.687   3.476  -3.155  0.00  0.00     0.002 A 
ATOM      4  C6  UNL d   1      -1.615   4.490  -2.925  0.00  0.00    -0.004 A 
ATOM      5  C7  UNL d   1      -2.956   4.169  -2.725  0.00  0.00     0.002 A 
ATOM      6  C8  UNL d   1      -3.368   2.835  -2.744  0.00  0.00     0.002 A 
ENDROOT
BRANCH   1   7
ATOM      7  C2  UNL d   1      -2.886   0.364  -2.957  0.00  0.00     0.056 C 
BRANCH   7   8
ATOM      8  C1  UNL d   1      -1.865  -0.601  -2.347  0.00  0.00     0.007 C 
ATOM      9  C   UNL d   1      -1.664  -0.396  -0.851  0.00  0.00     0.009 C 
ENDBRANCH   7   8
ENDBRANCH   1   7
TORSDOF 2
ENDMDL
