MODEL 1
REMARK minimizedAffinity -3.45561242
REMARK minimizedRMSD -1
REMARK  2 active torsions:
REMARK  status: ('A' for Active; 'I' for Inactive)
REMARK    1  A    between atoms: C1_2  and  C2_3 
REMARK    2  A    between atoms: C2_3  and  C3_4 
ROOT
ATOM      1  C3  UNL d   1       0.059   0.408  -0.835  0.00  0.00    -0.075 A 
ATOM      2  C4  UNL d   1       0.506  -0.462  -1.839  0.00  0.00     0.002 A 
ATOM      3  C5  UNL d   1       1.585  -1.317  -1.607  0.00  0.00     0.002 A 
ATOM      4  C6  UNL d   1       2.235  -1.305  -0.375  0.00  0.00    -0.004 A 
ATOM      5  C7  UNL d   1       1.809  -0.432   0.624  0.00  0.00     0.002 A 
ATOM      6  C8  UNL d   1       0.728   0.420   0.397  0.00  0.00     0.002 A 
ENDROOT
BRANCH   1   7
ATOM      7  C2  UNL d   1      -1.126   1.314  -1.069  0.00  0.00     0.056 C 
BRANCH   7   8
ATOM      8  C1  UNL d   1      -1.344   1.688  -2.539  0.00  0.00     0.007 C 
ATOM      9  C   UNL d   1      -0.419   2.798  -3.020  0.00  0.00     0.009 C 
ENDBRANCH   7   8
ENDBRANCH   1   7
TORSDOF 2
ENDMDL
