MODEL 1
REMARK minimizedAffinity -1.23357046
REMARK minimizedRMSD -1
REMARK  0 active torsions:
REMARK  status: ('A' for Active; 'I' for Inactive)
ROOT
ATOM      1  C   UNL d   1      -2.992   1.726   4.584  0.00  0.00     0.172 C 
ATOM      2  N   UNL d   1      -3.846   0.602   4.277  0.00  0.00    -0.070 N 
ATOM      3  C1  UNL d   1      -4.104   0.115   3.024  0.00  0.00    -0.004 A 
ATOM      4  C2  UNL d   1      -4.960  -0.957   3.156  0.00  0.00    -0.047 A 
ATOM      5  C3  UNL d   1      -5.226  -1.119   4.537  0.00  0.00    -0.047 A 
ATOM      6  C4  UNL d   1      -4.523  -0.141   5.208  0.00  0.00    -0.004 A 
ENDROOT
TORSDOF 0
ENDMDL
