MODEL 1
REMARK minimizedAffinity 2.88019443
REMARK minimizedRMSD -1
REMARK  0 active torsions:
REMARK  status: ('A' for Active; 'I' for Inactive)
ROOT
ATOM      1  C   UNL d   1      -4.078   0.803   4.888  0.00  0.00     0.172 C 
ATOM      2  N   UNL d   1      -4.405  -0.384   4.134  0.00  0.00    -0.070 N 
ATOM      3  C1  UNL d   1      -5.040  -1.493   4.626  0.00  0.00    -0.004 A 
ATOM      4  C2  UNL d   1      -5.165  -2.400   3.595  0.00  0.00    -0.047 A 
ATOM      5  C3  UNL d   1      -4.584  -1.816   2.445  0.00  0.00    -0.047 A 
ATOM      6  C4  UNL d   1      -4.122  -0.569   2.806  0.00  0.00    -0.004 A 
ENDROOT
TORSDOF 0
ENDMDL
