MODEL 1
REMARK minimizedAffinity 6.67102098
REMARK minimizedRMSD -1
REMARK  0 active torsions:
REMARK  status: ('A' for Active; 'I' for Inactive)
ROOT
ATOM      1  C   UNL d   1      -4.459  -0.066   2.017  0.00  0.00     0.172 C 
ATOM      2  N   UNL d   1      -4.978  -0.604   3.252  0.00  0.00    -0.070 N 
ATOM      3  C1  UNL d   1      -5.514  -1.854   3.416  0.00  0.00    -0.004 A 
ATOM      4  C2  UNL d   1      -5.890  -1.982   4.736  0.00  0.00    -0.047 A 
ATOM      5  C3  UNL d   1      -5.570  -0.767   5.387  0.00  0.00    -0.047 A 
ATOM      6  C4  UNL d   1      -5.006   0.068   4.446  0.00  0.00    -0.004 A 
ENDROOT
TORSDOF 0
ENDMDL
