MODEL 1
REMARK minimizedAffinity 6.98027945
REMARK minimizedRMSD -1
REMARK  0 active torsions:
REMARK  status: ('A' for Active; 'I' for Inactive)
ROOT
ATOM      1  C   UNL d   1      -5.998  -5.984   3.621  0.00  0.00     0.172 C 
ATOM      2  N   UNL d   1      -5.751  -4.873   2.732  0.00  0.00    -0.070 N 
ATOM      3  C1  UNL d   1      -5.241  -3.656   3.097  0.00  0.00    -0.004 A 
ATOM      4  C2  UNL d   1      -5.158  -2.876   1.964  0.00  0.00    -0.047 A 
ATOM      5  C3  UNL d   1      -5.636  -3.650   0.881  0.00  0.00    -0.047 A 
ATOM      6  C4  UNL d   1      -5.997  -4.882   1.384  0.00  0.00    -0.004 A 
ENDROOT
TORSDOF 0
ENDMDL
