MODEL 1
REMARK minimizedAffinity -1.88576627
REMARK minimizedRMSD -1
REMARK  0 active torsions:
REMARK  status: ('A' for Active; 'I' for Inactive)
ROOT
ATOM      1  C   UNL d   1       5.891  -2.290   0.454  0.00  0.00     0.172 C 
ATOM      2  N   UNL d   1       4.606  -2.716  -0.047  0.00  0.00    -0.070 N 
ATOM      3  C1  UNL d   1       3.496  -1.924  -0.175  0.00  0.00    -0.004 A 
ATOM      4  C2  UNL d   1       2.480  -2.701  -0.688  0.00  0.00    -0.047 A 
ATOM      5  C3  UNL d   1       2.996  -4.006  -0.873  0.00  0.00    -0.047 A 
ATOM      6  C4  UNL d   1       4.314  -3.987  -0.468  0.00  0.00    -0.004 A 
ENDROOT
TORSDOF 0
ENDMDL
