MODEL 1
REMARK minimizedAffinity -3.11302423
REMARK minimizedRMSD -1
REMARK  0 active torsions:
REMARK  status: ('A' for Active; 'I' for Inactive)
ROOT
ATOM      1  C   UNL d   1       5.978  -6.000   0.642  0.00  0.00     0.172 C 
ATOM      2  N   UNL d   1       5.053  -5.148  -0.068  0.00  0.00    -0.070 N 
ATOM      3  C1  UNL d   1       3.756  -4.900   0.294  0.00  0.00    -0.004 A 
ATOM      4  C2  UNL d   1       3.214  -4.041  -0.637  0.00  0.00    -0.047 A 
ATOM      5  C3  UNL d   1       4.220  -3.763  -1.592  0.00  0.00    -0.047 A 
ATOM      6  C4  UNL d   1       5.348  -4.461  -1.216  0.00  0.00    -0.004 A 
ENDROOT
TORSDOF 0
ENDMDL
