MODEL 1
REMARK minimizedAffinity -1.84386849
REMARK minimizedRMSD -1
REMARK  0 active torsions:
REMARK  status: ('A' for Active; 'I' for Inactive)
ROOT
ATOM      1  C   UNL d   1       3.375  -2.842  -1.128  0.00  0.00     0.172 C 
ATOM      2  N   UNL d   1       4.240  -3.961  -1.419  0.00  0.00    -0.070 N 
ATOM      3  C1  UNL d   1       5.517  -4.126  -0.952  0.00  0.00    -0.004 A 
ATOM      4  C2  UNL d   1       6.000  -5.315  -1.453  0.00  0.00    -0.047 A 
ATOM      5  C3  UNL d   1       4.978  -5.884  -2.250  0.00  0.00    -0.047 A 
ATOM      6  C4  UNL d   1       3.900  -5.025  -2.212  0.00  0.00    -0.004 A 
ENDROOT
TORSDOF 0
ENDMDL
