MODEL 1
REMARK minimizedAffinity -1.82169926
REMARK minimizedRMSD -1
REMARK  0 active torsions:
REMARK  status: ('A' for Active; 'I' for Inactive)
ROOT
ATOM      1  C   UNL d   1       5.983  -5.815   0.298  0.00  0.00     0.172 C 
ATOM      2  N   UNL d   1       5.366  -4.841  -0.572  0.00  0.00    -0.070 N 
ATOM      3  C1  UNL d   1       6.000  -4.141  -1.563  0.00  0.00    -0.004 A 
ATOM      4  C2  UNL d   1       5.069  -3.318  -2.160  0.00  0.00    -0.047 A 
ATOM      5  C3  UNL d   1       3.834  -3.530  -1.504  0.00  0.00    -0.047 A 
ATOM      6  C4  UNL d   1       4.046  -4.478  -0.525  0.00  0.00    -0.004 A 
ENDROOT
TORSDOF 0
ENDMDL
