MODEL 1
REMARK minimizedAffinity 5.40193844
REMARK minimizedRMSD -1
REMARK  0 active torsions:
REMARK  status: ('A' for Active; 'I' for Inactive)
ROOT
ATOM      1  C   UNL d   1       0.019  -3.673   0.996  0.00  0.00     0.172 C 
ATOM      2  N   UNL d   1      -0.774  -2.507   1.309  0.00  0.00    -0.070 N 
ATOM      3  C1  UNL d   1      -0.306  -1.354   1.881  0.00  0.00    -0.004 A 
ATOM      4  C2  UNL d   1      -1.369  -0.487   2.013  0.00  0.00    -0.047 A 
ATOM      5  C3  UNL d   1      -2.516  -1.142   1.503  0.00  0.00    -0.047 A 
ATOM      6  C4  UNL d   1      -2.118  -2.390   1.074  0.00  0.00    -0.004 A 
ENDROOT
TORSDOF 0
ENDMDL
