MODEL 1
REMARK minimizedAffinity -2.53155875
REMARK minimizedRMSD -1
REMARK  0 active torsions:
REMARK  status: ('A' for Active; 'I' for Inactive)
ROOT
ATOM      1  C   UNL d   1       2.254  -3.287  -0.012  0.00  0.00     0.172 C 
ATOM      2  N   UNL d   1       3.549  -3.698  -0.500  0.00  0.00    -0.070 N 
ATOM      3  C1  UNL d   1       4.522  -4.315   0.240  0.00  0.00    -0.004 A 
ATOM      4  C2  UNL d   1       5.602  -4.540  -0.586  0.00  0.00    -0.047 A 
ATOM      5  C3  UNL d   1       5.267  -4.041  -1.867  0.00  0.00    -0.047 A 
ATOM      6  C4  UNL d   1       3.990  -3.525  -1.785  0.00  0.00    -0.004 A 
ENDROOT
TORSDOF 0
ENDMDL
