MODEL 1
REMARK minimizedAffinity -1.86612296
REMARK minimizedRMSD -1
REMARK  0 active torsions:
REMARK  status: ('A' for Active; 'I' for Inactive)
ROOT
ATOM      1  C   UNL d   1       3.758  -4.116  -0.746  0.00  0.00     0.172 C 
ATOM      2  N   UNL d   1       2.565  -3.524  -0.187  0.00  0.00    -0.070 N 
ATOM      3  C1  UNL d   1       2.245  -2.193  -0.217  0.00  0.00    -0.004 A 
ATOM      4  C2  UNL d   1       1.032  -2.036   0.418  0.00  0.00    -0.047 A 
ATOM      5  C3  UNL d   1       0.609  -3.317   0.845  0.00  0.00    -0.047 A 
ATOM      6  C4  UNL d   1       1.577  -4.220   0.458  0.00  0.00    -0.004 A 
ENDROOT
TORSDOF 0
ENDMDL
