MODEL 1
REMARK minimizedAffinity -1.3146615
REMARK minimizedRMSD -1
REMARK  0 active torsions:
REMARK  status: ('A' for Active; 'I' for Inactive)
ROOT
ATOM      1  C   UNL d   1       3.188  -3.447  -0.865  0.00  0.00     0.172 C 
ATOM      2  N   UNL d   1       2.119  -3.139   0.055  0.00  0.00    -0.070 N 
ATOM      3  C1  UNL d   1       1.764  -1.885   0.475  0.00  0.00    -0.004 A 
ATOM      4  C2  UNL d   1       0.702  -2.015   1.344  0.00  0.00    -0.047 A 
ATOM      5  C3  UNL d   1       0.410  -3.396   1.451  0.00  0.00    -0.047 A 
ATOM      6  C4  UNL d   1       1.302  -4.068   0.643  0.00  0.00    -0.004 A 
ENDROOT
TORSDOF 0
ENDMDL
