MODEL 1
REMARK minimizedAffinity -0.972609937
REMARK minimizedRMSD -1
REMARK  0 active torsions:
REMARK  status: ('A' for Active; 'I' for Inactive)
ROOT
ATOM      1  C   UNL d   1       0.671  -5.633  -6.000  0.00  0.00     0.172 C 
ATOM      2  N   UNL d   1      -0.571  -5.270  -5.360  0.00  0.00    -0.070 N 
ATOM      3  C1  UNL d   1      -1.216  -6.000  -4.397  0.00  0.00    -0.004 A 
ATOM      4  C2  UNL d   1      -2.361  -5.317  -4.046  0.00  0.00    -0.047 A 
ATOM      5  C3  UNL d   1      -2.405  -4.136  -4.825  0.00  0.00    -0.047 A 
ATOM      6  C4  UNL d   1      -1.285  -4.133  -5.629  0.00  0.00    -0.004 A 
ENDROOT
TORSDOF 0
ENDMDL
