MODEL 1
REMARK minimizedAffinity 1.10349751
REMARK minimizedRMSD -1
REMARK  0 active torsions:
REMARK  status: ('A' for Active; 'I' for Inactive)
ROOT
ATOM      1  C   UNL d   1       5.976  -4.241  -2.223  0.00  0.00     0.172 C 
ATOM      2  N   UNL d   1       5.982  -4.668  -0.843  0.00  0.00    -0.070 N 
ATOM      3  C1  UNL d   1       5.999  -3.841   0.248  0.00  0.00    -0.004 A 
ATOM      4  C2  UNL d   1       5.999  -4.632   1.377  0.00  0.00    -0.047 A 
ATOM      5  C3  UNL d   1       5.982  -5.981   0.949  0.00  0.00    -0.047 A 
ATOM      6  C4  UNL d   1       5.971  -5.974  -0.430  0.00  0.00    -0.004 A 
ENDROOT
TORSDOF 0
ENDMDL
