MODEL 1
REMARK minimizedAffinity 4.44515657
REMARK minimizedRMSD -1
REMARK  0 active torsions:
REMARK  status: ('A' for Active; 'I' for Inactive)
ROOT
ATOM      1  C   UNL d   1      -0.054   4.796  -4.292  0.00  0.00     0.172 C 
ATOM      2  N   UNL d   1       0.619   4.166  -3.180  0.00  0.00    -0.070 N 
ATOM      3  C1  UNL d   1       1.412   3.052  -3.255  0.00  0.00    -0.004 A 
ATOM      4  C2  UNL d   1       1.864   2.770  -1.984  0.00  0.00    -0.047 A 
ATOM      5  C3  UNL d   1       1.323   3.748  -1.115  0.00  0.00    -0.047 A 
ATOM      6  C4  UNL d   1       0.557   4.600  -1.882  0.00  0.00    -0.004 A 
ENDROOT
TORSDOF 0
ENDMDL
