MODEL 1
REMARK minimizedAffinity 5.62193203
REMARK minimizedRMSD -1
REMARK  0 active torsions:
REMARK  status: ('A' for Active; 'I' for Inactive)
ROOT
ATOM      1  C   UNL d   1      -5.751  -4.309   2.378  0.00  0.00     0.172 C 
ATOM      2  N   UNL d   1      -5.665  -4.701   3.765  0.00  0.00    -0.070 N 
ATOM      3  C1  UNL d   1      -5.597  -3.848   4.834  0.00  0.00    -0.004 A 
ATOM      4  C2  UNL d   1      -5.527  -4.611   5.980  0.00  0.00    -0.047 A 
ATOM      5  C3  UNL d   1      -5.553  -5.970   5.586  0.00  0.00    -0.047 A 
ATOM      6  C4  UNL d   1      -5.639  -5.997   4.210  0.00  0.00    -0.004 A 
ENDROOT
TORSDOF 0
ENDMDL
