MODEL 1
REMARK minimizedAffinity -1.55120492
REMARK minimizedRMSD -1
REMARK  0 active torsions:
REMARK  status: ('A' for Active; 'I' for Inactive)
ROOT
ATOM      1  C   UNL d   1       4.070  -5.208  -0.207  0.00  0.00     0.172 C 
ATOM      2  N   UNL d   1       3.160  -4.117   0.048  0.00  0.00    -0.070 N 
ATOM      3  C1  UNL d   1       1.799  -4.223   0.167  0.00  0.00    -0.004 A 
ATOM      4  C2  UNL d   1       1.297  -2.962   0.408  0.00  0.00    -0.047 A 
ATOM      5  C3  UNL d   1       2.393  -2.068   0.434  0.00  0.00    -0.047 A 
ATOM      6  C4  UNL d   1       3.534  -2.809   0.209  0.00  0.00    -0.004 A 
ENDROOT
TORSDOF 0
ENDMDL
