MODEL 1
REMARK minimizedAffinity 1.70668375
REMARK minimizedRMSD -1
REMARK  0 active torsions:
REMARK  status: ('A' for Active; 'I' for Inactive)
ROOT
ATOM      1  C   UNL d   1       2.402   5.937   1.125  0.00  0.00     0.172 C 
ATOM      2  N   UNL d   1       3.846   5.952   1.104  0.00  0.00    -0.070 N 
ATOM      3  C1  UNL d   1       4.627   5.977  -0.020  0.00  0.00    -0.004 A 
ATOM      4  C2  UNL d   1       5.945   5.985   0.382  0.00  0.00    -0.047 A 
ATOM      5  C3  UNL d   1       5.956   5.964   1.797  0.00  0.00    -0.047 A 
ATOM      6  C4  UNL d   1       4.643   5.944   2.218  0.00  0.00    -0.004 A 
ENDROOT
TORSDOF 0
ENDMDL
