MODEL 1
REMARK minimizedAffinity 1.01428425
REMARK minimizedRMSD -1
REMARK  0 active torsions:
REMARK  status: ('A' for Active; 'I' for Inactive)
ROOT
ATOM      1  C   UNL d   1       5.704   5.993   0.378  0.00  0.00     0.172 C 
ATOM      2  N   UNL d   1       4.392   5.444   0.629  0.00  0.00    -0.070 N 
ATOM      3  C1  UNL d   1       3.886   4.300   0.073  0.00  0.00    -0.004 A 
ATOM      4  C2  UNL d   1       2.611   4.120   0.564  0.00  0.00    -0.047 A 
ATOM      5  C3  UNL d   1       2.341   5.195   1.444  0.00  0.00    -0.047 A 
ATOM      6  C4  UNL d   1       3.460   6.000   1.466  0.00  0.00    -0.004 A 
ENDROOT
TORSDOF 0
ENDMDL
