MODEL 1
REMARK minimizedAffinity 0.231467918
REMARK minimizedRMSD -1
REMARK  2 active torsions:
REMARK  status: ('A' for Active; 'I' for Inactive)
REMARK    1  A    between atoms: C2'_3  and  C1'_4 
REMARK    2  A    between atoms: C1'_4  and  C1_5 
ROOT
ATOM      1  C1  I4B d   1      -4.885   4.203  -3.740  0.00  0.00    -0.075 A 
ATOM      2  C2  I4B d   1      -3.767   4.266  -4.534  0.00  0.00     0.003 A 
ATOM      3  C3  I4B d   1      -3.745   5.112  -5.669  0.00  0.00     0.002 A 
ATOM      4  C4  I4B d   1      -4.873   5.835  -6.000  0.00  0.00    -0.004 A 
ATOM      5  C5  I4B d   1      -5.998   5.788  -5.181  0.00  0.00     0.002 A 
ATOM      6  C6  I4B d   1      -6.000   4.976  -4.037  0.00  0.00     0.003 A 
ENDROOT
BRANCH   1   7
ATOM      7  C1' I4B d   1      -4.885   3.274  -2.568  0.00  0.00     0.060 C 
BRANCH   7   8
ATOM      8  C2' I4B d   1      -5.792   2.106  -2.899  0.00  0.00    -0.013 C 
ATOM      9  C4' I4B d   1      -5.250   1.306  -4.054  0.00  0.00     0.013 C 
ATOM     10  C3' I4B d   1      -5.923   1.259  -1.668  0.00  0.00     0.013 C 
ENDBRANCH   7   8
ENDBRANCH   1   7
TORSDOF 2
ENDMDL
