MODEL 1
REMARK minimizedAffinity 11.7657499
REMARK minimizedRMSD -1
REMARK  2 active torsions:
REMARK  status: ('A' for Active; 'I' for Inactive)
REMARK    1  A    between atoms: C2'_3  and  C1'_4 
REMARK    2  A    between atoms: C1'_4  and  C1_5 
ROOT
ATOM      1  C1  I4B d   1      -0.119   2.718  -0.523  0.00  0.00    -0.075 A 
ATOM      2  C2  I4B d   1      -0.593   2.669  -1.810  0.00  0.00     0.003 A 
ATOM      3  C3  I4B d   1      -0.442   3.784  -2.669  0.00  0.00     0.002 A 
ATOM      4  C4  I4B d   1       0.141   4.938  -2.187  0.00  0.00    -0.004 A 
ATOM      5  C5  I4B d   1       0.642   4.979  -0.889  0.00  0.00     0.002 A 
ATOM      6  C6  I4B d   1       0.523   3.858  -0.055  0.00  0.00     0.003 A 
ENDROOT
BRANCH   1   7
ATOM      7  C1' I4B d   1      -0.325   1.534   0.367  0.00  0.00     0.060 C 
BRANCH   7   8
ATOM      8  C2' I4B d   1       0.643   1.647   1.527  0.00  0.00    -0.013 C 
ATOM      9  C4' I4B d   1      -0.057   1.443   2.844  0.00  0.00     0.013 C 
ATOM     10  C3' I4B d   1       1.727   0.631   1.326  0.00  0.00     0.013 C 
ENDBRANCH   7   8
ENDBRANCH   1   7
TORSDOF 2
ENDMDL
