MODEL 1
REMARK minimizedAffinity 7.81900597
REMARK minimizedRMSD -1
REMARK  2 active torsions:
REMARK  status: ('A' for Active; 'I' for Inactive)
REMARK    1  A    between atoms: C2'_3  and  C1'_4 
REMARK    2  A    between atoms: C1'_4  and  C1_5 
ROOT
ATOM      1  C1  I4B d   1      -1.079  -2.880  -5.293  0.00  0.00    -0.075 A 
ATOM      2  C2  I4B d   1      -0.975  -1.572  -5.696  0.00  0.00     0.003 A 
ATOM      3  C3  I4B d   1      -0.092  -0.689  -5.028  0.00  0.00     0.002 A 
ATOM      4  C4  I4B d   1       0.624  -1.139  -3.938  0.00  0.00    -0.004 A 
ATOM      5  C5  I4B d   1       0.534  -2.472  -3.545  0.00  0.00     0.002 A 
ATOM      6  C6  I4B d   1      -0.314  -3.351  -4.234  0.00  0.00     0.003 A 
ENDROOT
BRANCH   1   7
ATOM      7  C1' I4B d   1      -2.046  -3.777  -5.999  0.00  0.00     0.060 C 
BRANCH   7   8
ATOM      8  C2' I4B d   1      -1.907  -5.167  -5.413  0.00  0.00    -0.013 C 
ATOM      9  C4' I4B d   1      -3.131  -6.000  -5.689  0.00  0.00     0.013 C 
ATOM     10  C3' I4B d   1      -0.680  -5.797  -6.000  0.00  0.00     0.013 C 
ENDBRANCH   7   8
ENDBRANCH   1   7
TORSDOF 2
ENDMDL
