MODEL 1
REMARK minimizedAffinity -0.933404565
REMARK minimizedRMSD -1
REMARK  2 active torsions:
REMARK  status: ('A' for Active; 'I' for Inactive)
REMARK    1  A    between atoms: C2'_3  and  C1'_4 
REMARK    2  A    between atoms: C1'_4  and  C1_5 
ROOT
ATOM      1  C1  I4B d   1      -0.370   2.399   1.473  0.00  0.00    -0.075 A 
ATOM      2  C2  I4B d   1      -1.522   1.850   1.979  0.00  0.00     0.003 A 
ATOM      3  C3  I4B d   1      -1.456   0.859   2.988  0.00  0.00     0.002 A 
ATOM      4  C4  I4B d   1      -0.225   0.412   3.423  0.00  0.00    -0.004 A 
ATOM      5  C5  I4B d   1       0.941   0.986   2.925  0.00  0.00     0.002 A 
ATOM      6  C6  I4B d   1       0.869   1.994   1.953  0.00  0.00     0.003 A 
ENDROOT
BRANCH   1   7
ATOM      7  C1' I4B d   1      -0.476   3.420   0.385  0.00  0.00     0.060 C 
BRANCH   7   8
ATOM      8  C2' I4B d   1       0.702   3.231  -0.548  0.00  0.00    -0.013 C 
ATOM      9  C4' I4B d   1       0.447   2.119  -1.531  0.00  0.00     0.013 C 
ATOM     10  C3' I4B d   1       0.947   4.532  -1.254  0.00  0.00     0.013 C 
ENDBRANCH   7   8
ENDBRANCH   1   7
TORSDOF 2
ENDMDL
