MODEL 1
REMARK minimizedAffinity 3.60613227
REMARK minimizedRMSD -1
REMARK  2 active torsions:
REMARK  status: ('A' for Active; 'I' for Inactive)
REMARK    1  A    between atoms: C2'_3  and  C1'_4 
REMARK    2  A    between atoms: C1'_4  and  C1_5 
ROOT
ATOM      1  C1  I4B d   1       0.818  -5.935  -0.913  0.00  0.00    -0.075 A 
ATOM      2  C2  I4B d   1      -0.527  -5.933  -0.640  0.00  0.00     0.003 A 
ATOM      3  C3  I4B d   1      -1.469  -5.978  -1.697  0.00  0.00     0.002 A 
ATOM      4  C4  I4B d   1      -1.025  -5.974  -3.004  0.00  0.00    -0.004 A 
ATOM      5  C5  I4B d   1       0.339  -5.999  -3.278  0.00  0.00     0.002 A 
ATOM      6  C6  I4B d   1       1.267  -5.992  -2.226  0.00  0.00     0.003 A 
ENDROOT
BRANCH   1   7
ATOM      7  C1' I4B d   1       1.784  -5.853   0.226  0.00  0.00     0.060 C 
BRANCH   7   8
ATOM      8  C2' I4B d   1       1.026  -5.379   1.448  0.00  0.00    -0.013 C 
ATOM      9  C4' I4B d   1       1.901  -5.397   2.674  0.00  0.00     0.013 C 
ATOM     10  C3' I4B d   1       0.514  -3.997   1.169  0.00  0.00     0.013 C 
ENDBRANCH   7   8
ENDBRANCH   1   7
TORSDOF 2
ENDMDL
