MODEL 1
REMARK minimizedAffinity -6.17224741
REMARK minimizedRMSD -1
REMARK  2 active torsions:
REMARK  status: ('A' for Active; 'I' for Inactive)
REMARK    1  A    between atoms: C2'_3  and  C1'_4 
REMARK    2  A    between atoms: C1'_4  and  C1_5 
ROOT
ATOM      1  C1  I4B d   1       0.732   0.763   0.354  0.00  0.00    -0.075 A 
ATOM      2  C2  I4B d   1       0.384   1.497  -0.753  0.00  0.00     0.003 A 
ATOM      3  C3  I4B d   1       0.758   1.058  -2.046  0.00  0.00     0.002 A 
ATOM      4  C4  I4B d   1       1.517  -0.086  -2.182  0.00  0.00    -0.004 A 
ATOM      5  C5  I4B d   1       1.849  -0.841  -1.061  0.00  0.00     0.002 A 
ATOM      6  C6  I4B d   1       1.444  -0.421   0.214  0.00  0.00     0.003 A 
ENDROOT
BRANCH   1   7
ATOM      7  C1' I4B d   1       0.350   1.274   1.707  0.00  0.00     0.060 C 
BRANCH   7   8
ATOM      8  C2' I4B d   1       0.307   2.787   1.640  0.00  0.00    -0.013 C 
ATOM      9  C4' I4B d   1      -0.918   3.329   2.329  0.00  0.00     0.013 C 
ATOM     10  C3' I4B d   1       1.561   3.314   2.272  0.00  0.00     0.013 C 
ENDBRANCH   7   8
ENDBRANCH   1   7
TORSDOF 2
ENDMDL
