MODEL 1
REMARK minimizedAffinity 27.9761295
REMARK minimizedRMSD -1
REMARK  0 active torsions:
REMARK  status: ('A' for Active; 'I' for Inactive)
ROOT
ATOM      1  C   UNL d   1       3.980   5.263   3.358  0.00  0.00    -0.002 A 
ATOM      2  C1  UNL d   1       3.626   5.039   2.035  0.00  0.00     0.010 A 
ATOM      3  C2  UNL d   1       3.904   3.815   1.423  0.00  0.00     0.041 A 
ATOM      4  C3  UNL d   1       4.549   2.811   2.171  0.00  0.00    -0.075 A 
ATOM      5  S   UNL d   1       4.990   1.234   1.630  0.00  0.00     0.015 SA
ATOM      6  C4  UNL d   1       5.658   0.820   3.143  0.00  0.00     0.022 A 
ATOM      7  C5  UNL d   1       5.556   1.849   4.050  0.00  0.00     0.026 A 
ATOM      8  C6  UNL d   1       4.915   3.012   3.505  0.00  0.00    -0.082 A 
ATOM      9  C7  UNL d   1       4.620   4.264   4.097  0.00  0.00     0.045 A 
ENDROOT
TORSDOF 0
ENDMDL
