MODEL 1
REMARK minimizedAffinity 10.9428358
REMARK minimizedRMSD -1
REMARK  0 active torsions:
REMARK  status: ('A' for Active; 'I' for Inactive)
ROOT
ATOM      1  C   UNL d   1       4.271   4.796   0.194  0.00  0.00    -0.002 A 
ATOM      2  C1  UNL d   1       4.508   5.990   0.860  0.00  0.00     0.010 A 
ATOM      3  C2  UNL d   1       4.892   5.990   2.203  0.00  0.00     0.041 A 
ATOM      4  C3  UNL d   1       5.037   4.758   2.870  0.00  0.00    -0.075 A 
ATOM      5  S   UNL d   1       5.499   4.515   4.513  0.00  0.00     0.015 SA
ATOM      6  C4  UNL d   1       5.394   2.820   4.370  0.00  0.00     0.022 A 
ATOM      7  C5  UNL d   1       5.016   2.432   3.106  0.00  0.00     0.026 A 
ATOM      8  C6  UNL d   1       4.805   3.543   2.221  0.00  0.00    -0.082 A 
ATOM      9  C7  UNL d   1       4.416   3.576   0.860  0.00  0.00     0.045 A 
ENDROOT
TORSDOF 0
ENDMDL
