MODEL 1
REMARK minimizedAffinity 24.2980652
REMARK minimizedRMSD -1
REMARK  0 active torsions:
REMARK  status: ('A' for Active; 'I' for Inactive)
ROOT
ATOM      1  C   UNL d   1      -1.581  -1.547  -1.882  0.00  0.00    -0.002 A 
ATOM      2  C1  UNL d   1      -0.863  -2.726  -1.739  0.00  0.00     0.010 A 
ATOM      3  C2  UNL d   1       0.261  -2.973  -2.529  0.00  0.00     0.041 A 
ATOM      4  C3  UNL d   1       0.658  -2.005  -3.473  0.00  0.00    -0.075 A 
ATOM      5  S   UNL d   1       2.002  -2.092  -4.549  0.00  0.00     0.015 SA
ATOM      6  C4  UNL d   1       1.656  -0.565  -5.223  0.00  0.00     0.022 A 
ATOM      7  C5  UNL d   1       0.545   0.011  -4.653  0.00  0.00     0.026 A 
ATOM      8  C6  UNL d   1      -0.048  -0.810  -3.635  0.00  0.00    -0.082 A 
ATOM      9  C7  UNL d   1      -1.185  -0.589  -2.820  0.00  0.00     0.045 A 
ENDROOT
TORSDOF 0
ENDMDL
