MODEL 1
REMARK minimizedAffinity 13.5390711
REMARK minimizedRMSD -1
REMARK  0 active torsions:
REMARK  status: ('A' for Active; 'I' for Inactive)
ROOT
ATOM      1  C   UNL d   1       0.396   0.393   3.518  0.00  0.00    -0.002 A 
ATOM      2  C1  UNL d   1       0.799   0.479   2.193  0.00  0.00     0.010 A 
ATOM      3  C2  UNL d   1       2.139   0.705   1.872  0.00  0.00     0.041 A 
ATOM      4  C3  UNL d   1       3.076   0.843   2.914  0.00  0.00    -0.075 A 
ATOM      5  S   UNL d   1       4.770   1.123   2.759  0.00  0.00     0.015 SA
ATOM      6  C4  UNL d   1       4.998   1.135   4.448  0.00  0.00     0.022 A 
ATOM      7  C5  UNL d   1       3.822   0.931   5.129  0.00  0.00     0.026 A 
ATOM      8  C6  UNL d   1       2.694   0.759   4.256  0.00  0.00    -0.082 A 
ATOM      9  C7  UNL d   1       1.328   0.530   4.550  0.00  0.00     0.045 A 
ENDROOT
TORSDOF 0
ENDMDL
