MODEL 1
REMARK minimizedAffinity 8.50736904
REMARK minimizedRMSD -1
REMARK  0 active torsions:
REMARK  status: ('A' for Active; 'I' for Inactive)
ROOT
ATOM      1  C   UNL d   1       1.204  -1.458   2.986  0.00  0.00    -0.002 A 
ATOM      2  C1  UNL d   1       0.503  -0.681   2.075  0.00  0.00     0.010 A 
ATOM      3  C2  UNL d   1      -0.040   0.547   2.457  0.00  0.00     0.041 A 
ATOM      4  C3  UNL d   1       0.138   0.987   3.783  0.00  0.00    -0.075 A 
ATOM      5  S   UNL d   1      -0.437   2.458   4.476  0.00  0.00     0.015 SA
ATOM      6  C4  UNL d   1       0.236   2.091   5.998  0.00  0.00     0.022 A 
ATOM      7  C5  UNL d   1       0.887   0.880   5.996  0.00  0.00     0.026 A 
ATOM      8  C6  UNL d   1       0.841   0.224   4.719  0.00  0.00    -0.082 A 
ATOM      9  C7  UNL d   1       1.379  -1.017   4.301  0.00  0.00     0.045 A 
ENDROOT
TORSDOF 0
ENDMDL
