MODEL 1
REMARK minimizedAffinity 14.4638014
REMARK minimizedRMSD -1
REMARK  0 active torsions:
REMARK  status: ('A' for Active; 'I' for Inactive)
ROOT
ATOM      1  C   UNL d   1       4.926   4.373  -5.672  0.00  0.00    -0.002 A 
ATOM      2  C1  UNL d   1       5.997   3.854  -4.958  0.00  0.00     0.010 A 
ATOM      3  C2  UNL d   1       5.983   2.528  -4.520  0.00  0.00     0.041 A 
ATOM      4  C3  UNL d   1       4.865   1.725  -4.817  0.00  0.00    -0.075 A 
ATOM      5  S   UNL d   1       4.628   0.073  -4.384  0.00  0.00     0.015 SA
ATOM      6  C4  UNL d   1       3.100   0.017  -5.137  0.00  0.00     0.022 A 
ATOM      7  C5  UNL d   1       2.763   1.220  -5.710  0.00  0.00     0.026 A 
ATOM      8  C6  UNL d   1       3.775   2.224  -5.535  0.00  0.00    -0.082 A 
ATOM      9  C7  UNL d   1       3.819   3.573  -5.964  0.00  0.00     0.045 A 
ENDROOT
TORSDOF 0
ENDMDL
