MODEL 1
REMARK minimizedAffinity 18.4089718
REMARK minimizedRMSD -1
REMARK  0 active torsions:
REMARK  status: ('A' for Active; 'I' for Inactive)
ROOT
ATOM      1  C   UNL d   1      -2.747   0.026   1.705  0.00  0.00    -0.002 A 
ATOM      2  C1  UNL d   1      -2.852  -1.137   0.955  0.00  0.00     0.010 A 
ATOM      3  C2  UNL d   1      -3.629  -1.167  -0.204  0.00  0.00     0.041 A 
ATOM      4  C3  UNL d   1      -4.304   0.004  -0.602  0.00  0.00    -0.075 A 
ATOM      5  S   UNL d   1      -5.312   0.203  -1.987  0.00  0.00     0.015 SA
ATOM      6  C4  UNL d   1      -5.626   1.836  -1.616  0.00  0.00     0.022 A 
ATOM      7  C5  UNL d   1      -4.986   2.237  -0.467  0.00  0.00     0.026 A 
ATOM      8  C6  UNL d   1      -4.213   1.187   0.136  0.00  0.00    -0.082 A 
ATOM      9  C7  UNL d   1      -3.418   1.185   1.307  0.00  0.00     0.045 A 
ENDROOT
TORSDOF 0
ENDMDL
