MODEL 1
REMARK minimizedAffinity 4.532444
REMARK minimizedRMSD -1
REMARK  0 active torsions:
REMARK  status: ('A' for Active; 'I' for Inactive)
ROOT
ATOM      1  C   UNL d   1      -4.549   2.782   5.053  0.00  0.00     0.077 C 
ATOM      2  C1  UNL d   1      -3.687   2.018   4.092  0.00  0.00    -0.074 A 
ATOM      3  C2  UNL d   1      -3.931   0.668   3.824  0.00  0.00    -0.005 A 
ATOM      4  C3  UNL d   1      -3.127  -0.027   2.921  0.00  0.00     0.006 A 
ATOM      5  C4  UNL d   1      -2.072   0.621   2.277  0.00  0.00    -0.005 A 
ATOM      6  C5  UNL d   1      -1.813   1.972   2.532  0.00  0.00    -0.074 A 
ATOM      7  C6  UNL d   1      -0.689   2.686   1.841  0.00  0.00     0.077 C 
ATOM      8  C7  UNL d   1      -2.630   2.665   3.436  0.00  0.00    -0.001 A 
ENDROOT
TORSDOF 0
ENDMDL
