MODEL 1
REMARK minimizedAffinity -6.1681118
REMARK minimizedRMSD -1
REMARK  0 active torsions:
REMARK  status: ('A' for Active; 'I' for Inactive)
ROOT
ATOM      1  C   UNL d   1      -0.749  -1.966   0.457  0.00  0.00     0.077 C 
ATOM      2  C1  UNL d   1      -0.921  -0.626   1.109  0.00  0.00    -0.074 A 
ATOM      3  C2  UNL d   1       0.022   0.390   0.924  0.00  0.00    -0.005 A 
ATOM      4  C3  UNL d   1      -0.157   1.634   1.528  0.00  0.00     0.006 A 
ATOM      5  C4  UNL d   1      -1.278   1.875   2.323  0.00  0.00    -0.005 A 
ATOM      6  C5  UNL d   1      -2.232   0.871   2.519  0.00  0.00    -0.074 A 
ATOM      7  C6  UNL d   1      -3.448   1.116   3.362  0.00  0.00     0.077 C 
ATOM      8  C7  UNL d   1      -2.049  -0.374   1.902  0.00  0.00    -0.001 A 
ENDROOT
TORSDOF 0
ENDMDL
