MODEL 1
REMARK minimizedAffinity -2.02245212
REMARK minimizedRMSD -1
REMARK  0 active torsions:
REMARK  status: ('A' for Active; 'I' for Inactive)
ROOT
ATOM      1  C   UNL d   1       0.308   1.906   1.404  0.00  0.00     0.077 C 
ATOM      2  C1  UNL d   1      -0.795   1.058   1.965  0.00  0.00    -0.074 A 
ATOM      3  C2  UNL d   1      -0.693  -0.337   1.977  0.00  0.00    -0.005 A 
ATOM      4  C3  UNL d   1      -1.722  -1.113   2.511  0.00  0.00     0.006 A 
ATOM      5  C4  UNL d   1      -2.861  -0.502   3.038  0.00  0.00    -0.005 A 
ATOM      6  C5  UNL d   1      -2.980   0.891   3.035  0.00  0.00    -0.074 A 
ATOM      7  C6  UNL d   1      -4.193   1.564   3.606  0.00  0.00     0.077 C 
ATOM      8  C7  UNL d   1      -1.939   1.664   2.503  0.00  0.00    -0.001 A 
ENDROOT
TORSDOF 0
ENDMDL
