MODEL 1
REMARK minimizedAffinity -3.74086976
REMARK minimizedRMSD -1
REMARK  0 active torsions:
REMARK  status: ('A' for Active; 'I' for Inactive)
ROOT
ATOM      1  C   UNL d   1      -3.003   2.005   3.401  0.00  0.00     0.077 C 
ATOM      2  C1  UNL d   1      -1.885   1.564   2.503  0.00  0.00    -0.074 A 
ATOM      3  C2  UNL d   1      -1.181   2.488   1.724  0.00  0.00    -0.005 A 
ATOM      4  C3  UNL d   1      -0.138   2.064   0.901  0.00  0.00     0.006 A 
ATOM      5  C4  UNL d   1       0.211   0.714   0.848  0.00  0.00    -0.005 A 
ATOM      6  C5  UNL d   1      -0.481  -0.224   1.620  0.00  0.00    -0.074 A 
ATOM      7  C6  UNL d   1      -0.113  -1.678   1.583  0.00  0.00     0.077 C 
ATOM      8  C7  UNL d   1      -1.524   0.210   2.450  0.00  0.00    -0.001 A 
ENDROOT
TORSDOF 0
ENDMDL
