MODEL 1
REMARK minimizedAffinity -0.601110399
REMARK minimizedRMSD -1
REMARK  0 active torsions:
REMARK  status: ('A' for Active; 'I' for Inactive)
ROOT
ATOM      1  C   UNL d   1       1.383   1.838   0.564  0.00  0.00     0.077 C 
ATOM      2  C1  UNL d   1       0.161   1.198   1.152  0.00  0.00    -0.074 A 
ATOM      3  C2  UNL d   1      -0.012  -0.190   1.117  0.00  0.00    -0.005 A 
ATOM      4  C3  UNL d   1      -1.149  -0.771   1.677  0.00  0.00     0.006 A 
ATOM      5  C4  UNL d   1      -2.124   0.027   2.277  0.00  0.00    -0.005 A 
ATOM      6  C5  UNL d   1      -1.968   1.416   2.322  0.00  0.00    -0.074 A 
ATOM      7  C6  UNL d   1      -3.001   2.288   2.972  0.00  0.00     0.077 C 
ATOM      8  C7  UNL d   1      -0.819   1.993   1.764  0.00  0.00    -0.001 A 
ENDROOT
TORSDOF 0
ENDMDL
