MODEL 1
REMARK minimizedAffinity -1.1441052
REMARK minimizedRMSD -1
REMARK  0 active torsions:
REMARK  status: ('A' for Active; 'I' for Inactive)
ROOT
ATOM      1  C   UNL d   1       1.291   1.145   0.249  0.00  0.00     0.077 C 
ATOM      2  C1  UNL d   1       0.153   0.699   1.119  0.00  0.00    -0.074 A 
ATOM      3  C2  UNL d   1      -0.104  -0.660   1.324  0.00  0.00    -0.005 A 
ATOM      4  C3  UNL d   1      -1.160  -1.061   2.143  0.00  0.00     0.006 A 
ATOM      5  C4  UNL d   1      -1.967  -0.107   2.764  0.00  0.00    -0.005 A 
ATOM      6  C5  UNL d   1      -1.725   1.256   2.571  0.00  0.00    -0.074 A 
ATOM      7  C6  UNL d   1      -2.577   2.294   3.239  0.00  0.00     0.077 C 
ATOM      8  C7  UNL d   1      -0.658   1.651   1.753  0.00  0.00    -0.001 A 
ENDROOT
TORSDOF 0
ENDMDL
