MODEL 1
REMARK minimizedAffinity -2.41783762
REMARK minimizedRMSD -1
REMARK  0 active torsions:
REMARK  status: ('A' for Active; 'I' for Inactive)
ROOT
ATOM      1  C   UNL d   1      -4.561   2.385   4.658  0.00  0.00     0.077 C 
ATOM      2  C1  UNL d   1      -3.608   1.720   3.710  0.00  0.00    -0.074 A 
ATOM      3  C2  UNL d   1      -3.839   0.419   3.253  0.00  0.00    -0.005 A 
ATOM      4  C3  UNL d   1      -2.948  -0.183   2.364  0.00  0.00     0.006 A 
ATOM      5  C4  UNL d   1      -1.820   0.510   1.924  0.00  0.00    -0.005 A 
ATOM      6  C5  UNL d   1      -1.573   1.812   2.369  0.00  0.00    -0.074 A 
ATOM      7  C6  UNL d   1      -0.371   2.574   1.897  0.00  0.00     0.077 C 
ATOM      8  C7  UNL d   1      -2.477   2.413   3.256  0.00  0.00    -0.001 A 
ENDROOT
TORSDOF 0
ENDMDL
