MODEL 1
REMARK minimizedAffinity -4.52951002
REMARK minimizedRMSD -1
REMARK  0 active torsions:
REMARK  status: ('A' for Active; 'I' for Inactive)
ROOT
ATOM      1  C   UNL d   1       0.665   2.571   0.415  0.00  0.00     0.077 C 
ATOM      2  C1  UNL d   1      -0.415   2.136   1.361  0.00  0.00    -0.074 A 
ATOM      3  C2  UNL d   1      -1.218   3.075   2.016  0.00  0.00    -0.005 A 
ATOM      4  C3  UNL d   1      -2.224   2.654   2.885  0.00  0.00     0.006 A 
ATOM      5  C4  UNL d   1      -2.437   1.293   3.108  0.00  0.00    -0.005 A 
ATOM      6  C5  UNL d   1      -1.644   0.340   2.461  0.00  0.00    -0.074 A 
ATOM      7  C6  UNL d   1      -1.866  -1.127   2.682  0.00  0.00     0.077 C 
ATOM      8  C7  UNL d   1      -0.640   0.770   1.584  0.00  0.00    -0.001 A 
ENDROOT
TORSDOF 0
ENDMDL
