MODEL 1
REMARK minimizedAffinity -1.49507427
REMARK minimizedRMSD -1
REMARK  0 active torsions:
REMARK  status: ('A' for Active; 'I' for Inactive)
ROOT
ATOM      1  C   UNL d   1      -1.932   2.725   2.390  0.00  0.00     0.077 C 
ATOM      2  C1  UNL d   1      -0.747   1.945   1.901  0.00  0.00    -0.074 A 
ATOM      3  C2  UNL d   1      -0.026   2.361   0.778  0.00  0.00    -0.005 A 
ATOM      4  C3  UNL d   1       1.079   1.631   0.341  0.00  0.00     0.006 A 
ATOM      5  C4  UNL d   1       1.473   0.478   1.021  0.00  0.00    -0.005 A 
ATOM      6  C5  UNL d   1       0.764   0.047   2.147  0.00  0.00    -0.074 A 
ATOM      7  C6  UNL d   1       1.181  -1.184   2.896  0.00  0.00     0.077 C 
ATOM      8  C7  UNL d   1      -0.340   0.790   2.585  0.00  0.00    -0.001 A 
ENDROOT
TORSDOF 0
ENDMDL
