MODEL 1
REMARK minimizedAffinity 1.6809963
REMARK minimizedRMSD -1
REMARK  0 active torsions:
REMARK  status: ('A' for Active; 'I' for Inactive)
ROOT
ATOM      1  C   UNL d   1      -0.733  -2.131   2.269  0.00  0.00     0.077 C 
ATOM      2  C1  UNL d   1      -0.359  -0.728   1.893  0.00  0.00    -0.074 A 
ATOM      3  C2  UNL d   1       0.731  -0.476   1.054  0.00  0.00    -0.005 A 
ATOM      4  C3  UNL d   1       1.061   0.834   0.705  0.00  0.00     0.006 A 
ATOM      5  C4  UNL d   1       0.307   1.902   1.191  0.00  0.00    -0.005 A 
ATOM      6  C5  UNL d   1      -0.786   1.669   2.031  0.00  0.00    -0.074 A 
ATOM      7  C6  UNL d   1      -1.614   2.805   2.555  0.00  0.00     0.077 C 
ATOM      8  C7  UNL d   1      -1.116   0.350   2.372  0.00  0.00    -0.001 A 
ENDROOT
TORSDOF 0
ENDMDL
