MODEL 1
REMARK minimizedAffinity 4.53970432
REMARK minimizedRMSD -1
REMARK  0 active torsions:
REMARK  status: ('A' for Active; 'I' for Inactive)
ROOT
ATOM      1  C   UNL d   1      -1.289  -1.303   2.108  0.00  0.00     0.077 C 
ATOM      2  C1  UNL d   1      -0.755   0.072   1.835  0.00  0.00    -0.074 A 
ATOM      3  C2  UNL d   1       0.555   0.257   1.381  0.00  0.00    -0.005 A 
ATOM      4  C3  UNL d   1       1.034   1.541   1.122  0.00  0.00     0.006 A 
ATOM      5  C4  UNL d   1       0.210   2.651   1.313  0.00  0.00    -0.005 A 
ATOM      6  C5  UNL d   1      -1.103   2.485   1.765  0.00  0.00    -0.074 A 
ATOM      7  C6  UNL d   1      -2.005   3.666   1.966  0.00  0.00     0.077 C 
ATOM      8  C7  UNL d   1      -1.580   1.191   2.016  0.00  0.00    -0.001 A 
ENDROOT
TORSDOF 0
ENDMDL
