MODEL 1
REMARK minimizedAffinity -1.00242543
REMARK minimizedRMSD -1
REMARK  0 active torsions:
REMARK  status: ('A' for Active; 'I' for Inactive)
ROOT
ATOM      1  C   UNL d   1       0.142  -4.112  -4.793  0.00  0.00     0.077 C 
ATOM      2  C1  UNL d   1      -1.340  -3.886  -4.798  0.00  0.00    -0.074 A 
ATOM      3  C2  UNL d   1      -2.048  -3.784  -6.000  0.00  0.00    -0.005 A 
ATOM      4  C3  UNL d   1      -3.428  -3.583  -5.989  0.00  0.00     0.006 A 
ATOM      5  C4  UNL d   1      -4.114  -3.482  -4.777  0.00  0.00    -0.005 A 
ATOM      6  C5  UNL d   1      -3.423  -3.582  -3.565  0.00  0.00    -0.074 A 
ATOM      7  C6  UNL d   1      -4.146  -3.485  -2.255  0.00  0.00     0.077 C 
ATOM      8  C7  UNL d   1      -2.037  -3.791  -3.585  0.00  0.00    -0.001 A 
ENDROOT
TORSDOF 0
ENDMDL
