MODEL 1
REMARK minimizedAffinity -0.719883919
REMARK minimizedRMSD -1
REMARK  0 active torsions:
REMARK  status: ('A' for Active; 'I' for Inactive)
ROOT
ATOM      1  C   UNL d   1       1.446   1.104  -0.033  0.00  0.00     0.077 C 
ATOM      2  C1  UNL d   1       0.306   0.774   0.884  0.00  0.00    -0.074 A 
ATOM      3  C2  UNL d   1      -0.016  -0.555   1.181  0.00  0.00    -0.005 A 
ATOM      4  C3  UNL d   1      -1.073  -0.846   2.043  0.00  0.00     0.006 A 
ATOM      5  C4  UNL d   1      -1.817   0.186   2.616  0.00  0.00    -0.005 A 
ATOM      6  C5  UNL d   1      -1.509   1.520   2.332  0.00  0.00    -0.074 A 
ATOM      7  C6  UNL d   1      -2.293   2.641   2.947  0.00  0.00     0.077 C 
ATOM      8  C7  UNL d   1      -0.441   1.805   1.470  0.00  0.00    -0.001 A 
ENDROOT
TORSDOF 0
ENDMDL
