MODEL 1
REMARK minimizedAffinity -5.19190264
REMARK minimizedRMSD -1
REMARK  0 active torsions:
REMARK  status: ('A' for Active; 'I' for Inactive)
ROOT
ATOM      1  C   UNL d   1      -3.056  -0.751   2.391  0.00  0.00     0.077 C 
ATOM      2  C1  UNL d   1      -1.949   0.132   1.896  0.00  0.00    -0.074 A 
ATOM      3  C2  UNL d   1      -2.051   1.524   1.973  0.00  0.00    -0.005 A 
ATOM      4  C3  UNL d   1      -1.009   2.332   1.517  0.00  0.00     0.006 A 
ATOM      5  C4  UNL d   1       0.143   1.756   0.981  0.00  0.00    -0.005 A 
ATOM      6  C5  UNL d   1       0.264   0.366   0.897  0.00  0.00    -0.074 A 
ATOM      7  C6  UNL d   1       1.500  -0.270   0.333  0.00  0.00     0.077 C 
ATOM      8  C7  UNL d   1      -0.785  -0.439   1.364  0.00  0.00    -0.001 A 
ENDROOT
TORSDOF 0
ENDMDL
