MODEL 1
REMARK minimizedAffinity -3.28960276
REMARK minimizedRMSD -1
REMARK  0 active torsions:
REMARK  status: ('A' for Active; 'I' for Inactive)
ROOT
ATOM      1  C   UNL d   1       1.188   3.140   1.547  0.00  0.00     0.077 C 
ATOM      2  C1  UNL d   1       0.457   1.837   1.420  0.00  0.00    -0.074 A 
ATOM      3  C2  UNL d   1       0.990   0.784   0.669  0.00  0.00    -0.005 A 
ATOM      4  C3  UNL d   1       0.302  -0.425   0.567  0.00  0.00     0.006 A 
ATOM      5  C4  UNL d   1      -0.923  -0.594   1.214  0.00  0.00    -0.005 A 
ATOM      6  C5  UNL d   1      -1.471   0.448   1.969  0.00  0.00    -0.074 A 
ATOM      7  C6  UNL d   1      -2.782   0.280   2.679  0.00  0.00     0.077 C 
ATOM      8  C7  UNL d   1      -0.771   1.657   2.073  0.00  0.00    -0.001 A 
ENDROOT
TORSDOF 0
ENDMDL
