MODEL 1
REMARK minimizedAffinity -1.00221729
REMARK minimizedRMSD -1
REMARK  0 active torsions:
REMARK  status: ('A' for Active; 'I' for Inactive)
ROOT
ATOM      1  C   UNL d   1      -0.824  -1.212   1.316  0.00  0.00     0.077 C 
ATOM      2  C1  UNL d   1      -0.608   0.263   1.481  0.00  0.00    -0.074 A 
ATOM      3  C2  UNL d   1      -1.571   1.065   2.101  0.00  0.00    -0.005 A 
ATOM      4  C3  UNL d   1      -1.352   2.434   2.256  0.00  0.00     0.006 A 
ATOM      5  C4  UNL d   1      -0.171   3.014   1.792  0.00  0.00    -0.005 A 
ATOM      6  C5  UNL d   1       0.804   2.227   1.169  0.00  0.00    -0.074 A 
ATOM      7  C6  UNL d   1       2.084   2.832   0.674  0.00  0.00     0.077 C 
ATOM      8  C7  UNL d   1       0.580   0.851   1.024  0.00  0.00    -0.001 A 
ENDROOT
TORSDOF 0
ENDMDL
