MODEL 1
REMARK minimizedAffinity -1.80673206
REMARK minimizedRMSD -1
REMARK  0 active torsions:
REMARK  status: ('A' for Active; 'I' for Inactive)
ROOT
ATOM      1  C   UNL d   1      -3.459  -1.880  -2.842  0.00  0.00     0.077 C 
ATOM      2  C1  UNL d   1      -2.255  -2.730  -2.564  0.00  0.00    -0.074 A 
ATOM      3  C2  UNL d   1      -2.049  -3.292  -1.300  0.00  0.00    -0.005 A 
ATOM      4  C3  UNL d   1      -0.929  -4.088  -1.059  0.00  0.00     0.006 A 
ATOM      5  C4  UNL d   1      -0.006  -4.330  -2.077  0.00  0.00    -0.005 A 
ATOM      6  C5  UNL d   1      -0.197  -3.776  -3.348  0.00  0.00    -0.074 A 
ATOM      7  C6  UNL d   1       0.781  -4.034  -4.456  0.00  0.00     0.077 C 
ATOM      8  C7  UNL d   1      -1.328  -2.983  -3.584  0.00  0.00    -0.001 A 
ENDROOT
TORSDOF 0
ENDMDL
