MODEL 1
REMARK minimizedAffinity -3.66689181
REMARK minimizedRMSD -1
REMARK  0 active torsions:
REMARK  status: ('A' for Active; 'I' for Inactive)
ROOT
ATOM      1  C   UNL d   1      -3.375   1.878   3.995  0.00  0.00     0.077 C 
ATOM      2  C1  UNL d   1      -2.229   1.663   3.052  0.00  0.00    -0.074 A 
ATOM      3  C2  UNL d   1      -1.449   2.738   2.612  0.00  0.00    -0.005 A 
ATOM      4  C3  UNL d   1      -0.381   2.523   1.742  0.00  0.00     0.006 A 
ATOM      5  C4  UNL d   1      -0.081   1.232   1.303  0.00  0.00    -0.005 A 
ATOM      6  C5  UNL d   1      -0.849   0.145   1.733  0.00  0.00    -0.074 A 
ATOM      7  C6  UNL d   1      -0.534  -1.249   1.279  0.00  0.00     0.077 C 
ATOM      8  C7  UNL d   1      -1.917   0.369   2.613  0.00  0.00    -0.001 A 
ENDROOT
TORSDOF 0
ENDMDL
