MODEL 1
REMARK minimizedAffinity 0.270119101
REMARK minimizedRMSD -1
REMARK  0 active torsions:
REMARK  status: ('A' for Active; 'I' for Inactive)
ROOT
ATOM      1  C   UNL d   1      -4.092   2.061   4.376  0.00  0.00     0.077 C 
ATOM      2  C1  UNL d   1      -3.028   1.587   3.430  0.00  0.00    -0.074 A 
ATOM      3  C2  UNL d   1      -2.755   0.224   3.281  0.00  0.00    -0.005 A 
ATOM      4  C3  UNL d   1      -1.769  -0.202   2.391  0.00  0.00     0.006 A 
ATOM      5  C4  UNL d   1      -1.047   0.729   1.643  0.00  0.00    -0.005 A 
ATOM      6  C5  UNL d   1      -1.307   2.096   1.779  0.00  0.00    -0.074 A 
ATOM      7  C6  UNL d   1      -0.548   3.110   0.975  0.00  0.00     0.077 C 
ATOM      8  C7  UNL d   1      -2.304   2.516   2.670  0.00  0.00    -0.001 A 
ENDROOT
TORSDOF 0
ENDMDL
