MODEL 1
REMARK minimizedAffinity -2.23755336
REMARK minimizedRMSD -1
REMARK  0 active torsions:
REMARK  status: ('A' for Active; 'I' for Inactive)
ROOT
ATOM      1  C   UNL d   1       0.393  -0.618   1.345  0.00  0.00     0.023 A 
ATOM      2  C1  UNL d   1       0.535  -0.564  -0.041  0.00  0.00     0.003 A 
ATOM      3  C2  UNL d   1       0.274   0.625  -0.725  0.00  0.00     0.048 A 
ATOM      4  C3  UNL d   1      -0.126   1.757  -0.016  0.00  0.00     0.023 A 
ATOM      5  C4  UNL d   1      -0.268   1.708   1.372  0.00  0.00     0.048 A 
ATOM      6  C5  UNL d   1      -0.008   0.516   2.051  0.00  0.00     0.003 A 
ATOM      7  I   UNL d   1      -0.514   3.528  -1.032  0.00  0.00    -0.146 I 
ENDROOT
TORSDOF 0
ENDMDL
