MODEL 1
REMARK minimizedAffinity -1.79988074
REMARK minimizedRMSD -1
REMARK  0 active torsions:
REMARK  status: ('A' for Active; 'I' for Inactive)
ROOT
ATOM      1  C   UNL d   1      -0.010   1.246   0.367  0.00  0.00     0.023 A 
ATOM      2  C1  UNL d   1      -0.182   0.874  -0.967  0.00  0.00     0.003 A 
ATOM      3  C2  UNL d   1       0.179  -0.407  -1.389  0.00  0.00     0.048 A 
ATOM      4  C3  UNL d   1       0.711  -1.312  -0.472  0.00  0.00     0.023 A 
ATOM      5  C4  UNL d   1       0.884  -0.946   0.864  0.00  0.00     0.048 A 
ATOM      6  C5  UNL d   1       0.522   0.337   1.281  0.00  0.00     0.003 A 
ATOM      7  I   UNL d   1       1.250  -3.220  -1.097  0.00  0.00    -0.146 I 
ENDROOT
TORSDOF 0
ENDMDL
