MODEL 1
REMARK minimizedAffinity -3.45317483
REMARK minimizedRMSD -1
REMARK  0 active torsions:
REMARK  status: ('A' for Active; 'I' for Inactive)
ROOT
ATOM      1  C   UNL d   1      -0.030   3.814   0.740  0.00  0.00     0.023 A 
ATOM      2  C1  UNL d   1      -0.099   3.722  -0.650  0.00  0.00     0.003 A 
ATOM      3  C2  UNL d   1      -0.079   2.472  -1.271  0.00  0.00     0.048 A 
ATOM      4  C3  UNL d   1       0.009   1.316  -0.495  0.00  0.00     0.023 A 
ATOM      5  C4  UNL d   1       0.077   1.403   0.896  0.00  0.00     0.048 A 
ATOM      6  C5  UNL d   1       0.057   2.655   1.512  0.00  0.00     0.003 A 
ATOM      7  I   UNL d   1       0.038  -0.547  -1.417  0.00  0.00    -0.146 I 
ENDROOT
TORSDOF 0
ENDMDL
