MODEL 1
REMARK minimizedAffinity -4.07084799
REMARK minimizedRMSD -1
REMARK  0 active torsions:
REMARK  status: ('A' for Active; 'I' for Inactive)
ROOT
ATOM      1  C   UNL d   1      -0.424   2.776   1.421  0.00  0.00     0.023 A 
ATOM      2  C1  UNL d   1       0.328   1.785   2.052  0.00  0.00     0.003 A 
ATOM      3  C2  UNL d   1       0.728   0.651   1.342  0.00  0.00     0.048 A 
ATOM      4  C3  UNL d   1       0.372   0.515   0.000  0.00  0.00     0.023 A 
ATOM      5  C4  UNL d   1      -0.379   1.504  -0.636  0.00  0.00     0.048 A 
ATOM      6  C5  UNL d   1      -0.777   2.635   0.079  0.00  0.00     0.003 A 
ATOM      7  I   UNL d   1       0.966  -1.172  -1.059  0.00  0.00    -0.146 I 
ENDROOT
TORSDOF 0
ENDMDL
