MODEL 1
REMARK minimizedAffinity 1.01310813
REMARK minimizedRMSD -1
REMARK  0 active torsions:
REMARK  status: ('A' for Active; 'I' for Inactive)
ROOT
ATOM      1  C   UNL d   1      -2.082  -3.256  -2.771  0.00  0.00     0.023 A 
ATOM      2  C1  UNL d   1      -1.814  -2.996  -1.427  0.00  0.00     0.003 A 
ATOM      3  C2  UNL d   1      -0.782  -3.674  -0.776  0.00  0.00     0.048 A 
ATOM      4  C3  UNL d   1      -0.021  -4.610  -1.474  0.00  0.00     0.023 A 
ATOM      5  C4  UNL d   1      -0.284  -4.874  -2.820  0.00  0.00     0.048 A 
ATOM      6  C5  UNL d   1      -1.318  -4.194  -3.467  0.00  0.00     0.003 A 
ATOM      7  I   UNL d   1       1.516  -5.621  -0.507  0.00  0.00    -0.146 I 
ENDROOT
TORSDOF 0
ENDMDL
