MODEL 1
REMARK minimizedAffinity 0.291807324
REMARK minimizedRMSD -1
REMARK  0 active torsions:
REMARK  status: ('A' for Active; 'I' for Inactive)
ROOT
ATOM      1  N1  IND d   1      -0.124   0.654  -0.226  0.00  0.00    -0.196 N 
ATOM      2  C2  IND d   1       0.621   1.792  -0.089  0.00  0.00     0.054 A 
ATOM      3  C3  IND d   1       1.894   1.484   0.244  0.00  0.00    -0.031 A 
ATOM      4  C4  IND d   1       3.000  -0.825   0.518  0.00  0.00     0.051 A 
ATOM      5  C5  IND d   1       2.714  -2.162   0.527  0.00  0.00    -0.031 A 
ATOM      6  C6  IND d   1       1.443  -2.638   0.278  0.00  0.00     0.015 A 
ATOM      7  C7  IND d   1       0.408  -1.791  -0.002  0.00  0.00    -0.016 A 
ATOM      8  C8  IND d   1       0.692  -0.433  -0.005  0.00  0.00    -0.047 A 
ATOM      9  C9  IND d   1       1.971   0.058   0.288  0.00  0.00    -0.096 A 
ATOM     10  HN1 IND d   1      -0.961   0.623  -0.419  0.00  0.00     0.298 HD
ENDROOT
TORSDOF 0
ENDMDL
