MODEL 1
REMARK minimizedAffinity 0.573190451
REMARK minimizedRMSD -1
REMARK  0 active torsions:
REMARK  status: ('A' for Active; 'I' for Inactive)
ROOT
ATOM      1  N1  IND d   1       0.192   1.000   0.022  0.00  0.00    -0.196 N 
ATOM      2  C2  IND d   1      -0.750   0.014  -0.074  0.00  0.00     0.054 A 
ATOM      3  C3  IND d   1      -0.158  -1.201  -0.101  0.00  0.00    -0.031 A 
ATOM      4  C4  IND d   1       2.335  -1.810   0.101  0.00  0.00     0.051 A 
ATOM      5  C5  IND d   1       3.579  -1.248   0.170  0.00  0.00    -0.031 A 
ATOM      6  C6  IND d   1       3.761   0.119   0.197  0.00  0.00     0.015 A 
ATOM      7  C7  IND d   1       2.700   0.980   0.166  0.00  0.00    -0.016 A 
ATOM      8  C8  IND d   1       1.436   0.413   0.089  0.00  0.00    -0.047 A 
ATOM      9  C9  IND d   1       1.247  -0.973   0.019  0.00  0.00    -0.096 A 
ATOM     10  HN1 IND d   1       0.033   1.845   0.038  0.00  0.00     0.298 HD
ENDROOT
TORSDOF 0
ENDMDL
