MODEL 1
REMARK minimizedAffinity -3.22946167
REMARK minimizedRMSD -1
REMARK  0 active torsions:
REMARK  status: ('A' for Active; 'I' for Inactive)
ROOT
ATOM      1  N1  IND d   1      -1.472   0.565  -2.770  0.00  0.00    -0.196 N 
ATOM      2  C2  IND d   1      -1.503  -0.367  -3.770  0.00  0.00     0.054 A 
ATOM      3  C3  IND d   1      -0.837  -1.482  -3.393  0.00  0.00    -0.031 A 
ATOM      4  C4  IND d   1       0.291  -2.033  -1.146  0.00  0.00     0.051 A 
ATOM      5  C5  IND d   1       0.611  -1.481   0.063  0.00  0.00    -0.031 A 
ATOM      6  C6  IND d   1       0.244  -0.193   0.396  0.00  0.00     0.015 A 
ATOM      7  C7  IND d   1      -0.471   0.589  -0.466  0.00  0.00    -0.016 A 
ATOM      8  C8  IND d   1      -0.792   0.034  -1.696  0.00  0.00    -0.047 A 
ATOM      9  C9  IND d   1      -0.385  -1.256  -2.057  0.00  0.00    -0.096 A 
ATOM     10  HN1 IND d   1      -1.819   1.351  -2.807  0.00  0.00     0.298 HD
ENDROOT
TORSDOF 0
ENDMDL
