MODEL 1
REMARK minimizedAffinity 1.01743913
REMARK minimizedRMSD -1
REMARK  0 active torsions:
REMARK  status: ('A' for Active; 'I' for Inactive)
ROOT
ATOM      1  N1  IND d   1      -5.999  -0.690   0.096  0.00  0.00    -0.196 N 
ATOM      2  C2  IND d   1      -5.647  -0.761  -1.223  0.00  0.00     0.054 A 
ATOM      3  C3  IND d   1      -4.495  -0.088  -1.438  0.00  0.00    -0.031 A 
ATOM      4  C4  IND d   1      -2.964   1.116   0.245  0.00  0.00     0.051 A 
ATOM      5  C5  IND d   1      -2.885   1.481   1.560  0.00  0.00    -0.031 A 
ATOM      6  C6  IND d   1      -3.859   1.132   2.473  0.00  0.00     0.015 A 
ATOM      7  C7  IND d   1      -4.947   0.391   2.106  0.00  0.00    -0.016 A 
ATOM      8  C8  IND d   1      -5.034   0.025   0.770  0.00  0.00    -0.047 A 
ATOM      9  C9  IND d   1      -4.070   0.412  -0.170  0.00  0.00    -0.096 A 
ATOM     10  HN1 IND d   1      -6.706  -1.034   0.446  0.00  0.00     0.298 HD
ENDROOT
TORSDOF 0
ENDMDL
