MODEL 1
REMARK minimizedAffinity 3.17605281
REMARK minimizedRMSD -1
REMARK  0 active torsions:
REMARK  status: ('A' for Active; 'I' for Inactive)
ROOT
ATOM      1  N1  IND d   1      -0.191   1.292  -1.045  0.00  0.00    -0.196 N 
ATOM      2  C2  IND d   1       0.202   0.519   0.010  0.00  0.00     0.054 A 
ATOM      3  C3  IND d   1       0.076  -0.792  -0.294  0.00  0.00    -0.031 A 
ATOM      4  C4  IND d   1      -0.661  -1.895  -2.501  0.00  0.00     0.051 A 
ATOM      5  C5  IND d   1      -1.152  -1.600  -3.741  0.00  0.00    -0.031 A 
ATOM      6  C6  IND d   1      -1.350  -0.298  -4.156  0.00  0.00     0.015 A 
ATOM      7  C7  IND d   1      -1.052   0.761  -3.346  0.00  0.00    -0.016 A 
ATOM      8  C8  IND d   1      -0.559   0.464  -2.083  0.00  0.00    -0.047 A 
ATOM      9  C9  IND d   1      -0.396  -0.855  -1.641  0.00  0.00    -0.096 A 
ATOM     10  HN1 IND d   1      -0.207   2.152  -1.059  0.00  0.00     0.298 HD
ENDROOT
TORSDOF 0
ENDMDL
