MODEL 1
REMARK minimizedAffinity -2.1730392
REMARK minimizedRMSD -1
REMARK  0 active torsions:
REMARK  status: ('A' for Active; 'I' for Inactive)
ROOT
ATOM      1  N1  IND d   1      -1.778   1.010   0.082  0.00  0.00    -0.196 N 
ATOM      2  C2  IND d   1      -1.487   0.425  -1.119  0.00  0.00     0.054 A 
ATOM      3  C3  IND d   1      -2.580  -0.199  -1.614  0.00  0.00    -0.031 A 
ATOM      4  C4  IND d   1      -4.973  -0.300  -0.672  0.00  0.00     0.051 A 
ATOM      5  C5  IND d   1      -5.718   0.053   0.418  0.00  0.00    -0.031 A 
ATOM      6  C6  IND d   1      -5.176   0.761   1.472  0.00  0.00     0.015 A 
ATOM      7  C7  IND d   1      -3.868   1.152   1.470  0.00  0.00    -0.016 A 
ATOM      8  C8  IND d   1      -3.107   0.789   0.368  0.00  0.00    -0.047 A 
ATOM      9  C9  IND d   1      -3.640   0.034  -0.686  0.00  0.00    -0.096 A 
ATOM     10  HN1 IND d   1      -1.223   1.444   0.576  0.00  0.00     0.298 HD
ENDROOT
TORSDOF 0
ENDMDL
