MODEL 1
REMARK minimizedAffinity -0.782889068
REMARK minimizedRMSD -1
REMARK  0 active torsions:
REMARK  status: ('A' for Active; 'I' for Inactive)
ROOT
ATOM      1  N1  IND d   1      -0.873   0.078   0.113  0.00  0.00    -0.196 N 
ATOM      2  C2  IND d   1      -1.325  -0.374  -1.096  0.00  0.00     0.054 A 
ATOM      3  C3  IND d   1      -0.406  -1.185  -1.668  0.00  0.00    -0.031 A 
ATOM      4  C4  IND d   1       1.863  -1.986  -0.753  0.00  0.00     0.051 A 
ATOM      5  C5  IND d   1       2.724  -1.813   0.294  0.00  0.00    -0.031 A 
ATOM      6  C6  IND d   1       2.423  -0.987   1.357  0.00  0.00     0.015 A 
ATOM      7  C7  IND d   1       1.239  -0.308   1.418  0.00  0.00    -0.016 A 
ATOM      8  C8  IND d   1       0.365  -0.475   0.353  0.00  0.00    -0.047 A 
ATOM      9  C9  IND d   1       0.684  -1.280  -0.749  0.00  0.00    -0.096 A 
ATOM     10  HN1 IND d   1      -1.292   0.618   0.635  0.00  0.00     0.298 HD
ENDROOT
TORSDOF 0
ENDMDL
