MODEL 1
REMARK minimizedAffinity 4.96841383
REMARK minimizedRMSD -1
REMARK  0 active torsions:
REMARK  status: ('A' for Active; 'I' for Inactive)
ROOT
ATOM      1  N1  IND d   1       0.044  -1.179  -0.627  0.00  0.00    -0.196 N 
ATOM      2  C2  IND d   1       0.046  -0.036   0.123  0.00  0.00     0.054 A 
ATOM      3  C3  IND d   1      -0.559   0.968  -0.550  0.00  0.00    -0.031 A 
ATOM      4  C4  IND d   1      -1.713   0.934  -2.851  0.00  0.00     0.051 A 
ATOM      5  C5  IND d   1      -1.940   0.127  -3.930  0.00  0.00    -0.031 A 
ATOM      6  C6  IND d   1      -1.511  -1.184  -3.963  0.00  0.00     0.015 A 
ATOM      7  C7  IND d   1      -0.846  -1.743  -2.909  0.00  0.00    -0.016 A 
ATOM      8  C8  IND d   1      -0.607  -0.924  -1.814  0.00  0.00    -0.047 A 
ATOM      9  C9  IND d   1      -1.003   0.419  -1.792  0.00  0.00    -0.096 A 
ATOM     10  HN1 IND d   1       0.391  -1.931  -0.396  0.00  0.00     0.298 HD
ENDROOT
TORSDOF 0
ENDMDL
