MODEL 1
REMARK minimizedAffinity 5.29556513
REMARK minimizedRMSD -1
REMARK  0 active torsions:
REMARK  status: ('A' for Active; 'I' for Inactive)
ROOT
ATOM      1  N1  IND d   1       3.482  -1.239  -0.613  0.00  0.00    -0.196 N 
ATOM      2  C2  IND d   1       3.256  -2.038  -1.698  0.00  0.00     0.054 A 
ATOM      3  C3  IND d   1       1.933  -2.096  -1.972  0.00  0.00    -0.031 A 
ATOM      4  C4  IND d   1      -0.028  -0.878  -0.832  0.00  0.00     0.051 A 
ATOM      5  C5  IND d   1      -0.322  -0.066   0.228  0.00  0.00    -0.031 A 
ATOM      6  C6  IND d   1       0.657   0.407   1.077  0.00  0.00     0.015 A 
ATOM      7  C7  IND d   1       1.974   0.095   0.891  0.00  0.00    -0.016 A 
ATOM      8  C8  IND d   1       2.276  -0.734  -0.180  0.00  0.00    -0.047 A 
ATOM      9  C9  IND d   1       1.282  -1.252  -1.020  0.00  0.00    -0.096 A 
ATOM     10  HN1 IND d   1       4.250  -1.079  -0.259  0.00  0.00     0.298 HD
ENDROOT
TORSDOF 0
ENDMDL
