MODEL 1
REMARK minimizedAffinity 7.88676596
REMARK minimizedRMSD -1
REMARK  0 active torsions:
REMARK  status: ('A' for Active; 'I' for Inactive)
ROOT
ATOM      1  N1  IND d   1       4.476   5.984   2.347  0.00  0.00    -0.196 N 
ATOM      2  C2  IND d   1       3.230   5.484   2.603  0.00  0.00     0.054 A 
ATOM      3  C3  IND d   1       2.727   4.887   1.499  0.00  0.00    -0.031 A 
ATOM      4  C4  IND d   1       3.816   4.526  -0.805  0.00  0.00     0.051 A 
ATOM      5  C5  IND d   1       4.932   4.837  -1.530  0.00  0.00    -0.031 A 
ATOM      6  C6  IND d   1       5.975   5.559  -0.988  0.00  0.00     0.015 A 
ATOM      7  C7  IND d   1       5.946   5.989   0.309  0.00  0.00    -0.016 A 
ATOM      8  C8  IND d   1       4.811   5.680   1.046  0.00  0.00    -0.047 A 
ATOM      9  C9  IND d   1       3.731   4.984   0.488  0.00  0.00    -0.096 A 
ATOM     10  HN1 IND d   1       4.967   6.416   2.905  0.00  0.00     0.298 HD
ENDROOT
TORSDOF 0
ENDMDL
