MODEL 1
REMARK minimizedAffinity 0.738154352
REMARK minimizedRMSD -1
REMARK  0 active torsions:
REMARK  status: ('A' for Active; 'I' for Inactive)
ROOT
ATOM      1  N1  IND d   1       2.826  -1.370   0.324  0.00  0.00    -0.196 N 
ATOM      2  C2  IND d   1       2.739  -0.142   0.918  0.00  0.00     0.054 A 
ATOM      3  C3  IND d   1       1.457   0.131   1.248  0.00  0.00    -0.031 A 
ATOM      4  C4  IND d   1      -0.644  -1.335   0.998  0.00  0.00     0.051 A 
ATOM      5  C5  IND d   1      -1.073  -2.524   0.478  0.00  0.00    -0.031 A 
ATOM      6  C6  IND d   1      -0.205  -3.408  -0.130  0.00  0.00     0.015 A 
ATOM      7  C7  IND d   1       1.131  -3.140  -0.231  0.00  0.00    -0.016 A 
ATOM      8  C8  IND d   1       1.568  -1.931   0.290  0.00  0.00    -0.047 A 
ATOM      9  C9  IND d   1       0.685  -1.010   0.870  0.00  0.00    -0.096 A 
ATOM     10  HN1 IND d   1       3.545  -1.732   0.022  0.00  0.00     0.298 HD
ENDROOT
TORSDOF 0
ENDMDL
