MODEL 1
REMARK minimizedAffinity 0.121663339
REMARK minimizedRMSD -1
REMARK  0 active torsions:
REMARK  status: ('A' for Active; 'I' for Inactive)
ROOT
ATOM      1  N1  IND d   1       4.990   5.250   2.148  0.00  0.00    -0.196 N 
ATOM      2  C2  IND d   1       3.739   5.520   2.627  0.00  0.00     0.054 A 
ATOM      3  C3  IND d   1       2.916   5.882   1.617  0.00  0.00    -0.031 A 
ATOM      4  C4  IND d   1       3.385   6.000  -0.912  0.00  0.00     0.051 A 
ATOM      5  C5  IND d   1       4.392   5.879  -1.827  0.00  0.00    -0.031 A 
ATOM      6  C6  IND d   1       5.676   5.532  -1.458  0.00  0.00     0.015 A 
ATOM      7  C7  IND d   1       5.998   5.282  -0.154  0.00  0.00    -0.016 A 
ATOM      8  C8  IND d   1       4.980   5.411   0.779  0.00  0.00    -0.047 A 
ATOM      9  C9  IND d   1       3.685   5.804   0.416  0.00  0.00    -0.096 A 
ATOM     10  HN1 IND d   1       5.670   5.019   2.621  0.00  0.00     0.298 HD
ENDROOT
TORSDOF 0
ENDMDL
