MODEL 1
REMARK minimizedAffinity 1.78648233
REMARK minimizedRMSD -1
REMARK  0 active torsions:
REMARK  status: ('A' for Active; 'I' for Inactive)
ROOT
ATOM      1  N1  IND d   1       2.843   0.142   2.153  0.00  0.00    -0.196 N 
ATOM      2  C2  IND d   1       3.945  -0.302   1.475  0.00  0.00     0.054 A 
ATOM      3  C3  IND d   1       3.582  -1.179   0.512  0.00  0.00    -0.031 A 
ATOM      4  C4  IND d   1       1.231  -1.954  -0.193  0.00  0.00     0.051 A 
ATOM      5  C5  IND d   1      -0.086  -1.853   0.155  0.00  0.00    -0.031 A 
ATOM      6  C6  IND d   1      -0.503  -1.063   1.207  0.00  0.00     0.015 A 
ATOM      7  C7  IND d   1       0.385  -0.333   1.946  0.00  0.00    -0.016 A 
ATOM      8  C8  IND d   1       1.724  -0.440   1.599  0.00  0.00    -0.047 A 
ATOM      9  C9  IND d   1       2.158  -1.273   0.560  0.00  0.00    -0.096 A 
ATOM     10  HN1 IND d   1       2.849   0.691   2.815  0.00  0.00     0.298 HD
ENDROOT
TORSDOF 0
ENDMDL
