MODEL 1
REMARK minimizedAffinity 1.41074014
REMARK minimizedRMSD -1
REMARK  0 active torsions:
REMARK  status: ('A' for Active; 'I' for Inactive)
ROOT
ATOM      1  N1  IND d   1       2.411  -2.759  -0.335  0.00  0.00    -0.196 N 
ATOM      2  C2  IND d   1       1.616  -3.731  -0.877  0.00  0.00     0.054 A 
ATOM      3  C3  IND d   1       0.313  -3.462  -0.634  0.00  0.00    -0.031 A 
ATOM      4  C4  IND d   1      -0.747  -1.433   0.544  0.00  0.00     0.051 A 
ATOM      5  C5  IND d   1      -0.424  -0.301   1.237  0.00  0.00    -0.031 A 
ATOM      6  C6  IND d   1       0.886   0.079   1.444  0.00  0.00     0.015 A 
ATOM      7  C7  IND d   1       1.927  -0.656   0.953  0.00  0.00    -0.016 A 
ATOM      8  C8  IND d   1       1.604  -1.811   0.254  0.00  0.00    -0.047 A 
ATOM      9  C9  IND d   1       0.277  -2.224   0.078  0.00  0.00    -0.096 A 
ATOM     10  HN1 IND d   1       3.270  -2.743  -0.359  0.00  0.00     0.298 HD
ENDROOT
TORSDOF 0
ENDMDL
