MODEL 1
REMARK minimizedAffinity 1.70402038
REMARK minimizedRMSD -1
REMARK  0 active torsions:
REMARK  status: ('A' for Active; 'I' for Inactive)
ROOT
ATOM      1  N1  IND d   1       2.094  -4.551  -0.585  0.00  0.00    -0.196 N 
ATOM      2  C2  IND d   1       3.435  -4.421  -0.354  0.00  0.00     0.054 A 
ATOM      3  C3  IND d   1       3.701  -3.220   0.207  0.00  0.00    -0.031 A 
ATOM      4  C4  IND d   1       2.079  -1.355   0.927  0.00  0.00     0.051 A 
ATOM      5  C5  IND d   1       0.760  -1.000   0.887  0.00  0.00    -0.031 A 
ATOM      6  C6  IND d   1      -0.202  -1.829   0.346  0.00  0.00     0.015 A 
ATOM      7  C7  IND d   1       0.120  -3.053  -0.168  0.00  0.00    -0.016 A 
ATOM      8  C8  IND d   1       1.459  -3.414  -0.135  0.00  0.00    -0.047 A 
ATOM      9  C9  IND d   1       2.446  -2.560   0.374  0.00  0.00    -0.096 A 
ATOM     10  HN1 IND d   1       1.711  -5.229  -0.950  0.00  0.00     0.298 HD
ENDROOT
TORSDOF 0
ENDMDL
