MODEL 1
REMARK minimizedAffinity 6.88852215
REMARK minimizedRMSD -1
REMARK  0 active torsions:
REMARK  status: ('A' for Active; 'I' for Inactive)
ROOT
ATOM      1  N1  IND d   1       2.735  -3.559  -0.076  0.00  0.00    -0.196 N 
ATOM      2  C2  IND d   1       2.059  -4.731   0.119  0.00  0.00     0.054 A 
ATOM      3  C3  IND d   1       0.808  -4.483   0.568  0.00  0.00    -0.031 A 
ATOM      4  C4  IND d   1      -0.374  -2.229   0.955  0.00  0.00     0.051 A 
ATOM      5  C5  IND d   1      -0.151  -0.881   0.949  0.00  0.00    -0.031 A 
ATOM      6  C6  IND d   1       1.070  -0.346   0.591  0.00  0.00     0.015 A 
ATOM      7  C7  IND d   1       2.114  -1.142   0.213  0.00  0.00    -0.016 A 
ATOM      8  C8  IND d   1       1.893  -2.512   0.225  0.00  0.00    -0.047 A 
ATOM      9  C9  IND d   1       0.670  -3.063   0.629  0.00  0.00    -0.096 A 
ATOM     10  HN1 IND d   1       3.550  -3.489  -0.342  0.00  0.00     0.298 HD
ENDROOT
TORSDOF 0
ENDMDL
