MODEL 1
REMARK minimizedAffinity -2.05869675
REMARK minimizedRMSD -1
REMARK  0 active torsions:
REMARK  status: ('A' for Active; 'I' for Inactive)
ROOT
ATOM      1  N1  IND d   1       1.066  -0.089   1.148  0.00  0.00    -0.196 N 
ATOM      2  C2  IND d   1      -0.268  -0.196   1.424  0.00  0.00     0.054 A 
ATOM      3  C3  IND d   1      -0.722  -1.423   1.081  0.00  0.00    -0.031 A 
ATOM      4  C4  IND d   1       0.571  -3.442   0.144  0.00  0.00     0.051 A 
ATOM      5  C5  IND d   1       1.805  -3.815  -0.309  0.00  0.00    -0.031 A 
ATOM      6  C6  IND d   1       2.878  -2.948  -0.298  0.00  0.00     0.015 A 
ATOM      7  C7  IND d   1       2.760  -1.674   0.181  0.00  0.00    -0.016 A 
ATOM      8  C8  IND d   1       1.506  -1.290   0.635  0.00  0.00    -0.047 A 
ATOM      9  C9  IND d   1       0.403  -2.151   0.587  0.00  0.00    -0.096 A 
ATOM     10  HN1 IND d   1       1.550   0.611   1.272  0.00  0.00     0.298 HD
ENDROOT
TORSDOF 0
ENDMDL
