MODEL 1
REMARK minimizedAffinity 1.06451821
REMARK minimizedRMSD -1
REMARK  0 active torsions:
REMARK  status: ('A' for Active; 'I' for Inactive)
ROOT
ATOM      1  N1  IND d   1       1.373  -4.060  -0.372  0.00  0.00    -0.196 N 
ATOM      2  C2  IND d   1       2.706  -4.121  -0.074  0.00  0.00     0.054 A 
ATOM      3  C3  IND d   1       3.106  -2.978   0.528  0.00  0.00    -0.031 A 
ATOM      4  C4  IND d   1       1.721  -0.920   1.215  0.00  0.00     0.051 A 
ATOM      5  C5  IND d   1       0.467  -0.385   1.121  0.00  0.00    -0.031 A 
ATOM      6  C6  IND d   1      -0.571  -1.063   0.515  0.00  0.00     0.015 A 
ATOM      7  C7  IND d   1      -0.395  -2.311  -0.012  0.00  0.00    -0.016 A 
ATOM      8  C8  IND d   1       0.879  -2.854   0.075  0.00  0.00    -0.047 A 
ATOM      9  C9  IND d   1       1.946  -2.153   0.652  0.00  0.00    -0.096 A 
ATOM     10  HN1 IND d   1       0.920  -4.671  -0.771  0.00  0.00     0.298 HD
ENDROOT
TORSDOF 0
ENDMDL
