MODEL 1
REMARK minimizedAffinity -3.83751798
REMARK minimizedRMSD -1
REMARK  0 active torsions:
REMARK  status: ('A' for Active; 'I' for Inactive)
ROOT
ATOM      1  N1  IND d   1       1.570  -4.732  -0.004  0.00  0.00    -0.196 N 
ATOM      2  C2  IND d   1       2.927  -4.664  -0.152  0.00  0.00     0.054 A 
ATOM      3  C3  IND d   1       3.353  -3.390  -0.001  0.00  0.00    -0.031 A 
ATOM      4  C4  IND d   1       2.011  -1.276   0.596  0.00  0.00     0.051 A 
ATOM      5  C5  IND d   1       0.734  -0.831   0.794  0.00  0.00    -0.031 A 
ATOM      6  C6  IND d   1      -0.352  -1.682   0.737  0.00  0.00     0.015 A 
ATOM      7  C7  IND d   1      -0.198  -3.017   0.491  0.00  0.00    -0.016 A 
ATOM      8  C8  IND d   1       1.096  -3.471   0.283  0.00  0.00    -0.047 A 
ATOM      9  C9  IND d   1       2.197  -2.605   0.297  0.00  0.00    -0.096 A 
ATOM     10  HN1 IND d   1       1.092  -5.443  -0.078  0.00  0.00     0.298 HD
ENDROOT
TORSDOF 0
ENDMDL
