MODEL 1
REMARK minimizedAffinity -2.99102902
REMARK minimizedRMSD -1
REMARK  0 active torsions:
REMARK  status: ('A' for Active; 'I' for Inactive)
ROOT
ATOM      1  N1  IND d   1       0.154  -3.568   0.554  0.00  0.00    -0.196 N 
ATOM      2  C2  IND d   1      -0.653  -2.517   0.893  0.00  0.00     0.054 A 
ATOM      3  C3  IND d   1       0.046  -1.361   0.869  0.00  0.00    -0.031 A 
ATOM      4  C4  IND d   1       2.499  -0.945   0.204  0.00  0.00     0.051 A 
ATOM      5  C5  IND d   1       3.646  -1.601  -0.145  0.00  0.00    -0.031 A 
ATOM      6  C6  IND d   1       3.688  -2.973  -0.284  0.00  0.00     0.015 A 
ATOM      7  C7  IND d   1       2.576  -3.743  -0.090  0.00  0.00    -0.016 A 
ATOM      8  C8  IND d   1       1.411  -3.082   0.272  0.00  0.00    -0.047 A 
ATOM      9  C9  IND d   1       1.373  -1.694   0.456  0.00  0.00    -0.096 A 
ATOM     10  HN1 IND d   1      -0.084  -4.394   0.523  0.00  0.00     0.298 HD
ENDROOT
TORSDOF 0
ENDMDL
