MODEL 1
REMARK minimizedAffinity 3.11477494
REMARK minimizedRMSD -1
REMARK  0 active torsions:
REMARK  status: ('A' for Active; 'I' for Inactive)
ROOT
ATOM      1  N1  IND d   1       2.163  -3.082   1.120  0.00  0.00    -0.196 N 
ATOM      2  C2  IND d   1       1.506  -4.045   0.404  0.00  0.00     0.054 A 
ATOM      3  C3  IND d   1       0.253  -3.635   0.104  0.00  0.00    -0.031 A 
ATOM      4  C4  IND d   1      -0.894  -1.384   0.599  0.00  0.00     0.051 A 
ATOM      5  C5  IND d   1      -0.708  -0.202   1.259  0.00  0.00    -0.031 A 
ATOM      6  C6  IND d   1       0.470   0.087   1.917  0.00  0.00     0.015 A 
ATOM      7  C7  IND d   1       1.514  -0.794   1.931  0.00  0.00    -0.016 A 
ATOM      8  C8  IND d   1       1.325  -1.998   1.267  0.00  0.00    -0.047 A 
ATOM      9  C9  IND d   1       0.117  -2.315   0.633  0.00  0.00    -0.096 A 
ATOM     10  HN1 IND d   1       2.964  -3.144   1.426  0.00  0.00     0.298 HD
ENDROOT
TORSDOF 0
ENDMDL
