MODEL 1
REMARK minimizedAffinity 3.34518242
REMARK minimizedRMSD -1
REMARK  0 active torsions:
REMARK  status: ('A' for Active; 'I' for Inactive)
ROOT
ATOM      1  N1  IND d   1       5.083   3.405  -1.225  0.00  0.00    -0.196 N 
ATOM      2  C2  IND d   1       4.019   2.548  -1.233  0.00  0.00     0.054 A 
ATOM      3  C3  IND d   1       3.190   2.817  -0.200  0.00  0.00    -0.031 A 
ATOM      4  C4  IND d   1       3.332   4.683   1.568  0.00  0.00     0.051 A 
ATOM      5  C5  IND d   1       4.143   5.691   2.007  0.00  0.00    -0.031 A 
ATOM      6  C6  IND d   1       5.332   5.997   1.376  0.00  0.00     0.015 A 
ATOM      7  C7  IND d   1       5.750   5.311   0.272  0.00  0.00    -0.016 A 
ATOM      8  C8  IND d   1       4.932   4.281  -0.172  0.00  0.00    -0.047 A 
ATOM      9  C9  IND d   1       3.746   3.938   0.489  0.00  0.00    -0.096 A 
ATOM     10  HN1 IND d   1       5.737   3.399  -1.783  0.00  0.00     0.298 HD
ENDROOT
TORSDOF 0
ENDMDL
