MODEL 1
REMARK minimizedAffinity 3.72634554
REMARK minimizedRMSD -1
REMARK  0 active torsions:
REMARK  status: ('A' for Active; 'I' for Inactive)
ROOT
ATOM      1  N1  IND d   1      -1.365  -2.216   0.687  0.00  0.00    -0.196 N 
ATOM      2  C2  IND d   1      -1.667  -0.976   1.179  0.00  0.00     0.054 A 
ATOM      3  C3  IND d   1      -0.563  -0.196   1.197  0.00  0.00    -0.031 A 
ATOM      4  C4  IND d   1       1.820  -0.715   0.374  0.00  0.00     0.051 A 
ATOM      5  C5  IND d   1       2.592  -1.728  -0.122  0.00  0.00    -0.031 A 
ATOM      6  C6  IND d   1       2.073  -2.980  -0.382  0.00  0.00     0.015 A 
ATOM      7  C7  IND d   1       0.754  -3.263  -0.165  0.00  0.00    -0.016 A 
ATOM      8  C8  IND d   1      -0.031  -2.239   0.346  0.00  0.00    -0.047 A 
ATOM      9  C9  IND d   1       0.500  -0.979   0.651  0.00  0.00    -0.096 A 
ATOM     10  HN1 IND d   1      -1.917  -2.871   0.604  0.00  0.00     0.298 HD
ENDROOT
TORSDOF 0
ENDMDL
