MODEL 1
REMARK minimizedAffinity 7.93132734
REMARK minimizedRMSD -1
REMARK  0 active torsions:
REMARK  status: ('A' for Active; 'I' for Inactive)
ROOT
ATOM      1  N1  IND d   1       3.217   4.515   1.407  0.00  0.00    -0.196 N 
ATOM      2  C2  IND d   1       3.754   5.554   2.116  0.00  0.00     0.054 A 
ATOM      3  C3  IND d   1       4.890   5.987   1.526  0.00  0.00    -0.031 A 
ATOM      4  C4  IND d   1       5.999   5.205  -0.662  0.00  0.00     0.051 A 
ATOM      5  C5  IND d   1       5.897   4.259  -1.643  0.00  0.00    -0.031 A 
ATOM      6  C6  IND d   1       4.875   3.332  -1.658  0.00  0.00     0.015 A 
ATOM      7  C7  IND d   1       3.905   3.325  -0.696  0.00  0.00    -0.016 A 
ATOM      8  C8  IND d   1       4.009   4.280   0.305  0.00  0.00    -0.047 A 
ATOM      9  C9  IND d   1       5.068   5.196   0.350  0.00  0.00    -0.096 A 
ATOM     10  HN1 IND d   1       2.505   4.081   1.616  0.00  0.00     0.298 HD
ENDROOT
TORSDOF 0
ENDMDL
