MODEL 1
REMARK minimizedAffinity 4.23380089
REMARK minimizedRMSD -1
REMARK  0 active torsions:
REMARK  status: ('A' for Active; 'I' for Inactive)
ROOT
ATOM      1  N1  IND d   1       3.902  -2.734  -0.147  0.00  0.00    -0.196 N 
ATOM      2  C2  IND d   1       3.672  -4.064  -0.363  0.00  0.00     0.054 A 
ATOM      3  C3  IND d   1       2.359  -4.346  -0.207  0.00  0.00    -0.031 A 
ATOM      4  C4  IND d   1       0.396  -2.760   0.302  0.00  0.00     0.051 A 
ATOM      5  C5  IND d   1       0.115  -1.460   0.616  0.00  0.00    -0.031 A 
ATOM      6  C6  IND d   1       1.101  -0.498   0.691  0.00  0.00     0.015 A 
ATOM      7  C7  IND d   1       2.410  -0.800   0.443  0.00  0.00    -0.016 A 
ATOM      8  C8  IND d   1       2.700  -2.120   0.130  0.00  0.00    -0.047 A 
ATOM      9  C9  IND d   1       1.709  -3.110   0.094  0.00  0.00    -0.096 A 
ATOM     10  HN1 IND d   1       4.669  -2.346  -0.178  0.00  0.00     0.298 HD
ENDROOT
TORSDOF 0
ENDMDL
