MODEL 1
REMARK minimizedAffinity -4.552073
REMARK minimizedRMSD -1
REMARK  1 active torsions:
REMARK  status: ('A' for Active; 'I' for Inactive)
REMARK    1  A    between atoms: C1_2  and  C2_3 
ROOT
ATOM      1  C2  UNL d   1      -0.089  -0.865  -0.479  0.00  0.00    -0.077 A 
ATOM      2  C3  UNL d   1       0.475  -0.833  -1.762  0.00  0.00     0.002 A 
ATOM      3  C4  UNL d   1       0.663  -2.014  -2.481  0.00  0.00     0.002 A 
ATOM      4  C5  UNL d   1       0.285  -3.236  -1.928  0.00  0.00    -0.004 A 
ATOM      5  C6  UNL d   1      -0.275  -3.279  -0.652  0.00  0.00     0.002 A 
ATOM      6  C7  UNL d   1      -0.462  -2.099   0.069  0.00  0.00     0.002 A 
ENDROOT
BRANCH   1   7
ATOM      7  C1  UNL d   1      -0.338   0.413   0.279  0.00  0.00     0.055 C 
ATOM      8  C   UNL d   1       0.338   1.597  -0.397  0.00  0.00     0.019 C 
ENDBRANCH   1   7
TORSDOF 1
ENDMDL
