MODEL 1
REMARK minimizedAffinity -5.64050961
REMARK minimizedRMSD -1
REMARK  1 active torsions:
REMARK  status: ('A' for Active; 'I' for Inactive)
REMARK    1  A    between atoms: C1_2  and  C2_3 
ROOT
ATOM      1  C2  UNL d   1       0.046  -1.448  -0.033  0.00  0.00    -0.077 A 
ATOM      2  C3  UNL d   1       0.176  -1.506  -1.428  0.00  0.00     0.002 A 
ATOM      3  C4  UNL d   1       0.063  -2.726  -2.097  0.00  0.00     0.002 A 
ATOM      4  C5  UNL d   1      -0.184  -3.896  -1.382  0.00  0.00    -0.004 A 
ATOM      5  C6  UNL d   1      -0.313  -3.848   0.006  0.00  0.00     0.002 A 
ATOM      6  C7  UNL d   1      -0.200  -2.630   0.677  0.00  0.00     0.002 A 
ENDROOT
BRANCH   1   7
ATOM      7  C1  UNL d   1       0.118  -0.126   0.686  0.00  0.00     0.055 C 
ATOM      8  C   UNL d   1       0.025   1.039  -0.288  0.00  0.00     0.019 C 
ENDBRANCH   1   7
TORSDOF 1
ENDMDL
