MODEL 1
REMARK minimizedAffinity -4.75377226
REMARK minimizedRMSD -1
REMARK  1 active torsions:
REMARK  status: ('A' for Active; 'I' for Inactive)
REMARK    1  A    between atoms: C1_2  and  C2_3 
ROOT
ATOM      1  C2  UNL d   1      -0.093   0.149  -0.314  0.00  0.00    -0.077 A 
ATOM      2  C3  UNL d   1       0.618  -0.981  -0.742  0.00  0.00     0.002 A 
ATOM      3  C4  UNL d   1       0.404  -2.220  -0.135  0.00  0.00     0.002 A 
ATOM      4  C5  UNL d   1      -0.523  -2.342   0.898  0.00  0.00    -0.004 A 
ATOM      5  C6  UNL d   1      -1.234  -1.223   1.331  0.00  0.00     0.002 A 
ATOM      6  C7  UNL d   1      -1.020   0.017   0.727  0.00  0.00     0.002 A 
ENDROOT
BRANCH   1   7
ATOM      7  C1  UNL d   1       0.101   1.477  -1.000  0.00  0.00     0.055 C 
ATOM      8  C   UNL d   1       0.764   2.486  -0.074  0.00  0.00     0.019 C 
ENDBRANCH   1   7
TORSDOF 1
ENDMDL
