MODEL 1
REMARK minimizedAffinity -4.51741314
REMARK minimizedRMSD -1
REMARK  1 active torsions:
REMARK  status: ('A' for Active; 'I' for Inactive)
REMARK    1  A    between atoms: C1_2  and  C2_3 
ROOT
ATOM      1  C2  UNL d   1      -0.609  -1.257  -0.158  0.00  0.00    -0.077 A 
ATOM      2  C3  UNL d   1      -0.592  -0.018   0.499  0.00  0.00     0.002 A 
ATOM      3  C4  UNL d   1      -0.168   1.131  -0.172  0.00  0.00     0.002 A 
ATOM      4  C5  UNL d   1       0.238   1.053  -1.503  0.00  0.00    -0.004 A 
ATOM      5  C6  UNL d   1       0.226  -0.174  -2.164  0.00  0.00     0.002 A 
ATOM      6  C7  UNL d   1      -0.196  -1.324  -1.495  0.00  0.00     0.002 A 
ENDROOT
BRANCH   1   7
ATOM      7  C1  UNL d   1      -1.113  -2.488   0.548  0.00  0.00     0.055 C 
ATOM      8  C   UNL d   1      -0.756  -3.752  -0.220  0.00  0.00     0.019 C 
ENDBRANCH   1   7
TORSDOF 1
ENDMDL
