MODEL 1
REMARK minimizedAffinity -5.84513807
REMARK minimizedRMSD -1
REMARK  1 active torsions:
REMARK  status: ('A' for Active; 'I' for Inactive)
REMARK    1  A    between atoms: C1_2  and  C2_3 
ROOT
ATOM      1  C2  UNL d   1      -0.023  -0.838  -0.795  0.00  0.00    -0.077 A 
ATOM      2  C3  UNL d   1       0.065  -1.738  -1.866  0.00  0.00     0.002 A 
ATOM      3  C4  UNL d   1       0.126  -3.113  -1.630  0.00  0.00     0.002 A 
ATOM      4  C5  UNL d   1       0.096  -3.599  -0.324  0.00  0.00    -0.004 A 
ATOM      5  C6  UNL d   1       0.012  -2.711   0.748  0.00  0.00     0.002 A 
ATOM      6  C7  UNL d   1      -0.048  -1.337   0.513  0.00  0.00     0.002 A 
ENDROOT
BRANCH   1   7
ATOM      7  C1  UNL d   1      -0.139   0.643  -1.050  0.00  0.00     0.055 C 
ATOM      8  C   UNL d   1       0.600   1.446   0.011  0.00  0.00     0.019 C 
ENDBRANCH   1   7
TORSDOF 1
ENDMDL
