MODEL 1
REMARK minimizedAffinity -2.3487699
REMARK minimizedRMSD -1
REMARK  1 active torsions:
REMARK  status: ('A' for Active; 'I' for Inactive)
REMARK    1  A    between atoms: C1_2  and  C2_3 
ROOT
ATOM      1  C2  UNL d   1       0.001  -0.781  -0.575  0.00  0.00    -0.077 A 
ATOM      2  C3  UNL d   1       0.392  -1.104  -1.881  0.00  0.00     0.002 A 
ATOM      3  C4  UNL d   1       0.354  -2.428  -2.323  0.00  0.00     0.002 A 
ATOM      4  C5  UNL d   1      -0.080  -3.438  -1.466  0.00  0.00    -0.004 A 
ATOM      5  C6  UNL d   1      -0.470  -3.127  -0.164  0.00  0.00     0.002 A 
ATOM      6  C7  UNL d   1      -0.430  -1.804   0.279  0.00  0.00     0.002 A 
ENDROOT
BRANCH   1   7
ATOM      7  C1  UNL d   1      -0.005   0.653  -0.112  0.00  0.00     0.055 C 
ATOM      8  C   UNL d   1       0.118   1.613  -1.286  0.00  0.00     0.019 C 
ENDBRANCH   1   7
TORSDOF 1
ENDMDL
