MODEL 1
REMARK minimizedAffinity -5.5194602
REMARK minimizedRMSD -1
REMARK  1 active torsions:
REMARK  status: ('A' for Active; 'I' for Inactive)
REMARK    1  A    between atoms: C1_2  and  C2_3 
ROOT
ATOM      1  C2  UNL d   1      -0.126  -2.160  -0.357  0.00  0.00    -0.077 A 
ATOM      2  C3  UNL d   1      -0.718  -2.190   0.913  0.00  0.00     0.002 A 
ATOM      3  C4  UNL d   1      -0.956  -1.004   1.610  0.00  0.00     0.002 A 
ATOM      4  C5  UNL d   1      -0.608   0.221   1.043  0.00  0.00    -0.004 A 
ATOM      5  C6  UNL d   1      -0.017   0.261  -0.219  0.00  0.00     0.002 A 
ATOM      6  C7  UNL d   1       0.223  -0.923  -0.916  0.00  0.00     0.002 A 
ENDROOT
BRANCH   1   7
ATOM      7  C1  UNL d   1       0.086  -3.435  -1.131  0.00  0.00     0.055 C 
ATOM      8  C   UNL d   1       0.027  -3.188  -2.632  0.00  0.00     0.019 C 
ENDBRANCH   1   7
TORSDOF 1
ENDMDL
