MODEL 1
REMARK minimizedAffinity -6.21467352
REMARK minimizedRMSD -1
REMARK  1 active torsions:
REMARK  status: ('A' for Active; 'I' for Inactive)
REMARK    1  A    between atoms: C1_2  and  C2_3 
ROOT
ATOM      1  C2  UNL d   1       0.200  -1.577  -0.656  0.00  0.00    -0.077 A 
ATOM      2  C3  UNL d   1       0.232  -2.590   0.313  0.00  0.00     0.002 A 
ATOM      3  C4  UNL d   1      -0.263  -2.356   1.597  0.00  0.00     0.002 A 
ATOM      4  C5  UNL d   1      -0.798  -1.111   1.923  0.00  0.00    -0.004 A 
ATOM      5  C6  UNL d   1      -0.833  -0.097   0.968  0.00  0.00     0.002 A 
ATOM      6  C7  UNL d   1      -0.337  -0.328  -0.316  0.00  0.00     0.002 A 
ENDROOT
BRANCH   1   7
ATOM      7  C1  UNL d   1       0.688  -1.843  -2.056  0.00  0.00     0.055 C 
ATOM      8  C   UNL d   1      -0.027  -3.035  -2.674  0.00  0.00     0.019 C 
ENDBRANCH   1   7
TORSDOF 1
ENDMDL
