MODEL 1
REMARK minimizedAffinity -6.07665777
REMARK minimizedRMSD -1
REMARK  1 active torsions:
REMARK  status: ('A' for Active; 'I' for Inactive)
REMARK    1  A    between atoms: C1_2  and  C2_3 
ROOT
ATOM      1  C2  UNL d   1      -0.421  -0.361  -0.516  0.00  0.00    -0.077 A 
ATOM      2  C3  UNL d   1      -0.014  -1.220  -1.547  0.00  0.00     0.002 A 
ATOM      3  C4  UNL d   1       0.164  -2.582  -1.301  0.00  0.00     0.002 A 
ATOM      4  C5  UNL d   1      -0.067  -3.099  -0.028  0.00  0.00    -0.004 A 
ATOM      5  C6  UNL d   1      -0.470  -2.252   1.004  0.00  0.00     0.002 A 
ATOM      6  C7  UNL d   1      -0.647  -0.889   0.761  0.00  0.00     0.002 A 
ENDROOT
BRANCH   1   7
ATOM      7  C1  UNL d   1      -0.661   1.101  -0.790  0.00  0.00     0.055 C 
ATOM      8  C   UNL d   1       0.371   1.973  -0.089  0.00  0.00     0.019 C 
ENDBRANCH   1   7
TORSDOF 1
ENDMDL
