MODEL 1
REMARK minimizedAffinity -5.74206114
REMARK minimizedRMSD -1
REMARK  1 active torsions:
REMARK  status: ('A' for Active; 'I' for Inactive)
REMARK    1  A    between atoms: C1_2  and  C2_3 
ROOT
ATOM      1  C2  UNL d   1      -0.078  -1.326  -0.226  0.00  0.00    -0.077 A 
ATOM      2  C3  UNL d   1       0.472  -1.313  -1.516  0.00  0.00     0.002 A 
ATOM      3  C4  UNL d   1       0.625  -2.503  -2.230  0.00  0.00     0.002 A 
ATOM      4  C5  UNL d   1       0.225  -3.713  -1.666  0.00  0.00    -0.004 A 
ATOM      5  C6  UNL d   1      -0.322  -3.736  -0.383  0.00  0.00     0.002 A 
ATOM      6  C7  UNL d   1      -0.473  -2.548   0.333  0.00  0.00     0.002 A 
ENDROOT
BRANCH   1   7
ATOM      7  C1  UNL d   1      -0.288  -0.038   0.527  0.00  0.00     0.055 C 
ATOM      8  C   UNL d   1      -0.139   1.169  -0.388  0.00  0.00     0.019 C 
ENDBRANCH   1   7
TORSDOF 1
ENDMDL
