MODEL 1
REMARK minimizedAffinity -5.94149113
REMARK minimizedRMSD -1
REMARK  1 active torsions:
REMARK  status: ('A' for Active; 'I' for Inactive)
REMARK    1  A    between atoms: C1_2  and  C2_3 
ROOT
ATOM      1  C2  UNL d   1      -0.303  -1.194  -0.256  0.00  0.00    -0.077 A 
ATOM      2  C3  UNL d   1       0.141  -1.385  -1.573  0.00  0.00     0.002 A 
ATOM      3  C4  UNL d   1       0.487  -2.661  -2.023  0.00  0.00     0.002 A 
ATOM      4  C5  UNL d   1       0.388  -3.755  -1.166  0.00  0.00    -0.004 A 
ATOM      5  C6  UNL d   1      -0.050  -3.575   0.145  0.00  0.00     0.002 A 
ATOM      6  C7  UNL d   1      -0.395  -2.301   0.598  0.00  0.00     0.002 A 
ENDROOT
BRANCH   1   7
ATOM      7  C1  UNL d   1      -0.723   0.173   0.217  0.00  0.00     0.055 C 
ATOM      8  C   UNL d   1      -1.537   0.088   1.500  0.00  0.00     0.019 C 
ENDBRANCH   1   7
TORSDOF 1
ENDMDL
