MODEL 1
REMARK minimizedAffinity -3.97488737
REMARK minimizedRMSD -1
REMARK  1 active torsions:
REMARK  status: ('A' for Active; 'I' for Inactive)
REMARK    1  A    between atoms: C1_2  and  C2_3 
ROOT
ATOM      1  C2  UNL d   1      -0.299  -2.011  -0.073  0.00  0.00    -0.077 A 
ATOM      2  C3  UNL d   1      -1.040  -2.008   1.117  0.00  0.00     0.002 A 
ATOM      3  C4  UNL d   1      -1.218  -0.825   1.836  0.00  0.00     0.002 A 
ATOM      4  C5  UNL d   1      -0.661   0.365   1.371  0.00  0.00    -0.004 A 
ATOM      5  C6  UNL d   1       0.079   0.372   0.190  0.00  0.00     0.002 A 
ATOM      6  C7  UNL d   1       0.259  -0.810  -0.530  0.00  0.00     0.002 A 
ENDROOT
BRANCH   1   7
ATOM      7  C1  UNL d   1      -0.149  -3.277  -0.876  0.00  0.00     0.055 C 
ATOM      8  C   UNL d   1       0.068  -2.974  -2.351  0.00  0.00     0.019 C 
ENDBRANCH   1   7
TORSDOF 1
ENDMDL
