MODEL 1
REMARK minimizedAffinity -5.32842875
REMARK minimizedRMSD -1
REMARK  1 active torsions:
REMARK  status: ('A' for Active; 'I' for Inactive)
REMARK    1  A    between atoms: C1_2  and  C2_3 
ROOT
ATOM      1  C2  UNL d   1       0.425  -0.969  -0.770  0.00  0.00    -0.077 A 
ATOM      2  C3  UNL d   1       0.761  -1.806  -1.845  0.00  0.00     0.002 A 
ATOM      3  C4  UNL d   1       0.597  -3.188  -1.741  0.00  0.00     0.002 A 
ATOM      4  C5  UNL d   1       0.094  -3.746  -0.568  0.00  0.00    -0.004 A 
ATOM      5  C6  UNL d   1      -0.241  -2.923   0.507  0.00  0.00     0.002 A 
ATOM      6  C7  UNL d   1      -0.077  -1.541   0.406  0.00  0.00     0.002 A 
ENDROOT
BRANCH   1   7
ATOM      7  C1  UNL d   1       0.555   0.526  -0.898  0.00  0.00     0.055 C 
ATOM      8  C   UNL d   1      -0.347   1.246   0.095  0.00  0.00     0.019 C 
ENDBRANCH   1   7
TORSDOF 1
ENDMDL
