MODEL 1
REMARK minimizedAffinity -0.393556625
REMARK minimizedRMSD -1
REMARK  0 active torsions:
REMARK  status: ('A' for Active; 'I' for Inactive)
ROOT
ATOM      1  C   UNL d   1      -0.331   0.201  -0.412  0.00  0.00     0.078 C 
ATOM      2  C1  UNL d   1      -1.297  -0.938  -0.545  0.00  0.00    -0.077 A 
ATOM      3  C2  UNL d   1      -2.464  -0.987   0.228  0.00  0.00    -0.001 A 
ATOM      4  C3  UNL d   1      -3.350  -2.058   0.101  0.00  0.00     0.003 A 
ATOM      5  C4  UNL d   1      -3.078  -3.089  -0.797  0.00  0.00    -0.005 A 
ATOM      6  C5  UNL d   1      -1.918  -3.049  -1.568  0.00  0.00     0.003 A 
ATOM      7  C6  UNL d   1      -1.031  -1.979  -1.443  0.00  0.00    -0.001 A 
ENDROOT
TORSDOF 0
ENDMDL
