MODEL 1
REMARK minimizedAffinity -2.98892117
REMARK minimizedRMSD -1
REMARK  0 active torsions:
REMARK  status: ('A' for Active; 'I' for Inactive)
ROOT
ATOM      1  C   UNL d   1       1.974   2.160  -4.290  0.00  0.00     0.078 C 
ATOM      2  C1  UNL d   1       1.106   0.947  -4.451  0.00  0.00    -0.077 A 
ATOM      3  C2  UNL d   1       0.898   0.062  -3.386  0.00  0.00    -0.001 A 
ATOM      4  C3  UNL d   1       0.096  -1.068  -3.554  0.00  0.00     0.003 A 
ATOM      5  C4  UNL d   1      -0.504  -1.324  -4.785  0.00  0.00    -0.005 A 
ATOM      6  C5  UNL d   1      -0.301  -0.450  -5.851  0.00  0.00     0.003 A 
ATOM      7  C6  UNL d   1       0.501   0.680  -5.686  0.00  0.00    -0.001 A 
ENDROOT
TORSDOF 0
ENDMDL
