MODEL 1
REMARK minimizedAffinity -4.28559971
REMARK minimizedRMSD -1
REMARK  0 active torsions:
REMARK  status: ('A' for Active; 'I' for Inactive)
ROOT
ATOM      1  C   UNL d   1       0.090  -0.030  -1.998  0.00  0.00     0.078 C 
ATOM      2  C1  UNL d   1       0.518   0.217  -0.583  0.00  0.00    -0.077 A 
ATOM      3  C2  UNL d   1       1.323  -0.704   0.099  0.00  0.00    -0.001 A 
ATOM      4  C3  UNL d   1       1.706  -0.466   1.420  0.00  0.00     0.003 A 
ATOM      5  C4  UNL d   1       1.288   0.694   2.071  0.00  0.00    -0.005 A 
ATOM      6  C5  UNL d   1       0.486   1.615   1.401  0.00  0.00     0.003 A 
ATOM      7  C6  UNL d   1       0.102   1.378   0.080  0.00  0.00    -0.001 A 
ENDROOT
TORSDOF 0
ENDMDL
