MODEL 1
REMARK minimizedAffinity -3.08223605
REMARK minimizedRMSD -1
REMARK  0 active torsions:
REMARK  status: ('A' for Active; 'I' for Inactive)
ROOT
ATOM      1  C   UNL d   1      -1.001  -0.872  -5.832  0.00  0.00     0.078 C 
ATOM      2  C1  UNL d   1       0.121  -0.130  -5.169  0.00  0.00    -0.077 A 
ATOM      3  C2  UNL d   1       0.879   0.812  -5.874  0.00  0.00    -0.001 A 
ATOM      4  C3  UNL d   1       1.926   1.488  -5.247  0.00  0.00     0.003 A 
ATOM      5  C4  UNL d   1       2.226   1.228  -3.911  0.00  0.00    -0.005 A 
ATOM      6  C5  UNL d   1       1.479   0.291  -3.201  0.00  0.00     0.003 A 
ATOM      7  C6  UNL d   1       0.431  -0.386  -3.827  0.00  0.00    -0.001 A 
ENDROOT
TORSDOF 0
ENDMDL
