MODEL 1
REMARK minimizedAffinity -3.13694072
REMARK minimizedRMSD -1
REMARK  1 active torsions:
REMARK  status: ('A' for Active; 'I' for Inactive)
REMARK    1  A    between atoms: C1_2  and  C2_3 
ROOT
ATOM      1  C2  UNL d   1       1.072  -0.684   0.848  0.00  0.00    -0.076 A 
ATOM      2  C3  UNL d   1      -0.041  -0.562  -0.003  0.00  0.00     0.004 A 
ATOM      3  C4  UNL d   1      -1.336  -0.738   0.479  0.00  0.00    -0.003 A 
ATOM      4  C5  UNL d   1      -1.541  -1.040   1.821  0.00  0.00     0.000 A 
ATOM      5  C6  UNL d   1      -0.450  -1.148   2.684  0.00  0.00     0.000 A 
ATOM      6  C7  UNL d   1       0.861  -0.956   2.216  0.00  0.00    -0.073 A 
ATOM      7  C8  UNL d   1       2.001  -1.091   3.189  0.00  0.00     0.078 C 
ENDROOT
BRANCH   1   8
ATOM      8  C1  UNL d   1       2.454  -0.509   0.262  0.00  0.00     0.053 C 
ATOM      9  C   UNL d   1       2.496   0.552  -0.827  0.00  0.00     0.018 C 
ENDBRANCH   1   8
TORSDOF 1
ENDMDL
