MODEL 1
REMARK minimizedAffinity -3.46427631
REMARK minimizedRMSD -1
REMARK  1 active torsions:
REMARK  status: ('A' for Active; 'I' for Inactive)
REMARK    1  A    between atoms: C1_2  and  C2_3 
ROOT
ATOM      1  C2  UNL d   1      -0.101   0.101   0.038  0.00  0.00    -0.076 A 
ATOM      2  C3  UNL d   1       1.297   0.088   0.177  0.00  0.00     0.004 A 
ATOM      3  C4  UNL d   1       1.896  -0.310   1.371  0.00  0.00    -0.003 A 
ATOM      4  C5  UNL d   1       1.106  -0.703   2.446  0.00  0.00     0.000 A 
ATOM      5  C6  UNL d   1      -0.283  -0.713   2.320  0.00  0.00     0.000 A 
ATOM      6  C7  UNL d   1      -0.902  -0.330   1.118  0.00  0.00    -0.073 A 
ATOM      7  C8  UNL d   1      -2.404  -0.354   1.040  0.00  0.00     0.078 C 
ENDROOT
BRANCH   1   8
ATOM      8  C1  UNL d   1      -0.695   0.569  -1.271  0.00  0.00     0.053 C 
ATOM      9  C   UNL d   1       0.137   1.656  -1.933  0.00  0.00     0.018 C 
ENDBRANCH   1   8
TORSDOF 1
ENDMDL
