MODEL 1
REMARK minimizedAffinity -5.75561857
REMARK minimizedRMSD -1
REMARK  1 active torsions:
REMARK  status: ('A' for Active; 'I' for Inactive)
REMARK    1  A    between atoms: C1_2  and  C2_3 
ROOT
ATOM      1  C2  UNL d   1       0.929  -0.464   0.459  0.00  0.00    -0.076 A 
ATOM      2  C3  UNL d   1       0.316  -0.040   1.651  0.00  0.00     0.004 A 
ATOM      3  C4  UNL d   1       0.808  -0.441   2.892  0.00  0.00    -0.003 A 
ATOM      4  C5  UNL d   1       1.922  -1.270   2.962  0.00  0.00     0.000 A 
ATOM      5  C6  UNL d   1       2.553  -1.685   1.790  0.00  0.00     0.000 A 
ATOM      6  C7  UNL d   1       2.080  -1.278   0.531  0.00  0.00    -0.073 A 
ATOM      7  C8  UNL d   1       2.796  -1.761  -0.701  0.00  0.00     0.078 C 
ENDROOT
BRANCH   1   8
ATOM      8  C1  UNL d   1       0.335  -0.020  -0.859  0.00  0.00     0.053 C 
ATOM      9  C   UNL d   1      -1.185   0.027  -0.826  0.00  0.00     0.018 C 
ENDBRANCH   1   8
TORSDOF 1
ENDMDL
