MODEL 1
REMARK minimizedAffinity -1.88323772
REMARK minimizedRMSD -1
REMARK  1 active torsions:
REMARK  status: ('A' for Active; 'I' for Inactive)
REMARK    1  A    between atoms: C1_2  and  C2_3 
ROOT
ATOM      1  C2  UNL d   1      -0.231   1.328  -1.510  0.00  0.00    -0.076 A 
ATOM      2  C3  UNL d   1       0.693   0.727  -0.637  0.00  0.00     0.004 A 
ATOM      3  C4  UNL d   1       0.337  -0.378   0.135  0.00  0.00    -0.003 A 
ATOM      4  C5  UNL d   1      -0.948  -0.900   0.046  0.00  0.00     0.000 A 
ATOM      5  C6  UNL d   1      -1.872  -0.328  -0.828  0.00  0.00     0.000 A 
ATOM      6  C7  UNL d   1      -1.525   0.776  -1.625  0.00  0.00    -0.073 A 
ATOM      7  C8  UNL d   1      -2.563   1.358  -2.545  0.00  0.00     0.078 C 
ENDROOT
BRANCH   1   8
ATOM      8  C1  UNL d   1       0.204   2.540  -2.301  0.00  0.00     0.053 C 
ATOM      9  C   UNL d   1      -0.642   3.768  -1.999  0.00  0.00     0.018 C 
ENDBRANCH   1   8
TORSDOF 1
ENDMDL
