MODEL 1
REMARK minimizedAffinity -5.57787132
REMARK minimizedRMSD -1
REMARK  1 active torsions:
REMARK  status: ('A' for Active; 'I' for Inactive)
REMARK    1  A    between atoms: C1_2  and  C2_3 
ROOT
ATOM      1  C2  UNL d   1       0.953  -0.886   0.345  0.00  0.00    -0.076 A 
ATOM      2  C3  UNL d   1       0.257  -0.276   1.403  0.00  0.00     0.004 A 
ATOM      3  C4  UNL d   1       0.561  -0.578   2.730  0.00  0.00    -0.003 A 
ATOM      4  C5  UNL d   1       1.566  -1.494   3.019  0.00  0.00     0.000 A 
ATOM      5  C6  UNL d   1       2.279  -2.094   1.982  0.00  0.00     0.000 A 
ATOM      6  C7  UNL d   1       1.996  -1.789   0.640  0.00  0.00    -0.073 A 
ATOM      7  C8  UNL d   1       2.792  -2.471  -0.439  0.00  0.00     0.078 C 
ENDROOT
BRANCH   1   8
ATOM      8  C1  UNL d   1       0.561  -0.540  -1.074  0.00  0.00     0.053 C 
ATOM      9  C   UNL d   1      -0.862  -0.012  -1.173  0.00  0.00     0.018 C 
ENDBRANCH   1   8
TORSDOF 1
ENDMDL
