MODEL 1
REMARK minimizedAffinity -3.53490329
REMARK minimizedRMSD -1
REMARK  1 active torsions:
REMARK  status: ('A' for Active; 'I' for Inactive)
REMARK    1  A    between atoms: C1_2  and  C2_3 
ROOT
ATOM      1  C2  UNL d   1       0.340  -0.661   0.192  0.00  0.00    -0.076 A 
ATOM      2  C3  UNL d   1      -0.711  -0.240   1.025  0.00  0.00     0.004 A 
ATOM      3  C4  UNL d   1      -0.655  -0.433   2.405  0.00  0.00    -0.003 A 
ATOM      4  C5  UNL d   1       0.454  -1.049   2.974  0.00  0.00     0.000 A 
ATOM      5  C6  UNL d   1       1.514  -1.457   2.164  0.00  0.00     0.000 A 
ATOM      6  C7  UNL d   1       1.480  -1.256   0.774  0.00  0.00    -0.073 A 
ATOM      7  C8  UNL d   1       2.648  -1.721  -0.052  0.00  0.00     0.078 C 
ENDROOT
BRANCH   1   8
ATOM      8  C1  UNL d   1       0.211  -0.450  -1.299  0.00  0.00     0.053 C 
ATOM      9  C   UNL d   1      -0.491   0.854  -1.645  0.00  0.00     0.018 C 
ENDBRANCH   1   8
TORSDOF 1
ENDMDL
