MODEL 1
REMARK minimizedAffinity -2.09876585
REMARK minimizedRMSD -1
REMARK  1 active torsions:
REMARK  status: ('A' for Active; 'I' for Inactive)
REMARK    1  A    between atoms: C1_2  and  C2_3 
ROOT
ATOM      1  C2  UNL d   1       0.042  -1.167   0.743  0.00  0.00    -0.076 A 
ATOM      2  C3  UNL d   1      -0.094  -1.624   2.065  0.00  0.00     0.004 A 
ATOM      3  C4  UNL d   1       1.025  -1.837   2.869  0.00  0.00    -0.003 A 
ATOM      4  C5  UNL d   1       2.297  -1.597   2.363  0.00  0.00     0.000 A 
ATOM      5  C6  UNL d   1       2.450  -1.127   1.059  0.00  0.00     0.000 A 
ATOM      6  C7  UNL d   1       1.332  -0.891   0.241  0.00  0.00    -0.073 A 
ATOM      7  C8  UNL d   1       1.555  -0.389  -1.159  0.00  0.00     0.078 C 
ENDROOT
BRANCH   1   8
ATOM      8  C1  UNL d   1      -1.206  -0.979  -0.090  0.00  0.00     0.053 C 
ATOM      9  C   UNL d   1      -2.299  -0.233   0.658  0.00  0.00     0.018 C 
ENDBRANCH   1   8
TORSDOF 1
ENDMDL
