MODEL 1
REMARK minimizedAffinity -1.20387304
REMARK minimizedRMSD -1
REMARK  1 active torsions:
REMARK  status: ('A' for Active; 'I' for Inactive)
REMARK    1  A    between atoms: C1_2  and  C2_3 
ROOT
ATOM      1  C2  UNL d   1      -0.070  -0.084  -1.077  0.00  0.00    -0.076 A 
ATOM      2  C3  UNL d   1      -1.001   0.234  -0.073  0.00  0.00     0.004 A 
ATOM      3  C4  UNL d   1      -0.880  -0.294   1.211  0.00  0.00    -0.003 A 
ATOM      4  C5  UNL d   1       0.174  -1.149   1.512  0.00  0.00     0.000 A 
ATOM      5  C6  UNL d   1       1.117  -1.462   0.533  0.00  0.00     0.000 A 
ATOM      6  C7  UNL d   1       1.019  -0.925  -0.762  0.00  0.00    -0.073 A 
ATOM      7  C8  UNL d   1       2.060  -1.301  -1.780  0.00  0.00     0.078 C 
ENDROOT
BRANCH   1   8
ATOM      8  C1  UNL d   1      -0.268   0.497  -2.459  0.00  0.00     0.053 C 
ATOM      9  C   UNL d   1      -0.792   1.925  -2.421  0.00  0.00     0.018 C 
ENDBRANCH   1   8
TORSDOF 1
ENDMDL
