MODEL 1
REMARK minimizedAffinity -4.58657503
REMARK minimizedRMSD -1
REMARK  1 active torsions:
REMARK  status: ('A' for Active; 'I' for Inactive)
REMARK    1  A    between atoms: C1_2  and  C2_3 
ROOT
ATOM      1  C2  UNL d   1       0.525  -0.542   0.054  0.00  0.00    -0.076 A 
ATOM      2  C3  UNL d   1       1.863  -0.300   0.410  0.00  0.00     0.004 A 
ATOM      3  C4  UNL d   1       2.282  -0.404   1.736  0.00  0.00    -0.003 A 
ATOM      4  C5  UNL d   1       1.370  -0.753   2.726  0.00  0.00     0.000 A 
ATOM      5  C6  UNL d   1       0.043  -1.014   2.387  0.00  0.00     0.000 A 
ATOM      6  C7  UNL d   1      -0.393  -0.929   1.054  0.00  0.00    -0.073 A 
ATOM      7  C8  UNL d   1      -1.837  -1.214   0.747  0.00  0.00     0.078 C 
ENDROOT
BRANCH   1   8
ATOM      8  C1  UNL d   1       0.122  -0.386  -1.395  0.00  0.00     0.053 C 
ATOM      9  C   UNL d   1      -0.208   1.053  -1.758  0.00  0.00     0.018 C 
ENDBRANCH   1   8
TORSDOF 1
ENDMDL
