MODEL 1
REMARK minimizedAffinity -5.10701656
REMARK minimizedRMSD -1
REMARK  0 active torsions:
REMARK  status: ('A' for Active; 'I' for Inactive)
ROOT
ATOM      1  C2' OXE d   1      -1.035   0.001   1.871  0.00  0.00     0.078 C 
ATOM      2  C1' OXE d   1      -0.129  -0.002  -0.786  0.00  0.00     0.078 C 
ATOM      3  C1  OXE d   1       0.704  -0.725   0.242  0.00  0.00    -0.078 A 
ATOM      4  C2  OXE d   1       0.278  -0.679   1.548  0.00  0.00    -0.078 A 
ATOM      5  C3  OXE d   1       0.980  -1.376   2.528  0.00  0.00     0.003 A 
ATOM      6  C4  OXE d   1       2.198  -1.994   2.222  0.00  0.00    -0.002 A 
ATOM      7  C5  OXE d   1       2.671  -2.019   0.906  0.00  0.00    -0.002 A 
ATOM      8  C6  OXE d   1       1.916  -1.427  -0.101  0.00  0.00     0.003 A 
ENDROOT
TORSDOF 0
ENDMDL
