MODEL 1
REMARK minimizedAffinity -4.19378281
REMARK minimizedRMSD -1
REMARK  0 active torsions:
REMARK  status: ('A' for Active; 'I' for Inactive)
ROOT
ATOM      1  C2' OXE d   1      -0.837  -0.304  -0.776  0.00  0.00     0.078 C 
ATOM      2  C1' OXE d   1       1.844  -1.136  -0.763  0.00  0.00     0.078 C 
ATOM      3  C1  OXE d   1       1.203  -0.808   0.563  0.00  0.00    -0.078 A 
ATOM      4  C2  OXE d   1      -0.095  -0.357   0.542  0.00  0.00    -0.078 A 
ATOM      5  C3  OXE d   1      -0.751  -0.093   1.741  0.00  0.00     0.003 A 
ATOM      6  C4  OXE d   1      -0.055  -0.135   2.955  0.00  0.00    -0.002 A 
ATOM      7  C5  OXE d   1       1.279  -0.554   2.994  0.00  0.00    -0.002 A 
ATOM      8  C6  OXE d   1       1.909  -0.934   1.814  0.00  0.00     0.003 A 
ENDROOT
TORSDOF 0
ENDMDL
