MODEL 1
REMARK minimizedAffinity -3.44661188
REMARK minimizedRMSD -1
REMARK  0 active torsions:
REMARK  status: ('A' for Active; 'I' for Inactive)
ROOT
ATOM      1  C2' OXE d   1      -0.768   0.609  -0.946  0.00  0.00     0.078 C 
ATOM      2  C1' OXE d   1      -2.632   0.034   1.072  0.00  0.00     0.078 C 
ATOM      3  C1  OXE d   1      -1.169  -0.146   1.393  0.00  0.00    -0.078 A 
ATOM      4  C2  OXE d   1      -0.266   0.093   0.385  0.00  0.00    -0.078 A 
ATOM      5  C3  OXE d   1       1.098  -0.005   0.644  0.00  0.00     0.003 A 
ATOM      6  C4  OXE d   1       1.553  -0.493   1.875  0.00  0.00    -0.002 A 
ATOM      7  C5  OXE d   1       0.648  -0.780   2.903  0.00  0.00    -0.002 A 
ATOM      8  C6  OXE d   1      -0.710  -0.572   2.693  0.00  0.00     0.003 A 
ENDROOT
TORSDOF 0
ENDMDL
