MODEL 1
REMARK minimizedAffinity -3.44016671
REMARK minimizedRMSD -1
REMARK  0 active torsions:
REMARK  status: ('A' for Active; 'I' for Inactive)
ROOT
ATOM      1  C2' OXE d   1       1.730  -0.919  -0.463  0.00  0.00     0.078 C 
ATOM      2  C1' OXE d   1      -0.250   0.985  -1.041  0.00  0.00     0.078 C 
ATOM      3  C1  OXE d   1      -0.335   0.260   0.278  0.00  0.00    -0.078 A 
ATOM      4  C2  OXE d   1       0.611  -0.703   0.533  0.00  0.00    -0.078 A 
ATOM      5  C3  OXE d   1       0.611  -1.363   1.758  0.00  0.00     0.003 A 
ATOM      6  C4  OXE d   1      -0.434  -1.165   2.670  0.00  0.00    -0.002 A 
ATOM      7  C5  OXE d   1      -1.430  -0.217   2.413  0.00  0.00    -0.002 A 
ATOM      8  C6  OXE d   1      -1.371   0.533   1.244  0.00  0.00     0.003 A 
ENDROOT
TORSDOF 0
ENDMDL
