MODEL 1
REMARK minimizedAffinity -4.77378845
REMARK minimizedRMSD -1
REMARK  0 active torsions:
REMARK  status: ('A' for Active; 'I' for Inactive)
ROOT
ATOM      1  C2' OXE d   1      -1.571   0.040   1.477  0.00  0.00     0.078 C 
ATOM      2  C1' OXE d   1      -0.051   0.350  -0.863  0.00  0.00     0.078 C 
ATOM      3  C1  OXE d   1       0.627  -0.253   0.342  0.00  0.00    -0.078 A 
ATOM      4  C2  OXE d   1      -0.111  -0.358   1.497  0.00  0.00    -0.078 A 
ATOM      5  C3  OXE d   1       0.450  -0.956   2.621  0.00  0.00     0.003 A 
ATOM      6  C4  OXE d   1       1.804  -1.312   2.634  0.00  0.00    -0.002 A 
ATOM      7  C5  OXE d   1       2.585  -1.177   1.481  0.00  0.00    -0.002 A 
ATOM      8  C6  OXE d   1       2.001  -0.690   0.316  0.00  0.00     0.003 A 
ENDROOT
TORSDOF 0
ENDMDL
