MODEL 1
REMARK minimizedAffinity -5.19183731
REMARK minimizedRMSD -1
REMARK  0 active torsions:
REMARK  status: ('A' for Active; 'I' for Inactive)
ROOT
ATOM      1  C2' OXE d   1      -1.356   0.004   1.119  0.00  0.00     0.078 C 
ATOM      2  C1' OXE d   1       0.954  -0.056  -0.476  0.00  0.00     0.078 C 
ATOM      3  C1  OXE d   1       1.014  -0.725   0.875  0.00  0.00    -0.078 A 
ATOM      4  C2  OXE d   1      -0.106  -0.651   1.668  0.00  0.00    -0.078 A 
ATOM      5  C3  OXE d   1      -0.123  -1.298   2.900  0.00  0.00     0.003 A 
ATOM      6  C4  OXE d   1       1.040  -1.892   3.404  0.00  0.00    -0.002 A 
ATOM      7  C5  OXE d   1       2.204  -1.944   2.630  0.00  0.00    -0.002 A 
ATOM      8  C6  OXE d   1       2.195  -1.404   1.348  0.00  0.00     0.003 A 
ENDROOT
TORSDOF 0
ENDMDL
