MODEL 1
REMARK minimizedAffinity -1.63196707
REMARK minimizedRMSD -1
REMARK  0 active torsions:
REMARK  status: ('A' for Active; 'I' for Inactive)
ROOT
ATOM      1  C2' OXE d   1      -0.135  -1.377   2.758  0.00  0.00     0.078 C 
ATOM      2  C1' OXE d   1      -2.692  -0.490   2.015  0.00  0.00     0.078 C 
ATOM      3  C1  OXE d   1      -1.583  -0.370   1.000  0.00  0.00    -0.078 A 
ATOM      4  C2  OXE d   1      -0.325  -0.763   1.388  0.00  0.00    -0.078 A 
ATOM      5  C3  OXE d   1       0.722  -0.725   0.472  0.00  0.00     0.003 A 
ATOM      6  C4  OXE d   1       0.540  -0.146  -0.790  0.00  0.00    -0.002 A 
ATOM      7  C5  OXE d   1      -0.725   0.297  -1.191  0.00  0.00    -0.002 A 
ATOM      8  C6  OXE d   1      -1.804   0.154  -0.326  0.00  0.00     0.003 A 
ENDROOT
TORSDOF 0
ENDMDL
