MODEL 1
REMARK minimizedAffinity -4.15490532
REMARK minimizedRMSD -1
REMARK  0 active torsions:
REMARK  status: ('A' for Active; 'I' for Inactive)
ROOT
ATOM      1  C2' OXE d   1      -3.058   0.208  -2.224  0.00  0.00     0.078 C 
ATOM      2  C1' OXE d   1      -0.346   0.366  -2.931  0.00  0.00     0.078 C 
ATOM      3  C1  OXE d   1      -0.684  -0.107  -1.539  0.00  0.00    -0.078 A 
ATOM      4  C2  OXE d   1      -2.011  -0.137  -1.186  0.00  0.00    -0.078 A 
ATOM      5  C3  OXE d   1      -2.381  -0.617   0.067  0.00  0.00     0.003 A 
ATOM      6  C4  OXE d   1      -1.407  -0.924   1.024  0.00  0.00    -0.002 A 
ATOM      7  C5  OXE d   1      -0.048  -0.863   0.699  0.00  0.00    -0.002 A 
ATOM      8  C6  OXE d   1       0.329  -0.498  -0.589  0.00  0.00     0.003 A 
ENDROOT
TORSDOF 0
ENDMDL
