MODEL 1
REMARK minimizedAffinity 6.31763697
REMARK minimizedRMSD -1
REMARK  0 active torsions:
REMARK  status: ('A' for Active; 'I' for Inactive)
ROOT
ATOM      1  C   UNL d   1       0.449   4.259  -0.180  0.00  0.00     0.023 A 
ATOM      2  C1  UNL d   1      -0.589   3.328  -0.191  0.00  0.00     0.003 A 
ATOM      3  C2  UNL d   1      -0.338   1.995   0.140  0.00  0.00     0.048 A 
ATOM      4  C3  UNL d   1       0.955   1.600   0.483  0.00  0.00     0.023 A 
ATOM      5  C4  UNL d   1       1.997   2.528   0.496  0.00  0.00     0.048 A 
ATOM      6  C5  UNL d   1       1.741   3.859   0.163  0.00  0.00     0.003 A 
ATOM      7  I   UNL d   1       1.332  -0.384   0.976  0.00  0.00    -0.146 I 
ENDROOT
TORSDOF 0
ENDMDL
