MODEL 1
REMARK minimizedAffinity 6.95191622
REMARK minimizedRMSD -1
REMARK  0 active torsions:
REMARK  status: ('A' for Active; 'I' for Inactive)
ROOT
ATOM      1  C   UNL d   1      -1.614   3.054  -1.497  0.00  0.00     0.023 A 
ATOM      2  C1  UNL d   1      -1.754   4.390  -1.870  0.00  0.00     0.003 A 
ATOM      3  C2  UNL d   1      -0.644   5.237  -1.867  0.00  0.00     0.048 A 
ATOM      4  C3  UNL d   1       0.603   4.741  -1.491  0.00  0.00     0.023 A 
ATOM      5  C4  UNL d   1       0.749   3.404  -1.118  0.00  0.00     0.048 A 
ATOM      6  C5  UNL d   1      -0.364   2.561  -1.121  0.00  0.00     0.003 A 
ATOM      7  I   UNL d   1       2.257   6.000  -1.487  0.00  0.00    -0.146 I 
ENDROOT
TORSDOF 0
ENDMDL
