MODEL 1
REMARK minimizedAffinity 1.82873213
REMARK minimizedRMSD -1
REMARK  0 active torsions:
REMARK  status: ('A' for Active; 'I' for Inactive)
ROOT
ATOM      1  C   UNL d   1      -5.002   5.247   1.496  0.00  0.00     0.023 A 
ATOM      2  C1  UNL d   1      -4.454   4.023   1.882  0.00  0.00     0.003 A 
ATOM      3  C2  UNL d   1      -3.294   3.550   1.266  0.00  0.00     0.048 A 
ATOM      4  C3  UNL d   1      -2.686   4.306   0.265  0.00  0.00     0.023 A 
ATOM      5  C4  UNL d   1      -3.229   5.531  -0.125  0.00  0.00     0.048 A 
ATOM      6  C5  UNL d   1      -4.390   6.000   0.494  0.00  0.00     0.003 A 
ATOM      7  I   UNL d   1      -0.958   3.604  -0.654  0.00  0.00    -0.146 I 
ENDROOT
TORSDOF 0
ENDMDL
