MODEL 1
REMARK minimizedAffinity 11.1029463
REMARK minimizedRMSD -1
REMARK  0 active torsions:
REMARK  status: ('A' for Active; 'I' for Inactive)
ROOT
ATOM      1  C   UNL d   1      -4.564   2.066  -2.089  0.00  0.00     0.023 A 
ATOM      2  C1  UNL d   1      -3.554   2.888  -2.588  0.00  0.00     0.003 A 
ATOM      3  C2  UNL d   1      -2.569   2.356  -3.423  0.00  0.00     0.048 A 
ATOM      4  C3  UNL d   1      -2.601   1.003  -3.756  0.00  0.00     0.023 A 
ATOM      5  C4  UNL d   1      -3.610   0.177  -3.259  0.00  0.00     0.048 A 
ATOM      6  C5  UNL d   1      -4.593   0.712  -2.424  0.00  0.00     0.003 A 
ATOM      7  I   UNL d   1      -1.136   0.209  -4.999  0.00  0.00    -0.146 I 
ENDROOT
TORSDOF 0
ENDMDL
