MODEL 1
REMARK minimizedAffinity 8.32913876
REMARK minimizedRMSD -1
REMARK  0 active torsions:
REMARK  status: ('A' for Active; 'I' for Inactive)
ROOT
ATOM      1  C   UNL d   1      -3.428   0.390   2.207  0.00  0.00     0.023 A 
ATOM      2  C1  UNL d   1      -4.621  -0.300   1.994  0.00  0.00     0.003 A 
ATOM      3  C2  UNL d   1      -5.358  -0.775   3.081  0.00  0.00     0.048 A 
ATOM      4  C3  UNL d   1      -4.895  -0.555   4.379  0.00  0.00     0.023 A 
ATOM      5  C4  UNL d   1      -3.702   0.136   4.596  0.00  0.00     0.048 A 
ATOM      6  C5  UNL d   1      -2.969   0.608   3.506  0.00  0.00     0.003 A 
ATOM      7  I   UNL d   1      -5.990  -1.261   5.998  0.00  0.00    -0.146 I 
ENDROOT
TORSDOF 0
ENDMDL
