MODEL 1
REMARK minimizedAffinity 7.23360014
REMARK minimizedRMSD -1
REMARK  0 active torsions:
REMARK  status: ('A' for Active; 'I' for Inactive)
ROOT
ATOM      1  C   UNL d   1       5.237  -3.443   1.981  0.00  0.00     0.023 A 
ATOM      2  C1  UNL d   1       4.547  -3.141   3.155  0.00  0.00     0.003 A 
ATOM      3  C2  UNL d   1       3.557  -2.156   3.151  0.00  0.00     0.048 A 
ATOM      4  C3  UNL d   1       3.261  -1.478   1.970  0.00  0.00     0.023 A 
ATOM      5  C4  UNL d   1       3.948  -1.777   0.792  0.00  0.00     0.048 A 
ATOM      6  C5  UNL d   1       4.938  -2.762   0.801  0.00  0.00     0.003 A 
ATOM      7  I   UNL d   1       1.788  -0.012   1.962  0.00  0.00    -0.146 I 
ENDROOT
TORSDOF 0
ENDMDL
