MODEL 1
REMARK minimizedAffinity 7.58428097
REMARK minimizedRMSD -1
REMARK  0 active torsions:
REMARK  status: ('A' for Active; 'I' for Inactive)
ROOT
ATOM      1  C   UNL d   1      -1.918   2.960  -1.506  0.00  0.00     0.023 A 
ATOM      2  C1  UNL d   1      -0.621   2.490  -1.294  0.00  0.00     0.003 A 
ATOM      3  C2  UNL d   1       0.465   3.360  -1.406  0.00  0.00     0.048 A 
ATOM      4  C3  UNL d   1       0.248   4.699  -1.730  0.00  0.00     0.023 A 
ATOM      5  C4  UNL d   1      -1.048   5.174  -1.942  0.00  0.00     0.048 A 
ATOM      6  C5  UNL d   1      -2.131   4.300  -1.829  0.00  0.00     0.003 A 
ATOM      7  I   UNL d   1       1.863   5.996  -1.897  0.00  0.00    -0.146 I 
ENDROOT
TORSDOF 0
ENDMDL
