MODEL 1
REMARK minimizedAffinity -1.85585892
REMARK minimizedRMSD -1
REMARK  0 active torsions:
REMARK  status: ('A' for Active; 'I' for Inactive)
ROOT
ATOM      1  C   UNL d   1      -5.250   5.408   1.504  0.00  0.00     0.023 A 
ATOM      2  C1  UNL d   1      -3.991   6.000   1.400  0.00  0.00     0.003 A 
ATOM      3  C2  UNL d   1      -2.850   5.202   1.294  0.00  0.00     0.048 A 
ATOM      4  C3  UNL d   1      -2.974   3.814   1.292  0.00  0.00     0.023 A 
ATOM      5  C4  UNL d   1      -4.232   3.217   1.395  0.00  0.00     0.048 A 
ATOM      6  C5  UNL d   1      -5.370   4.018   1.502  0.00  0.00     0.003 A 
ATOM      7  I   UNL d   1      -1.277   2.624   1.134  0.00  0.00    -0.146 I 
ENDROOT
TORSDOF 0
ENDMDL
