MODEL 1
REMARK minimizedAffinity -2.9608252
REMARK minimizedRMSD -1
REMARK  0 active torsions:
REMARK  status: ('A' for Active; 'I' for Inactive)
ROOT
ATOM      1  C   UNL d   1      -1.170   2.623   0.452  0.00  0.00     0.023 A 
ATOM      2  C1  UNL d   1      -2.009   2.453   1.554  0.00  0.00     0.003 A 
ATOM      3  C2  UNL d   1      -2.968   3.422   1.859  0.00  0.00     0.048 A 
ATOM      4  C3  UNL d   1      -3.083   4.557   1.058  0.00  0.00     0.023 A 
ATOM      5  C4  UNL d   1      -2.246   4.731  -0.046  0.00  0.00     0.048 A 
ATOM      6  C5  UNL d   1      -1.289   3.761  -0.346  0.00  0.00     0.003 A 
ATOM      7  I   UNL d   1      -4.509   6.000   1.510  0.00  0.00    -0.146 I 
ENDROOT
TORSDOF 0
ENDMDL
