MODEL 1
REMARK minimizedAffinity 7.29115057
REMARK minimizedRMSD -1
REMARK  0 active torsions:
REMARK  status: ('A' for Active; 'I' for Inactive)
ROOT
ATOM      1  C   UNL d   1      -1.549   2.592  -1.388  0.00  0.00     0.023 A 
ATOM      2  C1  UNL d   1      -0.210   2.267  -1.174  0.00  0.00     0.003 A 
ATOM      3  C2  UNL d   1       0.778   3.244  -1.315  0.00  0.00     0.048 A 
ATOM      4  C3  UNL d   1       0.419   4.544  -1.669  0.00  0.00     0.023 A 
ATOM      5  C4  UNL d   1      -0.920   4.874  -1.884  0.00  0.00     0.048 A 
ATOM      6  C5  UNL d   1      -1.904   3.894  -1.743  0.00  0.00     0.003 A 
ATOM      7  I   UNL d   1       1.888   6.000  -1.879  0.00  0.00    -0.146 I 
ENDROOT
TORSDOF 0
ENDMDL
