MODEL 1
REMARK minimizedAffinity -3.33523393
REMARK minimizedRMSD -1
REMARK  0 active torsions:
REMARK  status: ('A' for Active; 'I' for Inactive)
ROOT
ATOM      1  C1  DEN d   1       1.690  -0.456   0.040  0.00  0.00     0.130 A 
ATOM      2  C2  DEN d   1       1.268  -0.965  -1.262  0.00  0.00    -0.031 A 
ATOM      3  C3  DEN d   1      -0.163  -0.645  -1.436  0.00  0.00     0.027 A 
ATOM      4  C4  DEN d   1      -1.757   0.588   0.174  0.00  0.00     0.027 A 
ATOM      5  C5  DEN d   1      -1.859   1.198   1.405  0.00  0.00    -0.003 A 
ATOM      6  C6  DEN d   1      -0.802   1.269   2.274  0.00  0.00     0.001 A 
ATOM      7  C7  DEN d   1       0.415   0.760   1.905  0.00  0.00     0.017 A 
ATOM      8  C8  DEN d   1       0.523   0.137   0.669  0.00  0.00    -0.094 A 
ATOM      9  C9  DEN d   1      -0.553   0.086  -0.200  0.00  0.00    -0.072 A 
ENDROOT
TORSDOF 0
ENDMDL
