MODEL 1
REMARK minimizedAffinity -1.40523577
REMARK minimizedRMSD -1
REMARK  0 active torsions:
REMARK  status: ('A' for Active; 'I' for Inactive)
ROOT
ATOM      1  C1  DEN d   1       1.130  -0.795  -0.221  0.00  0.00     0.130 A 
ATOM      2  C2  DEN d   1       2.153  -0.438   0.758  0.00  0.00    -0.031 A 
ATOM      3  C3  DEN d   1       1.475   0.120   1.945  0.00  0.00     0.027 A 
ATOM      4  C4  DEN d   1      -1.047   0.462   2.362  0.00  0.00     0.027 A 
ATOM      5  C5  DEN d   1      -2.304   0.321   1.817  0.00  0.00    -0.003 A 
ATOM      6  C6  DEN d   1      -2.501  -0.166   0.552  0.00  0.00     0.001 A 
ATOM      7  C7  DEN d   1      -1.426  -0.573  -0.194  0.00  0.00     0.017 A 
ATOM      8  C8  DEN d   1      -0.155  -0.426   0.346  0.00  0.00    -0.094 A 
ATOM      9  C9  DEN d   1       0.022   0.057   1.631  0.00  0.00    -0.072 A 
ENDROOT
TORSDOF 0
ENDMDL
