MODEL 1
REMARK minimizedAffinity -5.10463381
REMARK minimizedRMSD -1
REMARK  0 active torsions:
REMARK  status: ('A' for Active; 'I' for Inactive)
ROOT
ATOM      1  C1  DEN d   1      -2.145   0.142   0.595  0.00  0.00     0.130 A 
ATOM      2  C2  DEN d   1      -1.838  -0.609  -0.619  0.00  0.00    -0.031 A 
ATOM      3  C3  DEN d   1      -0.370  -0.727  -0.724  0.00  0.00     0.027 A 
ATOM      4  C4  DEN d   1       1.448   0.172   0.870  0.00  0.00     0.027 A 
ATOM      5  C5  DEN d   1       1.674   0.882   2.028  0.00  0.00    -0.003 A 
ATOM      6  C6  DEN d   1       0.654   1.421   2.765  0.00  0.00     0.001 A 
ATOM      7  C7  DEN d   1      -0.644   1.218   2.377  0.00  0.00     0.017 A 
ATOM      8  C8  DEN d   1      -0.880   0.509   1.206  0.00  0.00    -0.094 A 
ATOM      9  C9  DEN d   1       0.165  -0.038   0.481  0.00  0.00    -0.072 A 
ENDROOT
TORSDOF 0
ENDMDL
