MODEL 1
REMARK minimizedAffinity -3.81629062
REMARK minimizedRMSD -1
REMARK  0 active torsions:
REMARK  status: ('A' for Active; 'I' for Inactive)
ROOT
ATOM      1  C1  DEN d   1      -2.107   0.060   0.138  0.00  0.00     0.130 A 
ATOM      2  C2  DEN d   1      -2.463   0.920   1.264  0.00  0.00    -0.031 A 
ATOM      3  C3  DEN d   1      -1.240   1.163   2.056  0.00  0.00     0.027 A 
ATOM      4  C4  DEN d   1       1.156   0.301   1.648  0.00  0.00     0.027 A 
ATOM      5  C5  DEN d   1       1.946  -0.471   0.826  0.00  0.00    -0.003 A 
ATOM      6  C6  DEN d   1       1.439  -1.143  -0.255  0.00  0.00     0.001 A 
ATOM      7  C7  DEN d   1       0.111  -1.018  -0.569  0.00  0.00     0.017 A 
ATOM      8  C8  DEN d   1      -0.694  -0.247   0.260  0.00  0.00    -0.094 A 
ATOM      9  C9  DEN d   1      -0.159   0.434   1.341  0.00  0.00    -0.072 A 
ENDROOT
TORSDOF 0
ENDMDL
