MODEL 1
REMARK minimizedAffinity -2.72286844
REMARK minimizedRMSD -1
REMARK  0 active torsions:
REMARK  status: ('A' for Active; 'I' for Inactive)
ROOT
ATOM      1  C1  DEN d   1      -0.099   0.704   2.259  0.00  0.00     0.130 A 
ATOM      2  C2  DEN d   1      -1.427   0.973   2.803  0.00  0.00    -0.031 A 
ATOM      3  C3  DEN d   1      -2.425   0.441   1.853  0.00  0.00     0.027 A 
ATOM      4  C4  DEN d   1      -2.046  -0.771  -0.391  0.00  0.00     0.027 A 
ATOM      5  C5  DEN d   1      -1.091  -1.219  -1.277  0.00  0.00    -0.003 A 
ATOM      6  C6  DEN d   1       0.249  -1.030  -1.065  0.00  0.00     0.001 A 
ATOM      7  C7  DEN d   1       0.674  -0.415   0.082  0.00  0.00     0.017 A 
ATOM      8  C8  DEN d   1      -0.283   0.047   0.977  0.00  0.00    -0.094 A 
ATOM      9  C9  DEN d   1      -1.632  -0.165   0.750  0.00  0.00    -0.072 A 
ENDROOT
TORSDOF 0
ENDMDL
