MODEL 1
REMARK minimizedAffinity -3.83152986
REMARK minimizedRMSD -1
REMARK  0 active torsions:
REMARK  status: ('A' for Active; 'I' for Inactive)
ROOT
ATOM      1  C1  DEN d   1      -1.511  -0.402  -0.715  0.00  0.00     0.130 A 
ATOM      2  C2  DEN d   1      -0.313  -0.758  -1.470  0.00  0.00    -0.031 A 
ATOM      3  C3  DEN d   1       0.865  -0.359  -0.673  0.00  0.00     0.027 A 
ATOM      4  C4  DEN d   1       0.949   0.764   1.647  0.00  0.00     0.027 A 
ATOM      5  C5  DEN d   1       0.188   1.269   2.678  0.00  0.00    -0.003 A 
ATOM      6  C6  DEN d   1      -1.181   1.284   2.635  0.00  0.00     0.001 A 
ATOM      7  C7  DEN d   1      -1.833   0.742   1.559  0.00  0.00     0.017 A 
ATOM      8  C8  DEN d   1      -1.072   0.238   0.513  0.00  0.00    -0.094 A 
ATOM      9  C9  DEN d   1       0.311   0.220   0.580  0.00  0.00    -0.072 A 
ENDROOT
TORSDOF 0
ENDMDL
