MODEL 1
REMARK minimizedAffinity 6.13743925
REMARK minimizedRMSD -1
REMARK  0 active torsions:
REMARK  status: ('A' for Active; 'I' for Inactive)
ROOT
ATOM      1  C   UNL d   1       4.069   2.642  -6.000  0.00  0.00     0.077 C 
ATOM      2  C1  UNL d   1       4.347   1.559  -5.000  0.00  0.00    -0.074 A 
ATOM      3  C2  UNL d   1       5.581   1.484  -4.346  0.00  0.00    -0.005 A 
ATOM      4  C3  UNL d   1       5.821   0.477  -3.411  0.00  0.00     0.006 A 
ATOM      5  C4  UNL d   1       4.832  -0.463  -3.121  0.00  0.00    -0.005 A 
ATOM      6  C5  UNL d   1       3.592  -0.404  -3.765  0.00  0.00    -0.074 A 
ATOM      7  C6  UNL d   1       2.514  -1.401  -3.458  0.00  0.00     0.077 C 
ATOM      8  C7  UNL d   1       3.355   0.615  -4.697  0.00  0.00    -0.001 A 
ENDROOT
TORSDOF 0
ENDMDL
