MODEL 1
REMARK minimizedAffinity 10.6021528
REMARK minimizedRMSD -1
REMARK  0 active torsions:
REMARK  status: ('A' for Active; 'I' for Inactive)
ROOT
ATOM      1  C   UNL d   1      -2.066  -4.695  -3.717  0.00  0.00     0.077 C 
ATOM      2  C1  UNL d   1      -1.854  -3.223  -3.522  0.00  0.00    -0.074 A 
ATOM      3  C2  UNL d   1      -2.645  -2.496  -2.626  0.00  0.00    -0.005 A 
ATOM      4  C3  UNL d   1      -2.429  -1.129  -2.448  0.00  0.00     0.006 A 
ATOM      5  C4  UNL d   1      -1.424  -0.477  -3.163  0.00  0.00    -0.005 A 
ATOM      6  C5  UNL d   1      -0.623  -1.188  -4.062  0.00  0.00    -0.074 A 
ATOM      7  C6  UNL d   1       0.468  -0.505  -4.831  0.00  0.00     0.077 C 
ATOM      8  C7  UNL d   1      -0.841  -2.563  -4.231  0.00  0.00    -0.001 A 
ENDROOT
TORSDOF 0
ENDMDL
