MODEL 1
REMARK minimizedAffinity 10.891943
REMARK minimizedRMSD -1
REMARK  0 active torsions:
REMARK  status: ('A' for Active; 'I' for Inactive)
ROOT
ATOM      1  C   UNL d   1       2.524  -5.996   5.866  0.00  0.00     0.077 C 
ATOM      2  C1  UNL d   1       1.711  -5.422   4.745  0.00  0.00    -0.074 A 
ATOM      3  C2  UNL d   1       2.209  -4.380   3.955  0.00  0.00    -0.005 A 
ATOM      4  C3  UNL d   1       1.444  -3.863   2.909  0.00  0.00     0.006 A 
ATOM      5  C4  UNL d   1       0.176  -4.381   2.643  0.00  0.00    -0.005 A 
ATOM      6  C5  UNL d   1      -0.338  -5.422   3.422  0.00  0.00    -0.074 A 
ATOM      7  C6  UNL d   1      -1.695  -5.997   3.143  0.00  0.00     0.077 C 
ATOM      8  C7  UNL d   1       0.439  -5.942   4.466  0.00  0.00    -0.001 A 
ENDROOT
TORSDOF 0
ENDMDL
