MODEL 1
REMARK minimizedAffinity 5.31414604
REMARK minimizedRMSD -1
REMARK  0 active torsions:
REMARK  status: ('A' for Active; 'I' for Inactive)
ROOT
ATOM      1  C   UNL d   1       0.556   1.667   1.872  0.00  0.00     0.077 C 
ATOM      2  C1  UNL d   1      -0.241   0.406   2.033  0.00  0.00    -0.074 A 
ATOM      3  C2  UNL d   1      -0.108  -0.649   1.125  0.00  0.00    -0.005 A 
ATOM      4  C3  UNL d   1      -0.848  -1.819   1.293  0.00  0.00     0.006 A 
ATOM      5  C4  UNL d   1      -1.727  -1.946   2.369  0.00  0.00    -0.005 A 
ATOM      6  C5  UNL d   1      -1.873  -0.902   3.288  0.00  0.00    -0.074 A 
ATOM      7  C6  UNL d   1      -2.805  -1.026   4.456  0.00  0.00     0.077 C 
ATOM      8  C7  UNL d   1      -1.120   0.268   3.116  0.00  0.00    -0.001 A 
ENDROOT
TORSDOF 0
ENDMDL
