MODEL 1
REMARK minimizedAffinity 1.5045203
REMARK minimizedRMSD -1
REMARK  0 active torsions:
REMARK  status: ('A' for Active; 'I' for Inactive)
ROOT
ATOM      1  C   UNL d   1      -3.300  -5.904   2.283  0.00  0.00     0.077 C 
ATOM      2  C1  UNL d   1      -1.807  -5.943   2.415  0.00  0.00    -0.074 A 
ATOM      3  C2  UNL d   1      -0.985  -5.950   1.284  0.00  0.00    -0.005 A 
ATOM      4  C3  UNL d   1       0.403  -5.977   1.423  0.00  0.00     0.006 A 
ATOM      5  C4  UNL d   1       0.982  -5.996   2.693  0.00  0.00    -0.005 A 
ATOM      6  C5  UNL d   1       0.176  -5.988   3.836  0.00  0.00    -0.074 A 
ATOM      7  C6  UNL d   1       0.781  -5.999   5.208  0.00  0.00     0.077 C 
ATOM      8  C7  UNL d   1      -1.218  -5.955   3.688  0.00  0.00    -0.001 A 
ENDROOT
TORSDOF 0
ENDMDL
