MODEL 1
REMARK minimizedAffinity 3.32567024
REMARK minimizedRMSD -1
REMARK  0 active torsions:
REMARK  status: ('A' for Active; 'I' for Inactive)
ROOT
ATOM      1  C   UNL d   1      -1.374  -5.989  -0.950  0.00  0.00     0.077 C 
ATOM      2  C1  UNL d   1      -1.736  -5.985   0.505  0.00  0.00    -0.074 A 
ATOM      3  C2  UNL d   1      -3.074  -5.993   0.913  0.00  0.00    -0.005 A 
ATOM      4  C3  UNL d   1      -3.396  -5.999   2.270  0.00  0.00     0.006 A 
ATOM      5  C4  UNL d   1      -2.385  -5.998   3.232  0.00  0.00    -0.005 A 
ATOM      6  C5  UNL d   1      -1.041  -5.991   2.843  0.00  0.00    -0.074 A 
ATOM      7  C6  UNL d   1       0.058  -5.999   3.864  0.00  0.00     0.077 C 
ATOM      8  C7  UNL d   1      -0.726  -5.992   1.477  0.00  0.00    -0.001 A 
ENDROOT
TORSDOF 0
ENDMDL
