MODEL 1
REMARK minimizedAffinity 10.8116827
REMARK minimizedRMSD -1
REMARK  0 active torsions:
REMARK  status: ('A' for Active; 'I' for Inactive)
ROOT
ATOM      1  C   UNL d   1      -3.061  -5.987   2.035  0.00  0.00     0.077 C 
ATOM      2  C1  UNL d   1      -1.615  -5.992   2.434  0.00  0.00    -0.074 A 
ATOM      3  C2  UNL d   1      -0.603  -5.978   1.468  0.00  0.00    -0.005 A 
ATOM      4  C3  UNL d   1       0.737  -5.973   1.854  0.00  0.00     0.006 A 
ATOM      5  C4  UNL d   1       1.079  -5.983   3.207  0.00  0.00    -0.005 A 
ATOM      6  C5  UNL d   1       0.081  -5.996   4.187  0.00  0.00    -0.074 A 
ATOM      7  C6  UNL d   1       0.431  -5.996   5.645  0.00  0.00     0.077 C 
ATOM      8  C7  UNL d   1      -1.264  -5.994   3.791  0.00  0.00    -0.001 A 
ENDROOT
TORSDOF 0
ENDMDL
