MODEL 1
REMARK minimizedAffinity 10.5570488
REMARK minimizedRMSD -1
REMARK  0 active torsions:
REMARK  status: ('A' for Active; 'I' for Inactive)
ROOT
ATOM      1  C   UNL d   1       2.881  -1.313  -2.928  0.00  0.00     0.077 C 
ATOM      2  C1  UNL d   1       1.570  -1.852  -3.418  0.00  0.00    -0.074 A 
ATOM      3  C2  UNL d   1       1.511  -3.039  -4.155  0.00  0.00    -0.005 A 
ATOM      4  C3  UNL d   1       0.284  -3.533  -4.596  0.00  0.00     0.006 A 
ATOM      5  C4  UNL d   1      -0.895  -2.846  -4.305  0.00  0.00    -0.005 A 
ATOM      6  C5  UNL d   1      -0.856  -1.658  -3.569  0.00  0.00    -0.074 A 
ATOM      7  C6  UNL d   1      -2.115  -0.912  -3.239  0.00  0.00     0.077 C 
ATOM      8  C7  UNL d   1       0.380  -1.172  -3.123  0.00  0.00    -0.001 A 
ENDROOT
TORSDOF 0
ENDMDL
