MODEL 1
REMARK minimizedAffinity 11.3198214
REMARK minimizedRMSD -1
REMARK  0 active torsions:
REMARK  status: ('A' for Active; 'I' for Inactive)
ROOT
ATOM      1  C   UNL d   1       1.515  -5.969   3.012  0.00  0.00     0.077 C 
ATOM      2  C1  UNL d   1       0.016  -5.980   3.051  0.00  0.00    -0.074 A 
ATOM      3  C2  UNL d   1      -0.671  -5.966   4.269  0.00  0.00    -0.005 A 
ATOM      4  C3  UNL d   1      -2.066  -5.967   4.290  0.00  0.00     0.006 A 
ATOM      5  C4  UNL d   1      -2.786  -5.982   3.095  0.00  0.00    -0.005 A 
ATOM      6  C5  UNL d   1      -2.116  -5.994   1.868  0.00  0.00    -0.074 A 
ATOM      7  C6  UNL d   1      -2.875  -6.000   0.574  0.00  0.00     0.077 C 
ATOM      8  C7  UNL d   1      -0.715  -5.986   1.855  0.00  0.00    -0.001 A 
ENDROOT
TORSDOF 0
ENDMDL
