MODEL 1
REMARK minimizedAffinity 7.62368107
REMARK minimizedRMSD -1
REMARK  0 active torsions:
REMARK  status: ('A' for Active; 'I' for Inactive)
ROOT
ATOM      1  C   UNL d   1      -1.711  -5.980   0.142  0.00  0.00     0.077 C 
ATOM      2  C1  UNL d   1      -0.860  -5.978   1.377  0.00  0.00    -0.074 A 
ATOM      3  C2  UNL d   1      -1.440  -5.985   2.650  0.00  0.00    -0.005 A 
ATOM      4  C3  UNL d   1      -0.635  -5.992   3.789  0.00  0.00     0.006 A 
ATOM      5  C4  UNL d   1       0.755  -5.992   3.667  0.00  0.00    -0.005 A 
ATOM      6  C5  UNL d   1       1.353  -5.986   2.403  0.00  0.00    -0.074 A 
ATOM      7  C6  UNL d   1       2.845  -5.995   2.254  0.00  0.00     0.077 C 
ATOM      8  C7  UNL d   1       0.537  -5.985   1.263  0.00  0.00    -0.001 A 
ENDROOT
TORSDOF 0
ENDMDL
