MODEL 1
REMARK minimizedAffinity 6.56414318
REMARK minimizedRMSD -1
REMARK  0 active torsions:
REMARK  status: ('A' for Active; 'I' for Inactive)
ROOT
ATOM      1  C   UNL d   1       3.734  -5.989   2.776  0.00  0.00     0.077 C 
ATOM      2  C1  UNL d   1       2.415  -5.999   3.489  0.00  0.00    -0.074 A 
ATOM      3  C2  UNL d   1       2.352  -5.998   4.886  0.00  0.00    -0.005 A 
ATOM      4  C3  UNL d   1       1.118  -5.997   5.535  0.00  0.00     0.006 A 
ATOM      5  C4  UNL d   1      -0.065  -5.998   4.794  0.00  0.00    -0.005 A 
ATOM      6  C5  UNL d   1      -0.022  -5.999   3.396  0.00  0.00    -0.074 A 
ATOM      7  C6  UNL d   1      -1.284  -5.990   2.586  0.00  0.00     0.077 C 
ATOM      8  C7  UNL d   1       1.222  -5.992   2.752  0.00  0.00    -0.001 A 
ENDROOT
TORSDOF 0
ENDMDL
