MODEL 1
REMARK minimizedAffinity 7.78853607
REMARK minimizedRMSD -1
REMARK  0 active torsions:
REMARK  status: ('A' for Active; 'I' for Inactive)
ROOT
ATOM      1  C   UNL d   1      -2.264  -5.956   0.660  0.00  0.00     0.077 C 
ATOM      2  C1  UNL d   1      -1.054  -5.978   1.546  0.00  0.00    -0.074 A 
ATOM      3  C2  UNL d   1       0.235  -5.980   1.004  0.00  0.00    -0.005 A 
ATOM      4  C3  UNL d   1       1.350  -5.991   1.841  0.00  0.00     0.006 A 
ATOM      5  C4  UNL d   1       1.189  -6.000   3.227  0.00  0.00    -0.005 A 
ATOM      6  C5  UNL d   1      -0.092  -5.997   3.788  0.00  0.00    -0.074 A 
ATOM      7  C6  UNL d   1      -0.284  -5.997   5.275  0.00  0.00     0.077 C 
ATOM      8  C7  UNL d   1      -1.208  -5.979   2.940  0.00  0.00    -0.001 A 
ENDROOT
TORSDOF 0
ENDMDL
