MODEL 1
REMARK minimizedAffinity 8.7572403
REMARK minimizedRMSD -1
REMARK  0 active torsions:
REMARK  status: ('A' for Active; 'I' for Inactive)
ROOT
ATOM      1  C   UNL d   1      -1.698  -5.988   1.735  0.00  0.00     0.077 C 
ATOM      2  C1  UNL d   1      -0.531  -5.982   2.678  0.00  0.00    -0.074 A 
ATOM      3  C2  UNL d   1      -0.726  -5.985   4.063  0.00  0.00    -0.005 A 
ATOM      4  C3  UNL d   1       0.369  -5.988   4.927  0.00  0.00     0.006 A 
ATOM      5  C4  UNL d   1       1.667  -5.989   4.416  0.00  0.00    -0.005 A 
ATOM      6  C5  UNL d   1       1.882  -5.987   3.034  0.00  0.00    -0.074 A 
ATOM      7  C6  UNL d   1       3.271  -5.998   2.468  0.00  0.00     0.077 C 
ATOM      8  C7  UNL d   1       0.776  -5.990   2.172  0.00  0.00    -0.001 A 
ENDROOT
TORSDOF 0
ENDMDL
