MODEL 1
REMARK minimizedAffinity 13.4319181
REMARK minimizedRMSD -1
REMARK  0 active torsions:
REMARK  status: ('A' for Active; 'I' for Inactive)
ROOT
ATOM      1  N1  IND d   1      -1.118  -3.518  -2.991  0.00  0.00    -0.196 N 
ATOM      2  C2  IND d   1      -1.638  -2.311  -3.368  0.00  0.00     0.054 A 
ATOM      3  C3  IND d   1      -1.954  -1.575  -2.279  0.00  0.00    -0.031 A 
ATOM      4  C4  IND d   1      -1.611  -2.112   0.215  0.00  0.00     0.051 A 
ATOM      5  C5  IND d   1      -1.205  -3.110   1.056  0.00  0.00    -0.031 A 
ATOM      6  C6  IND d   1      -0.738  -4.318   0.582  0.00  0.00     0.015 A 
ATOM      7  C7  IND d   1      -0.648  -4.571  -0.758  0.00  0.00    -0.016 A 
ATOM      8  C8  IND d   1      -1.065  -3.562  -1.615  0.00  0.00    -0.047 A 
ATOM      9  C9  IND d   1      -1.580  -2.350  -1.139  0.00  0.00    -0.096 A 
ATOM     10  HN1 IND d   1      -0.867  -4.145  -3.523  0.00  0.00     0.298 HD
ENDROOT
TORSDOF 0
ENDMDL
