MODEL 1
REMARK minimizedAffinity 5.80769205
REMARK minimizedRMSD -1
REMARK  0 active torsions:
REMARK  status: ('A' for Active; 'I' for Inactive)
ROOT
ATOM      1  N1  IND d   1      -1.877  -3.299   3.653  0.00  0.00    -0.196 N 
ATOM      2  C2  IND d   1      -2.116  -1.963   3.816  0.00  0.00     0.054 A 
ATOM      3  C3  IND d   1      -1.949  -1.309   2.645  0.00  0.00    -0.031 A 
ATOM      4  C4  IND d   1      -1.382  -2.247   0.315  0.00  0.00     0.051 A 
ATOM      5  C5  IND d   1      -1.039  -3.404  -0.327  0.00  0.00    -0.031 A 
ATOM      6  C6  IND d   1      -0.958  -4.610   0.339  0.00  0.00     0.015 A 
ATOM      7  C7  IND d   1      -1.230  -4.706   1.674  0.00  0.00    -0.016 A 
ATOM      8  C8  IND d   1      -1.573  -3.532   2.330  0.00  0.00    -0.047 A 
ATOM      9  C9  IND d   1      -1.615  -2.298   1.669  0.00  0.00    -0.096 A 
ATOM     10  HN1 IND d   1      -1.912  -3.894   4.273  0.00  0.00     0.298 HD
ENDROOT
TORSDOF 0
ENDMDL
