MODEL 1
REMARK minimizedAffinity 14.3357954
REMARK minimizedRMSD -1
REMARK  0 active torsions:
REMARK  status: ('A' for Active; 'I' for Inactive)
ROOT
ATOM      1  N1  IND d   1       3.824   2.953   0.738  0.00  0.00    -0.196 N 
ATOM      2  C2  IND d   1       4.468   2.387   1.803  0.00  0.00     0.054 A 
ATOM      3  C3  IND d   1       4.373   1.040   1.747  0.00  0.00    -0.031 A 
ATOM      4  C4  IND d   1       3.298  -0.452  -0.055  0.00  0.00     0.051 A 
ATOM      5  C5  IND d   1       2.555  -0.391  -1.200  0.00  0.00    -0.031 A 
ATOM      6  C6  IND d   1       2.193   0.811  -1.772  0.00  0.00     0.015 A 
ATOM      7  C7  IND d   1       2.571   2.004  -1.222  0.00  0.00    -0.016 A 
ATOM      8  C8  IND d   1       3.319   1.946  -0.055  0.00  0.00    -0.047 A 
ATOM      9  C9  IND d   1       3.654   0.729   0.553  0.00  0.00    -0.096 A 
ATOM     10  HN1 IND d   1       3.748   3.797   0.589  0.00  0.00     0.298 HD
ENDROOT
TORSDOF 0
ENDMDL
