MODEL 1
REMARK minimizedAffinity 11.6804714
REMARK minimizedRMSD -1
REMARK  0 active torsions:
REMARK  status: ('A' for Active; 'I' for Inactive)
ROOT
ATOM      1  N1  IND d   1       4.074   2.181  -0.058  0.00  0.00    -0.196 N 
ATOM      2  C2  IND d   1       3.346   2.423   1.074  0.00  0.00     0.054 A 
ATOM      3  C3  IND d   1       2.184   1.732   1.042  0.00  0.00    -0.031 A 
ATOM      4  C4  IND d   1       1.319   0.067  -0.720  0.00  0.00     0.051 A 
ATOM      5  C5  IND d   1       1.616  -0.451  -1.949  0.00  0.00    -0.031 A 
ATOM      6  C6  IND d   1       2.772  -0.115  -2.623  0.00  0.00     0.015 A 
ATOM      7  C7  IND d   1       3.684   0.749  -2.085  0.00  0.00    -0.016 A 
ATOM      8  C8  IND d   1       3.382   1.283  -0.841  0.00  0.00    -0.047 A 
ATOM      9  C9  IND d   1       2.190   0.978  -0.171  0.00  0.00    -0.096 A 
ATOM     10  HN1 IND d   1       4.836   2.531  -0.249  0.00  0.00     0.298 HD
ENDROOT
TORSDOF 0
ENDMDL
