MODEL 1
REMARK minimizedAffinity 5.08747196
REMARK minimizedRMSD -1
REMARK  0 active torsions:
REMARK  status: ('A' for Active; 'I' for Inactive)
ROOT
ATOM      1  N1  IND d   1      -0.809  -4.027  -2.109  0.00  0.00    -0.196 N 
ATOM      2  C2  IND d   1      -1.384  -3.173  -3.007  0.00  0.00     0.054 A 
ATOM      3  C3  IND d   1      -2.025  -2.172  -2.362  0.00  0.00    -0.031 A 
ATOM      4  C4  IND d   1      -2.171  -1.685   0.162  0.00  0.00     0.051 A 
ATOM      5  C5  IND d   1      -1.835  -2.204   1.381  0.00  0.00    -0.031 A 
ATOM      6  C6  IND d   1      -1.122  -3.379   1.501  0.00  0.00     0.015 A 
ATOM      7  C7  IND d   1      -0.708  -4.077   0.402  0.00  0.00    -0.016 A 
ATOM      8  C8  IND d   1      -1.054  -3.557  -0.837  0.00  0.00    -0.047 A 
ATOM      9  C9  IND d   1      -1.814  -2.387  -0.965  0.00  0.00    -0.096 A 
ATOM     10  HN1 IND d   1      -0.368  -4.739  -2.305  0.00  0.00     0.298 HD
ENDROOT
TORSDOF 0
ENDMDL
