MODEL 1
REMARK minimizedAffinity 8.77916622
REMARK minimizedRMSD -1
REMARK  0 active torsions:
REMARK  status: ('A' for Active; 'I' for Inactive)
ROOT
ATOM      1  N1  IND d   1       3.779  -0.216  -2.592  0.00  0.00    -0.196 N 
ATOM      2  C2  IND d   1       4.960  -0.750  -3.026  0.00  0.00     0.054 A 
ATOM      3  C3  IND d   1       6.000   0.008  -2.611  0.00  0.00    -0.031 A 
ATOM      4  C4  IND d   1       6.000   2.111  -1.125  0.00  0.00     0.051 A 
ATOM      5  C5  IND d   1       5.159   2.998  -0.514  0.00  0.00    -0.031 A 
ATOM      6  C6  IND d   1       3.787   2.855  -0.563  0.00  0.00     0.015 A 
ATOM      7  C7  IND d   1       3.203   1.808  -1.219  0.00  0.00    -0.016 A 
ATOM      8  C8  IND d   1       4.054   0.909  -1.846  0.00  0.00    -0.047 A 
ATOM      9  C9  IND d   1       5.445   1.073  -1.836  0.00  0.00    -0.096 A 
ATOM     10  HN1 IND d   1       2.996  -0.530  -2.758  0.00  0.00     0.298 HD
ENDROOT
TORSDOF 0
ENDMDL
