MODEL 1
REMARK minimizedAffinity 7.74347687
REMARK minimizedRMSD -1
REMARK  0 active torsions:
REMARK  status: ('A' for Active; 'I' for Inactive)
ROOT
ATOM      1  N1  IND d   1       4.284   1.025  -2.196  0.00  0.00    -0.196 N 
ATOM      2  C2  IND d   1       3.538   0.003  -2.712  0.00  0.00     0.054 A 
ATOM      3  C3  IND d   1       2.534  -0.321  -1.866  0.00  0.00    -0.031 A 
ATOM      4  C4  IND d   1       1.869   0.763   0.373  0.00  0.00     0.051 A 
ATOM      5  C5  IND d   1       2.273   1.707   1.274  0.00  0.00    -0.031 A 
ATOM      6  C6  IND d   1       3.389   2.490   1.060  0.00  0.00     0.015 A 
ATOM      7  C7  IND d   1       4.139   2.365  -0.075  0.00  0.00    -0.016 A 
ATOM      8  C8  IND d   1       3.736   1.402  -0.989  0.00  0.00    -0.047 A 
ATOM      9  C9  IND d   1       2.629   0.576  -0.757  0.00  0.00    -0.096 A 
ATOM     10  HN1 IND d   1       4.979   1.374  -2.563  0.00  0.00     0.298 HD
ENDROOT
TORSDOF 0
ENDMDL
