MODEL 1
REMARK minimizedAffinity 14.8879871
REMARK minimizedRMSD -1
REMARK  0 active torsions:
REMARK  status: ('A' for Active; 'I' for Inactive)
ROOT
ATOM      1  N1  IND d   1      -2.373  -0.901   3.357  0.00  0.00    -0.196 N 
ATOM      2  C2  IND d   1      -1.993  -1.680   4.415  0.00  0.00     0.054 A 
ATOM      3  C3  IND d   1      -1.322  -2.770   3.980  0.00  0.00    -0.031 A 
ATOM      4  C4  IND d   1      -0.645  -3.425   1.584  0.00  0.00     0.051 A 
ATOM      5  C5  IND d   1      -0.797  -3.047   0.280  0.00  0.00    -0.031 A 
ATOM      6  C6  IND d   1      -1.495  -1.909  -0.072  0.00  0.00     0.015 A 
ATOM      7  C7  IND d   1      -2.058  -1.098   0.872  0.00  0.00    -0.016 A 
ATOM      8  C8  IND d   1      -1.911  -1.483   2.197  0.00  0.00    -0.047 A 
ATOM      9  C9  IND d   1      -1.241  -2.659   2.558  0.00  0.00    -0.096 A 
ATOM     10  HN1 IND d   1      -2.824  -0.171   3.408  0.00  0.00     0.298 HD
ENDROOT
TORSDOF 0
ENDMDL
