MODEL 1
REMARK minimizedAffinity 9.69504261
REMARK minimizedRMSD -1
REMARK  0 active torsions:
REMARK  status: ('A' for Active; 'I' for Inactive)
ROOT
ATOM      1  N1  IND d   1      -3.620  -2.414   4.891  0.00  0.00    -0.196 N 
ATOM      2  C2  IND d   1      -2.290  -2.555   4.609  0.00  0.00     0.054 A 
ATOM      3  C3  IND d   1      -1.644  -1.381   4.790  0.00  0.00    -0.031 A 
ATOM      4  C4  IND d   1      -2.553   0.872   5.642  0.00  0.00     0.051 A 
ATOM      5  C5  IND d   1      -3.714   1.501   5.995  0.00  0.00    -0.031 A 
ATOM      6  C6  IND d   1      -4.928   0.843   6.000  0.00  0.00     0.015 A 
ATOM      7  C7  IND d   1      -5.023  -0.477   5.662  0.00  0.00    -0.016 A 
ATOM      8  C8  IND d   1      -3.848  -1.117   5.297  0.00  0.00    -0.047 A 
ATOM      9  C9  IND d   1      -2.620  -0.444   5.249  0.00  0.00    -0.096 A 
ATOM     10  HN1 IND d   1      -4.215  -3.032   4.825  0.00  0.00     0.298 HD
ENDROOT
TORSDOF 0
ENDMDL
