MODEL 1
REMARK minimizedAffinity 24.8819141
REMARK minimizedRMSD -1
REMARK  0 active torsions:
REMARK  status: ('A' for Active; 'I' for Inactive)
ROOT
ATOM      1  N1  IND d   1       4.299   5.772   5.607  0.00  0.00    -0.196 N 
ATOM      2  C2  IND d   1       3.009   5.999   6.000  0.00  0.00     0.054 A 
ATOM      3  C3  IND d   1       2.241   4.917   5.740  0.00  0.00    -0.031 A 
ATOM      4  C4  IND d   1       2.914   2.629   4.771  0.00  0.00     0.051 A 
ATOM      5  C5  IND d   1       3.974   1.959   4.228  0.00  0.00    -0.031 A 
ATOM      6  C6  IND d   1       5.222   2.536   4.117  0.00  0.00     0.015 A 
ATOM      7  C7  IND d   1       5.461   3.807   4.558  0.00  0.00    -0.016 A 
ATOM      8  C8  IND d   1       4.385   4.493   5.103  0.00  0.00    -0.047 A 
ATOM      9  C9  IND d   1       3.106   3.928   5.179  0.00  0.00    -0.096 A 
ATOM     10  HN1 IND d   1       4.947   6.334   5.666  0.00  0.00     0.298 HD
ENDROOT
TORSDOF 0
ENDMDL
