MODEL 1
REMARK minimizedAffinity 14.0871325
REMARK minimizedRMSD -1
REMARK  0 active torsions:
REMARK  status: ('A' for Active; 'I' for Inactive)
ROOT
ATOM      1  N1  IND d   1      -0.093  -5.059   0.255  0.00  0.00    -0.196 N 
ATOM      2  C2  IND d   1      -0.321  -5.784   1.391  0.00  0.00     0.054 A 
ATOM      3  C3  IND d   1      -1.147  -5.109   2.223  0.00  0.00    -0.031 A 
ATOM      4  C4  IND d   1      -2.323  -2.846   1.877  0.00  0.00     0.051 A 
ATOM      5  C5  IND d   1      -2.396  -1.791   1.012  0.00  0.00    -0.031 A 
ATOM      6  C6  IND d   1      -1.693  -1.772  -0.176  0.00  0.00     0.015 A 
ATOM      7  C7  IND d   1      -0.896  -2.817  -0.548  0.00  0.00    -0.016 A 
ATOM      8  C8  IND d   1      -0.814  -3.887   0.332  0.00  0.00    -0.047 A 
ATOM      9  C9  IND d   1      -1.492  -3.893   1.557  0.00  0.00    -0.096 A 
ATOM     10  HN1 IND d   1       0.415  -5.294  -0.397  0.00  0.00     0.298 HD
ENDROOT
TORSDOF 0
ENDMDL
