MODEL 1
REMARK minimizedAffinity 20.5852585
REMARK minimizedRMSD -1
REMARK  0 active torsions:
REMARK  status: ('A' for Active; 'I' for Inactive)
ROOT
ATOM      1  N1  IND d   1       4.599   5.348   5.327  0.00  0.00    -0.196 N 
ATOM      2  C2  IND d   1       3.442   5.626   5.999  0.00  0.00     0.054 A 
ATOM      3  C3  IND d   1       2.627   4.547   6.000  0.00  0.00    -0.031 A 
ATOM      4  C4  IND d   1       3.035   2.190   5.047  0.00  0.00     0.051 A 
ATOM      5  C5  IND d   1       3.931   1.465   4.313  0.00  0.00    -0.031 A 
ATOM      6  C6  IND d   1       5.121   2.008   3.872  0.00  0.00     0.015 A 
ATOM      7  C7  IND d   1       5.466   3.298   4.161  0.00  0.00    -0.016 A 
ATOM      8  C8  IND d   1       4.555   4.039   4.901  0.00  0.00    -0.047 A 
ATOM      9  C9  IND d   1       3.327   3.507   5.314  0.00  0.00    -0.096 A 
ATOM     10  HN1 IND d   1       5.246   5.898   5.194  0.00  0.00     0.298 HD
ENDROOT
TORSDOF 0
ENDMDL
