MODEL 1
REMARK minimizedAffinity 14.3629217
REMARK minimizedRMSD -1
REMARK  0 active torsions:
REMARK  status: ('A' for Active; 'I' for Inactive)
ROOT
ATOM      1  N1  IND d   1      -4.765   6.000   1.759  0.00  0.00    -0.196 N 
ATOM      2  C2  IND d   1      -5.958   5.909   1.098  0.00  0.00     0.054 A 
ATOM      3  C3  IND d   1      -6.000   4.779   0.356  0.00  0.00    -0.031 A 
ATOM      4  C4  IND d   1      -4.264   2.888   0.158  0.00  0.00     0.051 A 
ATOM      5  C5  IND d   1      -3.001   2.540   0.545  0.00  0.00    -0.031 A 
ATOM      6  C6  IND d   1      -2.246   3.343   1.376  0.00  0.00     0.015 A 
ATOM      7  C7  IND d   1      -2.734   4.523   1.862  0.00  0.00    -0.016 A 
ATOM      8  C8  IND d   1      -4.014   4.883   1.465  0.00  0.00    -0.047 A 
ATOM      9  C9  IND d   1      -4.768   4.093   0.588  0.00  0.00    -0.096 A 
ATOM     10  HN1 IND d   1      -4.523   6.646   2.272  0.00  0.00     0.298 HD
ENDROOT
TORSDOF 0
ENDMDL
