MODEL 1
REMARK minimizedAffinity 14.598403
REMARK minimizedRMSD -1
REMARK  0 active torsions:
REMARK  status: ('A' for Active; 'I' for Inactive)
ROOT
ATOM      1  N1  IND d   1       1.453   0.780  -1.192  0.00  0.00    -0.196 N 
ATOM      2  C2  IND d   1       2.598   0.907  -1.926  0.00  0.00     0.054 A 
ATOM      3  C3  IND d   1       2.516   0.171  -3.058  0.00  0.00    -0.031 A 
ATOM      4  C4  IND d   1       0.555  -1.235  -3.955  0.00  0.00     0.051 A 
ATOM      5  C5  IND d   1      -0.691  -1.684  -3.618  0.00  0.00    -0.031 A 
ATOM      6  C6  IND d   1      -1.300  -1.325  -2.432  0.00  0.00     0.015 A 
ATOM      7  C7  IND d   1      -0.687  -0.491  -1.541  0.00  0.00    -0.016 A 
ATOM      8  C8  IND d   1       0.581  -0.039  -1.876  0.00  0.00    -0.047 A 
ATOM      9  C9  IND d   1       1.222  -0.434  -3.058  0.00  0.00    -0.096 A 
ATOM     10  HN1 IND d   1       1.301   1.150  -0.431  0.00  0.00     0.298 HD
ENDROOT
TORSDOF 0
ENDMDL
