MODEL 1
REMARK minimizedAffinity 19.6536789
REMARK minimizedRMSD -1
REMARK  0 active torsions:
REMARK  status: ('A' for Active; 'I' for Inactive)
ROOT
ATOM      1  N1  IND d   1       3.595   2.804   1.752  0.00  0.00    -0.196 N 
ATOM      2  C2  IND d   1       3.789   1.488   1.436  0.00  0.00     0.054 A 
ATOM      3  C3  IND d   1       4.629   1.377   0.382  0.00  0.00    -0.031 A 
ATOM      4  C4  IND d   1       5.884   3.216  -0.910  0.00  0.00     0.051 A 
ATOM      5  C5  IND d   1       5.999   4.574  -1.012  0.00  0.00    -0.031 A 
ATOM      6  C6  IND d   1       5.307   5.429  -0.178  0.00  0.00     0.015 A 
ATOM      7  C7  IND d   1       4.479   4.955   0.800  0.00  0.00    -0.016 A 
ATOM      8  C8  IND d   1       4.354   3.576   0.901  0.00  0.00    -0.047 A 
ATOM      9  C9  IND d   1       5.021   2.705   0.030  0.00  0.00    -0.096 A 
ATOM     10  HN1 IND d   1       3.085   3.099   2.378  0.00  0.00     0.298 HD
ENDROOT
TORSDOF 0
ENDMDL
