MODEL 1
REMARK minimizedAffinity 18.5389099
REMARK minimizedRMSD -1
REMARK  0 active torsions:
REMARK  status: ('A' for Active; 'I' for Inactive)
ROOT
ATOM      1  N1  IND d   1      -0.485  -3.911  -1.054  0.00  0.00    -0.196 N 
ATOM      2  C2  IND d   1      -0.198  -5.053  -0.358  0.00  0.00     0.054 A 
ATOM      3  C3  IND d   1      -0.476  -4.886   0.954  0.00  0.00    -0.031 A 
ATOM      4  C4  IND d   1      -1.504  -2.860   2.164  0.00  0.00     0.051 A 
ATOM      5  C5  IND d   1      -1.902  -1.569   1.957  0.00  0.00    -0.031 A 
ATOM      6  C6  IND d   1      -1.850  -0.982   0.709  0.00  0.00     0.015 A 
ATOM      7  C7  IND d   1      -1.406  -1.671  -0.384  0.00  0.00    -0.016 A 
ATOM      8  C8  IND d   1      -0.994  -2.979  -0.176  0.00  0.00    -0.047 A 
ATOM      9  C9  IND d   1      -1.005  -3.567   1.096  0.00  0.00    -0.096 A 
ATOM     10  HN1 IND d   1      -0.368  -3.795  -1.897  0.00  0.00     0.298 HD
ENDROOT
TORSDOF 0
ENDMDL
