MODEL 1
REMARK minimizedAffinity 11.3628588
REMARK minimizedRMSD -1
REMARK  0 active torsions:
REMARK  status: ('A' for Active; 'I' for Inactive)
ROOT
ATOM      1  N1  IND d   1      -1.520  -3.134  -0.136  0.00  0.00    -0.196 N 
ATOM      2  C2  IND d   1      -2.420  -2.219   0.335  0.00  0.00     0.054 A 
ATOM      3  C3  IND d   1      -2.813  -2.548   1.586  0.00  0.00    -0.031 A 
ATOM      4  C4  IND d   1      -2.031  -4.484   3.091  0.00  0.00     0.051 A 
ATOM      5  C5  IND d   1      -1.247  -5.603   3.085  0.00  0.00    -0.031 A 
ATOM      6  C6  IND d   1      -0.495  -5.962   1.985  0.00  0.00     0.015 A 
ATOM      7  C7  IND d   1      -0.492  -5.205   0.847  0.00  0.00    -0.016 A 
ATOM      8  C8  IND d   1      -1.293  -4.072   0.846  0.00  0.00    -0.047 A 
ATOM      9  C9  IND d   1      -2.091  -3.726   1.945  0.00  0.00    -0.096 A 
ATOM     10  HN1 IND d   1      -1.156  -3.124  -0.915  0.00  0.00     0.298 HD
ENDROOT
TORSDOF 0
ENDMDL
