MODEL 1
REMARK minimizedAffinity 10.0393667
REMARK minimizedRMSD -1
REMARK  0 active torsions:
REMARK  status: ('A' for Active; 'I' for Inactive)
ROOT
ATOM      1  N1  IND d   1       4.694   3.232   3.262  0.00  0.00    -0.196 N 
ATOM      2  C2  IND d   1       3.887   2.864   4.302  0.00  0.00     0.054 A 
ATOM      3  C3  IND d   1       2.718   2.368   3.838  0.00  0.00    -0.031 A 
ATOM      4  C4  IND d   1       1.958   1.972   1.410  0.00  0.00     0.051 A 
ATOM      5  C5  IND d   1       2.338   2.184   0.115  0.00  0.00    -0.031 A 
ATOM      6  C6  IND d   1       3.548   2.765  -0.205  0.00  0.00     0.015 A 
ATOM      7  C7  IND d   1       4.433   3.147   0.764  0.00  0.00    -0.016 A 
ATOM      8  C8  IND d   1       4.047   2.940   2.081  0.00  0.00    -0.047 A 
ATOM      9  C9  IND d   1       2.802   2.390   2.412  0.00  0.00    -0.096 A 
ATOM     10  HN1 IND d   1       5.475   3.586   3.333  0.00  0.00     0.298 HD
ENDROOT
TORSDOF 0
ENDMDL
