MODEL 1
REMARK minimizedAffinity 12.6383448
REMARK minimizedRMSD -1
REMARK  0 active torsions:
REMARK  status: ('A' for Active; 'I' for Inactive)
ROOT
ATOM      1  N1  IND d   1      -0.477  -3.229  -2.797  0.00  0.00    -0.196 N 
ATOM      2  C2  IND d   1      -0.887  -2.215  -3.617  0.00  0.00     0.054 A 
ATOM      3  C3  IND d   1      -1.664  -1.343  -2.935  0.00  0.00    -0.031 A 
ATOM      4  C4  IND d   1      -2.308  -1.330  -0.443  0.00  0.00     0.051 A 
ATOM      5  C5  IND d   1      -2.203  -2.070   0.701  0.00  0.00    -0.031 A 
ATOM      6  C6  IND d   1      -1.500  -3.257   0.739  0.00  0.00     0.015 A 
ATOM      7  C7  IND d   1      -0.864  -3.744  -0.368  0.00  0.00    -0.016 A 
ATOM      8  C8  IND d   1      -0.975  -2.999  -1.533  0.00  0.00    -0.047 A 
ATOM      9  C9  IND d   1      -1.722  -1.815  -1.588  0.00  0.00    -0.096 A 
ATOM     10  HN1 IND d   1       0.010  -3.897  -3.031  0.00  0.00     0.298 HD
ENDROOT
TORSDOF 0
ENDMDL
