MODEL 1
REMARK minimizedAffinity 12.0656662
REMARK minimizedRMSD -1
REMARK  0 active torsions:
REMARK  status: ('A' for Active; 'I' for Inactive)
ROOT
ATOM      1  N1  IND d   1       3.367   0.915  -1.850  0.00  0.00    -0.196 N 
ATOM      2  C2  IND d   1       2.448  -0.082  -1.677  0.00  0.00     0.054 A 
ATOM      3  C3  IND d   1       1.978  -0.073  -0.409  0.00  0.00    -0.031 A 
ATOM      4  C4  IND d   1       2.501   1.552   1.518  0.00  0.00     0.051 A 
ATOM      5  C5  IND d   1       3.307   2.604   1.851  0.00  0.00    -0.031 A 
ATOM      6  C6  IND d   1       4.190   3.160   0.949  0.00  0.00     0.015 A 
ATOM      7  C7  IND d   1       4.293   2.690  -0.330  0.00  0.00    -0.016 A 
ATOM      8  C8  IND d   1       3.481   1.617  -0.669  0.00  0.00    -0.047 A 
ATOM      9  C9  IND d   1       2.613   1.021   0.255  0.00  0.00    -0.096 A 
ATOM     10  HN1 IND d   1       3.802   1.077  -2.574  0.00  0.00     0.298 HD
ENDROOT
TORSDOF 0
ENDMDL
