MODEL 1
REMARK minimizedAffinity 8.28366566
REMARK minimizedRMSD -1
REMARK  2 active torsions:
REMARK  status: ('A' for Active; 'I' for Inactive)
REMARK    1  A    between atoms: C2'_3  and  C1'_4 
REMARK    2  A    between atoms: C1'_4  and  C1_5 
ROOT
ATOM      1  C1  I4B d   1      -3.042  -3.929  -4.975  0.00  0.00    -0.075 A 
ATOM      2  C2  I4B d   1      -3.368  -3.819  -3.646  0.00  0.00     0.003 A 
ATOM      3  C3  I4B d   1      -2.455  -4.246  -2.651  0.00  0.00     0.002 A 
ATOM      4  C4  I4B d   1      -1.257  -4.817  -3.028  0.00  0.00    -0.004 A 
ATOM      5  C5  I4B d   1      -0.918  -4.906  -4.375  0.00  0.00     0.002 A 
ATOM      6  C6  I4B d   1      -1.811  -4.448  -5.355  0.00  0.00     0.003 A 
ENDROOT
BRANCH   1   7
ATOM      7  C1' I4B d   1      -4.043  -3.499  -6.000  0.00  0.00     0.060 C 
BRANCH   7   8
ATOM      8  C2' I4B d   1      -4.101  -1.985  -5.990  0.00  0.00    -0.013 C 
ATOM      9  C4' I4B d   1      -5.519  -1.495  -5.852  0.00  0.00     0.013 C 
ATOM     10  C3' I4B d   1      -3.247  -1.497  -4.858  0.00  0.00     0.013 C 
ENDBRANCH   7   8
ENDBRANCH   1   7
TORSDOF 2
ENDMDL
