MODEL 1
REMARK minimizedAffinity 15.9161081
REMARK minimizedRMSD -1
REMARK  2 active torsions:
REMARK  status: ('A' for Active; 'I' for Inactive)
REMARK    1  A    between atoms: C2'_3  and  C1'_4 
REMARK    2  A    between atoms: C1'_4  and  C1_5 
ROOT
ATOM      1  C1  I4B d   1      -2.368  -3.732  -4.301  0.00  0.00    -0.075 A 
ATOM      2  C2  I4B d   1      -1.063  -3.430  -4.003  0.00  0.00     0.003 A 
ATOM      3  C3  I4B d   1      -0.415  -4.066  -2.916  0.00  0.00     0.002 A 
ATOM      4  C4  I4B d   1      -1.121  -4.953  -2.129  0.00  0.00    -0.004 A 
ATOM      5  C5  I4B d   1      -2.437  -5.275  -2.447  0.00  0.00     0.002 A 
ATOM      6  C6  I4B d   1      -3.062  -4.670  -3.548  0.00  0.00     0.003 A 
ENDROOT
BRANCH   1   7
ATOM      7  C1' I4B d   1      -3.032  -3.017  -5.436  0.00  0.00     0.060 C 
BRANCH   7   8
ATOM      8  C2' I4B d   1      -4.521  -3.281  -5.347  0.00  0.00    -0.013 C 
ATOM      9  C4' I4B d   1      -5.310  -2.176  -5.999  0.00  0.00     0.013 C 
ATOM     10  C3' I4B d   1      -4.797  -4.602  -6.000  0.00  0.00     0.013 C 
ENDBRANCH   7   8
ENDBRANCH   1   7
TORSDOF 2
ENDMDL
