MODEL 1
REMARK minimizedAffinity 11.8989964
REMARK minimizedRMSD -1
REMARK  2 active torsions:
REMARK  status: ('A' for Active; 'I' for Inactive)
REMARK    1  A    between atoms: C2'_3  and  C1'_4 
REMARK    2  A    between atoms: C1'_4  and  C1_5 
ROOT
ATOM      1  C1  I4B d   1       2.152  -1.280  -1.009  0.00  0.00    -0.075 A 
ATOM      2  C2  I4B d   1       1.591  -1.044  -2.239  0.00  0.00     0.003 A 
ATOM      3  C3  I4B d   1       1.649   0.249  -2.813  0.00  0.00     0.002 A 
ATOM      4  C4  I4B d   1       2.230   1.281  -2.105  0.00  0.00    -0.004 A 
ATOM      5  C5  I4B d   1       2.819   1.035  -0.868  0.00  0.00     0.002 A 
ATOM      6  C6  I4B d   1       2.791  -0.256  -0.322  0.00  0.00     0.003 A 
ENDROOT
BRANCH   1   7
ATOM      7  C1' I4B d   1       2.043  -2.650  -0.418  0.00  0.00     0.060 C 
BRANCH   7   8
ATOM      8  C2' I4B d   1       3.371  -3.352  -0.619  0.00  0.00    -0.013 C 
ATOM      9  C4' I4B d   1       4.474  -2.659   0.136  0.00  0.00     0.013 C 
ATOM     10  C3' I4B d   1       3.216  -4.774  -0.167  0.00  0.00     0.013 C 
ENDBRANCH   7   8
ENDBRANCH   1   7
TORSDOF 2
ENDMDL
