MODEL 1
REMARK minimizedAffinity 13.6974888
REMARK minimizedRMSD -1
REMARK  2 active torsions:
REMARK  status: ('A' for Active; 'I' for Inactive)
REMARK    1  A    between atoms: C2'_3  and  C1'_4 
REMARK    2  A    between atoms: C1'_4  and  C1_5 
ROOT
ATOM      1  C1  I4B d   1       2.474  -0.848  -0.651  0.00  0.00    -0.075 A 
ATOM      2  C2  I4B d   1       1.996  -0.903  -1.937  0.00  0.00     0.003 A 
ATOM      3  C3  I4B d   1       2.097   0.226  -2.785  0.00  0.00     0.002 A 
ATOM      4  C4  I4B d   1       2.634   1.399  -2.293  0.00  0.00    -0.004 A 
ATOM      5  C5  I4B d   1       3.139   1.446  -0.997  0.00  0.00     0.002 A 
ATOM      6  C6  I4B d   1       3.070   0.313  -0.175  0.00  0.00     0.003 A 
ENDROOT
BRANCH   1   7
ATOM      7  C1' I4B d   1       2.321  -2.048   0.227  0.00  0.00     0.060 C 
BRANCH   7   8
ATOM      8  C2' I4B d   1       3.406  -3.039  -0.142  0.00  0.00    -0.013 C 
ATOM      9  C4' I4B d   1       4.728  -2.652   0.467  0.00  0.00     0.013 C 
ATOM     10  C3' I4B d   1       2.973  -4.397   0.323  0.00  0.00     0.013 C 
ENDBRANCH   7   8
ENDBRANCH   1   7
TORSDOF 2
ENDMDL
