MODEL 1
REMARK minimizedAffinity 2.4072783
REMARK minimizedRMSD -1
REMARK  2 active torsions:
REMARK  status: ('A' for Active; 'I' for Inactive)
REMARK    1  A    between atoms: C2'_3  and  C1'_4 
REMARK    2  A    between atoms: C1'_4  and  C1_5 
ROOT
ATOM      1  C1  I4B d   1       2.149  -2.270  -2.199  0.00  0.00    -0.075 A 
ATOM      2  C2  I4B d   1       1.974  -0.909  -2.192  0.00  0.00     0.003 A 
ATOM      3  C3  I4B d   1       2.552  -0.121  -1.168  0.00  0.00     0.002 A 
ATOM      4  C4  I4B d   1       3.250  -0.737  -0.149  0.00  0.00    -0.004 A 
ATOM      5  C5  I4B d   1       3.446  -2.114  -0.170  0.00  0.00     0.002 A 
ATOM      6  C6  I4B d   1       2.902  -2.885  -1.208  0.00  0.00     0.003 A 
ENDROOT
BRANCH   1   7
ATOM      7  C1' I4B d   1       1.496  -3.075  -3.278  0.00  0.00     0.060 C 
BRANCH   7   8
ATOM      8  C2' I4B d   1       0.865  -4.293  -2.634  0.00  0.00    -0.013 C 
ATOM      9  C4' I4B d   1      -0.633  -4.276  -2.787  0.00  0.00     0.013 C 
ATOM     10  C3' I4B d   1       1.460  -5.514  -3.270  0.00  0.00     0.013 C 
ENDBRANCH   7   8
ENDBRANCH   1   7
TORSDOF 2
ENDMDL
