MODEL 1
REMARK minimizedAffinity 11.7396002
REMARK minimizedRMSD -1
REMARK  2 active torsions:
REMARK  status: ('A' for Active; 'I' for Inactive)
REMARK    1  A    between atoms: C2'_3  and  C1'_4 
REMARK    2  A    between atoms: C1'_4  and  C1_5 
ROOT
ATOM      1  C1  I4B d   1       2.274  -3.559  -1.296  0.00  0.00    -0.075 A 
ATOM      2  C2  I4B d   1       3.175  -3.694  -0.270  0.00  0.00     0.003 A 
ATOM      3  C3  I4B d   1       3.849  -4.924  -0.070  0.00  0.00     0.002 A 
ATOM      4  C4  I4B d   1       3.556  -5.999  -0.884  0.00  0.00    -0.004 A 
ATOM      5  C5  I4B d   1       2.658  -5.854  -1.938  0.00  0.00     0.002 A 
ATOM      6  C6  I4B d   1       2.022  -4.622  -2.153  0.00  0.00     0.003 A 
ENDROOT
BRANCH   1   7
ATOM      7  C1' I4B d   1       1.555  -2.257  -1.457  0.00  0.00     0.060 C 
BRANCH   7   8
ATOM      8  C2' I4B d   1       1.270  -2.061  -2.933  0.00  0.00    -0.013 C 
ATOM      9  C4' I4B d   1      -0.083  -2.607  -3.303  0.00  0.00     0.013 C 
ATOM     10  C3' I4B d   1       1.363  -0.594  -3.231  0.00  0.00     0.013 C 
ENDBRANCH   7   8
ENDBRANCH   1   7
TORSDOF 2
ENDMDL
