MODEL 1
REMARK minimizedAffinity 11.0733919
REMARK minimizedRMSD -1
REMARK  2 active torsions:
REMARK  status: ('A' for Active; 'I' for Inactive)
REMARK    1  A    between atoms: C2'_3  and  C1'_4 
REMARK    2  A    between atoms: C1'_4  and  C1_5 
ROOT
ATOM      1  C1  I4B d   1       2.415  -0.826  -0.582  0.00  0.00    -0.075 A 
ATOM      2  C2  I4B d   1       1.967  -0.999  -1.868  0.00  0.00     0.003 A 
ATOM      3  C3  I4B d   1       1.843   0.113  -2.735  0.00  0.00     0.002 A 
ATOM      4  C4  I4B d   1       2.129   1.378  -2.263  0.00  0.00    -0.004 A 
ATOM      5  C5  I4B d   1       2.605   1.549  -0.966  0.00  0.00     0.002 A 
ATOM      6  C6  I4B d   1       2.761   0.438  -0.124  0.00  0.00     0.003 A 
ENDROOT
BRANCH   1   7
ATOM      7  C1' I4B d   1       2.501  -2.019   0.317  0.00  0.00     0.060 C 
BRANCH   7   8
ATOM      8  C2' I4B d   1       3.499  -2.986  -0.285  0.00  0.00    -0.013 C 
ATOM      9  C4' I4B d   1       4.834  -2.895   0.407  0.00  0.00     0.013 C 
ATOM     10  C3' I4B d   1       2.927  -4.368  -0.178  0.00  0.00     0.013 C 
ENDBRANCH   7   8
ENDBRANCH   1   7
TORSDOF 2
ENDMDL
