MODEL 1
REMARK minimizedAffinity 20.0781498
REMARK minimizedRMSD -1
REMARK  2 active torsions:
REMARK  status: ('A' for Active; 'I' for Inactive)
REMARK    1  A    between atoms: C2'_3  and  C1'_4 
REMARK    2  A    between atoms: C1'_4  and  C1_5 
ROOT
ATOM      1  C1  I4B d   1       3.207  -3.613  -0.212  0.00  0.00    -0.075 A 
ATOM      2  C2  I4B d   1       2.638  -4.852  -0.057  0.00  0.00     0.003 A 
ATOM      3  C3  I4B d   1       3.456  -5.999   0.087  0.00  0.00     0.002 A 
ATOM      4  C4  I4B d   1       4.828  -5.869   0.020  0.00  0.00    -0.004 A 
ATOM      5  C5  I4B d   1       5.404  -4.609  -0.114  0.00  0.00     0.002 A 
ATOM      6  C6  I4B d   1       4.589  -3.472  -0.219  0.00  0.00     0.003 A 
ENDROOT
BRANCH   1   7
ATOM      7  C1' I4B d   1       2.314  -2.427  -0.394  0.00  0.00     0.060 C 
BRANCH   7   8
ATOM      8  C2' I4B d   1       2.246  -2.117  -1.876  0.00  0.00    -0.013 C 
ATOM      9  C4' I4B d   1       1.279  -3.031  -2.581  0.00  0.00     0.013 C 
ATOM     10  C3' I4B d   1       1.844  -0.681  -2.030  0.00  0.00     0.013 C 
ENDBRANCH   7   8
ENDBRANCH   1   7
TORSDOF 2
ENDMDL
