MODEL 1
REMARK minimizedAffinity 11.6987095
REMARK minimizedRMSD -1
REMARK  2 active torsions:
REMARK  status: ('A' for Active; 'I' for Inactive)
REMARK    1  A    between atoms: C2'_3  and  C1'_4 
REMARK    2  A    between atoms: C1'_4  and  C1_5 
ROOT
ATOM      1  C1  I4B d   1       1.955  -0.613  -1.170  0.00  0.00    -0.075 A 
ATOM      2  C2  I4B d   1       1.456  -1.025  -2.380  0.00  0.00     0.003 A 
ATOM      3  C3  I4B d   1       1.399  -2.405  -2.696  0.00  0.00     0.002 A 
ATOM      4  C4  I4B d   1       1.896  -3.328  -1.799  0.00  0.00    -0.004 A 
ATOM      5  C5  I4B d   1       2.381  -2.910  -0.563  0.00  0.00     0.002 A 
ATOM      6  C6  I4B d   1       2.400  -1.545  -0.241  0.00  0.00     0.003 A 
ENDROOT
BRANCH   1   7
ATOM      7  C1' I4B d   1       2.030   0.853  -0.883  0.00  0.00     0.060 C 
BRANCH   7   8
ATOM      8  C2' I4B d   1       3.027   1.058   0.240  0.00  0.00    -0.013 C 
ATOM      9  C4' I4B d   1       4.213   1.861  -0.223  0.00  0.00     0.013 C 
ATOM     10  C3' I4B d   1       2.317   1.743   1.370  0.00  0.00     0.013 C 
ENDBRANCH   7   8
ENDBRANCH   1   7
TORSDOF 2
ENDMDL
