MODEL 1
REMARK minimizedAffinity 8.69340324
REMARK minimizedRMSD -1
REMARK  2 active torsions:
REMARK  status: ('A' for Active; 'I' for Inactive)
REMARK    1  A    between atoms: C2'_3  and  C1'_4 
REMARK    2  A    between atoms: C1'_4  and  C1_5 
ROOT
ATOM      1  C1  I4B d   1       2.826   3.229  -0.425  0.00  0.00    -0.075 A 
ATOM      2  C2  I4B d   1       4.036   3.527  -1.002  0.00  0.00     0.003 A 
ATOM      3  C3  I4B d   1       5.242   3.145  -0.366  0.00  0.00     0.002 A 
ATOM      4  C4  I4B d   1       5.194   2.516   0.861  0.00  0.00    -0.004 A 
ATOM      5  C5  I4B d   1       3.966   2.195   1.433  0.00  0.00     0.002 A 
ATOM      6  C6  I4B d   1       2.775   2.543   0.780  0.00  0.00     0.003 A 
ENDROOT
BRANCH   1   7
ATOM      7  C1' I4B d   1       1.573   3.677  -1.108  0.00  0.00     0.060 C 
BRANCH   7   8
ATOM      8  C2' I4B d   1       1.321   5.120  -0.722  0.00  0.00    -0.013 C 
ATOM      9  C4' I4B d   1       0.331   5.768  -1.654  0.00  0.00     0.013 C 
ATOM     10  C3' I4B d   1       0.826   5.141   0.693  0.00  0.00     0.013 C 
ENDBRANCH   7   8
ENDBRANCH   1   7
TORSDOF 2
ENDMDL
