MODEL 1
REMARK minimizedAffinity 7.37636185
REMARK minimizedRMSD -1
REMARK  2 active torsions:
REMARK  status: ('A' for Active; 'I' for Inactive)
REMARK    1  A    between atoms: C2'_3  and  C1'_4 
REMARK    2  A    between atoms: C1'_4  and  C1_5 
ROOT
ATOM      1  C1  I4B d   1       1.927  -3.617  -1.985  0.00  0.00    -0.075 A 
ATOM      2  C2  I4B d   1       1.741  -4.723  -2.776  0.00  0.00     0.003 A 
ATOM      3  C3  I4B d   1       2.580  -5.855  -2.628  0.00  0.00     0.002 A 
ATOM      4  C4  I4B d   1       3.616  -5.818  -1.717  0.00  0.00    -0.004 A 
ATOM      5  C5  I4B d   1       3.788  -4.705  -0.900  0.00  0.00     0.002 A 
ATOM      6  C6  I4B d   1       2.931  -3.602  -1.026  0.00  0.00     0.003 A 
ENDROOT
BRANCH   1   7
ATOM      7  C1' I4B d   1       1.044  -2.427  -2.191  0.00  0.00     0.060 C 
BRANCH   7   8
ATOM      8  C2' I4B d   1       1.929  -1.202  -2.294  0.00  0.00    -0.013 C 
ATOM      9  C4' I4B d   1       1.590  -0.385  -3.513  0.00  0.00     0.013 C 
ATOM     10  C3' I4B d   1       1.756  -0.399  -1.040  0.00  0.00     0.013 C 
ENDBRANCH   7   8
ENDBRANCH   1   7
TORSDOF 2
ENDMDL
