MODEL 1
REMARK minimizedAffinity 17.5905762
REMARK minimizedRMSD -1
REMARK  2 active torsions:
REMARK  status: ('A' for Active; 'I' for Inactive)
REMARK    1  A    between atoms: C2'_3  and  C1'_4 
REMARK    2  A    between atoms: C1'_4  and  C1_5 
ROOT
ATOM      1  C1  I4B d   1       3.296  -0.540  -0.783  0.00  0.00    -0.075 A 
ATOM      2  C2  I4B d   1       2.175  -1.244  -1.147  0.00  0.00     0.003 A 
ATOM      3  C3  I4B d   1       2.105  -2.640  -0.920  0.00  0.00     0.002 A 
ATOM      4  C4  I4B d   1       3.191  -3.295  -0.376  0.00  0.00    -0.004 A 
ATOM      5  C5  I4B d   1       4.318  -2.576   0.013  0.00  0.00     0.002 A 
ATOM      6  C6  I4B d   1       4.366  -1.188  -0.181  0.00  0.00     0.003 A 
ENDROOT
BRANCH   1   7
ATOM      7  C1' I4B d   1       3.349   0.928  -1.068  0.00  0.00     0.060 C 
BRANCH   7   8
ATOM      8  C2' I4B d   1       4.365   1.549  -0.131  0.00  0.00    -0.013 C 
ATOM      9  C4' I4B d   1       5.429   2.292  -0.895  0.00  0.00     0.013 C 
ATOM     10  C3' I4B d   1       3.633   2.462   0.806  0.00  0.00     0.013 C 
ENDBRANCH   7   8
ENDBRANCH   1   7
TORSDOF 2
ENDMDL
