MODEL 1
REMARK minimizedAffinity 13.2824602
REMARK minimizedRMSD -1
REMARK  2 active torsions:
REMARK  status: ('A' for Active; 'I' for Inactive)
REMARK    1  A    between atoms: C1_2  and  C2_3 
REMARK    2  A    between atoms: C2_3  and  C3_4 
ROOT
ATOM      1  C3  UNL d   1       1.259   0.134  -0.257  0.00  0.00    -0.075 A 
ATOM      2  C4  UNL d   1       1.214   0.165   1.144  0.00  0.00     0.002 A 
ATOM      3  C5  UNL d   1       0.189   0.842   1.805  0.00  0.00     0.002 A 
ATOM      4  C6  UNL d   1      -0.797   1.504   1.076  0.00  0.00    -0.004 A 
ATOM      5  C7  UNL d   1      -0.753   1.494  -0.316  0.00  0.00     0.002 A 
ATOM      6  C8  UNL d   1       0.270   0.813  -0.981  0.00  0.00     0.002 A 
ENDROOT
BRANCH   1   7
ATOM      7  C2  UNL d   1       2.349  -0.621  -0.979  0.00  0.00     0.056 C 
BRANCH   7   8
ATOM      8  C1  UNL d   1       3.757  -0.357  -0.434  0.00  0.00     0.007 C 
ATOM      9  C   UNL d   1       4.471   0.785  -1.145  0.00  0.00     0.009 C 
ENDBRANCH   7   8
ENDBRANCH   1   7
TORSDOF 2
ENDMDL
