MODEL 1
REMARK minimizedAffinity 1.96115422
REMARK minimizedRMSD -1
REMARK  2 active torsions:
REMARK  status: ('A' for Active; 'I' for Inactive)
REMARK    1  A    between atoms: C1_2  and  C2_3 
REMARK    2  A    between atoms: C2_3  and  C3_4 
ROOT
ATOM      1  C3  UNL d   1       5.248   2.179  -0.380  0.00  0.00    -0.075 A 
ATOM      2  C4  UNL d   1       3.871   2.016  -0.166  0.00  0.00     0.002 A 
ATOM      3  C5  UNL d   1       3.264   0.777  -0.372  0.00  0.00     0.002 A 
ATOM      4  C6  UNL d   1       4.021  -0.310  -0.805  0.00  0.00    -0.004 A 
ATOM      5  C7  UNL d   1       5.386  -0.155  -1.037  0.00  0.00     0.002 A 
ATOM      6  C8  UNL d   1       5.997   1.082  -0.827  0.00  0.00     0.002 A 
ENDROOT
BRANCH   1   7
ATOM      7  C2  UNL d   1       5.916   3.510  -0.130  0.00  0.00     0.056 C 
BRANCH   7   8
ATOM      8  C1  UNL d   1       5.181   4.703  -0.749  0.00  0.00     0.007 C 
ATOM      9  C   UNL d   1       5.999   5.988  -0.729  0.00  0.00     0.009 C 
ENDBRANCH   7   8
ENDBRANCH   1   7
TORSDOF 2
ENDMDL
