MODEL 1
REMARK minimizedAffinity 13.9251823
REMARK minimizedRMSD -1
REMARK  2 active torsions:
REMARK  status: ('A' for Active; 'I' for Inactive)
REMARK    1  A    between atoms: C1_2  and  C2_3 
REMARK    2  A    between atoms: C2_3  and  C3_4 
ROOT
ATOM      1  C3  UNL d   1       5.970   3.561   0.561  0.00  0.00    -0.075 A 
ATOM      2  C4  UNL d   1       5.919   3.154  -0.780  0.00  0.00     0.002 A 
ATOM      3  C5  UNL d   1       5.921   4.098  -1.807  0.00  0.00     0.002 A 
ATOM      4  C6  UNL d   1       5.963   5.458  -1.508  0.00  0.00    -0.004 A 
ATOM      5  C7  UNL d   1       5.997   5.874  -0.178  0.00  0.00     0.002 A 
ATOM      6  C8  UNL d   1       5.999   4.931   0.851  0.00  0.00     0.002 A 
ENDROOT
BRANCH   1   7
ATOM      7  C2  UNL d   1       5.998   2.544   1.677  0.00  0.00     0.056 C 
BRANCH   7   8
ATOM      8  C1  UNL d   1       5.022   2.844   2.820  0.00  0.00     0.007 C 
ATOM      9  C   UNL d   1       5.620   2.600   4.199  0.00  0.00     0.009 C 
ENDBRANCH   7   8
ENDBRANCH   1   7
TORSDOF 2
ENDMDL
