MODEL 1
REMARK minimizedAffinity 9.16653156
REMARK minimizedRMSD -1
REMARK  2 active torsions:
REMARK  status: ('A' for Active; 'I' for Inactive)
REMARK    1  A    between atoms: C1_2  and  C2_3 
REMARK    2  A    between atoms: C2_3  and  C3_4 
ROOT
ATOM      1  C3  UNL d   1       1.902   0.375  -0.029  0.00  0.00    -0.075 A 
ATOM      2  C4  UNL d   1       0.847   0.799  -0.851  0.00  0.00     0.002 A 
ATOM      3  C5  UNL d   1      -0.389   1.136  -0.300  0.00  0.00     0.002 A 
ATOM      4  C6  UNL d   1      -0.590   1.045   1.076  0.00  0.00    -0.004 A 
ATOM      5  C7  UNL d   1       0.445   0.610   1.900  0.00  0.00     0.002 A 
ATOM      6  C8  UNL d   1       1.685   0.276   1.352  0.00  0.00     0.002 A 
ENDROOT
BRANCH   1   7
ATOM      7  C2  UNL d   1       3.251   0.037  -0.616  0.00  0.00     0.056 C 
BRANCH   7   8
ATOM      8  C1  UNL d   1       4.080   1.261  -1.020  0.00  0.00     0.007 C 
ATOM      9  C   UNL d   1       5.515   1.209  -0.512  0.00  0.00     0.009 C 
ENDBRANCH   7   8
ENDBRANCH   1   7
TORSDOF 2
ENDMDL
