MODEL 1
REMARK minimizedAffinity 9.53103256
REMARK minimizedRMSD -1
REMARK  2 active torsions:
REMARK  status: ('A' for Active; 'I' for Inactive)
REMARK    1  A    between atoms: C1_2  and  C2_3 
REMARK    2  A    between atoms: C2_3  and  C3_4 
ROOT
ATOM      1  C3  UNL d   1       5.319   0.597  -0.697  0.00  0.00    -0.075 A 
ATOM      2  C4  UNL d   1       5.999  -0.344   0.090  0.00  0.00     0.002 A 
ATOM      3  C5  UNL d   1       5.374  -1.530   0.475  0.00  0.00     0.002 A 
ATOM      4  C6  UNL d   1       4.060  -1.787   0.088  0.00  0.00    -0.004 A 
ATOM      5  C7  UNL d   1       3.370  -0.852  -0.681  0.00  0.00     0.002 A 
ATOM      6  C8  UNL d   1       3.994   0.334  -1.071  0.00  0.00     0.002 A 
ENDROOT
BRANCH   1   7
ATOM      7  C2  UNL d   1       6.000   1.869  -1.142  0.00  0.00     0.056 C 
BRANCH   7   8
ATOM      8  C1  UNL d   1       5.814   3.045  -0.177  0.00  0.00     0.007 C 
ATOM      9  C   UNL d   1       4.888   4.126  -0.719  0.00  0.00     0.009 C 
ENDBRANCH   7   8
ENDBRANCH   1   7
TORSDOF 2
ENDMDL
