MODEL 1
REMARK minimizedAffinity 14.3003521
REMARK minimizedRMSD -1
REMARK  2 active torsions:
REMARK  status: ('A' for Active; 'I' for Inactive)
REMARK    1  A    between atoms: C1_2  and  C2_3 
REMARK    2  A    between atoms: C2_3  and  C3_4 
ROOT
ATOM      1  C3  UNL d   1       5.538   2.953  -0.308  0.00  0.00    -0.075 A 
ATOM      2  C4  UNL d   1       5.640   3.828   0.783  0.00  0.00     0.002 A 
ATOM      3  C5  UNL d   1       5.862   5.191   0.580  0.00  0.00     0.002 A 
ATOM      4  C6  UNL d   1       5.996   5.692  -0.713  0.00  0.00    -0.004 A 
ATOM      5  C7  UNL d   1       5.913   4.829  -1.803  0.00  0.00     0.002 A 
ATOM      6  C8  UNL d   1       5.686   3.467  -1.603  0.00  0.00     0.002 A 
ENDROOT
BRANCH   1   7
ATOM      7  C2  UNL d   1       5.267   1.483  -0.096  0.00  0.00     0.056 C 
BRANCH   7   8
ATOM      8  C1  UNL d   1       4.584   0.797  -1.283  0.00  0.00     0.007 C 
ATOM      9  C   UNL d   1       3.861  -0.488  -0.900  0.00  0.00     0.009 C 
ENDBRANCH   7   8
ENDBRANCH   1   7
TORSDOF 2
ENDMDL
