MODEL 1
REMARK minimizedAffinity 4.00098085
REMARK minimizedRMSD -1
REMARK  2 active torsions:
REMARK  status: ('A' for Active; 'I' for Inactive)
REMARK    1  A    between atoms: C1_2  and  C2_3 
REMARK    2  A    between atoms: C2_3  and  C3_4 
ROOT
ATOM      1  C3  UNL d   1       1.327  -3.700   4.694  0.00  0.00    -0.075 A 
ATOM      2  C4  UNL d   1       2.221  -4.586   5.312  0.00  0.00     0.002 A 
ATOM      3  C5  UNL d   1       1.751  -5.731   5.957  0.00  0.00     0.002 A 
ATOM      4  C6  UNL d   1       0.385  -5.999   6.000  0.00  0.00    -0.004 A 
ATOM      5  C7  UNL d   1      -0.514  -5.117   5.403  0.00  0.00     0.002 A 
ATOM      6  C8  UNL d   1      -0.046  -3.973   4.754  0.00  0.00     0.002 A 
ENDROOT
BRANCH   1   7
ATOM      7  C2  UNL d   1       1.831  -2.475   3.970  0.00  0.00     0.056 C 
BRANCH   7   8
ATOM      8  C1  UNL d   1       0.873  -1.946   2.897  0.00  0.00     0.007 C 
ATOM      9  C   UNL d   1      -0.592  -2.208   3.219  0.00  0.00     0.009 C 
ENDBRANCH   7   8
ENDBRANCH   1   7
TORSDOF 2
ENDMDL
