MODEL 1
REMARK minimizedAffinity 19.3375626
REMARK minimizedRMSD -1
REMARK  0 active torsions:
REMARK  status: ('A' for Active; 'I' for Inactive)
ROOT
ATOM      1  N1  IND d   1      -4.171   5.567  -1.500  0.00  0.00    -0.196 N 
ATOM      2  C2  IND d   1      -5.086   4.875  -0.757  0.00  0.00     0.054 A 
ATOM      3  C3  IND d   1      -4.875   3.544  -0.872  0.00  0.00    -0.031 A 
ATOM      4  C4  IND d   1      -3.025   2.286  -2.144  0.00  0.00     0.051 A 
ATOM      5  C5  IND d   1      -1.978   2.486  -3.000  0.00  0.00    -0.031 A 
ATOM      6  C6  IND d   1      -1.600   3.750  -3.406  0.00  0.00     0.015 A 
ATOM      7  C7  IND d   1      -2.250   4.866  -2.960  0.00  0.00    -0.016 A 
ATOM      8  C8  IND d   1      -3.318   4.665  -2.096  0.00  0.00    -0.047 A 
ATOM      9  C9  IND d   1      -3.733   3.383  -1.714  0.00  0.00    -0.096 A 
ATOM     10  HN1 IND d   1      -4.135   6.423  -1.582  0.00  0.00     0.298 HD
ENDROOT
TORSDOF 0
ENDMDL
