MODEL 1
REMARK minimizedAffinity 11.8554411
REMARK minimizedRMSD -1
REMARK  0 active torsions:
REMARK  status: ('A' for Active; 'I' for Inactive)
ROOT
ATOM      1  N1  IND d   1      -4.457   5.124  -0.990  0.00  0.00    -0.196 N 
ATOM      2  C2  IND d   1      -4.894   3.909  -0.542  0.00  0.00     0.054 A 
ATOM      3  C3  IND d   1      -4.327   2.912  -1.258  0.00  0.00    -0.031 A 
ATOM      4  C4  IND d   1      -2.578   3.042  -3.143  0.00  0.00     0.051 A 
ATOM      5  C5  IND d   1      -1.901   3.936  -3.924  0.00  0.00    -0.031 A 
ATOM      6  C6  IND d   1      -2.041   5.299  -3.761  0.00  0.00     0.015 A 
ATOM      7  C7  IND d   1      -2.860   5.821  -2.800  0.00  0.00    -0.016 A 
ATOM      8  C8  IND d   1      -3.555   4.917  -2.010  0.00  0.00    -0.047 A 
ATOM      9  C9  IND d   1      -3.449   3.533  -2.198  0.00  0.00    -0.096 A 
ATOM     10  HN1 IND d   1      -4.704   5.889  -0.686  0.00  0.00     0.298 HD
ENDROOT
TORSDOF 0
ENDMDL
