MODEL 1
REMARK minimizedAffinity 13.1056671
REMARK minimizedRMSD -1
REMARK  0 active torsions:
REMARK  status: ('A' for Active; 'I' for Inactive)
ROOT
ATOM      1  N1  IND d   1      -2.231   3.768  -5.609  0.00  0.00    -0.196 N 
ATOM      2  C2  IND d   1      -1.995   5.060  -5.987  0.00  0.00     0.054 A 
ATOM      3  C3  IND d   1      -2.148   5.894  -4.933  0.00  0.00    -0.031 A 
ATOM      4  C4  IND d   1      -2.682   5.342  -2.476  0.00  0.00     0.051 A 
ATOM      5  C5  IND d   1      -3.016   4.303  -1.653  0.00  0.00    -0.031 A 
ATOM      6  C6  IND d   1      -3.105   3.006  -2.116  0.00  0.00     0.015 A 
ATOM      7  C7  IND d   1      -2.850   2.697  -3.422  0.00  0.00    -0.016 A 
ATOM      8  C8  IND d   1      -2.517   3.750  -4.262  0.00  0.00    -0.047 A 
ATOM      9  C9  IND d   1      -2.467   5.074  -3.807  0.00  0.00    -0.096 A 
ATOM     10  HN1 IND d   1      -2.205   3.082  -6.126  0.00  0.00     0.298 HD
ENDROOT
TORSDOF 0
ENDMDL
