MODEL 1
REMARK minimizedAffinity 17.481741
REMARK minimizedRMSD -1
REMARK  0 active torsions:
REMARK  status: ('A' for Active; 'I' for Inactive)
ROOT
ATOM      1  N1  IND d   1      -2.223   4.546  -3.571  0.00  0.00    -0.196 N 
ATOM      2  C2  IND d   1      -2.157   3.200  -3.802  0.00  0.00     0.054 A 
ATOM      3  C3  IND d   1      -2.889   2.529  -2.884  0.00  0.00    -0.031 A 
ATOM      4  C4  IND d   1      -4.357   3.444  -0.977  0.00  0.00     0.051 A 
ATOM      5  C5  IND d   1      -4.705   4.606  -0.348  0.00  0.00    -0.031 A 
ATOM      6  C6  IND d   1      -4.236   5.833  -0.771  0.00  0.00     0.015 A 
ATOM      7  C7  IND d   1      -3.407   5.944  -1.851  0.00  0.00    -0.016 A 
ATOM      8  C8  IND d   1      -3.046   4.765  -2.488  0.00  0.00    -0.047 A 
ATOM      9  C9  IND d   1      -3.485   3.514  -2.037  0.00  0.00    -0.096 A 
ATOM     10  HN1 IND d   1      -1.818   5.153  -4.026  0.00  0.00     0.298 HD
ENDROOT
TORSDOF 0
ENDMDL
