MODEL 1
REMARK minimizedAffinity 18.5093765
REMARK minimizedRMSD -1
REMARK  0 active torsions:
REMARK  status: ('A' for Active; 'I' for Inactive)
ROOT
ATOM      1  N1  IND d   1      -5.998  -5.168  -1.170  0.00  0.00    -0.196 N 
ATOM      2  C2  IND d   1      -5.090  -5.982  -1.787  0.00  0.00     0.054 A 
ATOM      3  C3  IND d   1      -3.927  -5.998  -1.098  0.00  0.00    -0.031 A 
ATOM      4  C4  IND d   1      -3.327  -4.844   1.124  0.00  0.00     0.051 A 
ATOM      5  C5  IND d   1      -3.819  -3.966   2.048  0.00  0.00    -0.031 A 
ATOM      6  C6  IND d   1      -5.088  -3.434   1.947  0.00  0.00     0.015 A 
ATOM      7  C7  IND d   1      -5.921  -3.772   0.918  0.00  0.00    -0.016 A 
ATOM      8  C8  IND d   1      -5.423  -4.658  -0.026  0.00  0.00    -0.047 A 
ATOM      9  C9  IND d   1      -4.121  -5.168   0.049  0.00  0.00    -0.096 A 
ATOM     10  HN1 IND d   1      -6.794  -5.002  -1.449  0.00  0.00     0.298 HD
ENDROOT
TORSDOF 0
ENDMDL
