MODEL 1
REMARK minimizedAffinity 17.5350895
REMARK minimizedRMSD -1
REMARK  0 active torsions:
REMARK  status: ('A' for Active; 'I' for Inactive)
ROOT
ATOM      1  N1  IND d   1       1.883   4.958   0.468  0.00  0.00    -0.196 N 
ATOM      2  C2  IND d   1       1.141   5.999  -0.015  0.00  0.00     0.054 A 
ATOM      3  C3  IND d   1       0.253   5.558  -0.933  0.00  0.00    -0.031 A 
ATOM      4  C4  IND d   1      -0.226   3.155  -1.723  0.00  0.00     0.051 A 
ATOM      5  C5  IND d   1       0.221   1.870  -1.595  0.00  0.00    -0.031 A 
ATOM      6  C6  IND d   1       1.264   1.541  -0.753  0.00  0.00     0.015 A 
ATOM      7  C7  IND d   1       1.894   2.488   0.003  0.00  0.00    -0.016 A 
ATOM      8  C8  IND d   1       1.448   3.795  -0.130  0.00  0.00    -0.047 A 
ATOM      9  C9  IND d   1       0.418   4.141  -1.014  0.00  0.00    -0.096 A 
ATOM     10  HN1 IND d   1       2.515   5.018   1.048  0.00  0.00     0.298 HD
ENDROOT
TORSDOF 0
ENDMDL
