MODEL 1
REMARK minimizedAffinity 7.61792231
REMARK minimizedRMSD -1
REMARK  0 active torsions:
REMARK  status: ('A' for Active; 'I' for Inactive)
ROOT
ATOM      1  N1  IND d   1       1.078  -0.641   2.848  0.00  0.00    -0.196 N 
ATOM      2  C2  IND d   1       1.528  -1.498   1.884  0.00  0.00     0.054 A 
ATOM      3  C3  IND d   1       0.831  -2.656   1.920  0.00  0.00    -0.031 A 
ATOM      4  C4  IND d   1      -1.158  -3.320   3.413  0.00  0.00     0.051 A 
ATOM      5  C5  IND d   1      -1.905  -2.882   4.471  0.00  0.00    -0.031 A 
ATOM      6  C6  IND d   1      -1.693  -1.648   5.051  0.00  0.00     0.015 A 
ATOM      7  C7  IND d   1      -0.730  -0.798   4.587  0.00  0.00    -0.016 A 
ATOM      8  C8  IND d   1       0.035  -1.243   3.518  0.00  0.00    -0.047 A 
ATOM      9  C9  IND d   1      -0.147  -2.511   2.952  0.00  0.00    -0.096 A 
ATOM     10  HN1 IND d   1       1.393   0.143   3.010  0.00  0.00     0.298 HD
ENDROOT
TORSDOF 0
ENDMDL
