MODEL 1
REMARK minimizedAffinity 21.5791454
REMARK minimizedRMSD -1
REMARK  0 active torsions:
REMARK  status: ('A' for Active; 'I' for Inactive)
ROOT
ATOM      1  N1  IND d   1      -4.404   5.685  -0.996  0.00  0.00    -0.196 N 
ATOM      2  C2  IND d   1      -5.065   4.582  -0.533  0.00  0.00     0.054 A 
ATOM      3  C3  IND d   1      -4.508   3.456  -1.031  0.00  0.00    -0.031 A 
ATOM      4  C4  IND d   1      -2.442   3.184  -2.542  0.00  0.00     0.051 A 
ATOM      5  C5  IND d   1      -1.525   3.906  -3.254  0.00  0.00    -0.031 A 
ATOM      6  C6  IND d   1      -1.520   5.286  -3.247  0.00  0.00     0.015 A 
ATOM      7  C7  IND d   1      -2.427   5.998  -2.516  0.00  0.00    -0.016 A 
ATOM      8  C8  IND d   1      -3.364   5.268  -1.797  0.00  0.00    -0.047 A 
ATOM      9  C9  IND d   1      -3.401   3.868  -1.834  0.00  0.00    -0.096 A 
ATOM     10  HN1 IND d   1      -4.604   6.502  -0.816  0.00  0.00     0.298 HD
ENDROOT
TORSDOF 0
ENDMDL
