MODEL 1
REMARK minimizedAffinity 14.8652687
REMARK minimizedRMSD -1
REMARK  0 active torsions:
REMARK  status: ('A' for Active; 'I' for Inactive)
ROOT
ATOM      1  N1  IND d   1       1.338  -2.532   1.454  0.00  0.00    -0.196 N 
ATOM      2  C2  IND d   1       2.018  -1.354   1.323  0.00  0.00     0.054 A 
ATOM      3  C3  IND d   1       1.428  -0.385   2.058  0.00  0.00    -0.031 A 
ATOM      4  C4  IND d   1      -0.605  -0.535   3.631  0.00  0.00     0.051 A 
ATOM      5  C5  IND d   1      -1.581  -1.395   4.050  0.00  0.00    -0.031 A 
ATOM      6  C6  IND d   1      -1.634  -2.704   3.618  0.00  0.00     0.015 A 
ATOM      7  C7  IND d   1      -0.702  -3.209   2.756  0.00  0.00    -0.016 A 
ATOM      8  C8  IND d   1       0.287  -2.337   2.323  0.00  0.00    -0.047 A 
ATOM      9  C9  IND d   1       0.322  -0.995   2.725  0.00  0.00    -0.096 A 
ATOM     10  HN1 IND d   1       1.533  -3.271   1.059  0.00  0.00     0.298 HD
ENDROOT
TORSDOF 0
ENDMDL
