MODEL 1
REMARK minimizedAffinity 10.4056301
REMARK minimizedRMSD -1
REMARK  0 active torsions:
REMARK  status: ('A' for Active; 'I' for Inactive)
ROOT
ATOM      1  N1  IND d   1       0.888  -2.616   1.335  0.00  0.00    -0.196 N 
ATOM      2  C2  IND d   1       1.857  -1.654   1.394  0.00  0.00     0.054 A 
ATOM      3  C3  IND d   1       1.560  -0.745   2.349  0.00  0.00    -0.031 A 
ATOM      4  C4  IND d   1      -0.412  -0.696   4.003  0.00  0.00     0.051 A 
ATOM      5  C5  IND d   1      -1.576  -1.343   4.311  0.00  0.00    -0.031 A 
ATOM      6  C6  IND d   1      -1.985  -2.472   3.631  0.00  0.00     0.015 A 
ATOM      7  C7  IND d   1      -1.236  -3.004   2.620  0.00  0.00    -0.016 A 
ATOM      8  C8  IND d   1      -0.057  -2.346   2.300  0.00  0.00    -0.047 A 
ATOM      9  C9  IND d   1       0.342  -1.176   2.958  0.00  0.00    -0.096 A 
ATOM     10  HN1 IND d   1       0.872  -3.279   0.787  0.00  0.00     0.298 HD
ENDROOT
TORSDOF 0
ENDMDL
