MODEL 1
REMARK minimizedAffinity 12.5053883
REMARK minimizedRMSD -1
REMARK  0 active torsions:
REMARK  status: ('A' for Active; 'I' for Inactive)
ROOT
ATOM      1  N1  IND d   1      -2.531   2.108  -2.144  0.00  0.00    -0.196 N 
ATOM      2  C2  IND d   1      -1.426   2.261  -2.934  0.00  0.00     0.054 A 
ATOM      3  C3  IND d   1      -1.246   3.564  -3.246  0.00  0.00    -0.031 A 
ATOM      4  C4  IND d   1      -2.586   5.627  -2.486  0.00  0.00     0.051 A 
ATOM      5  C5  IND d   1      -3.704   5.988  -1.788  0.00  0.00    -0.031 A 
ATOM      6  C6  IND d   1      -4.503   5.055  -1.158  0.00  0.00     0.015 A 
ATOM      7  C7  IND d   1      -4.206   3.722  -1.193  0.00  0.00    -0.016 A 
ATOM      8  C8  IND d   1      -3.075   3.352  -1.907  0.00  0.00    -0.047 A 
ATOM      9  C9  IND d   1      -2.284   4.289  -2.584  0.00  0.00    -0.096 A 
ATOM     10  HN1 IND d   1      -2.835   1.362  -1.845  0.00  0.00     0.298 HD
ENDROOT
TORSDOF 0
ENDMDL
