MODEL 1
REMARK minimizedAffinity 12.9040899
REMARK minimizedRMSD -1
REMARK  0 active torsions:
REMARK  status: ('A' for Active; 'I' for Inactive)
ROOT
ATOM      1  N1  IND d   1      -0.761  -0.532   3.475  0.00  0.00    -0.196 N 
ATOM      2  C2  IND d   1      -1.679  -1.543   3.422  0.00  0.00     0.054 A 
ATOM      3  C3  IND d   1      -1.249  -2.526   2.599  0.00  0.00    -0.031 A 
ATOM      4  C4  IND d   1       0.974  -2.730   1.317  0.00  0.00     0.051 A 
ATOM      5  C5  IND d   1       2.116  -2.039   1.024  0.00  0.00    -0.031 A 
ATOM      6  C6  IND d   1       2.364  -0.786   1.547  0.00  0.00     0.015 A 
ATOM      7  C7  IND d   1       1.480  -0.180   2.394  0.00  0.00    -0.016 A 
ATOM      8  C8  IND d   1       0.316  -0.875   2.687  0.00  0.00    -0.047 A 
ATOM      9  C9  IND d   1       0.039  -2.129   2.126  0.00  0.00    -0.096 A 
ATOM     10  HN1 IND d   1      -0.842   0.196   3.925  0.00  0.00     0.298 HD
ENDROOT
TORSDOF 0
ENDMDL
