MODEL 1
REMARK minimizedAffinity 13.1401415
REMARK minimizedRMSD -1
REMARK  0 active torsions:
REMARK  status: ('A' for Active; 'I' for Inactive)
ROOT
ATOM      1  N1  IND d   1       0.568  -0.374   3.053  0.00  0.00    -0.196 N 
ATOM      2  C2  IND d   1      -0.363  -1.343   3.302  0.00  0.00     0.054 A 
ATOM      3  C3  IND d   1      -0.109  -2.442   2.558  0.00  0.00    -0.031 A 
ATOM      4  C4  IND d   1       1.838  -2.908   0.940  0.00  0.00     0.051 A 
ATOM      5  C5  IND d   1       2.921  -2.310   0.357  0.00  0.00    -0.031 A 
ATOM      6  C6  IND d   1       3.283  -1.012   0.651  0.00  0.00     0.015 A 
ATOM      7  C7  IND d   1       2.580  -0.263   1.552  0.00  0.00    -0.016 A 
ATOM      8  C8  IND d   1       1.476  -0.863   2.140  0.00  0.00    -0.047 A 
ATOM      9  C9  IND d   1       1.079  -2.166   1.813  0.00  0.00    -0.096 A 
ATOM     10  HN1 IND d   1       0.584   0.410   3.407  0.00  0.00     0.298 HD
ENDROOT
TORSDOF 0
ENDMDL
