MODEL 1
REMARK minimizedAffinity 16.1577206
REMARK minimizedRMSD -1
REMARK  0 active torsions:
REMARK  status: ('A' for Active; 'I' for Inactive)
ROOT
ATOM      1  N1  IND d   1      -1.939   3.780  -5.371  0.00  0.00    -0.196 N 
ATOM      2  C2  IND d   1      -1.690   4.968  -6.000  0.00  0.00     0.054 A 
ATOM      3  C3  IND d   1      -1.870   6.000  -5.145  0.00  0.00    -0.031 A 
ATOM      4  C4  IND d   1      -2.473   5.964  -2.642  0.00  0.00     0.051 A 
ATOM      5  C5  IND d   1      -2.832   5.116  -1.633  0.00  0.00    -0.031 A 
ATOM      6  C6  IND d   1      -2.911   3.751  -1.821  0.00  0.00     0.015 A 
ATOM      7  C7  IND d   1      -2.621   3.180  -3.028  0.00  0.00    -0.016 A 
ATOM      8  C8  IND d   1      -2.263   4.039  -4.057  0.00  0.00    -0.047 A 
ATOM      9  C9  IND d   1      -2.222   5.429  -3.884  0.00  0.00    -0.096 A 
ATOM     10  HN1 IND d   1      -1.900   3.002  -5.734  0.00  0.00     0.298 HD
ENDROOT
TORSDOF 0
ENDMDL
