MODEL 1
REMARK minimizedAffinity 14.3120708
REMARK minimizedRMSD -1
REMARK  0 active torsions:
REMARK  status: ('A' for Active; 'I' for Inactive)
ROOT
ATOM      1  N1  IND d   1      -1.762   3.981  -5.249  0.00  0.00    -0.196 N 
ATOM      2  C2  IND d   1      -1.537   5.321  -5.402  0.00  0.00     0.054 A 
ATOM      3  C3  IND d   1      -1.939   5.994  -4.301  0.00  0.00    -0.031 A 
ATOM      4  C4  IND d   1      -2.901   5.089  -2.091  0.00  0.00     0.051 A 
ATOM      5  C5  IND d   1      -3.324   3.936  -1.493  0.00  0.00    -0.031 A 
ATOM      6  C6  IND d   1      -3.244   2.713  -2.127  0.00  0.00     0.015 A 
ATOM      7  C7  IND d   1      -2.725   2.597  -3.386  0.00  0.00    -0.016 A 
ATOM      8  C8  IND d   1      -2.301   3.767  -3.999  0.00  0.00    -0.047 A 
ATOM      9  C9  IND d   1      -2.419   5.016  -3.377  0.00  0.00    -0.096 A 
ATOM     10  HN1 IND d   1      -1.596   3.374  -5.835  0.00  0.00     0.298 HD
ENDROOT
TORSDOF 0
ENDMDL
