MODEL 1
REMARK minimizedAffinity 11.552784
REMARK minimizedRMSD -1
REMARK  0 active torsions:
REMARK  status: ('A' for Active; 'I' for Inactive)
ROOT
ATOM      1  N1  IND d   1       1.219  -2.700   1.782  0.00  0.00    -0.196 N 
ATOM      2  C2  IND d   1       1.878  -1.514   1.617  0.00  0.00     0.054 A 
ATOM      3  C3  IND d   1       1.191  -0.509   2.204  0.00  0.00    -0.031 A 
ATOM      4  C4  IND d   1      -0.984  -0.598   3.578  0.00  0.00     0.051 A 
ATOM      5  C5  IND d   1      -1.975  -1.453   3.972  0.00  0.00    -0.031 A 
ATOM      6  C6  IND d   1      -1.950  -2.795   3.651  0.00  0.00     0.015 A 
ATOM      7  C7  IND d   1      -0.923  -3.337   2.932  0.00  0.00    -0.016 A 
ATOM      8  C8  IND d   1       0.082  -2.470   2.524  0.00  0.00    -0.047 A 
ATOM      9  C9  IND d   1       0.040  -1.100   2.810  0.00  0.00    -0.096 A 
ATOM     10  HN1 IND d   1       1.472  -3.462   1.474  0.00  0.00     0.298 HD
ENDROOT
TORSDOF 0
ENDMDL
