MODEL 1
REMARK minimizedAffinity 5.95462561
REMARK minimizedRMSD -1
REMARK  1 active torsions:
REMARK  status: ('A' for Active; 'I' for Inactive)
REMARK    1  A    between atoms: C1_2  and  C2_3 
ROOT
ATOM      1  C2  UNL d   1       0.445  -1.092   1.946  0.00  0.00    -0.076 A 
ATOM      2  C3  UNL d   1       0.890  -0.190   2.928  0.00  0.00     0.004 A 
ATOM      3  C4  UNL d   1      -0.009   0.629   3.610  0.00  0.00    -0.003 A 
ATOM      4  C5  UNL d   1      -1.367   0.558   3.321  0.00  0.00     0.000 A 
ATOM      5  C6  UNL d   1      -1.828  -0.343   2.363  0.00  0.00     0.000 A 
ATOM      6  C7  UNL d   1      -0.937  -1.187   1.678  0.00  0.00    -0.073 A 
ATOM      7  C8  UNL d   1      -1.489  -2.137   0.649  0.00  0.00     0.078 C 
ENDROOT
BRANCH   1   8
ATOM      8  C1  UNL d   1       1.469  -1.935   1.220  0.00  0.00     0.053 C 
ATOM      9  C   UNL d   1       2.029  -1.240  -0.011  0.00  0.00     0.018 C 
ENDBRANCH   1   8
TORSDOF 1
ENDMDL
