MODEL 1
REMARK minimizedAffinity 1.78285348
REMARK minimizedRMSD -1
REMARK  1 active torsions:
REMARK  status: ('A' for Active; 'I' for Inactive)
REMARK    1  A    between atoms: C1_2  and  C2_3 
ROOT
ATOM      1  C2  UNL d   1       1.207  -1.143   1.253  0.00  0.00    -0.076 A 
ATOM      2  C3  UNL d   1       1.277  -1.004   2.650  0.00  0.00     0.004 A 
ATOM      3  C4  UNL d   1       0.203  -0.490   3.374  0.00  0.00    -0.003 A 
ATOM      4  C5  UNL d   1      -0.959  -0.107   2.713  0.00  0.00     0.000 A 
ATOM      5  C6  UNL d   1      -1.052  -0.254   1.330  0.00  0.00     0.000 A 
ATOM      6  C7  UNL d   1       0.016  -0.786   0.586  0.00  0.00    -0.073 A 
ATOM      7  C8  UNL d   1      -0.137  -0.918  -0.904  0.00  0.00     0.078 C 
ENDROOT
BRANCH   1   8
ATOM      8  C1  UNL d   1       2.414  -1.681   0.517  0.00  0.00     0.053 C 
ATOM      9  C   UNL d   1       3.045  -2.871   1.225  0.00  0.00     0.018 C 
ENDBRANCH   1   8
TORSDOF 1
ENDMDL
