MODEL 1
REMARK minimizedAffinity 2.08595991
REMARK minimizedRMSD -1
REMARK  1 active torsions:
REMARK  status: ('A' for Active; 'I' for Inactive)
REMARK    1  A    between atoms: C1_2  and  C2_3 
ROOT
ATOM      1  C2  UNL d   1       1.492  -1.357   1.284  0.00  0.00    -0.076 A 
ATOM      2  C3  UNL d   1       2.129  -2.187   2.223  0.00  0.00     0.004 A 
ATOM      3  C4  UNL d   1       3.222  -2.973   1.861  0.00  0.00    -0.003 A 
ATOM      4  C5  UNL d   1       3.695  -2.942   0.554  0.00  0.00     0.000 A 
ATOM      5  C6  UNL d   1       3.087  -2.112  -0.386  0.00  0.00     0.000 A 
ATOM      6  C7  UNL d   1       1.994  -1.300  -0.034  0.00  0.00    -0.073 A 
ATOM      7  C8  UNL d   1       1.372  -0.429  -1.090  0.00  0.00     0.078 C 
ENDROOT
BRANCH   1   8
ATOM      8  C1  UNL d   1       0.295  -0.547   1.727  0.00  0.00     0.053 C 
ATOM      9  C   UNL d   1      -0.014  -0.726   3.206  0.00  0.00     0.018 C 
ENDBRANCH   1   8
TORSDOF 1
ENDMDL
