MODEL 1
REMARK minimizedAffinity 11.9390182
REMARK minimizedRMSD -1
REMARK  1 active torsions:
REMARK  status: ('A' for Active; 'I' for Inactive)
REMARK    1  A    between atoms: C1_2  and  C2_3 
ROOT
ATOM      1  C2  UNL d   1       0.694  -1.074   1.146  0.00  0.00    -0.076 A 
ATOM      2  C3  UNL d   1       1.272  -1.319   2.403  0.00  0.00     0.004 A 
ATOM      3  C4  UNL d   1       0.536  -1.158   3.575  0.00  0.00    -0.003 A 
ATOM      4  C5  UNL d   1      -0.792  -0.750   3.509  0.00  0.00     0.000 A 
ATOM      5  C6  UNL d   1      -1.387  -0.520   2.270  0.00  0.00     0.000 A 
ATOM      6  C7  UNL d   1      -0.664  -0.693   1.077  0.00  0.00    -0.073 A 
ATOM      7  C8  UNL d   1      -1.354  -0.424  -0.232  0.00  0.00     0.078 C 
ENDROOT
BRANCH   1   8
ATOM      8  C1  UNL d   1       1.549  -1.239  -0.090  0.00  0.00     0.053 C 
ATOM      9  C   UNL d   1       2.910  -1.842   0.220  0.00  0.00     0.018 C 
ENDBRANCH   1   8
TORSDOF 1
ENDMDL
