MODEL 1
REMARK minimizedAffinity 0.779199541
REMARK minimizedRMSD -1
REMARK  0 active torsions:
REMARK  status: ('A' for Active; 'I' for Inactive)
ROOT
ATOM      1  C   UNL d   1      -2.046  -0.099   0.709  0.00  0.00     0.023 A 
ATOM      2  C1  UNL d   1      -1.037  -0.920   0.207  0.00  0.00     0.003 A 
ATOM      3  C2  UNL d   1      -0.355  -0.559  -0.957  0.00  0.00     0.048 A 
ATOM      4  C3  UNL d   1      -0.686   0.627  -1.612  0.00  0.00     0.023 A 
ATOM      5  C4  UNL d   1      -1.695   1.452  -1.113  0.00  0.00     0.048 A 
ATOM      6  C5  UNL d   1      -2.375   1.086   0.050  0.00  0.00     0.003 A 
ATOM      7  I   UNL d   1       0.328   1.167  -3.344  0.00  0.00    -0.146 I 
ENDROOT
TORSDOF 0
ENDMDL
