MODEL 1
REMARK minimizedAffinity -0.412568748
REMARK minimizedRMSD -1
REMARK  0 active torsions:
REMARK  status: ('A' for Active; 'I' for Inactive)
ROOT
ATOM      1  C   UNL d   1       2.385  -1.060   0.061  0.00  0.00     0.023 A 
ATOM      2  C1  UNL d   1       1.574  -1.170  -1.068  0.00  0.00     0.003 A 
ATOM      3  C2  UNL d   1       0.247  -0.739  -1.020  0.00  0.00     0.048 A 
ATOM      4  C3  UNL d   1      -0.262  -0.198   0.160  0.00  0.00     0.023 A 
ATOM      5  C4  UNL d   1       0.546  -0.085   1.292  0.00  0.00     0.048 A 
ATOM      6  C5  UNL d   1       1.873  -0.518   1.239  0.00  0.00     0.003 A 
ATOM      7  I   UNL d   1      -2.237   0.445   0.234  0.00  0.00    -0.146 I 
ENDROOT
TORSDOF 0
ENDMDL
