MODEL 1
REMARK minimizedAffinity 1.90871227
REMARK minimizedRMSD -1
REMARK  0 active torsions:
REMARK  status: ('A' for Active; 'I' for Inactive)
ROOT
ATOM      1  C   UNL d   1      -0.759   0.107   1.789  0.00  0.00     0.023 A 
ATOM      2  C1  UNL d   1       0.443  -0.424   1.323  0.00  0.00     0.003 A 
ATOM      3  C2  UNL d   1       0.680  -0.518  -0.050  0.00  0.00     0.048 A 
ATOM      4  C3  UNL d   1      -0.289  -0.078  -0.951  0.00  0.00     0.023 A 
ATOM      5  C4  UNL d   1      -1.493   0.455  -0.489  0.00  0.00     0.048 A 
ATOM      6  C5  UNL d   1      -1.726   0.546   0.885  0.00  0.00     0.003 A 
ATOM      7  I   UNL d   1       0.062  -0.216  -2.995  0.00  0.00    -0.146 I 
ENDROOT
TORSDOF 0
ENDMDL
