MODEL 1
REMARK minimizedAffinity 5.17059994
REMARK minimizedRMSD -1
REMARK  0 active torsions:
REMARK  status: ('A' for Active; 'I' for Inactive)
ROOT
ATOM      1  C   UNL d   1      -2.378   0.076  -0.060  0.00  0.00     0.023 A 
ATOM      2  C1  UNL d   1      -1.397  -0.487  -0.877  0.00  0.00     0.003 A 
ATOM      3  C2  UNL d   1      -0.095  -0.648  -0.397  0.00  0.00     0.048 A 
ATOM      4  C3  UNL d   1       0.218  -0.246   0.901  0.00  0.00     0.023 A 
ATOM      5  C4  UNL d   1      -0.761   0.316   1.722  0.00  0.00     0.048 A 
ATOM      6  C5  UNL d   1      -2.060   0.476   1.238  0.00  0.00     0.003 A 
ATOM      7  I   UNL d   1       2.154  -0.486   1.618  0.00  0.00    -0.146 I 
ENDROOT
TORSDOF 0
ENDMDL
