MODEL 1
REMARK minimizedAffinity 1.98182321
REMARK minimizedRMSD -1
REMARK  0 active torsions:
REMARK  status: ('A' for Active; 'I' for Inactive)
ROOT
ATOM      1  C   UNL d   1      -1.017   0.349   0.695  0.00  0.00     0.023 A 
ATOM      2  C1  UNL d   1      -0.761  -0.939   0.226  0.00  0.00     0.003 A 
ATOM      3  C2  UNL d   1      -1.808  -1.734  -0.244  0.00  0.00     0.048 A 
ATOM      4  C3  UNL d   1      -3.110  -1.234  -0.243  0.00  0.00     0.023 A 
ATOM      5  C4  UNL d   1      -3.371   0.055   0.224  0.00  0.00     0.048 A 
ATOM      6  C5  UNL d   1      -2.321   0.846   0.694  0.00  0.00     0.003 A 
ATOM      7  I   UNL d   1      -4.670  -2.415  -0.943  0.00  0.00    -0.146 I 
ENDROOT
TORSDOF 0
ENDMDL
