MODEL 1
REMARK minimizedAffinity 4.24131346
REMARK minimizedRMSD -1
REMARK  0 active torsions:
REMARK  status: ('A' for Active; 'I' for Inactive)
ROOT
ATOM      1  C   UNL d   1       2.259   2.192  -3.148  0.00  0.00     0.023 A 
ATOM      2  C1  UNL d   1       1.098   1.624  -3.673  0.00  0.00     0.003 A 
ATOM      3  C2  UNL d   1       0.177   1.005  -2.826  0.00  0.00     0.048 A 
ATOM      4  C3  UNL d   1       0.421   0.959  -1.454  0.00  0.00     0.023 A 
ATOM      5  C4  UNL d   1       1.581   1.527  -0.924  0.00  0.00     0.048 A 
ATOM      6  C5  UNL d   1       2.500   2.144  -1.775  0.00  0.00     0.003 A 
ATOM      7  I   UNL d   1      -0.949   0.039  -0.191  0.00  0.00    -0.146 I 
ENDROOT
TORSDOF 0
ENDMDL
