MODEL 1
REMARK minimizedAffinity -3.08687472
REMARK minimizedRMSD -1
REMARK  0 active torsions:
REMARK  status: ('A' for Active; 'I' for Inactive)
ROOT
ATOM      1  C   UNL d   1       0.020   0.108   3.382  0.00  0.00     0.023 A 
ATOM      2  C1  UNL d   1       1.198  -0.408   2.841  0.00  0.00     0.003 A 
ATOM      3  C2  UNL d   1       1.297  -0.633   1.467  0.00  0.00     0.048 A 
ATOM      4  C3  UNL d   1       0.215  -0.338   0.638  0.00  0.00     0.023 A 
ATOM      5  C4  UNL d   1      -0.965   0.179   1.174  0.00  0.00     0.048 A 
ATOM      6  C5  UNL d   1      -1.060   0.401   2.550  0.00  0.00     0.003 A 
ATOM      7  I   UNL d   1       0.360  -0.672  -1.408  0.00  0.00    -0.146 I 
ENDROOT
TORSDOF 0
ENDMDL
