MODEL 1
REMARK minimizedAffinity -5.23979664
REMARK minimizedRMSD -1
REMARK  0 active torsions:
REMARK  status: ('A' for Active; 'I' for Inactive)
ROOT
ATOM      1  C   UNL d   1       0.313   0.771   3.845  0.00  0.00     0.023 A 
ATOM      2  C1  UNL d   1      -0.661   1.243   2.965  0.00  0.00     0.003 A 
ATOM      3  C2  UNL d   1      -0.621   0.880   1.617  0.00  0.00     0.048 A 
ATOM      4  C3  UNL d   1       0.394   0.043   1.156  0.00  0.00     0.023 A 
ATOM      5  C4  UNL d   1       1.370  -0.433   2.033  0.00  0.00     0.048 A 
ATOM      6  C5  UNL d   1       1.327  -0.066   3.380  0.00  0.00     0.003 A 
ATOM      7  I   UNL d   1       0.455  -0.500  -0.849  0.00  0.00    -0.146 I 
ENDROOT
TORSDOF 0
ENDMDL
