MODEL 1
REMARK minimizedAffinity -2.31569624
REMARK minimizedRMSD -1
REMARK  0 active torsions:
REMARK  status: ('A' for Active; 'I' for Inactive)
ROOT
ATOM      1  C   UNL d   1       0.844   1.087   3.142  0.00  0.00     0.023 A 
ATOM      2  C1  UNL d   1       1.361   0.910   1.859  0.00  0.00     0.003 A 
ATOM      3  C2  UNL d   1       0.550   0.405   0.841  0.00  0.00     0.048 A 
ATOM      4  C3  UNL d   1      -0.779   0.081   1.113  0.00  0.00     0.023 A 
ATOM      5  C4  UNL d   1      -1.301   0.258   2.395  0.00  0.00     0.048 A 
ATOM      6  C5  UNL d   1      -0.486   0.761   3.410  0.00  0.00     0.003 A 
ATOM      7  I   UNL d   1      -1.989  -0.670  -0.401  0.00  0.00    -0.146 I 
ENDROOT
TORSDOF 0
ENDMDL
