MODEL 1
REMARK minimizedAffinity 4.0856843
REMARK minimizedRMSD -1
REMARK  1 active torsions:
REMARK  status: ('A' for Active; 'I' for Inactive)
REMARK    1  A    between atoms: C3_4  and  O_7 
ROOT
ATOM      1  C   UNL d   1      -1.336  -0.190   3.037  0.00  0.00    -0.033 A 
ATOM      2  C1  UNL d   1      -1.814  -0.667   1.815  0.00  0.00     0.039 A 
ATOM      3  C2  UNL d   1      -0.955  -1.334   0.939  0.00  0.00    -0.080 A 
ATOM      4  C3  UNL d   1       0.377  -1.519   1.298  0.00  0.00     0.150 A 
ATOM      5  C4  UNL d   1       0.860  -1.049   2.515  0.00  0.00    -0.007 A 
ATOM      6  C5  UNL d   1       0.001  -0.382   3.387  0.00  0.00     0.039 A 
ENDROOT
BRANCH   4   7
ATOM      7  O   UNL d   1       1.255  -2.159   0.474  0.00  0.00    -0.526 OA
ATOM      8  H5  UNL d   1       0.788  -2.403  -0.343  0.00  0.00     0.418 HD
ENDBRANCH   4   7
TORSDOF 1
ENDMDL
