MODEL 1
REMARK minimizedAffinity 4.90893507
REMARK minimizedRMSD -1
REMARK  1 active torsions:
REMARK  status: ('A' for Active; 'I' for Inactive)
REMARK    1  A    between atoms: C3_4  and  O_7 
ROOT
ATOM      1  C   UNL d   1       1.921  -2.616   1.407  0.00  0.00    -0.033 A 
ATOM      2  C1  UNL d   1       1.171  -1.438   1.391  0.00  0.00     0.039 A 
ATOM      3  C2  UNL d   1       1.717  -0.269   0.858  0.00  0.00    -0.080 A 
ATOM      4  C3  UNL d   1       3.012  -0.291   0.345  0.00  0.00     0.150 A 
ATOM      5  C4  UNL d   1       3.762  -1.462   0.356  0.00  0.00    -0.007 A 
ATOM      6  C5  UNL d   1       3.216  -2.628   0.889  0.00  0.00     0.039 A 
ENDROOT
BRANCH   4   7
ATOM      7  O   UNL d   1       3.589   0.827  -0.180  0.00  0.00    -0.526 OA
ATOM      8  H5  UNL d   1       2.964   1.566  -0.094  0.00  0.00     0.418 HD
ENDBRANCH   4   7
TORSDOF 1
ENDMDL
