MODEL 1
REMARK minimizedAffinity -1.61570358
REMARK minimizedRMSD -1
REMARK  1 active torsions:
REMARK  status: ('A' for Active; 'I' for Inactive)
REMARK    1  A    between atoms: C3_4  and  O_7 
ROOT
ATOM      1  C   UNL d   1       5.985   5.794   3.929  0.00  0.00    -0.033 A 
ATOM      2  C1  UNL d   1       4.792   5.987   3.230  0.00  0.00     0.039 A 
ATOM      3  C2  UNL d   1       3.574   5.991   3.912  0.00  0.00    -0.080 A 
ATOM      4  C3  UNL d   1       3.562   5.803   5.291  0.00  0.00     0.150 A 
ATOM      5  C4  UNL d   1       4.747   5.614   5.994  0.00  0.00    -0.007 A 
ATOM      6  C5  UNL d   1       5.963   5.609   5.312  0.00  0.00     0.039 A 
ENDROOT
BRANCH   4   7
ATOM      7  O   UNL d   1       2.398   5.794   5.999  0.00  0.00    -0.526 OA
ATOM      8  H5  UNL d   1       1.659   5.907   5.378  0.00  0.00     0.418 HD
ENDBRANCH   4   7
TORSDOF 1
ENDMDL
