MODEL 1
REMARK minimizedAffinity 3.07064962
REMARK minimizedRMSD -1
REMARK  1 active torsions:
REMARK  status: ('A' for Active; 'I' for Inactive)
REMARK    1  A    between atoms: C3_4  and  O_7 
ROOT
ATOM      1  C   UNL d   1      -4.379   4.118  -4.466  0.00  0.00    -0.033 A 
ATOM      2  C1  UNL d   1      -3.743   5.248  -3.950  0.00  0.00     0.039 A 
ATOM      3  C2  UNL d   1      -2.504   5.647  -4.456  0.00  0.00    -0.080 A 
ATOM      4  C3  UNL d   1      -1.913   4.908  -5.477  0.00  0.00     0.150 A 
ATOM      5  C4  UNL d   1      -2.543   3.783  -5.999  0.00  0.00    -0.007 A 
ATOM      6  C5  UNL d   1      -3.780   3.386  -5.492  0.00  0.00     0.039 A 
ENDROOT
BRANCH   4   7
ATOM      7  O   UNL d   1      -0.703   5.255  -6.000  0.00  0.00    -0.526 OA
ATOM      8  H5  UNL d   1      -0.374   6.035  -5.522  0.00  0.00     0.418 HD
ENDBRANCH   4   7
TORSDOF 1
ENDMDL
