MODEL 1
REMARK minimizedAffinity 7.48622847
REMARK minimizedRMSD -1
REMARK  1 active torsions:
REMARK  status: ('A' for Active; 'I' for Inactive)
REMARK    1  A    between atoms: C3_4  and  O_7 
ROOT
ATOM      1  C   UNL d   1      -0.743   1.273  -3.602  0.00  0.00    -0.033 A 
ATOM      2  C1  UNL d   1      -0.545   2.123  -4.692  0.00  0.00     0.039 A 
ATOM      3  C2  UNL d   1      -1.332   3.267  -4.839  0.00  0.00    -0.080 A 
ATOM      4  C3  UNL d   1      -2.311   3.549  -3.891  0.00  0.00     0.150 A 
ATOM      5  C4  UNL d   1      -2.511   2.709  -2.800  0.00  0.00    -0.007 A 
ATOM      6  C5  UNL d   1      -1.725   1.567  -2.655  0.00  0.00     0.039 A 
ENDROOT
BRANCH   4   7
ATOM      7  O   UNL d   1      -3.107   4.651  -3.995  0.00  0.00    -0.526 OA
ATOM      8  H5  UNL d   1      -2.875   5.122  -4.812  0.00  0.00     0.418 HD
ENDBRANCH   4   7
TORSDOF 1
ENDMDL
