MODEL 1
REMARK minimizedAffinity -1.2614677
REMARK minimizedRMSD -1
REMARK  1 active torsions:
REMARK  status: ('A' for Active; 'I' for Inactive)
REMARK    1  A    between atoms: C3_4  and  O_7 
ROOT
ATOM      1  C   UNL d   1       1.868   5.435   4.959  0.00  0.00    -0.033 A 
ATOM      2  C1  UNL d   1       2.518   4.759   3.924  0.00  0.00     0.039 A 
ATOM      3  C2  UNL d   1       3.910   4.650   3.924  0.00  0.00    -0.080 A 
ATOM      4  C3  UNL d   1       4.639   5.219   4.964  0.00  0.00     0.150 A 
ATOM      5  C4  UNL d   1       3.999   5.891   6.000  0.00  0.00    -0.007 A 
ATOM      6  C5  UNL d   1       2.609   6.000   5.997  0.00  0.00     0.039 A 
ENDROOT
BRANCH   4   7
ATOM      7  O   UNL d   1       6.000   5.143   5.005  0.00  0.00    -0.526 OA
ATOM      8  H5  UNL d   1       6.306   4.675   4.210  0.00  0.00     0.418 HD
ENDBRANCH   4   7
TORSDOF 1
ENDMDL
