MODEL 1
REMARK minimizedAffinity 6.70966005
REMARK minimizedRMSD -1
REMARK  1 active torsions:
REMARK  status: ('A' for Active; 'I' for Inactive)
REMARK    1  A    between atoms: C3_4  and  O_7 
ROOT
ATOM      1  C   UNL d   1       5.995  -4.297  -1.192  0.00  0.00    -0.033 A 
ATOM      2  C1  UNL d   1       5.509  -3.078  -0.715  0.00  0.00     0.039 A 
ATOM      3  C2  UNL d   1       4.209  -2.990  -0.214  0.00  0.00    -0.080 A 
ATOM      4  C3  UNL d   1       3.407  -4.128  -0.194  0.00  0.00     0.150 A 
ATOM      5  C4  UNL d   1       3.886  -5.346  -0.664  0.00  0.00    -0.007 A 
ATOM      6  C5  UNL d   1       5.184  -5.431  -1.165  0.00  0.00     0.039 A 
ENDROOT
BRANCH   4   7
ATOM      7  O   UNL d   1       2.130  -4.090   0.281  0.00  0.00    -0.526 OA
ATOM      8  H5  UNL d   1       1.926  -3.177   0.544  0.00  0.00     0.418 HD
ENDBRANCH   4   7
TORSDOF 1
ENDMDL
