MODEL 1
REMARK minimizedAffinity 1.98477077
REMARK minimizedRMSD -1
REMARK  1 active torsions:
REMARK  status: ('A' for Active; 'I' for Inactive)
REMARK    1  A    between atoms: C3_4  and  O_7 
ROOT
ATOM      1  C   UNL d   1       4.553   5.977   5.458  0.00  0.00    -0.033 A 
ATOM      2  C1  UNL d   1       4.839   5.527   4.168  0.00  0.00     0.039 A 
ATOM      3  C2  UNL d   1       3.855   4.881   3.417  0.00  0.00    -0.080 A 
ATOM      4  C3  UNL d   1       2.590   4.693   3.967  0.00  0.00     0.150 A 
ATOM      5  C4  UNL d   1       2.297   5.142   5.251  0.00  0.00    -0.007 A 
ATOM      6  C5  UNL d   1       3.282   5.786   5.999  0.00  0.00     0.039 A 
ENDROOT
BRANCH   4   7
ATOM      7  O   UNL d   1       1.598   4.065   3.275  0.00  0.00    -0.526 OA
ATOM      8  H5  UNL d   1       1.953   3.784   2.415  0.00  0.00     0.418 HD
ENDBRANCH   4   7
TORSDOF 1
ENDMDL
