MODEL 1
REMARK minimizedAffinity 8.90643787
REMARK minimizedRMSD -1
REMARK  1 active torsions:
REMARK  status: ('A' for Active; 'I' for Inactive)
REMARK    1  A    between atoms: C3_4  and  O_7 
ROOT
ATOM      1  C   UNL d   1      -5.240   2.348  -5.113  0.00  0.00    -0.033 A 
ATOM      2  C1  UNL d   1      -5.873   3.494  -5.598  0.00  0.00     0.039 A 
ATOM      3  C2  UNL d   1      -5.234   4.733  -5.520  0.00  0.00    -0.080 A 
ATOM      4  C3  UNL d   1      -3.963   4.812  -4.956  0.00  0.00     0.150 A 
ATOM      5  C4  UNL d   1      -3.325   3.674  -4.475  0.00  0.00    -0.007 A 
ATOM      6  C5  UNL d   1      -3.965   2.438  -4.553  0.00  0.00     0.039 A 
ENDROOT
BRANCH   4   7
ATOM      7  O   UNL d   1      -3.302   6.000  -4.853  0.00  0.00    -0.526 OA
ATOM      8  H5  UNL d   1      -3.876   6.703  -5.200  0.00  0.00     0.418 HD
ENDBRANCH   4   7
TORSDOF 1
ENDMDL
