MODEL 1
REMARK minimizedAffinity -3.57581735
REMARK minimizedRMSD -1
REMARK  1 active torsions:
REMARK  status: ('A' for Active; 'I' for Inactive)
REMARK    1  A    between atoms: C3_4  and  O_7 
ROOT
ATOM      1  C   UNL d   1       2.301   4.892   3.368  0.00  0.00    -0.033 A 
ATOM      2  C1  UNL d   1       2.297   5.750   4.470  0.00  0.00     0.039 A 
ATOM      3  C2  UNL d   1       1.110   5.990   5.166  0.00  0.00    -0.080 A 
ATOM      4  C3  UNL d   1      -0.063   5.367   4.751  0.00  0.00     0.150 A 
ATOM      5  C4  UNL d   1      -0.066   4.508   3.656  0.00  0.00    -0.007 A 
ATOM      6  C5  UNL d   1       1.120   4.270   2.962  0.00  0.00     0.039 A 
ENDROOT
BRANCH   4   7
ATOM      7  O   UNL d   1      -1.246   5.574   5.395  0.00  0.00    -0.526 OA
ATOM      8  H5  UNL d   1      -1.098   6.212   6.113  0.00  0.00     0.418 HD
ENDBRANCH   4   7
TORSDOF 1
ENDMDL
