MODEL 1
REMARK minimizedAffinity 0.841296077
REMARK minimizedRMSD -1
REMARK  1 active torsions:
REMARK  status: ('A' for Active; 'I' for Inactive)
REMARK    1  A    between atoms: C3_4  and  O_7 
ROOT
ATOM      1  C   UNL d   1       2.412   4.888   5.285  0.00  0.00    -0.033 A 
ATOM      2  C1  UNL d   1       2.680   4.498   3.972  0.00  0.00     0.039 A 
ATOM      3  C2  UNL d   1       3.885   4.860   3.366  0.00  0.00    -0.080 A 
ATOM      4  C3  UNL d   1       4.812   5.611   4.084  0.00  0.00     0.150 A 
ATOM      5  C4  UNL d   1       4.553   6.000   5.394  0.00  0.00    -0.007 A 
ATOM      6  C5  UNL d   1       3.349   5.638   5.997  0.00  0.00     0.039 A 
ENDROOT
BRANCH   4   7
ATOM      7  O   UNL d   1       6.000   5.992   3.534  0.00  0.00    -0.526 OA
ATOM      8  H5  UNL d   1       6.028   5.677   2.615  0.00  0.00     0.418 HD
ENDBRANCH   4   7
TORSDOF 1
ENDMDL
