MODEL 1
REMARK minimizedAffinity -3.02035093
REMARK minimizedRMSD -1
REMARK  0 active torsions:
REMARK  status: ('A' for Active; 'I' for Inactive)
ROOT
ATOM      1  C1  BNZ d   1      -0.205  -0.051  -0.049  0.00  0.00     0.000 A 
ATOM      2  C2  BNZ d   1      -0.502   1.194  -0.534  0.00  0.00     0.000 A 
ATOM      3  C3  BNZ d   1      -1.306   2.046   0.170  0.00  0.00     0.000 A 
ATOM      4  C4  BNZ d   1      -1.843   1.638   1.338  0.00  0.00     0.000 A 
ATOM      5  C5  BNZ d   1      -1.560   0.381   1.836  0.00  0.00     0.000 A 
ATOM      6  C6  BNZ d   1      -0.719  -0.459   1.143  0.00  0.00     0.000 A 
ENDROOT
TORSDOF 0
ENDMDL
