MODEL 1
REMARK minimizedAffinity -2.85240912
REMARK minimizedRMSD -1
REMARK  0 active torsions:
REMARK  status: ('A' for Active; 'I' for Inactive)
ROOT
ATOM      1  C1  BNZ d   1      -0.860   0.032   0.842  0.00  0.00     0.000 A 
ATOM      2  C2  BNZ d   1      -0.191  -1.123   0.533  0.00  0.00     0.000 A 
ATOM      3  C3  BNZ d   1       0.618  -1.189  -0.567  0.00  0.00     0.000 A 
ATOM      4  C4  BNZ d   1       0.726  -0.116  -1.377  0.00  0.00     0.000 A 
ATOM      5  C5  BNZ d   1       0.051   1.052  -1.083  0.00  0.00     0.000 A 
ATOM      6  C6  BNZ d   1      -0.732   1.128   0.046  0.00  0.00     0.000 A 
ENDROOT
TORSDOF 0
ENDMDL
