MODEL 1
REMARK minimizedAffinity -1.69756722
REMARK minimizedRMSD -1
REMARK  0 active torsions:
REMARK  status: ('A' for Active; 'I' for Inactive)
ROOT
ATOM      1  C1  BNZ d   1       0.339  -1.072   0.607  0.00  0.00     0.000 A 
ATOM      2  C2  BNZ d   1      -0.428  -0.876   1.725  0.00  0.00     0.000 A 
ATOM      3  C3  BNZ d   1      -1.104   0.296   1.913  0.00  0.00     0.000 A 
ATOM      4  C4  BNZ d   1      -0.981   1.286   1.005  0.00  0.00     0.000 A 
ATOM      5  C5  BNZ d   1      -0.205   1.107  -0.122  0.00  0.00     0.000 A 
ATOM      6  C6  BNZ d   1       0.444  -0.089  -0.328  0.00  0.00     0.000 A 
ENDROOT
TORSDOF 0
ENDMDL
