MODEL 1
REMARK minimizedAffinity -4.00926828
REMARK minimizedRMSD -1
REMARK  0 active torsions:
REMARK  status: ('A' for Active; 'I' for Inactive)
ROOT
ATOM      1  C1  BNZ d   1      -1.847   0.766   2.042  0.00  0.00     0.000 A 
ATOM      2  C2  BNZ d   1      -1.113  -0.309   1.618  0.00  0.00     0.000 A 
ATOM      3  C3  BNZ d   1      -0.265  -0.200   0.551  0.00  0.00     0.000 A 
ATOM      4  C4  BNZ d   1      -0.182   0.970  -0.113  0.00  0.00     0.000 A 
ATOM      5  C5  BNZ d   1      -0.923   2.061   0.296  0.00  0.00     0.000 A 
ATOM      6  C6  BNZ d   1      -1.747   1.959   1.394  0.00  0.00     0.000 A 
ENDROOT
TORSDOF 0
ENDMDL
