MODEL 1
REMARK minimizedAffinity -5.12902069
REMARK minimizedRMSD -1
REMARK  0 active torsions:
REMARK  status: ('A' for Active; 'I' for Inactive)
ROOT
ATOM      1  C1  BNZ d   1      -1.864   1.612   1.124  0.00  0.00     0.000 A 
ATOM      2  C2  BNZ d   1      -1.324   0.809   2.093  0.00  0.00     0.000 A 
ATOM      3  C3  BNZ d   1      -0.597  -0.300   1.758  0.00  0.00     0.000 A 
ATOM      4  C4  BNZ d   1      -0.446  -0.626   0.458  0.00  0.00     0.000 A 
ATOM      5  C5  BNZ d   1      -0.993   0.168  -0.530  0.00  0.00     0.000 A 
ATOM      6  C6  BNZ d   1      -1.691   1.305  -0.190  0.00  0.00     0.000 A 
ENDROOT
TORSDOF 0
ENDMDL
