MODEL 1
REMARK minimizedAffinity -5.14715767
REMARK minimizedRMSD -1
REMARK  0 active torsions:
REMARK  status: ('A' for Active; 'I' for Inactive)
ROOT
ATOM      1  C1  BNZ d   1      -0.794   1.623   0.073  0.00  0.00     0.000 A 
ATOM      2  C2  BNZ d   1      -0.343   0.358  -0.199  0.00  0.00     0.000 A 
ATOM      3  C3  BNZ d   1      -0.536  -0.660   0.692  0.00  0.00     0.000 A 
ATOM      4  C4  BNZ d   1      -1.144  -0.405   1.869  0.00  0.00     0.000 A 
ATOM      5  C5  BNZ d   1      -1.596   0.866   2.161  0.00  0.00     0.000 A 
ATOM      6  C6  BNZ d   1      -1.434   1.881   1.246  0.00  0.00     0.000 A 
ENDROOT
TORSDOF 0
ENDMDL
