MODEL 1
REMARK minimizedAffinity -4.66152811
REMARK minimizedRMSD -1
REMARK  0 active torsions:
REMARK  status: ('A' for Active; 'I' for Inactive)
ROOT
ATOM      1  C1  BNZ d   1      -2.053   1.276   0.335  0.00  0.00     0.000 A 
ATOM      2  C2  BNZ d   1      -1.239   0.234  -0.020  0.00  0.00     0.000 A 
ATOM      3  C3  BNZ d   1      -0.314  -0.261   0.856  0.00  0.00     0.000 A 
ATOM      4  C4  BNZ d   1      -0.177   0.311   2.070  0.00  0.00     0.000 A 
ATOM      5  C5  BNZ d   1      -0.984   1.369   2.439  0.00  0.00     0.000 A 
ATOM      6  C6  BNZ d   1      -1.940   1.840   1.568  0.00  0.00     0.000 A 
ENDROOT
TORSDOF 0
ENDMDL
