MODEL 1
REMARK minimizedAffinity -4.96382523
REMARK minimizedRMSD -1
REMARK  0 active torsions:
REMARK  status: ('A' for Active; 'I' for Inactive)
ROOT
ATOM      1  C1  BNZ d   1      -1.329   1.476  -0.210  0.00  0.00     0.000 A 
ATOM      2  C2  BNZ d   1      -0.402   0.482  -0.381  0.00  0.00     0.000 A 
ATOM      3  C3  BNZ d   1      -0.099  -0.375   0.640  0.00  0.00     0.000 A 
ATOM      4  C4  BNZ d   1      -0.692  -0.212   1.840  0.00  0.00     0.000 A 
ATOM      5  C5  BNZ d   1      -1.621   0.791   2.031  0.00  0.00     0.000 A 
ATOM      6  C6  BNZ d   1      -1.953   1.627   0.989  0.00  0.00     0.000 A 
ENDROOT
TORSDOF 0
ENDMDL
