MODEL 1
REMARK minimizedAffinity -4.31605959
REMARK minimizedRMSD -1
REMARK  0 active torsions:
REMARK  status: ('A' for Active; 'I' for Inactive)
ROOT
ATOM      1  C1  BNZ d   1       0.296   1.390  -0.867  0.00  0.00     0.000 A 
ATOM      2  C2  BNZ d   1      -0.522   2.488  -0.862  0.00  0.00     0.000 A 
ATOM      3  C3  BNZ d   1      -1.688   2.488  -0.149  0.00  0.00     0.000 A 
ATOM      4  C4  BNZ d   1      -2.054   1.379   0.525  0.00  0.00     0.000 A 
ATOM      5  C5  BNZ d   1      -1.244   0.260   0.521  0.00  0.00     0.000 A 
ATOM      6  C6  BNZ d   1      -0.052   0.277  -0.166  0.00  0.00     0.000 A 
ENDROOT
TORSDOF 0
ENDMDL
