MODEL 1
REMARK minimizedAffinity -5.25611591
REMARK minimizedRMSD -1
REMARK  0 active torsions:
REMARK  status: ('A' for Active; 'I' for Inactive)
ROOT
ATOM      1  C1  BNZ d   1      -1.563   1.560   0.248  0.00  0.00     0.000 A 
ATOM      2  C2  BNZ d   1      -0.726   0.548  -0.139  0.00  0.00     0.000 A 
ATOM      3  C3  BNZ d   1      -0.331  -0.412   0.749  0.00  0.00     0.000 A 
ATOM      4  C4  BNZ d   1      -0.741  -0.338   2.032  0.00  0.00     0.000 A 
ATOM      5  C5  BNZ d   1      -1.577   0.682   2.441  0.00  0.00     0.000 A 
ATOM      6  C6  BNZ d   1      -2.004   1.625   1.534  0.00  0.00     0.000 A 
ENDROOT
TORSDOF 0
ENDMDL
