MODEL 1
REMARK minimizedAffinity -4.88540411
REMARK minimizedRMSD -1
REMARK  0 active torsions:
REMARK  status: ('A' for Active; 'I' for Inactive)
ROOT
ATOM      1  C1  BNZ d   1      -1.617   1.991   1.205  0.00  0.00     0.000 A 
ATOM      2  C2  BNZ d   1      -1.050   2.071  -0.039  0.00  0.00     0.000 A 
ATOM      3  C3  BNZ d   1      -0.286   1.048  -0.527  0.00  0.00     0.000 A 
ATOM      4  C4  BNZ d   1      -0.057  -0.035   0.244  0.00  0.00     0.000 A 
ATOM      5  C5  BNZ d   1      -0.614  -0.126   1.504  0.00  0.00     0.000 A 
ATOM      6  C6  BNZ d   1      -1.415   0.889   1.977  0.00  0.00     0.000 A 
ENDROOT
TORSDOF 0
ENDMDL
