MODEL 1
REMARK minimizedAffinity -4.11123323
REMARK minimizedRMSD -1
REMARK  0 active torsions:
REMARK  status: ('A' for Active; 'I' for Inactive)
ROOT
ATOM      1  C1  BNZ d   1       0.398  -2.666  -1.573  0.00  0.00     0.000 A 
ATOM      2  C2  BNZ d   1       1.508  -2.411  -0.813  0.00  0.00     0.000 A 
ATOM      3  C3  BNZ d   1       2.297  -3.432  -0.363  0.00  0.00     0.000 A 
ATOM      4  C4  BNZ d   1       1.955  -4.707  -0.639  0.00  0.00     0.000 A 
ATOM      5  C5  BNZ d   1       0.833  -4.980  -1.397  0.00  0.00     0.000 A 
ATOM      6  C6  BNZ d   1       0.062  -3.949  -1.881  0.00  0.00     0.000 A 
ENDROOT
TORSDOF 0
ENDMDL
