MODEL 1
REMARK minimizedAffinity -3.82766533
REMARK minimizedRMSD -1
REMARK  0 active torsions:
REMARK  status: ('A' for Active; 'I' for Inactive)
ROOT
ATOM      1  C1  BNZ d   1      -1.296   0.947   1.583  0.00  0.00     0.000 A 
ATOM      2  C2  BNZ d   1      -0.379  -0.062   1.451  0.00  0.00     0.000 A 
ATOM      3  C3  BNZ d   1       0.353  -0.196   0.304  0.00  0.00     0.000 A 
ATOM      4  C4  BNZ d   1       0.139   0.651  -0.722  0.00  0.00     0.000 A 
ATOM      5  C5  BNZ d   1      -0.789   1.668  -0.608  0.00  0.00     0.000 A 
ATOM      6  C6  BNZ d   1      -1.496   1.824   0.562  0.00  0.00     0.000 A 
ENDROOT
TORSDOF 0
ENDMDL
