MODEL 1
REMARK minimizedAffinity -4.71120262
REMARK minimizedRMSD -1
REMARK  0 active torsions:
REMARK  status: ('A' for Active; 'I' for Inactive)
ROOT
ATOM      1  C1  BNZ d   1      -0.037   1.431  -0.762  0.00  0.00     0.000 A 
ATOM      2  C2  BNZ d   1      -0.818   1.596   0.351  0.00  0.00     0.000 A 
ATOM      3  C3  BNZ d   1      -0.954   0.590   1.266  0.00  0.00     0.000 A 
ATOM      4  C4  BNZ d   1      -0.344  -0.593   1.047  0.00  0.00     0.000 A 
ATOM      5  C5  BNZ d   1       0.439  -0.778  -0.075  0.00  0.00     0.000 A 
ATOM      6  C6  BNZ d   1       0.606   0.250  -0.974  0.00  0.00     0.000 A 
ENDROOT
TORSDOF 0
ENDMDL
