MODEL 1
REMARK minimizedAffinity -4.70109224
REMARK minimizedRMSD -1
REMARK  0 active torsions:
REMARK  status: ('A' for Active; 'I' for Inactive)
ROOT
ATOM      1  C1  BNZ d   1      -1.524   0.545   1.860  0.00  0.00     0.000 A 
ATOM      2  C2  BNZ d   1      -0.330  -0.088   1.640  0.00  0.00     0.000 A 
ATOM      3  C3  BNZ d   1       0.366   0.113   0.481  0.00  0.00     0.000 A 
ATOM      4  C4  BNZ d   1      -0.152   0.915  -0.472  0.00  0.00     0.000 A 
ATOM      5  C5  BNZ d   1      -1.359   1.553  -0.269  0.00  0.00     0.000 A 
ATOM      6  C6  BNZ d   1      -2.038   1.378   0.915  0.00  0.00     0.000 A 
ENDROOT
TORSDOF 0
ENDMDL
