MODEL 1
REMARK minimizedAffinity -4.91599083
REMARK minimizedRMSD -1
REMARK  0 active torsions:
REMARK  status: ('A' for Active; 'I' for Inactive)
ROOT
ATOM      1  C1  BNZ d   1      -0.654  -0.031   1.238  0.00  0.00     0.000 A 
ATOM      2  C2  BNZ d   1      -1.651   0.568   1.961  0.00  0.00     0.000 A 
ATOM      3  C3  BNZ d   1      -2.484   1.483   1.381  0.00  0.00     0.000 A 
ATOM      4  C4  BNZ d   1      -2.295   1.827   0.090  0.00  0.00     0.000 A 
ATOM      5  C5  BNZ d   1      -1.289   1.239  -0.650  0.00  0.00     0.000 A 
ATOM      6  C6  BNZ d   1      -0.477   0.289  -0.073  0.00  0.00     0.000 A 
ENDROOT
TORSDOF 0
ENDMDL
