MODEL 1
REMARK minimizedAffinity -2.79486775
REMARK minimizedRMSD -1
REMARK  0 active torsions:
REMARK  status: ('A' for Active; 'I' for Inactive)
ROOT
ATOM      1  C1  BNZ d   1      -0.329  -0.183   1.112  0.00  0.00     0.000 A 
ATOM      2  C2  BNZ d   1      -1.176   0.799   1.553  0.00  0.00     0.000 A 
ATOM      3  C3  BNZ d   1      -1.377   1.933   0.817  0.00  0.00     0.000 A 
ATOM      4  C4  BNZ d   1      -0.702   2.102  -0.338  0.00  0.00     0.000 A 
ATOM      5  C5  BNZ d   1       0.162   1.126  -0.792  0.00  0.00     0.000 A 
ATOM      6  C6  BNZ d   1       0.333  -0.032  -0.068  0.00  0.00     0.000 A 
ENDROOT
TORSDOF 0
ENDMDL
