MODEL 1
REMARK minimizedAffinity -3.47249198
REMARK minimizedRMSD -1
REMARK  0 active torsions:
REMARK  status: ('A' for Active; 'I' for Inactive)
ROOT
ATOM      1  C1  BNZ d   1      -1.773   2.008   1.443  0.00  0.00     0.000 A 
ATOM      2  C2  BNZ d   1      -1.417   0.904   2.172  0.00  0.00     0.000 A 
ATOM      3  C3  BNZ d   1      -0.609  -0.059   1.634  0.00  0.00     0.000 A 
ATOM      4  C4  BNZ d   1      -0.190   0.063   0.358  0.00  0.00     0.000 A 
ATOM      5  C5  BNZ d   1      -0.548   1.166  -0.392  0.00  0.00     0.000 A 
ATOM      6  C6  BNZ d   1      -1.330   2.152   0.165  0.00  0.00     0.000 A 
ENDROOT
TORSDOF 0
ENDMDL
