MODEL 1
REMARK minimizedAffinity -1.86203361
REMARK minimizedRMSD -1
REMARK  0 active torsions:
REMARK  status: ('A' for Active; 'I' for Inactive)
ROOT
ATOM      1  C   UNL d   1      -0.122  -0.744   1.984  0.00  0.00     0.077 C 
ATOM      2  C1  UNL d   1       0.787  -1.640   1.196  0.00  0.00    -0.074 A 
ATOM      3  C2  UNL d   1       0.859  -3.010   1.469  0.00  0.00    -0.005 A 
ATOM      4  C3  UNL d   1       1.702  -3.832   0.721  0.00  0.00     0.006 A 
ATOM      5  C4  UNL d   1       2.481  -3.294  -0.304  0.00  0.00    -0.005 A 
ATOM      6  C5  UNL d   1       2.421  -1.926  -0.592  0.00  0.00    -0.074 A 
ATOM      7  C6  UNL d   1       3.244  -1.334  -1.697  0.00  0.00     0.077 C 
ATOM      8  C7  UNL d   1       1.566  -1.108   0.159  0.00  0.00    -0.001 A 
ENDROOT
TORSDOF 0
ENDMDL
