MODEL 1
REMARK minimizedAffinity 7.69850016
REMARK minimizedRMSD -1
REMARK  0 active torsions:
REMARK  status: ('A' for Active; 'I' for Inactive)
ROOT
ATOM      1  C   UNL d   1      -0.645  -2.460   1.629  0.00  0.00     0.077 C 
ATOM      2  C1  UNL d   1       0.814  -2.789   1.522  0.00  0.00    -0.074 A 
ATOM      3  C2  UNL d   1       1.771  -2.050   2.225  0.00  0.00    -0.005 A 
ATOM      4  C3  UNL d   1       3.124  -2.374   2.123  0.00  0.00     0.006 A 
ATOM      5  C4  UNL d   1       3.533  -3.438   1.319  0.00  0.00    -0.005 A 
ATOM      6  C5  UNL d   1       2.590  -4.189   0.609  0.00  0.00    -0.074 A 
ATOM      7  C6  UNL d   1       3.012  -5.343  -0.252  0.00  0.00     0.077 C 
ATOM      8  C7  UNL d   1       1.232  -3.862   0.723  0.00  0.00    -0.001 A 
ENDROOT
TORSDOF 0
ENDMDL
