MODEL 1
REMARK minimizedAffinity 9.53222275
REMARK minimizedRMSD -1
REMARK  0 active torsions:
REMARK  status: ('A' for Active; 'I' for Inactive)
ROOT
ATOM      1  C   UNL d   1       3.273   1.873   3.267  0.00  0.00     0.077 C 
ATOM      2  C1  UNL d   1       3.543   3.091   4.100  0.00  0.00    -0.074 A 
ATOM      3  C2  UNL d   1       2.769   3.375   5.229  0.00  0.00    -0.005 A 
ATOM      4  C3  UNL d   1       3.038   4.506   6.000  0.00  0.00     0.006 A 
ATOM      5  C4  UNL d   1       4.082   5.363   5.649  0.00  0.00    -0.005 A 
ATOM      6  C5  UNL d   1       4.868   5.094   4.524  0.00  0.00    -0.074 A 
ATOM      7  C6  UNL d   1       6.000   5.999   4.139  0.00  0.00     0.077 C 
ATOM      8  C7  UNL d   1       4.596   3.952   3.759  0.00  0.00    -0.001 A 
ENDROOT
TORSDOF 0
ENDMDL
