MODEL 1
REMARK minimizedAffinity 10.0328655
REMARK minimizedRMSD -1
REMARK  0 active torsions:
REMARK  status: ('A' for Active; 'I' for Inactive)
ROOT
ATOM      1  C   UNL d   1       2.962   2.493   2.542  0.00  0.00     0.077 C 
ATOM      2  C1  UNL d   1       2.569   3.720   3.311  0.00  0.00    -0.074 A 
ATOM      3  C2  UNL d   1       1.326   4.327   3.110  0.00  0.00    -0.005 A 
ATOM      4  C3  UNL d   1       0.971   5.462   3.839  0.00  0.00     0.006 A 
ATOM      5  C4  UNL d   1       1.855   6.000   4.775  0.00  0.00    -0.005 A 
ATOM      6  C5  UNL d   1       3.102   5.406   4.990  0.00  0.00    -0.074 A 
ATOM      7  C6  UNL d   1       4.060   5.966   6.000  0.00  0.00     0.077 C 
ATOM      8  C7  UNL d   1       3.449   4.262   4.259  0.00  0.00    -0.001 A 
ENDROOT
TORSDOF 0
ENDMDL
