MODEL 1
REMARK minimizedAffinity 4.34742212
REMARK minimizedRMSD -1
REMARK  0 active torsions:
REMARK  status: ('A' for Active; 'I' for Inactive)
ROOT
ATOM      1  C   UNL d   1      -1.843   0.727   4.149  0.00  0.00     0.077 C 
ATOM      2  C1  UNL d   1      -3.276   1.163   4.217  0.00  0.00    -0.074 A 
ATOM      3  C2  UNL d   1      -3.947   1.239   5.442  0.00  0.00    -0.005 A 
ATOM      4  C3  UNL d   1      -5.277   1.655   5.491  0.00  0.00     0.006 A 
ATOM      5  C4  UNL d   1      -5.950   1.999   4.317  0.00  0.00    -0.005 A 
ATOM      6  C5  UNL d   1      -5.295   1.930   3.083  0.00  0.00    -0.074 A 
ATOM      7  C6  UNL d   1      -6.000   2.305   1.814  0.00  0.00     0.077 C 
ATOM      8  C7  UNL d   1      -3.956   1.517   3.044  0.00  0.00    -0.001 A 
ENDROOT
TORSDOF 0
ENDMDL
