MODEL 1
REMARK minimizedAffinity 8.22958469
REMARK minimizedRMSD -1
REMARK  0 active torsions:
REMARK  status: ('A' for Active; 'I' for Inactive)
ROOT
ATOM      1  C   UNL d   1       2.297  -4.906   0.729  0.00  0.00     0.077 C 
ATOM      2  C1  UNL d   1       1.988  -3.441   0.809  0.00  0.00    -0.074 A 
ATOM      3  C2  UNL d   1       1.670  -2.709  -0.341  0.00  0.00    -0.005 A 
ATOM      4  C3  UNL d   1       1.375  -1.349  -0.249  0.00  0.00     0.006 A 
ATOM      5  C4  UNL d   1       1.395  -0.707   0.990  0.00  0.00    -0.005 A 
ATOM      6  C5  UNL d   1       1.709  -1.422   2.150  0.00  0.00    -0.074 A 
ATOM      7  C6  UNL d   1       1.726  -0.750   3.490  0.00  0.00     0.077 C 
ATOM      8  C7  UNL d   1       1.998  -2.790   2.051  0.00  0.00    -0.001 A 
ENDROOT
TORSDOF 0
ENDMDL
