MODEL 1
REMARK minimizedAffinity 7.48181677
REMARK minimizedRMSD -1
REMARK  0 active torsions:
REMARK  status: ('A' for Active; 'I' for Inactive)
ROOT
ATOM      1  C   UNL d   1       0.101  -1.491   1.499  0.00  0.00     0.077 C 
ATOM      2  C1  UNL d   1       1.302  -2.130   0.867  0.00  0.00    -0.074 A 
ATOM      3  C2  UNL d   1       1.220  -3.404   0.296  0.00  0.00    -0.005 A 
ATOM      4  C3  UNL d   1       2.342  -3.983  -0.296  0.00  0.00     0.006 A 
ATOM      5  C4  UNL d   1       3.556  -3.294  -0.323  0.00  0.00    -0.005 A 
ATOM      6  C5  UNL d   1       3.656  -2.019   0.242  0.00  0.00    -0.074 A 
ATOM      7  C6  UNL d   1       4.951  -1.262   0.213  0.00  0.00     0.077 C 
ATOM      8  C7  UNL d   1       2.522  -1.442   0.830  0.00  0.00    -0.001 A 
ENDROOT
TORSDOF 0
ENDMDL
