MODEL 1
REMARK minimizedAffinity -0.163671285
REMARK minimizedRMSD -1
REMARK  0 active torsions:
REMARK  status: ('A' for Active; 'I' for Inactive)
ROOT
ATOM      1  C   UNL d   1      -5.993   1.912   3.318  0.00  0.00     0.077 C 
ATOM      2  C1  UNL d   1      -5.013   2.548   4.259  0.00  0.00    -0.074 A 
ATOM      3  C2  UNL d   1      -3.907   1.836   4.735  0.00  0.00    -0.005 A 
ATOM      4  C3  UNL d   1      -2.999   2.444   5.602  0.00  0.00     0.006 A 
ATOM      5  C4  UNL d   1      -3.187   3.768   6.000  0.00  0.00    -0.005 A 
ATOM      6  C5  UNL d   1      -4.286   4.496   5.533  0.00  0.00    -0.074 A 
ATOM      7  C6  UNL d   1      -4.497   5.923   5.944  0.00  0.00     0.077 C 
ATOM      8  C7  UNL d   1      -5.190   3.880   4.657  0.00  0.00    -0.001 A 
ENDROOT
TORSDOF 0
ENDMDL
