MODEL 1
REMARK minimizedAffinity 3.33442593
REMARK minimizedRMSD -1
REMARK  0 active torsions:
REMARK  status: ('A' for Active; 'I' for Inactive)
ROOT
ATOM      1  C4' PXY d   1       2.257  -0.090  -0.020  0.00  0.00     0.077 C 
ATOM      2  C1' PXY d   1      -0.901  -4.774  -1.247  0.00  0.00     0.077 C 
ATOM      3  C1  PXY d   1      -0.067  -3.552  -0.916  0.00  0.00    -0.082 A 
ATOM      4  C2  PXY d   1      -0.529  -2.346  -1.205  0.00  0.00     0.003 A 
ATOM      5  C3  PXY d   1       0.227  -1.233  -0.942  0.00  0.00     0.003 A 
ATOM      6  C4  PXY d   1       1.445  -1.351  -0.328  0.00  0.00    -0.082 A 
ATOM      7  C5  PXY d   1       1.918  -2.577  -0.020  0.00  0.00     0.003 A 
ATOM      8  C6  PXY d   1       1.154  -3.697  -0.333  0.00  0.00     0.003 A 
ENDROOT
TORSDOF 0
ENDMDL
