MODEL 1
REMARK minimizedAffinity 0.0164807104
REMARK minimizedRMSD -1
REMARK  0 active torsions:
REMARK  status: ('A' for Active; 'I' for Inactive)
ROOT
ATOM      1  C4' PXY d   1       4.574   2.216  -0.862  0.00  0.00     0.077 C 
ATOM      2  C1' PXY d   1       1.644  -2.667   0.128  0.00  0.00     0.077 C 
ATOM      3  C1  PXY d   1       2.401  -1.380  -0.134  0.00  0.00    -0.082 A 
ATOM      4  C2  PXY d   1       3.683  -1.430  -0.457  0.00  0.00     0.003 A 
ATOM      5  C3  PXY d   1       4.391  -0.275  -0.666  0.00  0.00     0.003 A 
ATOM      6  C4  PXY d   1       3.767   0.942  -0.597  0.00  0.00    -0.082 A 
ATOM      7  C5  PXY d   1       2.456   1.001  -0.279  0.00  0.00     0.003 A 
ATOM      8  C6  PXY d   1       1.766  -0.181  -0.030  0.00  0.00     0.003 A 
ENDROOT
TORSDOF 0
ENDMDL
