MODEL 1
REMARK minimizedAffinity 3.47675681
REMARK minimizedRMSD -1
REMARK  0 active torsions:
REMARK  status: ('A' for Active; 'I' for Inactive)
ROOT
ATOM      1  C4' PXY d   1      -3.375   1.938   1.900  0.00  0.00     0.077 C 
ATOM      2  C1' PXY d   1       2.229   1.778   0.490  0.00  0.00     0.077 C 
ATOM      3  C1  PXY d   1       0.762   1.811   0.869  0.00  0.00    -0.082 A 
ATOM      4  C2  PXY d   1      -0.139   2.165  -0.033  0.00  0.00     0.003 A 
ATOM      5  C3  PXY d   1      -1.467   2.231   0.302  0.00  0.00     0.003 A 
ATOM      6  C4  PXY d   1      -1.883   1.881   1.559  0.00  0.00    -0.082 A 
ATOM      7  C5  PXY d   1      -0.971   1.509   2.482  0.00  0.00     0.003 A 
ATOM      8  C6  PXY d   1       0.376   1.488   2.134  0.00  0.00     0.003 A 
ENDROOT
TORSDOF 0
ENDMDL
