MODEL 1
REMARK minimizedAffinity -1.68565488
REMARK minimizedRMSD -1
REMARK  0 active torsions:
REMARK  status: ('A' for Active; 'I' for Inactive)
ROOT
ATOM      1  C4' PXY d   1       2.738  -0.900   0.067  0.00  0.00     0.077 C 
ATOM      2  C1' PXY d   1      -1.484  -4.243  -2.034  0.00  0.00     0.077 C 
ATOM      3  C1  PXY d   1      -0.377  -3.372  -1.472  0.00  0.00    -0.082 A 
ATOM      4  C2  PXY d   1      -0.136  -2.190  -2.014  0.00  0.00     0.003 A 
ATOM      5  C3  PXY d   1       0.881  -1.403  -1.538  0.00  0.00     0.003 A 
ATOM      6  C4  PXY d   1       1.625  -1.808  -0.462  0.00  0.00    -0.082 A 
ATOM      7  C5  PXY d   1       1.378  -3.009   0.103  0.00  0.00     0.003 A 
ATOM      8  C6  PXY d   1       0.368  -3.810  -0.421  0.00  0.00     0.003 A 
ENDROOT
TORSDOF 0
ENDMDL
