MODEL 1
REMARK minimizedAffinity 5.8389864
REMARK minimizedRMSD -1
REMARK  0 active torsions:
REMARK  status: ('A' for Active; 'I' for Inactive)
ROOT
ATOM      1  C4' PXY d   1       1.510  -0.540   1.481  0.00  0.00     0.077 C 
ATOM      2  C1' PXY d   1      -0.850  -2.584  -3.384  0.00  0.00     0.077 C 
ATOM      3  C1  PXY d   1      -0.225  -2.059  -2.106  0.00  0.00    -0.082 A 
ATOM      4  C2  PXY d   1      -0.805  -1.064  -1.455  0.00  0.00     0.003 A 
ATOM      5  C3  PXY d   1      -0.236  -0.556  -0.316  0.00  0.00     0.003 A 
ATOM      6  C4  PXY d   1       0.909  -1.108   0.192  0.00  0.00    -0.082 A 
ATOM      7  C5  PXY d   1       1.501  -2.131  -0.460  0.00  0.00     0.003 A 
ATOM      8  C6  PXY d   1       0.930  -2.605  -1.638  0.00  0.00     0.003 A 
ENDROOT
TORSDOF 0
ENDMDL
