MODEL 1
REMARK minimizedAffinity -2.11120391
REMARK minimizedRMSD -1
REMARK  0 active torsions:
REMARK  status: ('A' for Active; 'I' for Inactive)
ROOT
ATOM      1  C4' PXY d   1       3.832   0.778  -0.771  0.00  0.00     0.077 C 
ATOM      2  C1' PXY d   1      -0.860  -2.572  -1.186  0.00  0.00     0.077 C 
ATOM      3  C1  PXY d   1       0.363  -1.683  -1.081  0.00  0.00    -0.082 A 
ATOM      4  C2  PXY d   1       1.570  -2.219  -1.162  0.00  0.00     0.003 A 
ATOM      5  C3  PXY d   1       2.687  -1.434  -1.037  0.00  0.00     0.003 A 
ATOM      6  C4  PXY d   1       2.568  -0.079  -0.881  0.00  0.00    -0.082 A 
ATOM      7  C5  PXY d   1       1.340   0.477  -0.809  0.00  0.00     0.003 A 
ATOM      8  C6  PXY d   1       0.219  -0.343  -0.896  0.00  0.00     0.003 A 
ENDROOT
TORSDOF 0
ENDMDL
