MODEL 1
REMARK minimizedAffinity 3.74452472
REMARK minimizedRMSD -1
REMARK  0 active torsions:
REMARK  status: ('A' for Active; 'I' for Inactive)
ROOT
ATOM      1  C4' PXY d   1       0.132  -1.082  -0.263  0.00  0.00     0.077 C 
ATOM      2  C1' PXY d   1       5.386   0.836  -1.722  0.00  0.00     0.077 C 
ATOM      3  C1  PXY d   1       4.009   0.323  -1.348  0.00  0.00    -0.082 A 
ATOM      4  C2  PXY d   1       3.117   1.157  -0.837  0.00  0.00     0.003 A 
ATOM      5  C3  PXY d   1       1.878   0.703  -0.464  0.00  0.00     0.003 A 
ATOM      6  C4  PXY d   1       1.531  -0.606  -0.664  0.00  0.00    -0.082 A 
ATOM      7  C5  PXY d   1       2.432  -1.460  -1.194  0.00  0.00     0.003 A 
ATOM      8  C6  PXY d   1       3.698  -0.989  -1.528  0.00  0.00     0.003 A 
ENDROOT
TORSDOF 0
ENDMDL
