MODEL 1
REMARK minimizedAffinity 1.96770835
REMARK minimizedRMSD -1
REMARK  0 active torsions:
REMARK  status: ('A' for Active; 'I' for Inactive)
ROOT
ATOM      1  C4' PXY d   1      -0.027  -2.163  -0.881  0.00  0.00     0.077 C 
ATOM      2  C1' PXY d   1       0.493   3.230   1.135  0.00  0.00     0.077 C 
ATOM      3  C1  PXY d   1       0.349   1.813   0.617  0.00  0.00    -0.082 A 
ATOM      4  C2  PXY d   1       1.265   1.319  -0.201  0.00  0.00     0.003 A 
ATOM      5  C3  PXY d   1       1.134   0.050  -0.704  0.00  0.00     0.003 A 
ATOM      6  C4  PXY d   1       0.082  -0.740  -0.325  0.00  0.00    -0.082 A 
ATOM      7  C5  PXY d   1      -0.851  -0.248   0.517  0.00  0.00     0.003 A 
ATOM      8  C6  PXY d   1      -0.721   1.057   0.984  0.00  0.00     0.003 A 
ENDROOT
TORSDOF 0
ENDMDL
