MODEL 1
REMARK minimizedAffinity -3.28136277
REMARK minimizedRMSD -1
REMARK  0 active torsions:
REMARK  status: ('A' for Active; 'I' for Inactive)
ROOT
ATOM      1  C   UNL d   1       1.333  -0.348   0.115  0.00  0.00     0.078 C 
ATOM      2  C1  UNL d   1       1.991   0.936   0.524  0.00  0.00    -0.077 A 
ATOM      3  C2  UNL d   1       2.832   1.628  -0.356  0.00  0.00    -0.001 A 
ATOM      4  C3  UNL d   1       3.446   2.816   0.043  0.00  0.00     0.003 A 
ATOM      5  C4  UNL d   1       3.227   3.322   1.322  0.00  0.00    -0.005 A 
ATOM      6  C5  UNL d   1       2.394   2.639   2.206  0.00  0.00     0.003 A 
ATOM      7  C6  UNL d   1       1.779   1.451   1.809  0.00  0.00    -0.001 A 
ENDROOT
TORSDOF 0
ENDMDL
