MODEL 1
REMARK minimizedAffinity -1.58361006
REMARK minimizedRMSD -1
REMARK  0 active torsions:
REMARK  status: ('A' for Active; 'I' for Inactive)
ROOT
ATOM      1  C   UNL d   1       1.349   0.982   0.255  0.00  0.00     0.078 C 
ATOM      2  C1  UNL d   1       0.107   0.375  -0.325  0.00  0.00    -0.077 A 
ATOM      3  C2  UNL d   1      -0.639   1.051  -1.299  0.00  0.00    -0.001 A 
ATOM      4  C3  UNL d   1      -1.799   0.478  -1.823  0.00  0.00     0.003 A 
ATOM      5  C4  UNL d   1      -2.224  -0.773  -1.379  0.00  0.00    -0.005 A 
ATOM      6  C5  UNL d   1      -1.489  -1.451  -0.409  0.00  0.00     0.003 A 
ATOM      7  C6  UNL d   1      -0.329  -0.880   0.117  0.00  0.00    -0.001 A 
ENDROOT
TORSDOF 0
ENDMDL
