MODEL 1
REMARK minimizedAffinity -3.12164426
REMARK minimizedRMSD -1
REMARK  0 active torsions:
REMARK  status: ('A' for Active; 'I' for Inactive)
ROOT
ATOM      1  C   UNL d   1      -0.947  -2.644   1.441  0.00  0.00     0.078 C 
ATOM      2  C1  UNL d   1      -0.475  -1.491   0.607  0.00  0.00    -0.077 A 
ATOM      3  C2  UNL d   1      -1.334  -0.855  -0.298  0.00  0.00    -0.001 A 
ATOM      4  C3  UNL d   1      -0.878   0.211  -1.075  0.00  0.00     0.003 A 
ATOM      5  C4  UNL d   1       0.439   0.650  -0.956  0.00  0.00    -0.005 A 
ATOM      6  C5  UNL d   1       1.302   0.023  -0.060  0.00  0.00     0.003 A 
ATOM      7  C6  UNL d   1       0.848  -1.043   0.718  0.00  0.00    -0.001 A 
ENDROOT
TORSDOF 0
ENDMDL
