MODEL 1
REMARK minimizedAffinity -3.00502539
REMARK minimizedRMSD -1
REMARK  0 active torsions:
REMARK  status: ('A' for Active; 'I' for Inactive)
ROOT
ATOM      1  C   UNL d   1      -0.469   0.303  -0.869  0.00  0.00     0.078 C 
ATOM      2  C1  UNL d   1       0.712   0.772  -0.073  0.00  0.00    -0.077 A 
ATOM      3  C2  UNL d   1       0.789   2.089   0.397  0.00  0.00    -0.001 A 
ATOM      4  C3  UNL d   1       1.899   2.515   1.128  0.00  0.00     0.003 A 
ATOM      5  C4  UNL d   1       2.942   1.630   1.395  0.00  0.00    -0.005 A 
ATOM      6  C5  UNL d   1       2.875   0.318   0.931  0.00  0.00     0.003 A 
ATOM      7  C6  UNL d   1       1.766  -0.109   0.199  0.00  0.00    -0.001 A 
ENDROOT
TORSDOF 0
ENDMDL
