MODEL 1
REMARK minimizedAffinity -0.726882041
REMARK minimizedRMSD -1
REMARK  0 active torsions:
REMARK  status: ('A' for Active; 'I' for Inactive)
ROOT
ATOM      1  C   UNL d   1       1.100   0.787   0.159  0.00  0.00     0.078 C 
ATOM      2  C1  UNL d   1      -0.135  -0.013  -0.129  0.00  0.00    -0.077 A 
ATOM      3  C2  UNL d   1      -0.929   0.264  -1.249  0.00  0.00    -0.001 A 
ATOM      4  C3  UNL d   1      -2.081  -0.483  -1.499  0.00  0.00     0.003 A 
ATOM      5  C4  UNL d   1      -2.451  -1.510  -0.633  0.00  0.00    -0.005 A 
ATOM      6  C5  UNL d   1      -1.669  -1.792   0.485  0.00  0.00     0.003 A 
ATOM      7  C6  UNL d   1      -0.516  -1.046   0.737  0.00  0.00    -0.001 A 
ENDROOT
TORSDOF 0
ENDMDL
