MODEL 1
REMARK minimizedAffinity -3.0352881
REMARK minimizedRMSD -1
REMARK  0 active torsions:
REMARK  status: ('A' for Active; 'I' for Inactive)
ROOT
ATOM      1  C   UNL d   1      -2.623  -2.720  -0.077  0.00  0.00     0.078 C 
ATOM      2  C1  UNL d   1      -1.748  -1.531  -0.338  0.00  0.00    -0.077 A 
ATOM      3  C2  UNL d   1      -0.698  -1.204   0.528  0.00  0.00    -0.001 A 
ATOM      4  C3  UNL d   1       0.103  -0.088   0.278  0.00  0.00     0.003 A 
ATOM      5  C4  UNL d   1      -0.138   0.710  -0.839  0.00  0.00    -0.005 A 
ATOM      6  C5  UNL d   1      -1.182   0.393  -1.706  0.00  0.00     0.003 A 
ATOM      7  C6  UNL d   1      -1.984  -0.722  -1.457  0.00  0.00    -0.001 A 
ENDROOT
TORSDOF 0
ENDMDL
