MODEL 1
REMARK minimizedAffinity -1.96223259
REMARK minimizedRMSD -1
REMARK  0 active torsions:
REMARK  status: ('A' for Active; 'I' for Inactive)
ROOT
ATOM      1  C   UNL d   1       2.403   1.657   0.746  0.00  0.00     0.078 C 
ATOM      2  C1  UNL d   1       1.356   0.708   0.244  0.00  0.00    -0.077 A 
ATOM      3  C2  UNL d   1       1.199  -0.561   0.814  0.00  0.00    -0.001 A 
ATOM      4  C3  UNL d   1       0.227  -1.437   0.331  0.00  0.00     0.003 A 
ATOM      5  C4  UNL d   1      -0.597  -1.054  -0.726  0.00  0.00    -0.005 A 
ATOM      6  C5  UNL d   1      -0.447   0.206  -1.302  0.00  0.00     0.003 A 
ATOM      7  C6  UNL d   1       0.525   1.083  -0.820  0.00  0.00    -0.001 A 
ENDROOT
TORSDOF 0
ENDMDL
