MODEL 1
REMARK minimizedAffinity -2.98583722
REMARK minimizedRMSD -1
REMARK  0 active torsions:
REMARK  status: ('A' for Active; 'I' for Inactive)
ROOT
ATOM      1  C   UNL d   1       1.723  -0.363   0.160  0.00  0.00     0.078 C 
ATOM      2  C1  UNL d   1       0.366  -0.183  -0.453  0.00  0.00    -0.077 A 
ATOM      3  C2  UNL d   1      -0.720  -0.966  -0.043  0.00  0.00    -0.001 A 
ATOM      4  C3  UNL d   1      -1.975  -0.794  -0.630  0.00  0.00     0.003 A 
ATOM      5  C4  UNL d   1      -2.155   0.159  -1.629  0.00  0.00    -0.005 A 
ATOM      6  C5  UNL d   1      -1.080   0.942  -2.045  0.00  0.00     0.003 A 
ATOM      7  C6  UNL d   1       0.176   0.771  -1.460  0.00  0.00    -0.001 A 
ENDROOT
TORSDOF 0
ENDMDL
