MODEL 1
REMARK minimizedAffinity -2.78473449
REMARK minimizedRMSD -1
REMARK  0 active torsions:
REMARK  status: ('A' for Active; 'I' for Inactive)
ROOT
ATOM      1  C   UNL d   1       0.932   0.952   0.338  0.00  0.00     0.078 C 
ATOM      2  C1  UNL d   1      -0.268   0.191  -0.141  0.00  0.00    -0.077 A 
ATOM      3  C2  UNL d   1      -1.213   0.790  -0.983  0.00  0.00    -0.001 A 
ATOM      4  C3  UNL d   1      -2.331   0.073  -1.413  0.00  0.00     0.003 A 
ATOM      5  C4  UNL d   1      -2.514  -1.247  -1.007  0.00  0.00    -0.005 A 
ATOM      6  C5  UNL d   1      -1.580  -1.851  -0.167  0.00  0.00     0.003 A 
ATOM      7  C6  UNL d   1      -0.462  -1.136   0.264  0.00  0.00    -0.001 A 
ENDROOT
TORSDOF 0
ENDMDL
