MODEL 1
REMARK minimizedAffinity -2.12050533
REMARK minimizedRMSD -1
REMARK  0 active torsions:
REMARK  status: ('A' for Active; 'I' for Inactive)
ROOT
ATOM      1  C   UNL d   1      -0.593   0.645  -1.687  0.00  0.00     0.078 C 
ATOM      2  C1  UNL d   1       0.562   0.647  -0.731  0.00  0.00    -0.077 A 
ATOM      3  C2  UNL d   1       1.466   1.716  -0.695  0.00  0.00    -0.001 A 
ATOM      4  C3  UNL d   1       2.542   1.700   0.194  0.00  0.00     0.003 A 
ATOM      5  C4  UNL d   1       2.725   0.618   1.053  0.00  0.00    -0.005 A 
ATOM      6  C5  UNL d   1       1.831  -0.451   1.023  0.00  0.00     0.003 A 
ATOM      7  C6  UNL d   1       0.754  -0.437   0.134  0.00  0.00    -0.001 A 
ENDROOT
TORSDOF 0
ENDMDL
