MODEL 1
REMARK minimizedAffinity -4.19425344
REMARK minimizedRMSD -1
REMARK  0 active torsions:
REMARK  status: ('A' for Active; 'I' for Inactive)
ROOT
ATOM      1  C   UNL d   1       0.917   0.230   0.377  0.00  0.00     0.078 C 
ATOM      2  C1  UNL d   1      -0.308  -0.632   0.289  0.00  0.00    -0.077 A 
ATOM      3  C2  UNL d   1      -0.436  -1.785   1.073  0.00  0.00    -0.001 A 
ATOM      4  C3  UNL d   1      -1.577  -2.583   0.974  0.00  0.00     0.003 A 
ATOM      5  C4  UNL d   1      -2.598  -2.237   0.091  0.00  0.00    -0.005 A 
ATOM      6  C5  UNL d   1      -2.478  -1.092  -0.695  0.00  0.00     0.003 A 
ATOM      7  C6  UNL d   1      -1.338  -0.293  -0.597  0.00  0.00    -0.001 A 
ENDROOT
TORSDOF 0
ENDMDL
