MODEL 1
REMARK minimizedAffinity -0.881473005
REMARK minimizedRMSD -1
REMARK  0 active torsions:
REMARK  status: ('A' for Active; 'I' for Inactive)
ROOT
ATOM      1  C   UNL d   1      -1.513  -3.360   0.582  0.00  0.00     0.078 C 
ATOM      2  C1  UNL d   1      -1.246  -2.053  -0.102  0.00  0.00    -0.077 A 
ATOM      3  C2  UNL d   1      -0.217  -1.208   0.333  0.00  0.00    -0.001 A 
ATOM      4  C3  UNL d   1       0.014   0.010  -0.307  0.00  0.00     0.003 A 
ATOM      5  C4  UNL d   1      -0.779   0.396  -1.386  0.00  0.00    -0.005 A 
ATOM      6  C5  UNL d   1      -1.806  -0.437  -1.825  0.00  0.00     0.003 A 
ATOM      7  C6  UNL d   1      -2.039  -1.656  -1.186  0.00  0.00    -0.001 A 
ENDROOT
TORSDOF 0
ENDMDL
