MODEL 1
REMARK minimizedAffinity -2.15688038
REMARK minimizedRMSD -1
REMARK  0 active torsions:
REMARK  status: ('A' for Active; 'I' for Inactive)
ROOT
ATOM      1  C   UNL d   1      -2.218   0.958  -2.542  0.00  0.00     0.078 C 
ATOM      2  C1  UNL d   1      -2.217  -0.007  -1.395  0.00  0.00    -0.077 A 
ATOM      3  C2  UNL d   1      -1.051  -0.692  -1.029  0.00  0.00    -0.001 A 
ATOM      4  C3  UNL d   1      -1.067  -1.595   0.035  0.00  0.00     0.003 A 
ATOM      5  C4  UNL d   1      -2.246  -1.822   0.742  0.00  0.00    -0.005 A 
ATOM      6  C5  UNL d   1      -3.411  -1.147   0.385  0.00  0.00     0.003 A 
ATOM      7  C6  UNL d   1      -3.398  -0.244  -0.679  0.00  0.00    -0.001 A 
ENDROOT
TORSDOF 0
ENDMDL
