MODEL 1
REMARK minimizedAffinity -3.65182614
REMARK minimizedRMSD -1
REMARK  0 active torsions:
REMARK  status: ('A' for Active; 'I' for Inactive)
ROOT
ATOM      1  C   UNL d   1      -2.223  -0.722  -1.458  0.00  0.00     0.078 C 
ATOM      2  C1  UNL d   1      -0.947  -0.229  -0.843  0.00  0.00    -0.077 A 
ATOM      3  C2  UNL d   1      -0.235   0.833  -1.414  0.00  0.00    -0.001 A 
ATOM      4  C3  UNL d   1       0.956   1.275  -0.836  0.00  0.00     0.003 A 
ATOM      5  C4  UNL d   1       1.446   0.660   0.314  0.00  0.00    -0.005 A 
ATOM      6  C5  UNL d   1       0.746  -0.399   0.888  0.00  0.00     0.003 A 
ATOM      7  C6  UNL d   1      -0.446  -0.843   0.312  0.00  0.00    -0.001 A 
ENDROOT
TORSDOF 0
ENDMDL
