MODEL 1
REMARK minimizedAffinity -1.08967221
REMARK minimizedRMSD -1
REMARK  0 active torsions:
REMARK  status: ('A' for Active; 'I' for Inactive)
ROOT
ATOM      1  C   UNL d   1      -0.344  -1.601   1.307  0.00  0.00     0.078 C 
ATOM      2  C1  UNL d   1       0.442  -0.495   0.669  0.00  0.00    -0.077 A 
ATOM      3  C2  UNL d   1       1.536   0.084   1.324  0.00  0.00    -0.001 A 
ATOM      4  C3  UNL d   1       2.253   1.119   0.722  0.00  0.00     0.003 A 
ATOM      5  C4  UNL d   1       1.883   1.585  -0.539  0.00  0.00    -0.005 A 
ATOM      6  C5  UNL d   1       0.795   1.017  -1.197  0.00  0.00     0.003 A 
ATOM      7  C6  UNL d   1       0.077  -0.019  -0.597  0.00  0.00    -0.001 A 
ENDROOT
TORSDOF 0
ENDMDL
