MODEL 1
REMARK minimizedAffinity -4.2046051
REMARK minimizedRMSD -1
REMARK  0 active torsions:
REMARK  status: ('A' for Active; 'I' for Inactive)
ROOT
ATOM      1  C   UNL d   1       1.616   3.355   1.275  0.00  0.00     0.078 C 
ATOM      2  C1  UNL d   1       1.000   2.190   0.559  0.00  0.00    -0.077 A 
ATOM      3  C2  UNL d   1      -0.340   2.219   0.155  0.00  0.00    -0.001 A 
ATOM      4  C3  UNL d   1      -0.903   1.124  -0.502  0.00  0.00     0.003 A 
ATOM      5  C4  UNL d   1      -0.133  -0.009  -0.759  0.00  0.00    -0.005 A 
ATOM      6  C5  UNL d   1       1.200  -0.048  -0.358  0.00  0.00     0.003 A 
ATOM      7  C6  UNL d   1       1.765   1.046   0.299  0.00  0.00    -0.001 A 
ENDROOT
TORSDOF 0
ENDMDL
