MODEL 1
REMARK minimizedAffinity 2.73808265
REMARK minimizedRMSD -1
REMARK  0 active torsions:
REMARK  status: ('A' for Active; 'I' for Inactive)
ROOT
ATOM      1  N1  IND d   1       4.110   2.492   0.005  0.00  0.00    -0.196 N 
ATOM      2  C2  IND d   1       5.130   3.353   0.298  0.00  0.00     0.054 A 
ATOM      3  C3  IND d   1       6.000   2.778   1.159  0.00  0.00    -0.031 A 
ATOM      4  C4  IND d   1       6.000   0.395   2.134  0.00  0.00     0.051 A 
ATOM      5  C5  IND d   1       5.252  -0.748   2.184  0.00  0.00    -0.031 A 
ATOM      6  C6  IND d   1       4.064  -0.873   1.495  0.00  0.00     0.015 A 
ATOM      7  C7  IND d   1       3.581   0.141   0.717  0.00  0.00    -0.016 A 
ATOM      8  C8  IND d   1       4.334   1.305   0.668  0.00  0.00    -0.047 A 
ATOM      9  C9  IND d   1       5.520   1.454   1.400  0.00  0.00    -0.096 A 
ATOM     10  HN1 IND d   1       3.442   2.662  -0.509  0.00  0.00     0.298 HD
ENDROOT
TORSDOF 0
ENDMDL
