MODEL 1
REMARK minimizedAffinity -0.762704253
REMARK minimizedRMSD -1
REMARK  0 active torsions:
REMARK  status: ('A' for Active; 'I' for Inactive)
ROOT
ATOM      1  N1  IND d   1       4.423  -1.325   1.183  0.00  0.00    -0.196 N 
ATOM      2  C2  IND d   1       5.233  -1.774   2.188  0.00  0.00     0.054 A 
ATOM      3  C3  IND d   1       5.994  -0.763   2.666  0.00  0.00    -0.031 A 
ATOM      4  C4  IND d   1       6.000   1.727   2.016  0.00  0.00     0.051 A 
ATOM      5  C5  IND d   1       5.459   2.609   1.123  0.00  0.00    -0.031 A 
ATOM      6  C6  IND d   1       4.523   2.217   0.187  0.00  0.00     0.015 A 
ATOM      7  C7  IND d   1       4.084   0.925   0.117  0.00  0.00    -0.016 A 
ATOM      8  C8  IND d   1       4.637   0.026   1.017  0.00  0.00    -0.047 A 
ATOM      9  C9  IND d   1       5.618   0.409   1.941  0.00  0.00    -0.096 A 
ATOM     10  HN1 IND d   1       3.872  -1.806   0.731  0.00  0.00     0.298 HD
ENDROOT
TORSDOF 0
ENDMDL
