MODEL 1
REMARK minimizedAffinity 3.55536056
REMARK minimizedRMSD -1
REMARK  0 active torsions:
REMARK  status: ('A' for Active; 'I' for Inactive)
ROOT
ATOM      1  N1  IND d   1       1.867  -4.283  -1.674  0.00  0.00    -0.196 N 
ATOM      2  C2  IND d   1       1.915  -4.085  -3.026  0.00  0.00     0.054 A 
ATOM      3  C3  IND d   1       0.680  -4.207  -3.563  0.00  0.00    -0.031 A 
ATOM      4  C4  IND d   1      -1.576  -4.629  -2.397  0.00  0.00     0.051 A 
ATOM      5  C5  IND d   1      -2.122  -4.911  -1.177  0.00  0.00    -0.031 A 
ATOM      6  C6  IND d   1      -1.351  -4.998  -0.036  0.00  0.00     0.015 A 
ATOM      7  C7  IND d   1      -0.000  -4.794  -0.072  0.00  0.00    -0.016 A 
ATOM      8  C8  IND d   1       0.558  -4.513  -1.311  0.00  0.00    -0.047 A 
ATOM      9  C9  IND d   1      -0.214  -4.466  -2.479  0.00  0.00    -0.096 A 
ATOM     10  HN1 IND d   1       2.541  -4.268  -1.141  0.00  0.00     0.298 HD
ENDROOT
TORSDOF 0
ENDMDL
