MODEL 1
REMARK minimizedAffinity 7.22656488
REMARK minimizedRMSD -1
REMARK  0 active torsions:
REMARK  status: ('A' for Active; 'I' for Inactive)
ROOT
ATOM      1  N1  IND d   1       1.813  -3.591  -1.525  0.00  0.00    -0.196 N 
ATOM      2  C2  IND d   1       1.891  -3.487  -2.886  0.00  0.00     0.054 A 
ATOM      3  C3  IND d   1       0.712  -3.827  -3.452  0.00  0.00    -0.031 A 
ATOM      4  C4  IND d   1      -1.510  -4.487  -2.332  0.00  0.00     0.051 A 
ATOM      5  C5  IND d   1      -2.063  -4.755  -1.111  0.00  0.00    -0.031 A 
ATOM      6  C6  IND d   1      -1.338  -4.645   0.058  0.00  0.00     0.015 A 
ATOM      7  C7  IND d   1      -0.030  -4.248   0.050  0.00  0.00    -0.016 A 
ATOM      8  C8  IND d   1       0.536  -3.982  -1.188  0.00  0.00    -0.047 A 
ATOM      9  C9  IND d   1      -0.182  -4.133  -2.381  0.00  0.00    -0.096 A 
ATOM     10  HN1 IND d   1       2.454  -3.438  -0.973  0.00  0.00     0.298 HD
ENDROOT
TORSDOF 0
ENDMDL
