MODEL 1
REMARK minimizedAffinity 4.0723567
REMARK minimizedRMSD -1
REMARK  0 active torsions:
REMARK  status: ('A' for Active; 'I' for Inactive)
ROOT
ATOM      1  N1  IND d   1       0.665  -5.999  -2.995  0.00  0.00    -0.196 N 
ATOM      2  C2  IND d   1       1.793  -5.230  -2.920  0.00  0.00     0.054 A 
ATOM      3  C3  IND d   1       1.656  -4.287  -1.961  0.00  0.00    -0.031 A 
ATOM      4  C4  IND d   1      -0.293  -3.888  -0.326  0.00  0.00     0.051 A 
ATOM      5  C5  IND d   1      -1.558  -4.312  -0.035  0.00  0.00    -0.031 A 
ATOM      6  C6  IND d   1      -2.159  -5.344  -0.727  0.00  0.00     0.015 A 
ATOM      7  C7  IND d   1      -1.509  -5.999  -1.734  0.00  0.00    -0.016 A 
ATOM      8  C8  IND d   1      -0.226  -5.566  -2.038  0.00  0.00    -0.047 A 
ATOM      9  C9  IND d   1       0.373  -4.492  -1.367  0.00  0.00    -0.096 A 
ATOM     10  HN1 IND d   1       0.534  -6.645  -3.548  0.00  0.00     0.298 HD
ENDROOT
TORSDOF 0
ENDMDL
