MODEL 1
REMARK minimizedAffinity 8.94497204
REMARK minimizedRMSD -1
REMARK  0 active torsions:
REMARK  status: ('A' for Active; 'I' for Inactive)
ROOT
ATOM      1  N1  IND d   1      -4.211   3.269   5.205  0.00  0.00    -0.196 N 
ATOM      2  C2  IND d   1      -5.282   2.748   5.874  0.00  0.00     0.054 A 
ATOM      3  C3  IND d   1      -5.554   1.500   5.430  0.00  0.00    -0.031 A 
ATOM      4  C4  IND d   1      -4.306   0.080   3.683  0.00  0.00     0.051 A 
ATOM      5  C5  IND d   1      -3.287   0.140   2.774  0.00  0.00    -0.031 A 
ATOM      6  C6  IND d   1      -2.506   1.268   2.628  0.00  0.00     0.015 A 
ATOM      7  C7  IND d   1      -2.709   2.379   3.397  0.00  0.00    -0.016 A 
ATOM      8  C8  IND d   1      -3.748   2.324   4.316  0.00  0.00    -0.047 A 
ATOM      9  C9  IND d   1      -4.571   1.197   4.439  0.00  0.00    -0.096 A 
ATOM     10  HN1 IND d   1      -3.881   4.055   5.319  0.00  0.00     0.298 HD
ENDROOT
TORSDOF 0
ENDMDL
