MODEL 1
REMARK minimizedAffinity 0.964875162
REMARK minimizedRMSD -1
REMARK  0 active torsions:
REMARK  status: ('A' for Active; 'I' for Inactive)
ROOT
ATOM      1  N1  IND d   1      -2.181   2.971   2.957  0.00  0.00    -0.196 N 
ATOM      2  C2  IND d   1      -3.334   2.386   3.399  0.00  0.00     0.054 A 
ATOM      3  C3  IND d   1      -3.316   1.058   3.144  0.00  0.00    -0.031 A 
ATOM      4  C4  IND d   1      -1.453  -0.381   2.103  0.00  0.00     0.051 A 
ATOM      5  C5  IND d   1      -0.225  -0.290   1.509  0.00  0.00    -0.031 A 
ATOM      6  C6  IND d   1       0.427   0.918   1.366  0.00  0.00     0.015 A 
ATOM      7  C7  IND d   1      -0.121   2.082   1.825  0.00  0.00    -0.016 A 
ATOM      8  C8  IND d   1      -1.370   1.994   2.423  0.00  0.00    -0.047 A 
ATOM      9  C9  IND d   1      -2.056   0.777   2.532  0.00  0.00    -0.096 A 
ATOM     10  HN1 IND d   1      -1.994   3.809   3.004  0.00  0.00     0.298 HD
ENDROOT
TORSDOF 0
ENDMDL
