MODEL 1
REMARK minimizedAffinity 9.29505062
REMARK minimizedRMSD -1
REMARK  0 active torsions:
REMARK  status: ('A' for Active; 'I' for Inactive)
ROOT
ATOM      1  N1  IND d   1      -5.996   4.918   3.858  0.00  0.00    -0.196 N 
ATOM      2  C2  IND d   1      -5.973   5.686   4.989  0.00  0.00     0.054 A 
ATOM      3  C3  IND d   1      -5.374   5.017   6.000  0.00  0.00    -0.031 A 
ATOM      4  C4  IND d   1      -4.269   2.692   5.994  0.00  0.00     0.051 A 
ATOM      5  C5  IND d   1      -4.071   1.596   5.203  0.00  0.00    -0.031 A 
ATOM      6  C6  IND d   1      -4.511   1.550   3.896  0.00  0.00     0.015 A 
ATOM      7  C7  IND d   1      -5.159   2.610   3.325  0.00  0.00    -0.016 A 
ATOM      8  C8  IND d   1      -5.367   3.722   4.128  0.00  0.00    -0.047 A 
ATOM      9  C9  IND d   1      -4.961   3.758   5.468  0.00  0.00    -0.096 A 
ATOM     10  HN1 IND d   1      -6.344   5.144   3.105  0.00  0.00     0.298 HD
ENDROOT
TORSDOF 0
ENDMDL
