MODEL 1
REMARK minimizedAffinity 6.40027809
REMARK minimizedRMSD -1
REMARK  0 active torsions:
REMARK  status: ('A' for Active; 'I' for Inactive)
ROOT
ATOM      1  N1  IND d   1      -5.962   1.427   5.506  0.00  0.00    -0.196 N 
ATOM      2  C2  IND d   1      -5.943   2.702   5.999  0.00  0.00     0.054 A 
ATOM      3  C3  IND d   1      -4.899   3.390   5.484  0.00  0.00    -0.031 A 
ATOM      4  C4  IND d   1      -3.156   2.652   3.738  0.00  0.00     0.051 A 
ATOM      5  C5  IND d   1      -2.743   1.564   3.022  0.00  0.00    -0.031 A 
ATOM      6  C6  IND d   1      -3.396   0.351   3.097  0.00  0.00     0.015 A 
ATOM      7  C7  IND d   1      -4.499   0.183   3.885  0.00  0.00    -0.016 A 
ATOM      8  C8  IND d   1      -4.918   1.284   4.619  0.00  0.00    -0.047 A 
ATOM      9  C9  IND d   1      -4.233   2.506   4.580  0.00  0.00    -0.096 A 
ATOM     10  HN1 IND d   1      -6.531   0.817   5.715  0.00  0.00     0.298 HD
ENDROOT
TORSDOF 0
ENDMDL
