MODEL 1
REMARK minimizedAffinity 0.215609163
REMARK minimizedRMSD -1
REMARK  0 active torsions:
REMARK  status: ('A' for Active; 'I' for Inactive)
ROOT
ATOM      1  N1  IND d   1      -4.218   2.667   3.073  0.00  0.00    -0.196 N 
ATOM      2  C2  IND d   1      -4.330   2.340   4.396  0.00  0.00     0.054 A 
ATOM      3  C3  IND d   1      -3.139   1.917   4.878  0.00  0.00    -0.031 A 
ATOM      4  C4  IND d   1      -0.854   1.780   3.701  0.00  0.00     0.051 A 
ATOM      5  C5  IND d   1      -0.260   1.938   2.480  0.00  0.00    -0.031 A 
ATOM      6  C6  IND d   1      -0.969   2.358   1.373  0.00  0.00     0.015 A 
ATOM      7  C7  IND d   1      -2.302   2.648   1.448  0.00  0.00    -0.016 A 
ATOM      8  C8  IND d   1      -2.910   2.482   2.685  0.00  0.00    -0.047 A 
ATOM      9  C9  IND d   1      -2.205   2.015   3.802  0.00  0.00    -0.096 A 
ATOM     10  HN1 IND d   1      -4.858   2.942   2.569  0.00  0.00     0.298 HD
ENDROOT
TORSDOF 0
ENDMDL
