MODEL 1
REMARK minimizedAffinity 10.9400759
REMARK minimizedRMSD -1
REMARK  0 active torsions:
REMARK  status: ('A' for Active; 'I' for Inactive)
ROOT
ATOM      1  N1  IND d   1       2.591   5.362  -5.082  0.00  0.00    -0.196 N 
ATOM      2  C2  IND d   1       3.602   5.431  -5.999  0.00  0.00     0.054 A 
ATOM      3  C3  IND d   1       4.317   4.284  -5.999  0.00  0.00    -0.031 A 
ATOM      4  C4  IND d   1       3.944   2.124  -4.648  0.00  0.00     0.051 A 
ATOM      5  C5  IND d   1       3.168   1.596  -3.655  0.00  0.00    -0.031 A 
ATOM      6  C6  IND d   1       2.138   2.309  -3.076  0.00  0.00     0.015 A 
ATOM      7  C7  IND d   1       1.837   3.579  -3.479  0.00  0.00    -0.016 A 
ATOM      8  C8  IND d   1       2.627   4.121  -4.483  0.00  0.00    -0.047 A 
ATOM      9  C9  IND d   1       3.700   3.418  -5.044  0.00  0.00    -0.096 A 
ATOM     10  HN1 IND d   1       2.028   5.988  -4.907  0.00  0.00     0.298 HD
ENDROOT
TORSDOF 0
ENDMDL
