MODEL 1
REMARK minimizedAffinity 3.02094913
REMARK minimizedRMSD -1
REMARK  0 active torsions:
REMARK  status: ('A' for Active; 'I' for Inactive)
ROOT
ATOM      1  N1  IND d   1       0.071  -3.419  -2.887  0.00  0.00    -0.196 N 
ATOM      2  C2  IND d   1       0.873  -4.224  -2.128  0.00  0.00     0.054 A 
ATOM      3  C3  IND d   1       0.192  -4.693  -1.058  0.00  0.00    -0.031 A 
ATOM      4  C4  IND d   1      -2.277  -4.350  -0.413  0.00  0.00     0.051 A 
ATOM      5  C5  IND d   1      -3.400  -3.664  -0.779  0.00  0.00    -0.031 A 
ATOM      6  C6  IND d   1      -3.426  -2.846  -1.890  0.00  0.00     0.015 A 
ATOM      7  C7  IND d   1      -2.327  -2.693  -2.687  0.00  0.00    -0.016 A 
ATOM      8  C8  IND d   1      -1.182  -3.383  -2.315  0.00  0.00    -0.047 A 
ATOM      9  C9  IND d   1      -1.137  -4.181  -1.164  0.00  0.00    -0.096 A 
ATOM     10  HN1 IND d   1       0.309  -3.005  -3.602  0.00  0.00     0.298 HD
ENDROOT
TORSDOF 0
ENDMDL
