MODEL 1
REMARK minimizedAffinity 15.5776653
REMARK minimizedRMSD -1
REMARK  0 active torsions:
REMARK  status: ('A' for Active; 'I' for Inactive)
ROOT
ATOM      1  N1  IND d   1      -4.880   4.092   5.334  0.00  0.00    -0.196 N 
ATOM      2  C2  IND d   1      -5.980   3.627   6.000  0.00  0.00     0.054 A 
ATOM      3  C3  IND d   1      -6.000   2.275   5.989  0.00  0.00    -0.031 A 
ATOM      4  C4  IND d   1      -4.277   0.622   5.026  0.00  0.00     0.051 A 
ATOM      5  C5  IND d   1      -3.125   0.572   4.293  0.00  0.00    -0.031 A 
ATOM      6  C6  IND d   1      -2.484   1.716   3.863  0.00  0.00     0.015 A 
ATOM      7  C7  IND d   1      -2.968   2.959   4.161  0.00  0.00    -0.016 A 
ATOM      8  C8  IND d   1      -4.142   3.013   4.899  0.00  0.00    -0.047 A 
ATOM      9  C9  IND d   1      -4.820   1.855   5.302  0.00  0.00    -0.096 A 
ATOM     10  HN1 IND d   1      -4.683   4.919   5.208  0.00  0.00     0.298 HD
ENDROOT
TORSDOF 0
ENDMDL
