MODEL 1
REMARK minimizedAffinity 10.1403589
REMARK minimizedRMSD -1
REMARK  0 active torsions:
REMARK  status: ('A' for Active; 'I' for Inactive)
ROOT
ATOM      1  N1  IND d   1      -5.124  -3.115  -0.279  0.00  0.00    -0.196 N 
ATOM      2  C2  IND d   1      -5.532  -2.443   0.839  0.00  0.00     0.054 A 
ATOM      3  C3  IND d   1      -5.072  -1.172   0.819  0.00  0.00    -0.031 A 
ATOM      4  C4  IND d   1      -3.718   0.048  -0.999  0.00  0.00     0.051 A 
ATOM      5  C5  IND d   1      -3.079  -0.162  -2.189  0.00  0.00    -0.031 A 
ATOM      6  C6  IND d   1      -3.091  -1.390  -2.817  0.00  0.00     0.015 A 
ATOM      7  C7  IND d   1      -3.756  -2.457  -2.282  0.00  0.00    -0.016 A 
ATOM      8  C8  IND d   1      -4.400  -2.250  -1.070  0.00  0.00    -0.047 A 
ATOM      9  C9  IND d   1      -4.355  -1.017  -0.407  0.00  0.00    -0.096 A 
ATOM     10  HN1 IND d   1      -5.291  -3.939  -0.458  0.00  0.00     0.298 HD
ENDROOT
TORSDOF 0
ENDMDL
