MODEL 1
REMARK minimizedAffinity 5.71875763
REMARK minimizedRMSD -1
REMARK  0 active torsions:
REMARK  status: ('A' for Active; 'I' for Inactive)
ROOT
ATOM      1  N1  IND d   1       3.007   5.356  -5.562  0.00  0.00    -0.196 N 
ATOM      2  C2  IND d   1       4.292   5.516  -5.999  0.00  0.00     0.054 A 
ATOM      3  C3  IND d   1       5.070   4.505  -5.552  0.00  0.00    -0.031 A 
ATOM      4  C4  IND d   1       4.422   2.428  -4.175  0.00  0.00     0.051 A 
ATOM      5  C5  IND d   1       3.370   1.862  -3.511  0.00  0.00    -0.031 A 
ATOM      6  C6  IND d   1       2.118   2.441  -3.499  0.00  0.00     0.015 A 
ATOM      7  C7  IND d   1       1.867   3.609  -4.162  0.00  0.00    -0.016 A 
ATOM      8  C8  IND d   1       2.934   4.191  -4.832  0.00  0.00    -0.047 A 
ATOM      9  C9  IND d   1       4.217   3.629  -4.813  0.00  0.00    -0.096 A 
ATOM     10  HN1 IND d   1       2.354   5.894  -5.717  0.00  0.00     0.298 HD
ENDROOT
TORSDOF 0
ENDMDL
