MODEL 1
REMARK minimizedAffinity 12.5063219
REMARK minimizedRMSD -1
REMARK  0 active torsions:
REMARK  status: ('A' for Active; 'I' for Inactive)
ROOT
ATOM      1  N1  IND d   1      -4.754   3.555   5.241  0.00  0.00    -0.196 N 
ATOM      2  C2  IND d   1      -5.601   2.795   5.999  0.00  0.00     0.054 A 
ATOM      3  C3  IND d   1      -5.485   1.489   5.668  0.00  0.00    -0.031 A 
ATOM      4  C4  IND d   1      -3.896   0.364   3.984  0.00  0.00     0.051 A 
ATOM      5  C5  IND d   1      -2.963   0.649   3.027  0.00  0.00    -0.031 A 
ATOM      6  C6  IND d   1      -2.569   1.943   2.756  0.00  0.00     0.015 A 
ATOM      7  C7  IND d   1      -3.087   3.004   3.442  0.00  0.00    -0.016 A 
ATOM      8  C8  IND d   1      -4.041   2.719   4.410  0.00  0.00    -0.047 A 
ATOM      9  C9  IND d   1      -4.476   1.411   4.660  0.00  0.00    -0.096 A 
ATOM     10  HN1 IND d   1      -4.679   4.410   5.277  0.00  0.00     0.298 HD
ENDROOT
TORSDOF 0
ENDMDL
