MODEL 1
REMARK minimizedAffinity -3.21820331
REMARK minimizedRMSD -1
REMARK  0 active torsions:
REMARK  status: ('A' for Active; 'I' for Inactive)
ROOT
ATOM      1  N1  IND d   1       1.513   1.049  -2.285  0.00  0.00    -0.196 N 
ATOM      2  C2  IND d   1       1.347  -0.150  -1.649  0.00  0.00     0.054 A 
ATOM      3  C3  IND d   1       1.180   0.041  -0.321  0.00  0.00    -0.031 A 
ATOM      4  C4  IND d   1       1.044   2.240   1.010  0.00  0.00     0.051 A 
ATOM      5  C5  IND d   1       1.175   3.594   0.871  0.00  0.00    -0.031 A 
ATOM      6  C6  IND d   1       1.428   4.180  -0.352  0.00  0.00     0.015 A 
ATOM      7  C7  IND d   1       1.549   3.432  -1.489  0.00  0.00    -0.016 A 
ATOM      8  C8  IND d   1       1.423   2.057  -1.350  0.00  0.00    -0.047 A 
ATOM      9  C9  IND d   1       1.208   1.453  -0.105  0.00  0.00    -0.096 A 
ATOM     10  HN1 IND d   1       1.650   1.155  -3.127  0.00  0.00     0.298 HD
ENDROOT
TORSDOF 0
ENDMDL
