MODEL 1
REMARK minimizedAffinity -1.14864767
REMARK minimizedRMSD -1
REMARK  0 active torsions:
REMARK  status: ('A' for Active; 'I' for Inactive)
ROOT
ATOM      1  N1  IND d   1       0.960   1.859  -2.475  0.00  0.00    -0.196 N 
ATOM      2  C2  IND d   1       0.723   0.549  -2.162  0.00  0.00     0.054 A 
ATOM      3  C3  IND d   1       0.713   0.381  -0.821  0.00  0.00    -0.031 A 
ATOM      4  C4  IND d   1       0.962   2.133   1.049  0.00  0.00     0.051 A 
ATOM      5  C5  IND d   1       1.232   3.456   1.257  0.00  0.00    -0.031 A 
ATOM      6  C6  IND d   1       1.426   4.333   0.209  0.00  0.00     0.015 A 
ATOM      7  C7  IND d   1       1.346   3.920  -1.091  0.00  0.00    -0.016 A 
ATOM      8  C8  IND d   1       1.079   2.575  -1.305  0.00  0.00    -0.047 A 
ATOM      9  C9  IND d   1       0.923   1.672  -0.245  0.00  0.00    -0.096 A 
ATOM     10  HN1 IND d   1       1.024   2.181  -3.270  0.00  0.00     0.298 HD
ENDROOT
TORSDOF 0
ENDMDL
