MODEL 1
REMARK minimizedAffinity 0.120372057
REMARK minimizedRMSD -1
REMARK  0 active torsions:
REMARK  status: ('A' for Active; 'I' for Inactive)
ROOT
ATOM      1  N1  IND d   1       1.151   2.987   1.854  0.00  0.00    -0.196 N 
ATOM      2  C2  IND d   1       1.453   2.131   2.875  0.00  0.00     0.054 A 
ATOM      3  C3  IND d   1       1.699   0.892   2.393  0.00  0.00    -0.031 A 
ATOM      4  C4  IND d   1       1.762   0.068  -0.045  0.00  0.00     0.051 A 
ATOM      5  C5  IND d   1       1.517   0.476  -1.326  0.00  0.00    -0.031 A 
ATOM      6  C6  IND d   1       1.133   1.769  -1.619  0.00  0.00     0.015 A 
ATOM      7  C7  IND d   1       0.989   2.709  -0.638  0.00  0.00    -0.016 A 
ATOM      8  C8  IND d   1       1.230   2.296   0.665  0.00  0.00    -0.047 A 
ATOM      9  C9  IND d   1       1.579   0.975   0.972  0.00  0.00    -0.096 A 
ATOM     10  HN1 IND d   1       0.946   3.818   1.939  0.00  0.00     0.298 HD
ENDROOT
TORSDOF 0
ENDMDL
