MODEL 1
REMARK minimizedAffinity 1.67394578
REMARK minimizedRMSD -1
REMARK  0 active torsions:
REMARK  status: ('A' for Active; 'I' for Inactive)
ROOT
ATOM      1  N1  IND d   1       1.636   4.982  -1.355  0.00  0.00    -0.196 N 
ATOM      2  C2  IND d   1       1.609   5.529  -0.103  0.00  0.00     0.054 A 
ATOM      3  C3  IND d   1       1.351   4.577   0.821  0.00  0.00    -0.031 A 
ATOM      4  C4  IND d   1       1.041   2.040   0.513  0.00  0.00     0.051 A 
ATOM      5  C5  IND d   1       0.943   1.076  -0.451  0.00  0.00    -0.031 A 
ATOM      6  C6  IND d   1       1.077   1.370  -1.793  0.00  0.00     0.015 A 
ATOM      7  C7  IND d   1       1.326   2.644  -2.221  0.00  0.00    -0.016 A 
ATOM      8  C8  IND d   1       1.418   3.626  -1.246  0.00  0.00    -0.047 A 
ATOM      9  C9  IND d   1       1.241   3.340   0.114  0.00  0.00    -0.096 A 
ATOM     10  HN1 IND d   1       1.767   5.412  -2.088  0.00  0.00     0.298 HD
ENDROOT
TORSDOF 0
ENDMDL
