MODEL 1
REMARK minimizedAffinity 0.761954427
REMARK minimizedRMSD -1
REMARK  0 active torsions:
REMARK  status: ('A' for Active; 'I' for Inactive)
ROOT
ATOM      1  N1  IND d   1       1.497   3.904   1.053  0.00  0.00    -0.196 N 
ATOM      2  C2  IND d   1       1.484   4.976   0.204  0.00  0.00     0.054 A 
ATOM      3  C3  IND d   1       1.447   4.559  -1.081  0.00  0.00    -0.031 A 
ATOM      4  C4  IND d   1       1.298   2.166  -2.019  0.00  0.00     0.051 A 
ATOM      5  C5  IND d   1       1.319   0.855  -1.634  0.00  0.00    -0.031 A 
ATOM      6  C6  IND d   1       1.399   0.486  -0.307  0.00  0.00     0.015 A 
ATOM      7  C7  IND d   1       1.450   1.418   0.690  0.00  0.00    -0.016 A 
ATOM      8  C8  IND d   1       1.437   2.751   0.302  0.00  0.00    -0.047 A 
ATOM      9  C9  IND d   1       1.398   3.131  -1.045  0.00  0.00    -0.096 A 
ATOM     10  HN1 IND d   1       1.537   3.944   1.911  0.00  0.00     0.298 HD
ENDROOT
TORSDOF 0
ENDMDL
