MODEL 1
REMARK minimizedAffinity -2.40127301
REMARK minimizedRMSD -1
REMARK  0 active torsions:
REMARK  status: ('A' for Active; 'I' for Inactive)
ROOT
ATOM      1  N1  IND d   1       1.505   2.276  -2.423  0.00  0.00    -0.196 N 
ATOM      2  C2  IND d   1       1.463   1.007  -1.918  0.00  0.00     0.054 A 
ATOM      3  C3  IND d   1       1.542   1.033  -0.569  0.00  0.00    -0.031 A 
ATOM      4  C4  IND d   1       1.644   3.054   1.024  0.00  0.00     0.051 A 
ATOM      5  C5  IND d   1       1.743   4.417   1.029  0.00  0.00    -0.031 A 
ATOM      6  C6  IND d   1       1.765   5.151  -0.139  0.00  0.00     0.015 A 
ATOM      7  C7  IND d   1       1.678   4.548  -1.361  0.00  0.00    -0.016 A 
ATOM      8  C8  IND d   1       1.584   3.163  -1.371  0.00  0.00    -0.047 A 
ATOM      9  C9  IND d   1       1.604   2.410  -0.191  0.00  0.00    -0.096 A 
ATOM     10  HN1 IND d   1       1.486   2.486  -3.256  0.00  0.00     0.298 HD
ENDROOT
TORSDOF 0
ENDMDL
