MODEL 1
REMARK minimizedAffinity 0.971403778
REMARK minimizedRMSD -1
REMARK  0 active torsions:
REMARK  status: ('A' for Active; 'I' for Inactive)
ROOT
ATOM      1  N1  IND d   1       1.508   4.741  -2.153  0.00  0.00    -0.196 N 
ATOM      2  C2  IND d   1       1.763   5.539  -1.073  0.00  0.00     0.054 A 
ATOM      3  C3  IND d   1       1.597   4.844   0.075  0.00  0.00    -0.031 A 
ATOM      4  C4  IND d   1       1.009   2.360   0.412  0.00  0.00     0.051 A 
ATOM      5  C5  IND d   1       0.649   1.235  -0.276  0.00  0.00    -0.031 A 
ATOM      6  C6  IND d   1       0.558   1.221  -1.653  0.00  0.00     0.015 A 
ATOM      7  C7  IND d   1       0.836   2.332  -2.397  0.00  0.00    -0.016 A 
ATOM      8  C8  IND d   1       1.195   3.478  -1.701  0.00  0.00    -0.047 A 
ATOM      9  C9  IND d   1       1.247   3.511  -0.302  0.00  0.00    -0.096 A 
ATOM     10  HN1 IND d   1       1.539   4.987  -2.977  0.00  0.00     0.298 HD
ENDROOT
TORSDOF 0
ENDMDL
