MODEL 1
REMARK minimizedAffinity 7.06787825
REMARK minimizedRMSD -1
REMARK  0 active torsions:
REMARK  status: ('A' for Active; 'I' for Inactive)
ROOT
ATOM      1  N1  IND d   1       0.324   2.520  -2.650  0.00  0.00    -0.196 N 
ATOM      2  C2  IND d   1       0.719   3.686  -2.055  0.00  0.00     0.054 A 
ATOM      3  C3  IND d   1       1.651   3.437  -1.107  0.00  0.00    -0.031 A 
ATOM      4  C4  IND d   1       2.748   1.207  -0.437  0.00  0.00     0.051 A 
ATOM      5  C5  IND d   1       2.687  -0.137  -0.674  0.00  0.00    -0.031 A 
ATOM      6  C6  IND d   1       1.819  -0.675  -1.603  0.00  0.00     0.015 A 
ATOM      7  C7  IND d   1       0.985   0.116  -2.341  0.00  0.00    -0.016 A 
ATOM      8  C8  IND d   1       1.039   1.481  -2.097  0.00  0.00    -0.047 A 
ATOM      9  C9  IND d   1       1.887   2.029  -1.126  0.00  0.00    -0.096 A 
ATOM     10  HN1 IND d   1      -0.272   2.449  -3.267  0.00  0.00     0.298 HD
ENDROOT
TORSDOF 0
ENDMDL
