MODEL 1
REMARK minimizedAffinity 0.0893121511
REMARK minimizedRMSD -1
REMARK  0 active torsions:
REMARK  status: ('A' for Active; 'I' for Inactive)
ROOT
ATOM      1  N1  IND d   1       1.979   0.212  -0.107  0.00  0.00    -0.196 N 
ATOM      2  C2  IND d   1       1.610  -0.690  -1.066  0.00  0.00     0.054 A 
ATOM      3  C3  IND d   1       0.921  -0.073  -2.052  0.00  0.00    -0.031 A 
ATOM      4  C4  IND d   1       0.370   2.424  -2.347  0.00  0.00     0.051 A 
ATOM      5  C5  IND d   1       0.465   3.631  -1.712  0.00  0.00    -0.031 A 
ATOM      6  C6  IND d   1       1.085   3.763  -0.486  0.00  0.00     0.015 A 
ATOM      7  C7  IND d   1       1.645   2.690   0.148  0.00  0.00    -0.016 A 
ATOM      8  C8  IND d   1       1.543   1.462  -0.491  0.00  0.00    -0.047 A 
ATOM      9  C9  IND d   1       0.878   1.314  -1.715  0.00  0.00    -0.096 A 
ATOM     10  HN1 IND d   1       2.409   0.030   0.614  0.00  0.00     0.298 HD
ENDROOT
TORSDOF 0
ENDMDL
