MODEL 1
REMARK minimizedAffinity -4.31443453
REMARK minimizedRMSD -1
REMARK  0 active torsions:
REMARK  status: ('A' for Active; 'I' for Inactive)
ROOT
ATOM      1  N1  IND d   1       1.762   3.817  -1.145  0.00  0.00    -0.196 N 
ATOM      2  C2  IND d   1       1.784   4.420   0.082  0.00  0.00     0.054 A 
ATOM      3  C3  IND d   1       1.487   3.525   1.051  0.00  0.00    -0.031 A 
ATOM      4  C4  IND d   1       1.031   0.999   0.860  0.00  0.00     0.051 A 
ATOM      5  C5  IND d   1       0.866   0.000  -0.059  0.00  0.00    -0.031 A 
ATOM      6  C6  IND d   1       0.997   0.227  -1.414  0.00  0.00     0.015 A 
ATOM      7  C7  IND d   1       1.310   1.464  -1.902  0.00  0.00    -0.016 A 
ATOM      8  C8  IND d   1       1.471   2.482  -0.972  0.00  0.00    -0.047 A 
ATOM      9  C9  IND d   1       1.297   2.267   0.401  0.00  0.00    -0.096 A 
ATOM     10  HN1 IND d   1       1.905   4.207  -1.898  0.00  0.00     0.298 HD
ENDROOT
TORSDOF 0
ENDMDL
