MODEL 1
REMARK minimizedAffinity -2.59680963
REMARK minimizedRMSD -1
REMARK  0 active torsions:
REMARK  status: ('A' for Active; 'I' for Inactive)
ROOT
ATOM      1  N1  IND d   1       1.459   4.025  -1.225  0.00  0.00    -0.196 N 
ATOM      2  C2  IND d   1       1.281   4.656  -0.025  0.00  0.00     0.054 A 
ATOM      3  C3  IND d   1       1.003   3.756   0.944  0.00  0.00    -0.031 A 
ATOM      4  C4  IND d   1       0.891   1.188   0.807  0.00  0.00     0.051 A 
ATOM      5  C5  IND d   1       0.947   0.153  -0.084  0.00  0.00    -0.031 A 
ATOM      6  C6  IND d   1       1.184   0.360  -1.428  0.00  0.00     0.015 A 
ATOM      7  C7  IND d   1       1.386   1.614  -1.931  0.00  0.00    -0.016 A 
ATOM      8  C8  IND d   1       1.323   2.668  -1.030  0.00  0.00    -0.047 A 
ATOM      9  C9  IND d   1       1.041   2.468   0.328  0.00  0.00    -0.096 A 
ATOM     10  HN1 IND d   1       1.628   4.410  -1.975  0.00  0.00     0.298 HD
ENDROOT
TORSDOF 0
ENDMDL
