MODEL 1
REMARK minimizedAffinity -2.92927957
REMARK minimizedRMSD -1
REMARK  0 active torsions:
REMARK  status: ('A' for Active; 'I' for Inactive)
ROOT
ATOM      1  N1  IND d   1       1.294   3.709  -1.053  0.00  0.00    -0.196 N 
ATOM      2  C2  IND d   1       1.007   4.221   0.182  0.00  0.00     0.054 A 
ATOM      3  C3  IND d   1       0.675   3.229   1.038  0.00  0.00    -0.031 A 
ATOM      4  C4  IND d   1       0.635   0.684   0.654  0.00  0.00     0.051 A 
ATOM      5  C5  IND d   1       0.785  -0.261  -0.323  0.00  0.00    -0.031 A 
ATOM      6  C6  IND d   1       1.122   0.076  -1.618  0.00  0.00     0.015 A 
ATOM      7  C7  IND d   1       1.333   1.375  -1.984  0.00  0.00    -0.016 A 
ATOM      8  C8  IND d   1       1.175   2.338  -0.996  0.00  0.00    -0.047 A 
ATOM      9  C9  IND d   1       0.791   2.005   0.309  0.00  0.00    -0.096 A 
ATOM     10  HN1 IND d   1       1.511   4.167  -1.747  0.00  0.00     0.298 HD
ENDROOT
TORSDOF 0
ENDMDL
