MODEL 1
REMARK minimizedAffinity 4.62890053
REMARK minimizedRMSD -1
REMARK  0 active torsions:
REMARK  status: ('A' for Active; 'I' for Inactive)
ROOT
ATOM      1  N1  IND d   1       2.276   4.964  -2.266  0.00  0.00    -0.196 N 
ATOM      2  C2  IND d   1       2.476   6.000  -1.397  0.00  0.00     0.054 A 
ATOM      3  C3  IND d   1       2.229   5.604  -0.128  0.00  0.00    -0.031 A 
ATOM      4  C4  IND d   1       1.584   3.276   0.762  0.00  0.00     0.051 A 
ATOM      5  C5  IND d   1       1.251   2.018   0.345  0.00  0.00    -0.031 A 
ATOM      6  C6  IND d   1       1.244   1.669  -0.990  0.00  0.00     0.015 A 
ATOM      7  C7  IND d   1       1.584   2.568  -1.962  0.00  0.00    -0.016 A 
ATOM      8  C8  IND d   1       1.916   3.848  -1.543  0.00  0.00    -0.047 A 
ATOM      9  C9  IND d   1       1.884   4.219  -0.193  0.00  0.00    -0.096 A 
ATOM     10  HN1 IND d   1       2.361   5.003  -3.121  0.00  0.00     0.298 HD
ENDROOT
TORSDOF 0
ENDMDL
