MODEL 1
REMARK minimizedAffinity 6.61748362
REMARK minimizedRMSD -1
REMARK  0 active torsions:
REMARK  status: ('A' for Active; 'I' for Inactive)
ROOT
ATOM      1  N1  IND d   1       1.433   3.984   1.119  0.00  0.00    -0.196 N 
ATOM      2  C2  IND d   1       1.455   5.100   0.330  0.00  0.00     0.054 A 
ATOM      3  C3  IND d   1       1.524   4.753  -0.975  0.00  0.00    -0.031 A 
ATOM      4  C4  IND d   1       1.507   2.412  -2.047  0.00  0.00     0.051 A 
ATOM      5  C5  IND d   1       1.532   1.083  -1.732  0.00  0.00    -0.031 A 
ATOM      6  C6  IND d   1       1.523   0.643  -0.424  0.00  0.00     0.015 A 
ATOM      7  C7  IND d   1       1.477   1.521   0.622  0.00  0.00    -0.016 A 
ATOM      8  C8  IND d   1       1.457   2.872   0.306  0.00  0.00    -0.047 A 
ATOM      9  C9  IND d   1       1.509   3.325  -1.019  0.00  0.00    -0.096 A 
ATOM     10  HN1 IND d   1       1.408   3.977   1.978  0.00  0.00     0.298 HD
ENDROOT
TORSDOF 0
ENDMDL
