MODEL 1
REMARK minimizedAffinity 3.26276302
REMARK minimizedRMSD -1
REMARK  0 active torsions:
REMARK  status: ('A' for Active; 'I' for Inactive)
ROOT
ATOM      1  N1  IND d   1       2.173   1.375   0.956  0.00  0.00    -0.196 N 
ATOM      2  C2  IND d   1       1.932   2.125   2.074  0.00  0.00     0.054 A 
ATOM      3  C3  IND d   1       1.580   3.383   1.730  0.00  0.00    -0.031 A 
ATOM      4  C4  IND d   1       1.234   4.403  -0.609  0.00  0.00     0.051 A 
ATOM      5  C5  IND d   1       1.369   4.119  -1.939  0.00  0.00    -0.031 A 
ATOM      6  C6  IND d   1       1.785   2.879  -2.381  0.00  0.00     0.015 A 
ATOM      7  C7  IND d   1       2.071   1.870  -1.505  0.00  0.00    -0.016 A 
ATOM      8  C8  IND d   1       1.942   2.158  -0.154  0.00  0.00    -0.047 A 
ATOM      9  C9  IND d   1       1.562   3.426   0.302  0.00  0.00    -0.096 A 
ATOM     10  HN1 IND d   1       2.426   0.554   0.948  0.00  0.00     0.298 HD
ENDROOT
TORSDOF 0
ENDMDL
