MODEL 1
REMARK minimizedAffinity -0.102131382
REMARK minimizedRMSD -1
REMARK  0 active torsions:
REMARK  status: ('A' for Active; 'I' for Inactive)
ROOT
ATOM      1  N1  IND d   1       0.777  -2.054   0.189  0.00  0.00    -0.196 N 
ATOM      2  C2  IND d   1       0.334  -2.865  -0.819  0.00  0.00     0.054 A 
ATOM      3  C3  IND d   1       0.347  -2.201  -1.997  0.00  0.00    -0.031 A 
ATOM      4  C4  IND d   1       1.154   0.187  -2.519  0.00  0.00     0.051 A 
ATOM      5  C5  IND d   1       1.611   1.325  -1.917  0.00  0.00    -0.031 A 
ATOM      6  C6  IND d   1       1.821   1.396  -0.555  0.00  0.00     0.015 A 
ATOM      7  C7  IND d   1       1.590   0.322   0.258  0.00  0.00    -0.016 A 
ATOM      8  C8  IND d   1       1.119  -0.833  -0.349  0.00  0.00    -0.047 A 
ATOM      9  C9  IND d   1       0.864  -0.897  -1.725  0.00  0.00    -0.096 A 
ATOM     10  HN1 IND d   1       0.833  -2.271   1.019  0.00  0.00     0.298 HD
ENDROOT
TORSDOF 0
ENDMDL
