MODEL 1
REMARK minimizedAffinity 2.49444413
REMARK minimizedRMSD -1
REMARK  0 active torsions:
REMARK  status: ('A' for Active; 'I' for Inactive)
ROOT
ATOM      1  N1  IND d   1       0.476   2.189  -1.142  0.00  0.00    -0.196 N 
ATOM      2  C2  IND d   1       0.687   1.338  -2.191  0.00  0.00     0.054 A 
ATOM      3  C3  IND d   1       1.710   0.497  -1.916  0.00  0.00    -0.031 A 
ATOM      4  C4  IND d   1       3.111   0.273   0.232  0.00  0.00     0.051 A 
ATOM      5  C5  IND d   1       3.313   0.856   1.452  0.00  0.00    -0.031 A 
ATOM      6  C6  IND d   1       2.563   1.932   1.879  0.00  0.00     0.015 A 
ATOM      7  C7  IND d   1       1.570   2.461   1.103  0.00  0.00    -0.016 A 
ATOM      8  C8  IND d   1       1.367   1.877  -0.139  0.00  0.00    -0.047 A 
ATOM      9  C9  IND d   1       2.154   0.812  -0.595  0.00  0.00    -0.096 A 
ATOM     10  HN1 IND d   1      -0.113   2.814  -1.114  0.00  0.00     0.298 HD
ENDROOT
TORSDOF 0
ENDMDL
