MODEL 1
REMARK minimizedAffinity 5.90747643
REMARK minimizedRMSD -1
REMARK  0 active torsions:
REMARK  status: ('A' for Active; 'I' for Inactive)
ROOT
ATOM      1  N1  IND d   1       1.422   3.990  -2.212  0.00  0.00    -0.196 N 
ATOM      2  C2  IND d   1       1.882   4.680  -1.125  0.00  0.00     0.054 A 
ATOM      3  C3  IND d   1       2.161   3.830  -0.112  0.00  0.00    -0.031 A 
ATOM      4  C4  IND d   1       2.034   1.259  -0.052  0.00  0.00     0.051 A 
ATOM      5  C5  IND d   1       1.636   0.183  -0.794  0.00  0.00    -0.031 A 
ATOM      6  C6  IND d   1       1.139   0.323  -2.074  0.00  0.00     0.015 A 
ATOM      7  C7  IND d   1       1.032   1.550  -2.666  0.00  0.00    -0.016 A 
ATOM      8  C8  IND d   1       1.428   2.646  -1.912  0.00  0.00    -0.047 A 
ATOM      9  C9  IND d   1       1.894   2.513  -0.598  0.00  0.00    -0.096 A 
ATOM     10  HN1 IND d   1       1.171   4.338  -2.957  0.00  0.00     0.298 HD
ENDROOT
TORSDOF 0
ENDMDL
