MODEL 1
REMARK minimizedAffinity -3.92984676
REMARK minimizedRMSD -1
REMARK  0 active torsions:
REMARK  status: ('A' for Active; 'I' for Inactive)
ROOT
ATOM      1  N1  IND d   1       1.890   2.239  -2.219  0.00  0.00    -0.196 N 
ATOM      2  C2  IND d   1       1.816   0.912  -1.901  0.00  0.00     0.054 A 
ATOM      3  C3  IND d   1       1.430   0.756  -0.615  0.00  0.00    -0.031 A 
ATOM      4  C4  IND d   1       0.770   2.539   1.121  0.00  0.00     0.051 A 
ATOM      5  C5  IND d   1       0.715   3.892   1.308  0.00  0.00    -0.031 A 
ATOM      6  C6  IND d   1       1.053   4.781   0.308  0.00  0.00     0.015 A 
ATOM      7  C7  IND d   1       1.449   4.348  -0.925  0.00  0.00    -0.016 A 
ATOM      8  C8  IND d   1       1.513   2.975  -1.117  0.00  0.00    -0.047 A 
ATOM      9  C9  IND d   1       1.212   2.068  -0.092  0.00  0.00    -0.096 A 
ATOM     10  HN1 IND d   1       2.132   2.560  -2.979  0.00  0.00     0.298 HD
ENDROOT
TORSDOF 0
ENDMDL
