MODEL 1
REMARK minimizedAffinity 0.334441274
REMARK minimizedRMSD -1
REMARK  0 active torsions:
REMARK  status: ('A' for Active; 'I' for Inactive)
ROOT
ATOM      1  C2' OXE d   1      -2.977   1.182  -5.803  0.00  0.00     0.078 C 
ATOM      2  C1' OXE d   1      -2.843  -0.289  -3.416  0.00  0.00     0.078 C 
ATOM      3  C1  OXE d   1      -2.691   1.209  -3.329  0.00  0.00    -0.078 A 
ATOM      4  C2  OXE d   1      -2.711   1.916  -4.507  0.00  0.00    -0.078 A 
ATOM      5  C3  OXE d   1      -2.630   3.305  -4.478  0.00  0.00     0.003 A 
ATOM      6  C4  OXE d   1      -2.374   3.976  -3.276  0.00  0.00    -0.002 A 
ATOM      7  C5  OXE d   1      -2.310   3.271  -2.070  0.00  0.00    -0.002 A 
ATOM      8  C6  OXE d   1      -2.509   1.895  -2.073  0.00  0.00     0.003 A 
ENDROOT
TORSDOF 0
ENDMDL
