MODEL 1
REMARK minimizedAffinity 0.370880038
REMARK minimizedRMSD -1
REMARK  0 active torsions:
REMARK  status: ('A' for Active; 'I' for Inactive)
ROOT
ATOM      1  C2' OXE d   1      -1.658   1.076  -0.186  0.00  0.00     0.078 C 
ATOM      2  C1' OXE d   1      -2.322   2.201   2.298  0.00  0.00     0.078 C 
ATOM      3  C1  OXE d   1      -1.836   0.773   2.280  0.00  0.00    -0.078 A 
ATOM      4  C2  OXE d   1      -1.558   0.216   1.055  0.00  0.00    -0.078 A 
ATOM      5  C3  OXE d   1      -1.054  -1.080   0.986  0.00  0.00     0.003 A 
ATOM      6  C4  OXE d   1      -0.974  -1.872   2.138  0.00  0.00    -0.002 A 
ATOM      7  C5  OXE d   1      -1.291  -1.336   3.391  0.00  0.00    -0.002 A 
ATOM      8  C6  OXE d   1      -1.682  -0.005   3.484  0.00  0.00     0.003 A 
ENDROOT
TORSDOF 0
ENDMDL
