MODEL 1
REMARK minimizedAffinity 5.09579468
REMARK minimizedRMSD -1
REMARK  0 active torsions:
REMARK  status: ('A' for Active; 'I' for Inactive)
ROOT
ATOM      1  C2' OXE d   1      -5.211   0.128   3.407  0.00  0.00     0.078 C 
ATOM      2  C1' OXE d   1      -6.000  -1.399   1.187  0.00  0.00     0.078 C 
ATOM      3  C1  OXE d   1      -4.523  -1.174   1.398  0.00  0.00    -0.078 A 
ATOM      4  C2  OXE d   1      -4.149  -0.387   2.460  0.00  0.00    -0.078 A 
ATOM      5  C3  OXE d   1      -2.797  -0.192   2.731  0.00  0.00     0.003 A 
ATOM      6  C4  OXE d   1      -1.821  -0.663   1.844  0.00  0.00    -0.002 A 
ATOM      7  C5  OXE d   1      -2.184  -1.434   0.734  0.00  0.00    -0.002 A 
ATOM      8  C6  OXE d   1      -3.524  -1.733   0.521  0.00  0.00     0.003 A 
ENDROOT
TORSDOF 0
ENDMDL
