MODEL 1
REMARK minimizedAffinity 1.49103427
REMARK minimizedRMSD -1
REMARK  0 active torsions:
REMARK  status: ('A' for Active; 'I' for Inactive)
ROOT
ATOM      1  C2' OXE d   1      -2.263  -0.008  -0.785  0.00  0.00     0.078 C 
ATOM      2  C1' OXE d   1      -3.984  -1.195   1.088  0.00  0.00     0.078 C 
ATOM      3  C1  OXE d   1      -2.500  -1.273   1.348  0.00  0.00    -0.078 A 
ATOM      4  C2  OXE d   1      -1.663  -0.730   0.402  0.00  0.00    -0.078 A 
ATOM      5  C3  OXE d   1      -0.288  -0.726   0.619  0.00  0.00     0.003 A 
ATOM      6  C4  OXE d   1       0.258  -1.405   1.714  0.00  0.00    -0.002 A 
ATOM      7  C5  OXE d   1      -0.574  -1.999   2.669  0.00  0.00    -0.002 A 
ATOM      8  C6  OXE d   1      -1.954  -1.905   2.523  0.00  0.00     0.003 A 
ENDROOT
TORSDOF 0
ENDMDL
