MODEL 1
REMARK minimizedAffinity -4.10155821
REMARK minimizedRMSD -1
REMARK  0 active torsions:
REMARK  status: ('A' for Active; 'I' for Inactive)
ROOT
ATOM      1  C2' OXE d   1       1.503  -3.103   1.164  0.00  0.00     0.078 C 
ATOM      2  C1' OXE d   1       1.155  -1.641  -1.206  0.00  0.00     0.078 C 
ATOM      3  C1  OXE d   1       0.135  -1.458  -0.111  0.00  0.00    -0.078 A 
ATOM      4  C2  OXE d   1       0.287  -2.213   1.027  0.00  0.00    -0.078 A 
ATOM      5  C3  OXE d   1      -0.595  -2.042   2.091  0.00  0.00     0.003 A 
ATOM      6  C4  OXE d   1      -1.723  -1.224   1.952  0.00  0.00    -0.002 A 
ATOM      7  C5  OXE d   1      -1.918  -0.477   0.786  0.00  0.00    -0.002 A 
ATOM      8  C6  OXE d   1      -0.978  -0.549  -0.236  0.00  0.00     0.003 A 
ENDROOT
TORSDOF 0
ENDMDL
