MODEL 1
REMARK minimizedAffinity -3.07270241
REMARK minimizedRMSD -1
REMARK  0 active torsions:
REMARK  status: ('A' for Active; 'I' for Inactive)
ROOT
ATOM      1  C2' OXE d   1       0.376  -0.769   0.013  0.00  0.00     0.078 C 
ATOM      2  C1' OXE d   1       0.893  -2.351   2.273  0.00  0.00     0.078 C 
ATOM      3  C1  OXE d   1      -0.442  -1.654   2.193  0.00  0.00    -0.078 A 
ATOM      4  C2  OXE d   1      -0.669  -0.845   1.105  0.00  0.00    -0.078 A 
ATOM      5  C3  OXE d   1      -1.904  -0.222   0.955  0.00  0.00     0.003 A 
ATOM      6  C4  OXE d   1      -2.861  -0.289   1.975  0.00  0.00    -0.002 A 
ATOM      7  C5  OXE d   1      -2.635  -1.076   3.109  0.00  0.00    -0.002 A 
ATOM      8  C6  OXE d   1      -1.451  -1.797   3.213  0.00  0.00     0.003 A 
ENDROOT
TORSDOF 0
ENDMDL
