MODEL 1
REMARK minimizedAffinity 3.5726583
REMARK minimizedRMSD -1
REMARK  0 active torsions:
REMARK  status: ('A' for Active; 'I' for Inactive)
ROOT
ATOM      1  C2' OXE d   1      -3.242  -0.374   0.353  0.00  0.00     0.078 C 
ATOM      2  C1' OXE d   1      -2.233  -0.113  -2.254  0.00  0.00     0.078 C 
ATOM      3  C1  OXE d   1      -1.258  -0.445  -1.152  0.00  0.00    -0.078 A 
ATOM      4  C2  OXE d   1      -1.753  -0.525   0.128  0.00  0.00    -0.078 A 
ATOM      5  C3  OXE d   1      -0.906  -0.882   1.173  0.00  0.00     0.003 A 
ATOM      6  C4  OXE d   1       0.471  -1.009   0.958  0.00  0.00    -0.002 A 
ATOM      7  C5  OXE d   1       1.002  -0.893  -0.331  0.00  0.00    -0.002 A 
ATOM      8  C6  OXE d   1       0.147  -0.654  -1.401  0.00  0.00     0.003 A 
ENDROOT
TORSDOF 0
ENDMDL
