MODEL 1
REMARK minimizedAffinity 6.06579447
REMARK minimizedRMSD -1
REMARK  0 active torsions:
REMARK  status: ('A' for Active; 'I' for Inactive)
ROOT
ATOM      1  C2' OXE d   1      -3.823  -0.985   1.354  0.00  0.00     0.078 C 
ATOM      2  C1' OXE d   1      -1.841  -0.541   3.292  0.00  0.00     0.078 C 
ATOM      3  C1  OXE d   1      -1.416  -0.570   1.845  0.00  0.00    -0.078 A 
ATOM      4  C2  OXE d   1      -2.384  -0.834   0.907  0.00  0.00    -0.078 A 
ATOM      5  C3  OXE d   1      -2.056  -0.818  -0.446  0.00  0.00     0.003 A 
ATOM      6  C4  OXE d   1      -0.722  -0.688  -0.850  0.00  0.00    -0.002 A 
ATOM      7  C5  OXE d   1       0.286  -0.458   0.092  0.00  0.00    -0.002 A 
ATOM      8  C6  OXE d   1      -0.050  -0.354   1.438  0.00  0.00     0.003 A 
ENDROOT
TORSDOF 0
ENDMDL
