MODEL 1
REMARK minimizedAffinity 1.6781795
REMARK minimizedRMSD -1
REMARK  0 active torsions:
REMARK  status: ('A' for Active; 'I' for Inactive)
ROOT
ATOM      1  C2' OXE d   1      -1.214   0.675  -0.982  0.00  0.00     0.078 C 
ATOM      2  C1' OXE d   1       0.914  -1.002  -0.246  0.00  0.00     0.078 C 
ATOM      3  C1  OXE d   1      -0.189  -0.784   0.759  0.00  0.00    -0.078 A 
ATOM      4  C2  OXE d   1      -1.203   0.075   0.408  0.00  0.00    -0.078 A 
ATOM      5  C3  OXE d   1      -2.273   0.270   1.276  0.00  0.00     0.003 A 
ATOM      6  C4  OXE d   1      -2.251  -0.281   2.564  0.00  0.00    -0.002 A 
ATOM      7  C5  OXE d   1      -1.208  -1.127   2.956  0.00  0.00    -0.002 A 
ATOM      8  C6  OXE d   1      -0.193  -1.422   2.052  0.00  0.00     0.003 A 
ENDROOT
TORSDOF 0
ENDMDL
