MODEL 1
REMARK minimizedAffinity -4.81450319
REMARK minimizedRMSD -1
REMARK  0 active torsions:
REMARK  status: ('A' for Active; 'I' for Inactive)
ROOT
ATOM      1  C   UNL d   1       1.769  -1.567   1.156  0.00  0.00     0.023 A 
ATOM      2  C1  UNL d   1       2.515  -0.621   0.453  0.00  0.00     0.003 A 
ATOM      3  C2  UNL d   1       1.884   0.489  -0.111  0.00  0.00     0.048 A 
ATOM      4  C3  UNL d   1       0.507   0.649   0.033  0.00  0.00     0.023 A 
ATOM      5  C4  UNL d   1      -0.244  -0.294   0.737  0.00  0.00     0.048 A 
ATOM      6  C5  UNL d   1       0.391  -1.403   1.298  0.00  0.00     0.003 A 
ATOM      7  I   UNL d   1      -0.435   2.302  -0.806  0.00  0.00    -0.146 I 
ENDROOT
TORSDOF 0
ENDMDL
