MODEL 1
REMARK minimizedAffinity -4.04222059
REMARK minimizedRMSD -1
REMARK  0 active torsions:
REMARK  status: ('A' for Active; 'I' for Inactive)
ROOT
ATOM      1  C   UNL d   1      -1.045   2.751  -3.617  0.00  0.00     0.023 A 
ATOM      2  C1  UNL d   1      -0.175   3.297  -2.673  0.00  0.00     0.003 A 
ATOM      3  C2  UNL d   1      -0.143   2.786  -1.374  0.00  0.00     0.048 A 
ATOM      4  C3  UNL d   1      -0.982   1.728  -1.026  0.00  0.00     0.023 A 
ATOM      5  C4  UNL d   1      -1.853   1.178  -1.968  0.00  0.00     0.048 A 
ATOM      6  C5  UNL d   1      -1.883   1.693  -3.265  0.00  0.00     0.003 A 
ATOM      7  I   UNL d   1      -0.936   0.965   0.907  0.00  0.00    -0.146 I 
ENDROOT
TORSDOF 0
ENDMDL
