MODEL 1
REMARK minimizedAffinity -3.67590022
REMARK minimizedRMSD -1
REMARK  0 active torsions:
REMARK  status: ('A' for Active; 'I' for Inactive)
ROOT
ATOM      1  C   UNL d   1       2.681  -1.259   1.085  0.00  0.00     0.023 A 
ATOM      2  C1  UNL d   1       1.344  -1.501   1.399  0.00  0.00     0.003 A 
ATOM      3  C2  UNL d   1       0.345  -0.667   0.893  0.00  0.00     0.048 A 
ATOM      4  C3  UNL d   1       0.690   0.407   0.073  0.00  0.00     0.023 A 
ATOM      5  C4  UNL d   1       2.027   0.653  -0.244  0.00  0.00     0.048 A 
ATOM      6  C5  UNL d   1       3.022  -0.183   0.265  0.00  0.00     0.003 A 
ATOM      7  I   UNL d   1      -0.796   1.649  -0.681  0.00  0.00    -0.146 I 
ENDROOT
TORSDOF 0
ENDMDL
