MODEL 1
REMARK minimizedAffinity -4.93858528
REMARK minimizedRMSD -1
REMARK  0 active torsions:
REMARK  status: ('A' for Active; 'I' for Inactive)
ROOT
ATOM      1  C   UNL d   1      -0.265  -0.942   1.202  0.00  0.00     0.023 A 
ATOM      2  C1  UNL d   1      -0.149   0.138   0.325  0.00  0.00     0.003 A 
ATOM      3  C2  UNL d   1       1.071   0.403  -0.300  0.00  0.00     0.048 A 
ATOM      4  C3  UNL d   1       2.170  -0.416  -0.045  0.00  0.00     0.023 A 
ATOM      5  C4  UNL d   1       2.059  -1.498   0.830  0.00  0.00     0.048 A 
ATOM      6  C5  UNL d   1       0.837  -1.758   1.453  0.00  0.00     0.003 A 
ATOM      7  I   UNL d   1       3.987  -0.023  -0.975  0.00  0.00    -0.146 I 
ENDROOT
TORSDOF 0
ENDMDL
