MODEL 1
REMARK minimizedAffinity -1.24734807
REMARK minimizedRMSD -1
REMARK  0 active torsions:
REMARK  status: ('A' for Active; 'I' for Inactive)
ROOT
ATOM      1  C   UNL d   1       1.339  -1.071   0.857  0.00  0.00     0.023 A 
ATOM      2  C1  UNL d   1      -0.019  -0.816   1.049  0.00  0.00     0.003 A 
ATOM      3  C2  UNL d   1      -0.683   0.096   0.225  0.00  0.00     0.048 A 
ATOM      4  C3  UNL d   1       0.017   0.749  -0.788  0.00  0.00     0.023 A 
ATOM      5  C4  UNL d   1       1.376   0.497  -0.984  0.00  0.00     0.048 A 
ATOM      6  C5  UNL d   1       2.035  -0.415  -0.158  0.00  0.00     0.003 A 
ATOM      7  I   UNL d   1      -0.969   2.107  -2.015  0.00  0.00    -0.146 I 
ENDROOT
TORSDOF 0
ENDMDL
