MODEL 1
REMARK minimizedAffinity -1.18791437
REMARK minimizedRMSD -1
REMARK  0 active torsions:
REMARK  status: ('A' for Active; 'I' for Inactive)
ROOT
ATOM      1  C   UNL d   1      -1.181   1.254   0.158  0.00  0.00     0.023 A 
ATOM      2  C1  UNL d   1      -1.640   0.319   1.087  0.00  0.00     0.003 A 
ATOM      3  C2  UNL d   1      -0.872  -0.809   1.381  0.00  0.00     0.048 A 
ATOM      4  C3  UNL d   1       0.354  -0.997   0.744  0.00  0.00     0.023 A 
ATOM      5  C4  UNL d   1       0.818  -0.064  -0.185  0.00  0.00     0.048 A 
ATOM      6  C5  UNL d   1       0.046   1.063  -0.477  0.00  0.00     0.003 A 
ATOM      7  I   UNL d   1       1.499  -2.675   1.181  0.00  0.00    -0.146 I 
ENDROOT
TORSDOF 0
ENDMDL
