MODEL 1
REMARK minimizedAffinity -3.32424664
REMARK minimizedRMSD -1
REMARK  0 active torsions:
REMARK  status: ('A' for Active; 'I' for Inactive)
ROOT
ATOM      1  C   UNL d   1       2.401  -1.645   0.824  0.00  0.00     0.023 A 
ATOM      2  C1  UNL d   1       2.709  -0.732  -0.185  0.00  0.00     0.003 A 
ATOM      3  C2  UNL d   1       1.707   0.076  -0.726  0.00  0.00     0.048 A 
ATOM      4  C3  UNL d   1       0.400  -0.032  -0.252  0.00  0.00     0.023 A 
ATOM      5  C4  UNL d   1       0.088  -0.943   0.758  0.00  0.00     0.048 A 
ATOM      6  C5  UNL d   1       1.093  -1.750   1.295  0.00  0.00     0.003 A 
ATOM      7  I   UNL d   1      -1.093   1.170  -1.055  0.00  0.00    -0.146 I 
ENDROOT
TORSDOF 0
ENDMDL
