MODEL 1
REMARK minimizedAffinity -3.33999157
REMARK minimizedRMSD -1
REMARK  0 active torsions:
REMARK  status: ('A' for Active; 'I' for Inactive)
ROOT
ATOM      1  C   UNL d   1       2.246  -1.053   0.263  0.00  0.00     0.023 A 
ATOM      2  C1  UNL d   1       0.871  -1.286   0.317  0.00  0.00     0.003 A 
ATOM      3  C2  UNL d   1      -0.018  -0.353  -0.221  0.00  0.00     0.048 A 
ATOM      4  C3  UNL d   1       0.474   0.809  -0.814  0.00  0.00     0.023 A 
ATOM      5  C4  UNL d   1       1.848   1.046  -0.871  0.00  0.00     0.048 A 
ATOM      6  C5  UNL d   1       2.733   0.112  -0.330  0.00  0.00     0.003 A 
ATOM      7  I   UNL d   1      -0.848   2.198  -1.616  0.00  0.00    -0.146 I 
ENDROOT
TORSDOF 0
ENDMDL
