MODEL 1
REMARK minimizedAffinity -3.61266327
REMARK minimizedRMSD -1
REMARK  0 active torsions:
REMARK  status: ('A' for Active; 'I' for Inactive)
ROOT
ATOM      1  C   UNL d   1       1.883  -2.679   0.603  0.00  0.00     0.023 A 
ATOM      2  C1  UNL d   1       0.553  -2.668   0.180  0.00  0.00     0.003 A 
ATOM      3  C2  UNL d   1      -0.022  -1.484  -0.286  0.00  0.00     0.048 A 
ATOM      4  C3  UNL d   1       0.737  -0.315  -0.327  0.00  0.00     0.023 A 
ATOM      5  C4  UNL d   1       2.068  -0.322   0.094  0.00  0.00     0.048 A 
ATOM      6  C5  UNL d   1       2.639  -1.508   0.560  0.00  0.00     0.003 A 
ATOM      7  I   UNL d   1      -0.118   1.448  -1.020  0.00  0.00    -0.146 I 
ENDROOT
TORSDOF 0
ENDMDL
