MODEL 1
REMARK minimizedAffinity -2.13168168
REMARK minimizedRMSD -1
REMARK  0 active torsions:
REMARK  status: ('A' for Active; 'I' for Inactive)
ROOT
ATOM      1  C   UNL d   1       1.994  -1.936   0.898  0.00  0.00     0.023 A 
ATOM      2  C1  UNL d   1       0.641  -2.265   0.813  0.00  0.00     0.003 A 
ATOM      3  C2  UNL d   1      -0.233  -1.448   0.094  0.00  0.00     0.048 A 
ATOM      4  C3  UNL d   1       0.252  -0.305  -0.540  0.00  0.00     0.023 A 
ATOM      5  C4  UNL d   1       1.605   0.028  -0.459  0.00  0.00     0.048 A 
ATOM      6  C5  UNL d   1       2.476  -0.791   0.262  0.00  0.00     0.003 A 
ATOM      7  I   UNL d   1      -1.048   0.912  -1.612  0.00  0.00    -0.146 I 
ENDROOT
TORSDOF 0
ENDMDL
