MODEL 1
REMARK minimizedAffinity -2.75411677
REMARK minimizedRMSD -1
REMARK  0 active torsions:
REMARK  status: ('A' for Active; 'I' for Inactive)
ROOT
ATOM      1  C   UNL d   1       2.229  -2.283   0.825  0.00  0.00     0.023 A 
ATOM      2  C1  UNL d   1       2.668  -1.103   0.225  0.00  0.00     0.003 A 
ATOM      3  C2  UNL d   1       1.756  -0.088  -0.072  0.00  0.00     0.048 A 
ATOM      4  C3  UNL d   1       0.406  -0.261   0.234  0.00  0.00     0.023 A 
ATOM      5  C4  UNL d   1      -0.037  -1.440   0.836  0.00  0.00     0.048 A 
ATOM      6  C5  UNL d   1       0.879  -2.452   1.130  0.00  0.00     0.003 A 
ATOM      7  I   UNL d   1      -0.953   1.248  -0.207  0.00  0.00    -0.146 I 
ENDROOT
TORSDOF 0
ENDMDL
