MODEL 1
REMARK minimizedAffinity 1.52002978
REMARK minimizedRMSD -1
REMARK  0 active torsions:
REMARK  status: ('A' for Active; 'I' for Inactive)
ROOT
ATOM      1  C   UNL d   1       3.549   0.484   0.396  0.00  0.00     0.023 A 
ATOM      2  C1  UNL d   1       2.559   1.271  -0.194  0.00  0.00     0.003 A 
ATOM      3  C2  UNL d   1       1.229   0.848  -0.181  0.00  0.00     0.048 A 
ATOM      4  C3  UNL d   1       0.894  -0.363   0.424  0.00  0.00     0.023 A 
ATOM      5  C4  UNL d   1       1.881  -1.154   1.016  0.00  0.00     0.048 A 
ATOM      6  C5  UNL d   1       3.210  -0.727   1.000  0.00  0.00     0.003 A 
ATOM      7  I   UNL d   1      -1.086  -0.995   0.444  0.00  0.00    -0.146 I 
ENDROOT
TORSDOF 0
ENDMDL
