MODEL 1
REMARK minimizedAffinity -4.50221682
REMARK minimizedRMSD -1
REMARK  0 active torsions:
REMARK  status: ('A' for Active; 'I' for Inactive)
ROOT
ATOM      1  C   UNL d   1       2.292  -2.571   0.898  0.00  0.00     0.023 A 
ATOM      2  C1  UNL d   1       0.955  -2.863   0.625  0.00  0.00     0.003 A 
ATOM      3  C2  UNL d   1       0.084  -1.846   0.229  0.00  0.00     0.048 A 
ATOM      4  C3  UNL d   1       0.556  -0.539   0.106  0.00  0.00     0.023 A 
ATOM      5  C4  UNL d   1       1.893  -0.243   0.377  0.00  0.00     0.048 A 
ATOM      6  C5  UNL d   1       2.760  -1.263   0.774  0.00  0.00     0.003 A 
ATOM      7  I   UNL d   1      -0.738   0.976  -0.483  0.00  0.00    -0.146 I 
ENDROOT
TORSDOF 0
ENDMDL
