MODEL 1
REMARK minimizedAffinity -3.01284075
REMARK minimizedRMSD -1
REMARK  0 active torsions:
REMARK  status: ('A' for Active; 'I' for Inactive)
ROOT
ATOM      1  C   UNL d   1       2.276  -2.015   0.790  0.00  0.00     0.023 A 
ATOM      2  C1  UNL d   1       0.922  -2.295   0.976  0.00  0.00     0.003 A 
ATOM      3  C2  UNL d   1      -0.043  -1.359   0.600  0.00  0.00     0.048 A 
ATOM      4  C3  UNL d   1       0.352  -0.145   0.038  0.00  0.00     0.023 A 
ATOM      5  C4  UNL d   1       1.705   0.139  -0.150  0.00  0.00     0.048 A 
ATOM      6  C5  UNL d   1       2.667  -0.800   0.228  0.00  0.00     0.003 A 
ATOM      7  I   UNL d   1      -1.084   1.249  -0.522  0.00  0.00    -0.146 I 
ENDROOT
TORSDOF 0
ENDMDL
