MODEL 1
REMARK minimizedAffinity 11.2623062
REMARK minimizedRMSD -1
REMARK  3 active torsions:
REMARK  status: ('A' for Active; 'I' for Inactive)
REMARK    1  A    between atoms: C3'_2  and  C2'_3 
REMARK    2  A    between atoms: C2'_3  and  C1'_4 
REMARK    3  A    between atoms: C1'_4  and  C1_5 
ROOT
ATOM      1  C1  N4B d   1       3.105   3.332   3.017  0.00  0.00    -0.075 A 
ATOM      2  C2  N4B d   1       2.249   2.995   1.945  0.00  0.00     0.002 A 
ATOM      3  C3  N4B d   1       2.772   2.483   0.783  0.00  0.00     0.002 A 
ATOM      4  C4  N4B d   1       4.144   2.316   0.664  0.00  0.00    -0.004 A 
ATOM      5  C5  N4B d   1       4.961   2.619   1.713  0.00  0.00     0.002 A 
ATOM      6  C6  N4B d   1       4.449   3.132   2.888  0.00  0.00     0.002 A 
ENDROOT
BRANCH   1   7
ATOM      7  C1' N4B d   1       2.588   3.975   4.274  0.00  0.00     0.057 C 
BRANCH   7   8
ATOM      8  C2' N4B d   1       3.755   4.226   5.225  0.00  0.00     0.009 C 
BRANCH   8   9
ATOM      9  C3' N4B d   1       4.009   5.709   5.433  0.00  0.00     0.004 C 
ATOM     10  C4' N4B d   1       5.408   6.000   5.888  0.00  0.00     0.003 C 
ENDBRANCH   8   9
ENDBRANCH   7   8
ENDBRANCH   1   7
TORSDOF 3
ENDMDL
