MODEL 1
REMARK minimizedAffinity 5.19080591
REMARK minimizedRMSD -1
REMARK  3 active torsions:
REMARK  status: ('A' for Active; 'I' for Inactive)
REMARK    1  A    between atoms: C3'_2  and  C2'_3 
REMARK    2  A    between atoms: C2'_3  and  C1'_4 
REMARK    3  A    between atoms: C1'_4  and  C1_5 
ROOT
ATOM      1  C1  N4B d   1       2.375   3.806   4.323  0.00  0.00    -0.075 A 
ATOM      2  C2  N4B d   1       3.672   3.759   4.879  0.00  0.00     0.002 A 
ATOM      3  C3  N4B d   1       4.158   4.835   5.580  0.00  0.00     0.002 A 
ATOM      4  C4  N4B d   1       3.377   5.972   5.721  0.00  0.00    -0.004 A 
ATOM      5  C5  N4B d   1       2.115   6.000   5.202  0.00  0.00     0.002 A 
ATOM      6  C6  N4B d   1       1.612   4.924   4.499  0.00  0.00     0.002 A 
ENDROOT
BRANCH   1   7
ATOM      7  C1' N4B d   1       1.833   2.688   3.476  0.00  0.00     0.057 C 
BRANCH   7   8
ATOM      8  C2' N4B d   1       2.986   2.013   2.739  0.00  0.00     0.009 C 
BRANCH   8   9
ATOM      9  C3' N4B d   1       2.738   1.938   1.242  0.00  0.00     0.004 C 
ATOM     10  C4' N4B d   1       3.977   1.609   0.464  0.00  0.00     0.003 C 
ENDBRANCH   8   9
ENDBRANCH   7   8
ENDBRANCH   1   7
TORSDOF 3
ENDMDL
