MODEL 1
REMARK minimizedAffinity 0.650186181
REMARK minimizedRMSD -1
REMARK  3 active torsions:
REMARK  status: ('A' for Active; 'I' for Inactive)
REMARK    1  A    between atoms: C3'_2  and  C2'_3 
REMARK    2  A    between atoms: C2'_3  and  C1'_4 
REMARK    3  A    between atoms: C1'_4  and  C1_5 
ROOT
ATOM      1  C1  N4B d   1       1.698   4.285   3.817  0.00  0.00    -0.075 A 
ATOM      2  C2  N4B d   1       1.895   5.237   4.841  0.00  0.00     0.002 A 
ATOM      3  C3  N4B d   1       0.841   5.999   5.283  0.00  0.00     0.002 A 
ATOM      4  C4  N4B d   1      -0.409   5.840   4.706  0.00  0.00    -0.004 A 
ATOM      5  C5  N4B d   1      -0.598   4.900   3.735  0.00  0.00     0.002 A 
ATOM      6  C6  N4B d   1       0.451   4.125   3.283  0.00  0.00     0.002 A 
ENDROOT
BRANCH   1   7
ATOM      7  C1' N4B d   1       2.837   3.490   3.241  0.00  0.00     0.057 C 
BRANCH   7   8
ATOM      8  C2' N4B d   1       2.293   2.519   2.197  0.00  0.00     0.009 C 
BRANCH   8   9
ATOM      9  C3' N4B d   1       3.406   1.784   1.470  0.00  0.00     0.004 C 
ATOM     10  C4' N4B d   1       4.539   2.686   1.078  0.00  0.00     0.003 C 
ENDBRANCH   8   9
ENDBRANCH   7   8
ENDBRANCH   1   7
TORSDOF 3
ENDMDL
