MODEL 1
REMARK minimizedAffinity -1.8712604
REMARK minimizedRMSD -1
REMARK  3 active torsions:
REMARK  status: ('A' for Active; 'I' for Inactive)
REMARK    1  A    between atoms: C3'_2  and  C2'_3 
REMARK    2  A    between atoms: C2'_3  and  C1'_4 
REMARK    3  A    between atoms: C1'_4  and  C1_5 
ROOT
ATOM      1  C1  N4B d   1       1.882   4.372   3.764  0.00  0.00    -0.075 A 
ATOM      2  C2  N4B d   1       3.020   4.466   4.594  0.00  0.00     0.002 A 
ATOM      3  C3  N4B d   1       2.994   5.270   5.707  0.00  0.00     0.002 A 
ATOM      4  C4  N4B d   1       1.851   6.000   5.999  0.00  0.00    -0.004 A 
ATOM      5  C5  N4B d   1       0.747   5.883   5.207  0.00  0.00     0.002 A 
ATOM      6  C6  N4B d   1       0.758   5.076   4.087  0.00  0.00     0.002 A 
ENDROOT
BRANCH   1   7
ATOM      7  C1' N4B d   1       1.892   3.573   2.489  0.00  0.00     0.057 C 
BRANCH   7   8
ATOM      8  C2' N4B d   1       2.988   2.515   2.570  0.00  0.00     0.009 C 
BRANCH   8   9
ATOM      9  C3' N4B d   1       4.280   2.984   1.923  0.00  0.00     0.004 C 
ATOM     10  C4' N4B d   1       4.635   2.195   0.698  0.00  0.00     0.003 C 
ENDBRANCH   8   9
ENDBRANCH   7   8
ENDBRANCH   1   7
TORSDOF 3
ENDMDL
