MODEL 1
REMARK minimizedAffinity -0.53099215
REMARK minimizedRMSD -1
REMARK  3 active torsions:
REMARK  status: ('A' for Active; 'I' for Inactive)
REMARK    1  A    between atoms: C3'_2  and  C2'_3 
REMARK    2  A    between atoms: C2'_3  and  C1'_4 
REMARK    3  A    between atoms: C1'_4  and  C1_5 
ROOT
ATOM      1  C1  N4B d   1       2.413   4.506   3.827  0.00  0.00    -0.075 A 
ATOM      2  C2  N4B d   1       2.803   5.252   4.961  0.00  0.00     0.002 A 
ATOM      3  C3  N4B d   1       1.871   5.984   5.655  0.00  0.00     0.002 A 
ATOM      4  C4  N4B d   1       0.553   6.000   5.225  0.00  0.00    -0.004 A 
ATOM      5  C5  N4B d   1       0.179   5.256   4.144  0.00  0.00     0.002 A 
ATOM      6  C6  N4B d   1       1.105   4.512   3.440  0.00  0.00     0.002 A 
ENDROOT
BRANCH   1   7
ATOM      7  C1' N4B d   1       3.412   3.759   2.986  0.00  0.00     0.057 C 
BRANCH   7   8
ATOM      8  C2' N4B d   1       2.685   3.080   1.829  0.00  0.00     0.009 C 
BRANCH   8   9
ATOM      9  C3' N4B d   1       3.440   1.866   1.318  0.00  0.00     0.004 C 
ATOM     10  C4' N4B d   1       4.511   2.221   0.330  0.00  0.00     0.003 C 
ENDBRANCH   8   9
ENDBRANCH   7   8
ENDBRANCH   1   7
TORSDOF 3
ENDMDL
