MODEL 1
REMARK minimizedAffinity 4.17379951
REMARK minimizedRMSD -1
REMARK  0 active torsions:
REMARK  status: ('A' for Active; 'I' for Inactive)
ROOT
ATOM      1  C   UNL d   1      -1.402   3.145  -0.320  0.00  0.00     0.078 C 
ATOM      2  C1  UNL d   1      -1.434   1.896  -1.150  0.00  0.00    -0.077 A 
ATOM      3  C2  UNL d   1      -2.514   1.008  -1.075  0.00  0.00    -0.001 A 
ATOM      4  C3  UNL d   1      -2.526  -0.155  -1.847  0.00  0.00     0.003 A 
ATOM      5  C4  UNL d   1      -1.460  -0.441  -2.697  0.00  0.00    -0.005 A 
ATOM      6  C5  UNL d   1      -0.380   0.435  -2.777  0.00  0.00     0.003 A 
ATOM      7  C6  UNL d   1      -0.366   1.599  -2.006  0.00  0.00    -0.001 A 
ENDROOT
TORSDOF 0
ENDMDL
