MODEL 1
REMARK minimizedAffinity -0.284546733
REMARK minimizedRMSD -1
REMARK  0 active torsions:
REMARK  status: ('A' for Active; 'I' for Inactive)
ROOT
ATOM      1  C   UNL d   1      -0.041  -1.130   3.695  0.00  0.00     0.078 C 
ATOM      2  C1  UNL d   1      -0.001   0.146   2.908  0.00  0.00    -0.077 A 
ATOM      3  C2  UNL d   1       0.359   0.148   1.555  0.00  0.00    -0.001 A 
ATOM      4  C3  UNL d   1       0.401   1.344   0.837  0.00  0.00     0.003 A 
ATOM      5  C4  UNL d   1       0.086   2.548   1.465  0.00  0.00    -0.005 A 
ATOM      6  C5  UNL d   1      -0.272   2.556   2.812  0.00  0.00     0.003 A 
ATOM      7  C6  UNL d   1      -0.314   1.361   3.531  0.00  0.00    -0.001 A 
ENDROOT
TORSDOF 0
ENDMDL
