MODEL 1
REMARK minimizedAffinity -1.64422381
REMARK minimizedRMSD -1
REMARK  0 active torsions:
REMARK  status: ('A' for Active; 'I' for Inactive)
ROOT
ATOM      1  C   UNL d   1      -0.642  -0.153   3.586  0.00  0.00     0.078 C 
ATOM      2  C1  UNL d   1      -0.968   1.087   2.807  0.00  0.00    -0.077 A 
ATOM      3  C2  UNL d   1      -0.382   1.329   1.559  0.00  0.00    -0.001 A 
ATOM      4  C3  UNL d   1      -0.687   2.492   0.850  0.00  0.00     0.003 A 
ATOM      5  C4  UNL d   1      -1.577   3.422   1.382  0.00  0.00    -0.005 A 
ATOM      6  C5  UNL d   1      -2.163   3.191   2.624  0.00  0.00     0.003 A 
ATOM      7  C6  UNL d   1      -1.860   2.029   3.335  0.00  0.00    -0.001 A 
ENDROOT
TORSDOF 0
ENDMDL
