MODEL 1
REMARK minimizedAffinity 6.70578194
REMARK minimizedRMSD -1
REMARK  0 active torsions:
REMARK  status: ('A' for Active; 'I' for Inactive)
ROOT
ATOM      1  C   UNL d   1      -0.838   0.634  -1.151  0.00  0.00     0.078 C 
ATOM      2  C1  UNL d   1      -1.032   1.625  -0.042  0.00  0.00    -0.077 A 
ATOM      3  C2  UNL d   1      -0.029   1.849   0.908  0.00  0.00    -0.001 A 
ATOM      4  C3  UNL d   1      -0.227   2.767   1.941  0.00  0.00     0.003 A 
ATOM      5  C4  UNL d   1      -1.429   3.467   2.034  0.00  0.00    -0.005 A 
ATOM      6  C5  UNL d   1      -2.434   3.249   1.094  0.00  0.00     0.003 A 
ATOM      7  C6  UNL d   1      -2.237   2.331   0.060  0.00  0.00    -0.001 A 
ENDROOT
TORSDOF 0
ENDMDL
