MODEL 1
REMARK minimizedAffinity 5.87340021
REMARK minimizedRMSD -1
REMARK  0 active torsions:
REMARK  status: ('A' for Active; 'I' for Inactive)
ROOT
ATOM      1  C   UNL d   1      -0.563   2.252   2.548  0.00  0.00     0.078 C 
ATOM      2  C1  UNL d   1      -0.748   2.728   1.138  0.00  0.00    -0.077 A 
ATOM      3  C2  UNL d   1      -0.375   4.023   0.759  0.00  0.00    -0.001 A 
ATOM      4  C3  UNL d   1      -0.562   4.455  -0.555  0.00  0.00     0.003 A 
ATOM      5  C4  UNL d   1      -1.125   3.599  -1.500  0.00  0.00    -0.005 A 
ATOM      6  C5  UNL d   1      -1.502   2.309  -1.131  0.00  0.00     0.003 A 
ATOM      7  C6  UNL d   1      -1.315   1.875   0.182  0.00  0.00    -0.001 A 
ENDROOT
TORSDOF 0
ENDMDL
