MODEL 1
REMARK minimizedAffinity -3.21832466
REMARK minimizedRMSD -1
REMARK  0 active torsions:
REMARK  status: ('A' for Active; 'I' for Inactive)
ROOT
ATOM      1  C   UNL d   1       0.997   4.884  -0.770  0.00  0.00     0.078 C 
ATOM      2  C1  UNL d   1       0.146   4.059   0.149  0.00  0.00    -0.077 A 
ATOM      3  C2  UNL d   1      -1.251   4.115   0.082  0.00  0.00    -0.001 A 
ATOM      4  C3  UNL d   1      -2.031   3.349   0.950  0.00  0.00     0.003 A 
ATOM      5  C4  UNL d   1      -1.422   2.522   1.892  0.00  0.00    -0.005 A 
ATOM      6  C5  UNL d   1      -0.032   2.462   1.968  0.00  0.00     0.003 A 
ATOM      7  C6  UNL d   1       0.749   3.228   1.101  0.00  0.00    -0.001 A 
ENDROOT
TORSDOF 0
ENDMDL
