MODEL 1
REMARK minimizedAffinity 1.83523202
REMARK minimizedRMSD -1
REMARK  0 active torsions:
REMARK  status: ('A' for Active; 'I' for Inactive)
ROOT
ATOM      1  C   UNL d   1      -5.694   5.964  -5.896  0.00  0.00     0.078 C 
ATOM      2  C1  UNL d   1      -5.044   5.271  -4.736  0.00  0.00    -0.077 A 
ATOM      3  C2  UNL d   1      -4.536   5.999  -3.653  0.00  0.00    -0.001 A 
ATOM      4  C3  UNL d   1      -3.924   5.342  -2.584  0.00  0.00     0.003 A 
ATOM      5  C4  UNL d   1      -3.814   3.953  -2.589  0.00  0.00    -0.005 A 
ATOM      6  C5  UNL d   1      -4.314   3.219  -3.663  0.00  0.00     0.003 A 
ATOM      7  C6  UNL d   1      -4.926   3.875  -4.732  0.00  0.00    -0.001 A 
ENDROOT
TORSDOF 0
ENDMDL
