MODEL 1
REMARK minimizedAffinity 1.69120526
REMARK minimizedRMSD -1
REMARK  0 active torsions:
REMARK  status: ('A' for Active; 'I' for Inactive)
ROOT
ATOM      1  C   UNL d   1      -0.617   2.116   2.479  0.00  0.00     0.078 C 
ATOM      2  C1  UNL d   1      -0.178   1.274   1.318  0.00  0.00    -0.077 A 
ATOM      3  C2  UNL d   1       1.028   0.564   1.358  0.00  0.00    -0.001 A 
ATOM      4  C3  UNL d   1       1.429  -0.208   0.267  0.00  0.00     0.003 A 
ATOM      5  C4  UNL d   1       0.630  -0.277  -0.873  0.00  0.00    -0.005 A 
ATOM      6  C5  UNL d   1      -0.571   0.428  -0.922  0.00  0.00     0.003 A 
ATOM      7  C6  UNL d   1      -0.973   1.201   0.168  0.00  0.00    -0.001 A 
ENDROOT
TORSDOF 0
ENDMDL
