MODEL 1
REMARK minimizedAffinity 7.8035574
REMARK minimizedRMSD -1
REMARK  1 active torsions:
REMARK  status: ('A' for Active; 'I' for Inactive)
REMARK    1  A    between atoms: C1_2  and  C2_3 
ROOT
ATOM      1  C2  UNL d   1       0.226   2.737   2.654  0.00  0.00    -0.077 A 
ATOM      2  C3  UNL d   1       1.545   2.268   2.729  0.00  0.00     0.002 A 
ATOM      3  C4  UNL d   1       1.864   1.185   3.550  0.00  0.00     0.002 A 
ATOM      4  C5  UNL d   1       0.869   0.559   4.298  0.00  0.00    -0.004 A 
ATOM      5  C6  UNL d   1      -0.445   1.020   4.232  0.00  0.00     0.002 A 
ATOM      6  C7  UNL d   1      -0.766   2.103   3.413  0.00  0.00     0.002 A 
ENDROOT
BRANCH   1   7
ATOM      7  C1  UNL d   1      -0.128   3.874   1.731  0.00  0.00     0.055 C 
ATOM      8  C   UNL d   1       0.406   3.634   0.326  0.00  0.00     0.019 C 
ENDBRANCH   1   7
TORSDOF 1
ENDMDL
