MODEL 1
REMARK minimizedAffinity 2.33399653
REMARK minimizedRMSD -1
REMARK  1 active torsions:
REMARK  status: ('A' for Active; 'I' for Inactive)
REMARK    1  A    between atoms: C1_2  and  C2_3 
ROOT
ATOM      1  C2  UNL d   1      -0.588   5.299  -1.312  0.00  0.00    -0.077 A 
ATOM      2  C3  UNL d   1       0.631   5.649  -0.716  0.00  0.00     0.002 A 
ATOM      3  C4  UNL d   1       1.079   4.978   0.423  0.00  0.00     0.002 A 
ATOM      4  C5  UNL d   1       0.317   3.949   0.973  0.00  0.00    -0.004 A 
ATOM      5  C6  UNL d   1      -0.898   3.594   0.388  0.00  0.00     0.002 A 
ATOM      6  C7  UNL d   1      -1.348   4.265  -0.750  0.00  0.00     0.002 A 
ENDROOT
BRANCH   1   7
ATOM      7  C1  UNL d   1      -1.049   5.988  -2.570  0.00  0.00     0.055 C 
ATOM      8  C   UNL d   1       0.044   5.998  -3.628  0.00  0.00     0.019 C 
ENDBRANCH   1   7
TORSDOF 1
ENDMDL
