MODEL 1
REMARK minimizedAffinity 9.06795502
REMARK minimizedRMSD -1
REMARK  1 active torsions:
REMARK  status: ('A' for Active; 'I' for Inactive)
REMARK    1  A    between atoms: C1_2  and  C2_3 
ROOT
ATOM      1  C2  UNL d   1       0.273   3.286   0.316  0.00  0.00    -0.077 A 
ATOM      2  C3  UNL d   1      -0.479   3.917   1.316  0.00  0.00     0.002 A 
ATOM      3  C4  UNL d   1      -0.811   5.269   1.203  0.00  0.00     0.002 A 
ATOM      4  C5  UNL d   1      -0.399   5.998   0.089  0.00  0.00    -0.004 A 
ATOM      5  C6  UNL d   1       0.350   5.379  -0.910  0.00  0.00     0.002 A 
ATOM      6  C7  UNL d   1       0.684   4.029  -0.798  0.00  0.00     0.002 A 
ENDROOT
BRANCH   1   7
ATOM      7  C1  UNL d   1       0.590   1.816   0.412  0.00  0.00     0.055 C 
ATOM      8  C   UNL d   1      -0.090   1.029  -0.698  0.00  0.00     0.019 C 
ENDBRANCH   1   7
TORSDOF 1
ENDMDL
