MODEL 1
REMARK minimizedAffinity 5.04382277
REMARK minimizedRMSD -1
REMARK  1 active torsions:
REMARK  status: ('A' for Active; 'I' for Inactive)
REMARK    1  A    between atoms: C1_2  and  C2_3 
ROOT
ATOM      1  C2  UNL d   1      -0.140   3.785   1.306  0.00  0.00    -0.077 A 
ATOM      2  C3  UNL d   1       0.374   3.790   0.002  0.00  0.00     0.002 A 
ATOM      3  C4  UNL d   1       0.172   4.890  -0.833  0.00  0.00     0.002 A 
ATOM      4  C5  UNL d   1      -0.539   5.996  -0.371  0.00  0.00    -0.004 A 
ATOM      5  C6  UNL d   1      -1.056   6.000   0.924  0.00  0.00     0.002 A 
ATOM      6  C7  UNL d   1      -0.856   4.900   1.759  0.00  0.00     0.002 A 
ENDROOT
BRANCH   1   7
ATOM      7  C1  UNL d   1       0.119   2.619   2.225  0.00  0.00     0.055 C 
ATOM      8  C   UNL d   1      -1.137   2.226   2.987  0.00  0.00     0.019 C 
ENDBRANCH   1   7
TORSDOF 1
ENDMDL
