MODEL 1
REMARK minimizedAffinity 9.09467125
REMARK minimizedRMSD -1
REMARK  1 active torsions:
REMARK  status: ('A' for Active; 'I' for Inactive)
REMARK    1  A    between atoms: C1_2  and  C2_3 
ROOT
ATOM      1  C2  UNL d   1      -0.248   1.444  -0.111  0.00  0.00    -0.077 A 
ATOM      2  C3  UNL d   1      -1.619   1.202  -0.275  0.00  0.00     0.002 A 
ATOM      3  C4  UNL d   1      -2.059   0.140  -1.068  0.00  0.00     0.002 A 
ATOM      4  C5  UNL d   1      -1.134  -0.690  -1.699  0.00  0.00    -0.004 A 
ATOM      5  C6  UNL d   1       0.231  -0.456  -1.543  0.00  0.00     0.002 A 
ATOM      6  C7  UNL d   1       0.673   0.605  -0.752  0.00  0.00     0.002 A 
ENDROOT
BRANCH   1   7
ATOM      7  C1  UNL d   1       0.229   2.559   0.783  0.00  0.00     0.055 C 
ATOM      8  C   UNL d   1      -0.052   3.921   0.167  0.00  0.00     0.019 C 
ENDBRANCH   1   7
TORSDOF 1
ENDMDL
