MODEL 1
REMARK minimizedAffinity 12.272953
REMARK minimizedRMSD -1
REMARK  1 active torsions:
REMARK  status: ('A' for Active; 'I' for Inactive)
REMARK    1  A    between atoms: C1_2  and  C2_3 
ROOT
ATOM      1  C2  UNL d   1       0.979   0.063   3.764  0.00  0.00    -0.077 A 
ATOM      2  C3  UNL d   1      -0.204   0.750   3.455  0.00  0.00     0.002 A 
ATOM      3  C4  UNL d   1      -0.161   1.934   2.717  0.00  0.00     0.002 A 
ATOM      4  C5  UNL d   1       1.060   2.440   2.279  0.00  0.00    -0.004 A 
ATOM      5  C6  UNL d   1       2.242   1.766   2.582  0.00  0.00     0.002 A 
ATOM      6  C7  UNL d   1       2.202   0.583   3.321  0.00  0.00     0.002 A 
ENDROOT
BRANCH   1   7
ATOM      7  C1  UNL d   1       0.931  -1.240   4.518  0.00  0.00     0.055 C 
ATOM      8  C   UNL d   1       2.150  -2.099   4.216  0.00  0.00     0.019 C 
ENDBRANCH   1   7
TORSDOF 1
ENDMDL
