MODEL 1
REMARK minimizedAffinity 9.54710007
REMARK minimizedRMSD -1
REMARK  1 active torsions:
REMARK  status: ('A' for Active; 'I' for Inactive)
REMARK    1  A    between atoms: C1_2  and  C2_3 
ROOT
ATOM      1  C2  UNL d   1       1.346   3.620   1.414  0.00  0.00    -0.077 A 
ATOM      2  C3  UNL d   1       1.872   4.751   0.773  0.00  0.00     0.002 A 
ATOM      3  C4  UNL d   1       1.301   5.221  -0.411  0.00  0.00     0.002 A 
ATOM      4  C5  UNL d   1       0.199   4.570  -0.962  0.00  0.00    -0.004 A 
ATOM      5  C6  UNL d   1      -0.330   3.444  -0.333  0.00  0.00     0.002 A 
ATOM      6  C7  UNL d   1       0.240   2.971   0.849  0.00  0.00     0.002 A 
ENDROOT
BRANCH   1   7
ATOM      7  C1  UNL d   1       1.930   3.140   2.717  0.00  0.00     0.055 C 
ATOM      8  C   UNL d   1       0.936   2.282   3.486  0.00  0.00     0.019 C 
ENDBRANCH   1   7
TORSDOF 1
ENDMDL
