MODEL 1
REMARK minimizedAffinity 2.745296
REMARK minimizedRMSD -1
REMARK  0 active torsions:
REMARK  status: ('A' for Active; 'I' for Inactive)
ROOT
ATOM      1  C1  DEN d   1       5.619   3.511   4.690  0.00  0.00     0.130 A 
ATOM      2  C2  DEN d   1       6.000   2.982   5.997  0.00  0.00    -0.031 A 
ATOM      3  C3  DEN d   1       5.950   1.508   5.926  0.00  0.00     0.027 A 
ATOM      4  C4  DEN d   1       5.328   0.001   3.927  0.00  0.00     0.027 A 
ATOM      5  C5  DEN d   1       4.923  -0.007   2.611  0.00  0.00    -0.003 A 
ATOM      6  C6  DEN d   1       4.690   1.147   1.911  0.00  0.00     0.001 A 
ATOM      7  C7  DEN d   1       4.905   2.359   2.512  0.00  0.00     0.017 A 
ATOM      8  C8  DEN d   1       5.306   2.376   3.841  0.00  0.00    -0.094 A 
ATOM      9  C9  DEN d   1       5.548   1.198   4.527  0.00  0.00    -0.072 A 
ENDROOT
TORSDOF 0
ENDMDL
