MODEL 1
REMARK minimizedAffinity -2.59332967
REMARK minimizedRMSD -1
REMARK  0 active torsions:
REMARK  status: ('A' for Active; 'I' for Inactive)
ROOT
ATOM      1  C1  DEN d   1       5.482   2.941   3.677  0.00  0.00     0.130 A 
ATOM      2  C2  DEN d   1       5.779   3.721   4.876  0.00  0.00    -0.031 A 
ATOM      3  C3  DEN d   1       5.957   2.780   6.000  0.00  0.00     0.027 A 
ATOM      4  C4  DEN d   1       5.809   0.205   6.000  0.00  0.00     0.027 A 
ATOM      5  C5  DEN d   1       5.568  -0.906   5.221  0.00  0.00    -0.003 A 
ATOM      6  C6  DEN d   1       5.252  -0.811   3.892  0.00  0.00     0.001 A 
ATOM      7  C7  DEN d   1       5.211   0.419   3.290  0.00  0.00     0.017 A 
ATOM      8  C8  DEN d   1       5.444   1.544   4.070  0.00  0.00    -0.094 A 
ATOM      9  C9  DEN d   1       5.775   1.426   5.410  0.00  0.00    -0.072 A 
ENDROOT
TORSDOF 0
ENDMDL
