MODEL 1
REMARK minimizedAffinity -1.46844709
REMARK minimizedRMSD -1
REMARK  0 active torsions:
REMARK  status: ('A' for Active; 'I' for Inactive)
ROOT
ATOM      1  C1  DEN d   1       5.049  -0.252   3.816  0.00  0.00     0.130 A 
ATOM      2  C2  DEN d   1       5.519  -1.051   4.944  0.00  0.00    -0.031 A 
ATOM      3  C3  DEN d   1       5.977  -0.125   6.000  0.00  0.00     0.027 A 
ATOM      4  C4  DEN d   1       6.000   2.454   5.998  0.00  0.00     0.027 A 
ATOM      5  C5  DEN d   1       5.710   3.579   5.258  0.00  0.00    -0.003 A 
ATOM      6  C6  DEN d   1       5.215   3.506   3.983  0.00  0.00     0.001 A 
ATOM      7  C7  DEN d   1       4.953   2.282   3.425  0.00  0.00     0.017 A 
ATOM      8  C8  DEN d   1       5.249   1.144   4.163  0.00  0.00    -0.094 A 
ATOM      9  C9  DEN d   1       5.737   1.238   5.455  0.00  0.00    -0.072 A 
ENDROOT
TORSDOF 0
ENDMDL
