MODEL 1
REMARK minimizedAffinity 13.7472439
REMARK minimizedRMSD -1
REMARK  0 active torsions:
REMARK  status: ('A' for Active; 'I' for Inactive)
ROOT
ATOM      1  C1  DEN d   1      -1.506  -1.447   2.461  0.00  0.00     0.130 A 
ATOM      2  C2  DEN d   1      -1.546  -0.035   2.833  0.00  0.00    -0.031 A 
ATOM      3  C3  DEN d   1      -0.711   0.714   1.873  0.00  0.00     0.027 A 
ATOM      4  C4  DEN d   1       0.630  -0.168  -0.145  0.00  0.00     0.027 A 
ATOM      5  C5  DEN d   1       0.980  -1.297  -0.854  0.00  0.00    -0.003 A 
ATOM      6  C6  DEN d   1       0.557  -2.548  -0.490  0.00  0.00     0.001 A 
ATOM      7  C7  DEN d   1      -0.278  -2.696   0.586  0.00  0.00     0.017 A 
ATOM      8  C8  DEN d   1      -0.629  -1.564   1.309  0.00  0.00    -0.094 A 
ATOM      9  C9  DEN d   1      -0.201  -0.306   0.918  0.00  0.00    -0.072 A 
ENDROOT
TORSDOF 0
ENDMDL
