MODEL 1
REMARK minimizedAffinity 5.95540476
REMARK minimizedRMSD -1
REMARK  0 active torsions:
REMARK  status: ('A' for Active; 'I' for Inactive)
ROOT
ATOM      1  C1  DEN d   1       1.896  -0.899  -2.096  0.00  0.00     0.130 A 
ATOM      2  C2  DEN d   1       2.456  -2.247  -2.126  0.00  0.00    -0.031 A 
ATOM      3  C3  DEN d   1       1.571  -3.127  -1.337  0.00  0.00     0.027 A 
ATOM      4  C4  DEN d   1      -0.604  -2.536  -0.082  0.00  0.00     0.027 A 
ATOM      5  C5  DEN d   1      -1.472  -1.516   0.241  0.00  0.00    -0.003 A 
ATOM      6  C6  DEN d   1      -1.261  -0.224  -0.160  0.00  0.00     0.001 A 
ATOM      7  C7  DEN d   1      -0.180   0.075  -0.947  0.00  0.00     0.017 A 
ATOM      8  C8  DEN d   1       0.703  -0.946  -1.271  0.00  0.00    -0.094 A 
ATOM      9  C9  DEN d   1       0.466  -2.248  -0.865  0.00  0.00    -0.072 A 
ENDROOT
TORSDOF 0
ENDMDL
