MODEL 1
REMARK minimizedAffinity 6.09206963
REMARK minimizedRMSD -1
REMARK  0 active torsions:
REMARK  status: ('A' for Active; 'I' for Inactive)
ROOT
ATOM      1  C1  DEN d   1      -0.986  -0.784   1.702  0.00  0.00     0.130 A 
ATOM      2  C2  DEN d   1      -1.432  -0.049   2.883  0.00  0.00    -0.031 A 
ATOM      3  C3  DEN d   1      -1.135   1.381   2.669  0.00  0.00     0.027 A 
ATOM      4  C4  DEN d   1      -0.037   2.524   0.633  0.00  0.00     0.027 A 
ATOM      5  C5  DEN d   1       0.521   2.311  -0.608  0.00  0.00    -0.003 A 
ATOM      6  C6  DEN d   1       0.646   1.058  -1.147  0.00  0.00     0.001 A 
ATOM      7  C7  DEN d   1       0.166  -0.027  -0.462  0.00  0.00     0.017 A 
ATOM      8  C8  DEN d   1      -0.392   0.179   0.793  0.00  0.00    -0.094 A 
ATOM      9  C9  DEN d   1      -0.521   1.455   1.316  0.00  0.00    -0.072 A 
ENDROOT
TORSDOF 0
ENDMDL
