MODEL 1
REMARK minimizedAffinity -1.17128134
REMARK minimizedRMSD -1
REMARK  0 active torsions:
REMARK  status: ('A' for Active; 'I' for Inactive)
ROOT
ATOM      1  C1  DEN d   1       5.640   1.516   5.998  0.00  0.00     0.130 A 
ATOM      2  C2  DEN d   1       5.649   2.498   4.917  0.00  0.00    -0.031 A 
ATOM      3  C3  DEN d   1       5.776   1.769   3.640  0.00  0.00     0.027 A 
ATOM      4  C4  DEN d   1       5.953  -0.772   3.232  0.00  0.00     0.027 A 
ATOM      5  C5  DEN d   1       6.000  -2.006   3.842  0.00  0.00    -0.003 A 
ATOM      6  C6  DEN d   1       5.965  -2.150   5.203  0.00  0.00     0.001 A 
ATOM      7  C7  DEN d   1       5.835  -1.042   5.999  0.00  0.00     0.017 A 
ATOM      8  C8  DEN d   1       5.794   0.206   5.392  0.00  0.00    -0.094 A 
ATOM      9  C9  DEN d   1       5.818   0.329   4.013  0.00  0.00    -0.072 A 
ENDROOT
TORSDOF 0
ENDMDL
