MODEL 1
REMARK minimizedAffinity -2.93034053
REMARK minimizedRMSD -1
REMARK  0 active torsions:
REMARK  status: ('A' for Active; 'I' for Inactive)
ROOT
ATOM      1  C1  DEN d   1       5.999   1.653   5.979  0.00  0.00     0.130 A 
ATOM      2  C2  DEN d   1       5.656   2.623   4.943  0.00  0.00    -0.031 A 
ATOM      3  C3  DEN d   1       5.225   1.877   3.744  0.00  0.00     0.027 A 
ATOM      4  C4  DEN d   1       5.051  -0.672   3.394  0.00  0.00     0.027 A 
ATOM      5  C5  DEN d   1       5.245  -1.902   3.984  0.00  0.00    -0.003 A 
ATOM      6  C6  DEN d   1       5.732  -2.033   5.257  0.00  0.00     0.001 A 
ATOM      7  C7  DEN d   1       6.000  -0.913   6.000  0.00  0.00     0.017 A 
ATOM      8  C8  DEN d   1       5.813   0.330   5.410  0.00  0.00    -0.094 A 
ATOM      9  C9  DEN d   1       5.308   0.442   4.125  0.00  0.00    -0.072 A 
ENDROOT
TORSDOF 0
ENDMDL
