MODEL 1
REMARK minimizedAffinity 3.85364795
REMARK minimizedRMSD -1
REMARK  0 active torsions:
REMARK  status: ('A' for Active; 'I' for Inactive)
ROOT
ATOM      1  C1  DEN d   1       0.671   3.275   0.939  0.00  0.00     0.130 A 
ATOM      2  C2  DEN d   1       1.258   3.163  -0.394  0.00  0.00    -0.031 A 
ATOM      3  C3  DEN d   1       1.019   1.790  -0.884  0.00  0.00     0.027 A 
ATOM      4  C4  DEN d   1      -0.201  -0.160   0.283  0.00  0.00     0.027 A 
ATOM      5  C5  DEN d   1      -0.858  -0.547   1.430  0.00  0.00    -0.003 A 
ATOM      6  C6  DEN d   1      -1.021   0.295   2.498  0.00  0.00     0.001 A 
ATOM      7  C7  DEN d   1      -0.559   1.583   2.424  0.00  0.00     0.017 A 
ATOM      8  C8  DEN d   1       0.111   1.978   1.274  0.00  0.00    -0.094 A 
ATOM      9  C9  DEN d   1       0.255   1.116   0.200  0.00  0.00    -0.072 A 
ENDROOT
TORSDOF 0
ENDMDL
