MODEL 1
REMARK minimizedAffinity -2.6694839
REMARK minimizedRMSD -1
REMARK  0 active torsions:
REMARK  status: ('A' for Active; 'I' for Inactive)
ROOT
ATOM      1  C1  DEN d   1       5.985   0.135   6.000  0.00  0.00     0.130 A 
ATOM      2  C2  DEN d   1       5.566  -0.934   5.097  0.00  0.00    -0.031 A 
ATOM      3  C3  DEN d   1       5.109  -0.314   3.837  0.00  0.00     0.027 A 
ATOM      4  C4  DEN d   1       5.015   2.183   3.197  0.00  0.00     0.027 A 
ATOM      5  C5  DEN d   1       5.254   3.465   3.640  0.00  0.00    -0.003 A 
ATOM      6  C6  DEN d   1       5.718   3.727   4.902  0.00  0.00     0.001 A 
ATOM      7  C7  DEN d   1       6.000   2.689   5.751  0.00  0.00     0.017 A 
ATOM      8  C8  DEN d   1       5.754   1.394   5.314  0.00  0.00    -0.094 A 
ATOM      9  C9  DEN d   1       5.297   1.149   4.030  0.00  0.00    -0.072 A 
ENDROOT
TORSDOF 0
ENDMDL
