MODEL 1
REMARK minimizedAffinity 10.0675154
REMARK minimizedRMSD -1
REMARK  0 active torsions:
REMARK  status: ('A' for Active; 'I' for Inactive)
ROOT
ATOM      1  O1  BZF d   1       4.379  -3.756  -3.808  0.00  0.00    -0.204 OA
ATOM      2  C2  BZF d   1       4.115  -4.938  -4.473  0.00  0.00     0.174 A 
ATOM      3  C3  BZF d   1       4.425  -6.000  -3.702  0.00  0.00    -0.012 A 
ATOM      4  C3A BZF d   1       4.827  -5.447  -2.445  0.00  0.00    -0.107 A 
ATOM      5  C4  BZF d   1       5.238  -5.999  -1.265  0.00  0.00     0.055 A 
ATOM      6  C5  BZF d   1       5.629  -5.180  -0.253  0.00  0.00    -0.016 A 
ATOM      7  C6  BZF d   1       5.626  -3.807  -0.389  0.00  0.00     0.022 A 
ATOM      8  C7  BZF d   1       5.222  -3.213  -1.538  0.00  0.00     0.029 A 
ATOM      9  C7A BZF d   1       4.796  -4.037  -2.551  0.00  0.00     0.058 A 
ENDROOT
TORSDOF 0
ENDMDL
