MODEL 1
REMARK minimizedAffinity 8.3466692
REMARK minimizedRMSD -1
REMARK  0 active torsions:
REMARK  status: ('A' for Active; 'I' for Inactive)
ROOT
ATOM      1  O1  BZF d   1       0.848   3.864  -0.643  0.00  0.00    -0.204 OA
ATOM      2  C2  BZF d   1      -0.314   3.317  -1.151  0.00  0.00     0.174 A 
ATOM      3  C3  BZF d   1      -0.923   2.545  -0.228  0.00  0.00    -0.012 A 
ATOM      4  C3A BZF d   1      -0.138   2.689   0.960  0.00  0.00    -0.107 A 
ATOM      5  C4  BZF d   1      -0.243   2.179   2.222  0.00  0.00     0.055 A 
ATOM      6  C5  BZF d   1       0.730   2.456   3.130  0.00  0.00    -0.016 A 
ATOM      7  C6  BZF d   1       1.823   3.233   2.807  0.00  0.00     0.022 A 
ATOM      8  C7  BZF d   1       1.969   3.765   1.569  0.00  0.00     0.029 A 
ATOM      9  C7A BZF d   1       0.971   3.514   0.660  0.00  0.00     0.058 A 
ENDROOT
TORSDOF 0
ENDMDL
