MODEL 1
REMARK minimizedAffinity 6.82563448
REMARK minimizedRMSD -1
REMARK  0 active torsions:
REMARK  status: ('A' for Active; 'I' for Inactive)
ROOT
ATOM      1  O1  BZF d   1      -0.730   4.357   1.114  0.00  0.00    -0.204 OA
ATOM      2  C2  BZF d   1       0.030   4.551  -0.023  0.00  0.00     0.174 A 
ATOM      3  C3  BZF d   1       1.053   3.674  -0.070  0.00  0.00    -0.012 A 
ATOM      4  C3A BZF d   1       0.871   2.822   1.066  0.00  0.00    -0.107 A 
ATOM      5  C4  BZF d   1       1.558   1.747   1.553  0.00  0.00     0.055 A 
ATOM      6  C5  BZF d   1       1.161   1.186   2.725  0.00  0.00    -0.016 A 
ATOM      7  C6  BZF d   1       0.086   1.676   3.438  0.00  0.00     0.022 A 
ATOM      8  C7  BZF d   1      -0.629   2.737   2.992  0.00  0.00     0.029 A 
ATOM      9  C7A BZF d   1      -0.250   3.287   1.791  0.00  0.00     0.058 A 
ENDROOT
TORSDOF 0
ENDMDL
