MODEL 1
REMARK minimizedAffinity 7.51461506
REMARK minimizedRMSD -1
REMARK  0 active torsions:
REMARK  status: ('A' for Active; 'I' for Inactive)
ROOT
ATOM      1  O1  BZF d   1       1.294   5.096  -2.239  0.00  0.00    -0.204 OA
ATOM      2  C2  BZF d   1       1.079   5.991  -3.270  0.00  0.00     0.174 A 
ATOM      3  C3  BZF d   1      -0.220   5.997  -3.634  0.00  0.00    -0.012 A 
ATOM      4  C3A BZF d   1      -0.873   5.115  -2.717  0.00  0.00    -0.107 A 
ATOM      5  C4  BZF d   1      -2.170   4.719  -2.556  0.00  0.00     0.055 A 
ATOM      6  C5  BZF d   1      -2.464   3.789  -1.610  0.00  0.00    -0.016 A 
ATOM      7  C6  BZF d   1      -1.488   3.232  -0.811  0.00  0.00     0.022 A 
ATOM      8  C7  BZF d   1      -0.188   3.597  -0.929  0.00  0.00     0.029 A 
ATOM      9  C7A BZF d   1       0.108   4.560  -1.862  0.00  0.00     0.058 A 
ENDROOT
TORSDOF 0
ENDMDL
