MODEL 1
REMARK minimizedAffinity 0.22956349
REMARK minimizedRMSD -1
REMARK  0 active torsions:
REMARK  status: ('A' for Active; 'I' for Inactive)
ROOT
ATOM      1  O1  BZF d   1      -5.999   3.002  -5.217  0.00  0.00    -0.204 OA
ATOM      2  C2  BZF d   1      -5.131   3.766  -5.973  0.00  0.00     0.174 A 
ATOM      3  C3  BZF d   1      -4.094   4.194  -5.225  0.00  0.00    -0.012 A 
ATOM      4  C3A BZF d   1      -4.280   3.587  -3.943  0.00  0.00    -0.107 A 
ATOM      5  C4  BZF d   1      -3.569   3.618  -2.777  0.00  0.00     0.055 A 
ATOM      6  C5  BZF d   1      -4.061   2.975  -1.686  0.00  0.00    -0.016 A 
ATOM      7  C6  BZF d   1      -5.261   2.296  -1.723  0.00  0.00     0.022 A 
ATOM      8  C7  BZF d   1      -6.000   2.234  -2.857  0.00  0.00     0.029 A 
ATOM      9  C7A BZF d   1      -5.489   2.855  -3.971  0.00  0.00     0.058 A 
ENDROOT
TORSDOF 0
ENDMDL
