MODEL 1
REMARK minimizedAffinity 0.69766295
REMARK minimizedRMSD -1
REMARK  0 active torsions:
REMARK  status: ('A' for Active; 'I' for Inactive)
ROOT
ATOM      1  O1  BZF d   1      -4.076   1.985  -2.660  0.00  0.00    -0.204 OA
ATOM      2  C2  BZF d   1      -5.113   2.244  -1.785  0.00  0.00     0.174 A 
ATOM      3  C3  BZF d   1      -6.000   3.099  -2.333  0.00  0.00    -0.012 A 
ATOM      4  C3A BZF d   1      -5.533   3.320  -3.668  0.00  0.00    -0.107 A 
ATOM      5  C4  BZF d   1      -6.000   4.064  -4.714  0.00  0.00     0.055 A 
ATOM      6  C5  BZF d   1      -5.270   4.124  -5.859  0.00  0.00    -0.016 A 
ATOM      7  C6  BZF d   1      -4.069   3.458  -5.990  0.00  0.00     0.022 A 
ATOM      8  C7  BZF d   1      -3.568   2.703  -4.981  0.00  0.00     0.029 A 
ATOM      9  C7A BZF d   1      -4.319   2.615  -3.835  0.00  0.00     0.058 A 
ENDROOT
TORSDOF 0
ENDMDL
