MODEL 1
REMARK minimizedAffinity 7.27079248
REMARK minimizedRMSD -1
REMARK  0 active torsions:
REMARK  status: ('A' for Active; 'I' for Inactive)
ROOT
ATOM      1  O1  BZF d   1      -3.879   4.807  -4.223  0.00  0.00    -0.204 OA
ATOM      2  C2  BZF d   1      -3.376   3.925  -5.159  0.00  0.00     0.174 A 
ATOM      3  C3  BZF d   1      -3.748   2.660  -4.873  0.00  0.00    -0.012 A 
ATOM      4  C3A BZF d   1      -4.608   2.769  -3.735  0.00  0.00    -0.107 A 
ATOM      5  C4  BZF d   1      -5.305   1.858  -2.994  0.00  0.00     0.055 A 
ATOM      6  C5  BZF d   1      -5.992   2.283  -1.901  0.00  0.00    -0.016 A 
ATOM      7  C6  BZF d   1      -6.000   3.608  -1.517  0.00  0.00     0.022 A 
ATOM      8  C7  BZF d   1      -5.328   4.549  -2.224  0.00  0.00     0.029 A 
ATOM      9  C7A BZF d   1      -4.660   4.129  -3.348  0.00  0.00     0.058 A 
ENDROOT
TORSDOF 0
ENDMDL
