MODEL 1
REMARK minimizedAffinity 7.68635607
REMARK minimizedRMSD -1
REMARK  0 active torsions:
REMARK  status: ('A' for Active; 'I' for Inactive)
ROOT
ATOM      1  O1  BZF d   1       0.474  -4.016  -0.362  0.00  0.00    -0.204 OA
ATOM      2  C2  BZF d   1      -0.371  -3.995  -1.454  0.00  0.00     0.174 A 
ATOM      3  C3  BZF d   1      -0.308  -2.805  -2.086  0.00  0.00    -0.012 A 
ATOM      4  C3A BZF d   1       0.705  -2.066  -1.396  0.00  0.00    -0.107 A 
ATOM      5  C4  BZF d   1       1.237  -0.820  -1.564  0.00  0.00     0.055 A 
ATOM      6  C5  BZF d   1       2.161  -0.371  -0.674  0.00  0.00    -0.016 A 
ATOM      7  C6  BZF d   1       2.572  -1.138   0.396  0.00  0.00     0.022 A 
ATOM      8  C7  BZF d   1       2.076  -2.383   0.601  0.00  0.00     0.029 A 
ATOM      9  C7A BZF d   1       1.167  -2.852  -0.315  0.00  0.00     0.058 A 
ENDROOT
TORSDOF 0
ENDMDL
