MODEL 1
REMARK minimizedAffinity -3.76169562
REMARK minimizedRMSD -1
REMARK  0 active torsions:
REMARK  status: ('A' for Active; 'I' for Inactive)
ROOT
ATOM      1  C   UNL d   1       0.887  -1.045   3.007  0.00  0.00     0.023 A 
ATOM      2  C1  UNL d   1       1.868  -1.095   2.016  0.00  0.00     0.003 A 
ATOM      3  C2  UNL d   1       1.540  -0.797   0.692  0.00  0.00     0.048 A 
ATOM      4  C3  UNL d   1       0.230  -0.449   0.365  0.00  0.00     0.023 A 
ATOM      5  C4  UNL d   1      -0.754  -0.396   1.354  0.00  0.00     0.048 A 
ATOM      6  C5  UNL d   1      -0.422  -0.696   2.676  0.00  0.00     0.003 A 
ATOM      7  I   UNL d   1      -0.260  -0.005  -1.605  0.00  0.00    -0.146 I 
ENDROOT
TORSDOF 0
ENDMDL
