MODEL 1
REMARK minimizedAffinity -3.80957556
REMARK minimizedRMSD -1
REMARK  0 active torsions:
REMARK  status: ('A' for Active; 'I' for Inactive)
ROOT
ATOM      1  C   UNL d   1       1.308  -1.121   2.600  0.00  0.00     0.023 A 
ATOM      2  C1  UNL d   1       2.096  -1.130   1.449  0.00  0.00     0.003 A 
ATOM      3  C2  UNL d   1       1.569  -0.677   0.238  0.00  0.00     0.048 A 
ATOM      4  C3  UNL d   1       0.255  -0.215   0.185  0.00  0.00     0.023 A 
ATOM      5  C4  UNL d   1      -0.537  -0.203   1.335  0.00  0.00     0.048 A 
ATOM      6  C5  UNL d   1      -0.006  -0.658   2.543  0.00  0.00     0.003 A 
ATOM      7  I   UNL d   1      -0.531   0.460  -1.617  0.00  0.00    -0.146 I 
ENDROOT
TORSDOF 0
ENDMDL
