MODEL 1
REMARK minimizedAffinity 0.961733222
REMARK minimizedRMSD -1
REMARK  0 active torsions:
REMARK  status: ('A' for Active; 'I' for Inactive)
ROOT
ATOM      1  C   UNL d   1       0.542  -0.326   0.487  0.00  0.00     0.023 A 
ATOM      2  C1  UNL d   1      -0.819  -0.049   0.619  0.00  0.00     0.003 A 
ATOM      3  C2  UNL d   1      -1.412   0.938  -0.171  0.00  0.00     0.048 A 
ATOM      4  C3  UNL d   1      -0.638   1.644  -1.091  0.00  0.00     0.023 A 
ATOM      5  C4  UNL d   1       0.724   1.371  -1.227  0.00  0.00     0.048 A 
ATOM      6  C5  UNL d   1       1.312   0.383  -0.434  0.00  0.00     0.003 A 
ATOM      7  I   UNL d   1      -1.518   3.114  -2.268  0.00  0.00    -0.146 I 
ENDROOT
TORSDOF 0
ENDMDL
