MODEL 1
REMARK minimizedAffinity -2.19945145
REMARK minimizedRMSD -1
REMARK  0 active torsions:
REMARK  status: ('A' for Active; 'I' for Inactive)
ROOT
ATOM      1  C   UNL d   1       1.263  -1.350   3.128  0.00  0.00     0.023 A 
ATOM      2  C1  UNL d   1       2.081  -0.929   2.080  0.00  0.00     0.003 A 
ATOM      3  C2  UNL d   1       1.514  -0.425   0.908  0.00  0.00     0.048 A 
ATOM      4  C3  UNL d   1       0.126  -0.344   0.791  0.00  0.00     0.023 A 
ATOM      5  C4  UNL d   1      -0.697  -0.763   1.838  0.00  0.00     0.048 A 
ATOM      6  C5  UNL d   1      -0.125  -1.267   3.007  0.00  0.00     0.003 A 
ATOM      7  I   UNL d   1      -0.721   0.406  -0.952  0.00  0.00    -0.146 I 
ENDROOT
TORSDOF 0
ENDMDL
