MODEL 1
REMARK minimizedAffinity -3.46925616
REMARK minimizedRMSD -1
REMARK  0 active torsions:
REMARK  status: ('A' for Active; 'I' for Inactive)
ROOT
ATOM      1  C   UNL d   1       0.857  -0.862   2.953  0.00  0.00     0.023 A 
ATOM      2  C1  UNL d   1      -0.438  -0.438   2.657  0.00  0.00     0.003 A 
ATOM      3  C2  UNL d   1      -0.778  -0.085   1.349  0.00  0.00     0.048 A 
ATOM      4  C3  UNL d   1       0.183  -0.160   0.342  0.00  0.00     0.023 A 
ATOM      5  C4  UNL d   1       1.481  -0.584   0.632  0.00  0.00     0.048 A 
ATOM      6  C5  UNL d   1       1.816  -0.935   1.942  0.00  0.00     0.003 A 
ATOM      7  I   UNL d   1      -0.320   0.365  -1.606  0.00  0.00    -0.146 I 
ENDROOT
TORSDOF 0
ENDMDL
