MODEL 1
REMARK minimizedAffinity -1.44982266
REMARK minimizedRMSD -1
REMARK  0 active torsions:
REMARK  status: ('A' for Active; 'I' for Inactive)
ROOT
ATOM      1  C   UNL d   1       1.160   0.232   3.136  0.00  0.00     0.023 A 
ATOM      2  C1  UNL d   1       0.554  -0.993   2.857  0.00  0.00     0.003 A 
ATOM      3  C2  UNL d   1      -0.106  -1.186   1.641  0.00  0.00     0.048 A 
ATOM      4  C3  UNL d   1      -0.155  -0.150   0.709  0.00  0.00     0.023 A 
ATOM      5  C4  UNL d   1       0.451   1.077   0.984  0.00  0.00     0.048 A 
ATOM      6  C5  UNL d   1       1.109   1.265   2.201  0.00  0.00     0.003 A 
ATOM      7  I   UNL d   1      -1.136  -0.435  -1.101  0.00  0.00    -0.146 I 
ENDROOT
TORSDOF 0
ENDMDL
