MODEL 1
REMARK minimizedAffinity 2.90144992
REMARK minimizedRMSD -1
REMARK  0 active torsions:
REMARK  status: ('A' for Active; 'I' for Inactive)
ROOT
ATOM      1  C   UNL d   1      -3.497   0.559   1.210  0.00  0.00     0.023 A 
ATOM      2  C1  UNL d   1      -3.065   0.839   2.507  0.00  0.00     0.003 A 
ATOM      3  C2  UNL d   1      -1.843   0.340   2.960  0.00  0.00     0.048 A 
ATOM      4  C3  UNL d   1      -1.056  -0.438   2.112  0.00  0.00     0.023 A 
ATOM      5  C4  UNL d   1      -1.484  -0.721   0.813  0.00  0.00     0.048 A 
ATOM      6  C5  UNL d   1      -2.707  -0.220   0.365  0.00  0.00     0.003 A 
ATOM      7  I   UNL d   1       0.764  -1.183   2.784  0.00  0.00    -0.146 I 
ENDROOT
TORSDOF 0
ENDMDL
