MODEL 1
REMARK minimizedAffinity 6.09518337
REMARK minimizedRMSD -1
REMARK  1 active torsions:
REMARK  status: ('A' for Active; 'I' for Inactive)
REMARK    1  A    between atoms: N_2  and  C1_3 
ROOT
ATOM      1  C1  UNL d   1      -0.744   4.496  -3.544  0.00  0.00     0.143 A 
ATOM      2  C2  UNL d   1       0.439   3.775  -3.738  0.00  0.00    -0.057 A 
ATOM      3  C3  UNL d   1       0.417   2.447  -4.181  0.00  0.00     0.033 A 
ATOM      4  C4  UNL d   1      -0.796   1.805  -4.410  0.00  0.00    -0.042 A 
ATOM      5  C5  UNL d   1      -1.985   2.493  -4.199  0.00  0.00     0.033 A 
ATOM      6  C6  UNL d   1      -1.956   3.821  -3.764  0.00  0.00    -0.057 A 
ENDROOT
BRANCH   1   7
ATOM      7  N   UNL d   1      -0.791   5.786  -3.011  0.00  0.00    -0.732 N 
ATOM      8  C   UNL d   1      -1.151   6.000  -1.626  0.00  0.00     0.284 C 
ATOM      9  H3  UNL d   1      -0.021   6.368  -3.335  0.00  0.00     0.395 HD
ENDBRANCH   1   7
TORSDOF 1
ENDMDL
