MODEL 1
REMARK minimizedAffinity 11.0960093
REMARK minimizedRMSD -1
REMARK  1 active torsions:
REMARK  status: ('A' for Active; 'I' for Inactive)
REMARK    1  A    between atoms: N_2  and  C1_3 
ROOT
ATOM      1  C1  UNL d   1      -1.979   3.376  -3.762  0.00  0.00     0.143 A 
ATOM      2  C2  UNL d   1      -2.164   4.447  -2.880  0.00  0.00    -0.057 A 
ATOM      3  C3  UNL d   1      -1.100   5.282  -2.519  0.00  0.00     0.033 A 
ATOM      4  C4  UNL d   1       0.178   5.042  -3.012  0.00  0.00    -0.042 A 
ATOM      5  C5  UNL d   1       0.390   3.969  -3.870  0.00  0.00     0.033 A 
ATOM      6  C6  UNL d   1      -0.678   3.142  -4.232  0.00  0.00    -0.057 A 
ENDROOT
BRANCH   1   7
ATOM      7  N   UNL d   1      -2.976   2.451  -4.082  0.00  0.00    -0.732 N 
ATOM      8  C   UNL d   1      -4.144   2.857  -4.835  0.00  0.00     0.284 C 
ATOM      9  H3  UNL d   1      -2.595   1.550  -4.360  0.00  0.00     0.395 HD
ENDBRANCH   1   7
TORSDOF 1
ENDMDL
