MODEL 1
REMARK minimizedAffinity 17.3251591
REMARK minimizedRMSD -1
REMARK  1 active torsions:
REMARK  status: ('A' for Active; 'I' for Inactive)
REMARK    1  A    between atoms: N_2  and  C1_3 
ROOT
ATOM      1  C1  UNL d   1      -1.078  -5.423  -2.379  0.00  0.00     0.143 A 
ATOM      2  C2  UNL d   1      -2.349  -5.998  -2.277  0.00  0.00    -0.057 A 
ATOM      3  C3  UNL d   1      -3.343  -5.426  -1.473  0.00  0.00     0.033 A 
ATOM      4  C4  UNL d   1      -3.072  -4.281  -0.731  0.00  0.00    -0.042 A 
ATOM      5  C5  UNL d   1      -1.808  -3.706  -0.797  0.00  0.00     0.033 A 
ATOM      6  C6  UNL d   1      -0.822  -4.278  -1.607  0.00  0.00    -0.057 A 
ENDROOT
BRANCH   1   7
ATOM      7  N   UNL d   1      -0.018  -5.998  -3.084  0.00  0.00    -0.732 N 
ATOM      8  C   UNL d   1      -0.009  -5.999  -4.531  0.00  0.00     0.284 C 
ATOM      9  H3  UNL d   1       0.885  -5.793  -2.663  0.00  0.00     0.395 HD
ENDBRANCH   1   7
TORSDOF 1
ENDMDL
