MODEL 1
REMARK minimizedAffinity 6.29049206
REMARK minimizedRMSD -1
REMARK  1 active torsions:
REMARK  status: ('A' for Active; 'I' for Inactive)
REMARK    1  A    between atoms: N_2  and  C1_3 
ROOT
ATOM      1  C1  UNL d   1      -0.352  -0.832   2.858  0.00  0.00     0.143 A 
ATOM      2  C2  UNL d   1       0.745  -0.088   2.411  0.00  0.00    -0.057 A 
ATOM      3  C3  UNL d   1       1.177  -0.158   1.081  0.00  0.00     0.033 A 
ATOM      4  C4  UNL d   1       0.534  -0.998   0.178  0.00  0.00    -0.042 A 
ATOM      5  C5  UNL d   1      -0.544  -1.765   0.606  0.00  0.00     0.033 A 
ATOM      6  C6  UNL d   1      -0.974  -1.686   1.934  0.00  0.00    -0.057 A 
ENDROOT
BRANCH   1   7
ATOM      7  N   UNL d   1      -0.768  -0.881   4.190  0.00  0.00    -0.732 N 
ATOM      8  C   UNL d   1      -1.067  -2.148   4.823  0.00  0.00     0.284 C 
ATOM      9  H3  UNL d   1      -0.255  -0.232   4.782  0.00  0.00     0.395 HD
ENDBRANCH   1   7
TORSDOF 1
ENDMDL
