MODEL 1
REMARK minimizedAffinity 12.8383512
REMARK minimizedRMSD -1
REMARK  1 active torsions:
REMARK  status: ('A' for Active; 'I' for Inactive)
REMARK    1  A    between atoms: N_2  and  C1_3 
ROOT
ATOM      1  C1  UNL d   1      -0.623  -1.321   4.046  0.00  0.00     0.143 A 
ATOM      2  C2  UNL d   1      -1.571  -1.640   3.069  0.00  0.00    -0.057 A 
ATOM      3  C3  UNL d   1      -1.347  -1.348   1.718  0.00  0.00     0.033 A 
ATOM      4  C4  UNL d   1      -0.180  -0.703   1.323  0.00  0.00    -0.042 A 
ATOM      5  C5  UNL d   1       0.766  -0.354   2.281  0.00  0.00     0.033 A 
ATOM      6  C6  UNL d   1       0.540  -0.654   3.628  0.00  0.00    -0.057 A 
ENDROOT
BRANCH   1   7
ATOM      7  N   UNL d   1      -0.829  -1.496   5.417  0.00  0.00    -0.732 N 
ATOM      8  C   UNL d   1      -1.110  -2.808   5.958  0.00  0.00     0.284 C 
ATOM      9  H3  UNL d   1      -0.188  -0.942   5.980  0.00  0.00     0.395 HD
ENDBRANCH   1   7
TORSDOF 1
ENDMDL
