MODEL 1
REMARK minimizedAffinity 8.86418533
REMARK minimizedRMSD -1
REMARK  1 active torsions:
REMARK  status: ('A' for Active; 'I' for Inactive)
REMARK    1  A    between atoms: N_2  and  C1_3 
ROOT
ATOM      1  C1  UNL d   1      -1.407  -5.152  -2.771  0.00  0.00     0.143 A 
ATOM      2  C2  UNL d   1      -0.189  -5.590  -2.239  0.00  0.00    -0.057 A 
ATOM      3  C3  UNL d   1       0.862  -5.996  -3.071  0.00  0.00     0.033 A 
ATOM      4  C4  UNL d   1       0.702  -5.998  -4.452  0.00  0.00    -0.042 A 
ATOM      5  C5  UNL d   1      -0.508  -5.591  -5.002  0.00  0.00     0.033 A 
ATOM      6  C6  UNL d   1      -1.551  -5.180  -4.167  0.00  0.00    -0.057 A 
ENDROOT
BRANCH   1   7
ATOM      7  N   UNL d   1      -2.523  -4.829  -1.995  0.00  0.00    -0.732 N 
ATOM      8  C   UNL d   1      -3.351  -5.870  -1.427  0.00  0.00     0.284 C 
ATOM      9  H3  UNL d   1      -2.347  -4.048  -1.367  0.00  0.00     0.395 HD
ENDBRANCH   1   7
TORSDOF 1
ENDMDL
