MODEL 1
REMARK minimizedAffinity 3.86001086
REMARK minimizedRMSD -1
REMARK  1 active torsions:
REMARK  status: ('A' for Active; 'I' for Inactive)
REMARK    1  A    between atoms: N_2  and  C1_3 
ROOT
ATOM      1  C1  UNL d   1       0.852  -0.834   1.190  0.00  0.00     0.143 A 
ATOM      2  C2  UNL d   1       0.072  -1.663   0.376  0.00  0.00    -0.057 A 
ATOM      3  C3  UNL d   1      -1.112  -2.241   0.850  0.00  0.00     0.033 A 
ATOM      4  C4  UNL d   1      -1.523  -2.022   2.161  0.00  0.00    -0.042 A 
ATOM      5  C5  UNL d   1      -0.751  -1.222   2.995  0.00  0.00     0.033 A 
ATOM      6  C6  UNL d   1       0.426  -0.642   2.514  0.00  0.00    -0.057 A 
ENDROOT
BRANCH   1   7
ATOM      7  N   UNL d   1       2.089  -0.310   0.808  0.00  0.00    -0.732 N 
ATOM      8  C   UNL d   1       3.220  -0.359   1.710  0.00  0.00     0.284 C 
ATOM      9  H3  UNL d   1       2.319  -0.523  -0.159  0.00  0.00     0.395 HD
ENDBRANCH   1   7
TORSDOF 1
ENDMDL
