MODEL 1
REMARK minimizedAffinity 6.26183176
REMARK minimizedRMSD -1
REMARK  1 active torsions:
REMARK  status: ('A' for Active; 'I' for Inactive)
REMARK    1  A    between atoms: N_2  and  C1_3 
ROOT
ATOM      1  C1  UNL d   1       3.209  -6.000   4.471  0.00  0.00     0.143 A 
ATOM      2  C2  UNL d   1       4.119  -5.993   3.408  0.00  0.00    -0.057 A 
ATOM      3  C3  UNL d   1       5.497  -5.890   3.632  0.00  0.00     0.033 A 
ATOM      4  C4  UNL d   1       5.990  -5.764   4.926  0.00  0.00    -0.042 A 
ATOM      5  C5  UNL d   1       5.103  -5.743   5.997  0.00  0.00     0.033 A 
ATOM      6  C6  UNL d   1       3.728  -5.853   5.767  0.00  0.00    -0.057 A 
ENDROOT
BRANCH   1   7
ATOM      7  N   UNL d   1       1.822  -6.000   4.308  0.00  0.00    -0.732 N 
ATOM      8  C   UNL d   1       0.946  -5.862   5.452  0.00  0.00     0.284 C 
ATOM      9  H3  UNL d   1       1.527  -5.470   3.492  0.00  0.00     0.395 HD
ENDBRANCH   1   7
TORSDOF 1
ENDMDL
