MODEL 1
REMARK minimizedAffinity 7.54114723
REMARK minimizedRMSD -1
REMARK  1 active torsions:
REMARK  status: ('A' for Active; 'I' for Inactive)
REMARK    1  A    between atoms: N_2  and  C1_3 
ROOT
ATOM      1  C1  UNL d   1      -0.550  -0.824   2.446  0.00  0.00     0.143 A 
ATOM      2  C2  UNL d   1       0.534   0.039   2.248  0.00  0.00    -0.057 A 
ATOM      3  C3  UNL d   1       1.407  -0.130   1.167  0.00  0.00     0.033 A 
ATOM      4  C4  UNL d   1       1.228  -1.184   0.278  0.00  0.00    -0.042 A 
ATOM      5  C5  UNL d   1       0.173  -2.068   0.469  0.00  0.00     0.033 A 
ATOM      6  C6  UNL d   1      -0.700  -1.891   1.547  0.00  0.00    -0.057 A 
ENDROOT
BRANCH   1   7
ATOM      7  N   UNL d   1      -1.396  -0.768   3.556  0.00  0.00    -0.732 N 
ATOM      8  C   UNL d   1      -1.068  -1.487   4.769  0.00  0.00     0.284 C 
ATOM      9  H3  UNL d   1      -1.769   0.165   3.714  0.00  0.00     0.395 HD
ENDBRANCH   1   7
TORSDOF 1
ENDMDL
