MODEL 1
REMARK minimizedAffinity 13.4632664
REMARK minimizedRMSD -1
REMARK  1 active torsions:
REMARK  status: ('A' for Active; 'I' for Inactive)
REMARK    1  A    between atoms: N_2  and  C1_3 
ROOT
ATOM      1  C1  UNL d   1      -1.735   2.788  -4.709  0.00  0.00     0.143 A 
ATOM      2  C2  UNL d   1      -0.648   2.066  -5.212  0.00  0.00    -0.057 A 
ATOM      3  C3  UNL d   1       0.661   2.340  -4.797  0.00  0.00     0.033 A 
ATOM      4  C4  UNL d   1       0.909   3.365  -3.890  0.00  0.00    -0.042 A 
ATOM      5  C5  UNL d   1      -0.154   4.113  -3.395  0.00  0.00     0.033 A 
ATOM      6  C6  UNL d   1      -1.459   3.829  -3.808  0.00  0.00    -0.057 A 
ENDROOT
BRANCH   1   7
ATOM      7  N   UNL d   1      -3.049   2.629  -5.156  0.00  0.00    -0.732 N 
ATOM      8  C   UNL d   1      -3.685   3.655  -5.954  0.00  0.00     0.284 C 
ATOM      9  H3  UNL d   1      -3.240   1.680  -5.469  0.00  0.00     0.395 HD
ENDBRANCH   1   7
TORSDOF 1
ENDMDL
