MODEL 1
REMARK minimizedAffinity 10.23948
REMARK minimizedRMSD -1
REMARK  1 active torsions:
REMARK  status: ('A' for Active; 'I' for Inactive)
REMARK    1  A    between atoms: N_2  and  C1_3 
ROOT
ATOM      1  C1  UNL d   1      -1.629  -1.353   1.128  0.00  0.00     0.143 A 
ATOM      2  C2  UNL d   1      -3.012  -1.431   1.323  0.00  0.00    -0.057 A 
ATOM      3  C3  UNL d   1      -3.812  -2.264   0.532  0.00  0.00     0.033 A 
ATOM      4  C4  UNL d   1      -3.244  -3.016  -0.492  0.00  0.00    -0.042 A 
ATOM      5  C5  UNL d   1      -1.874  -2.936  -0.720  0.00  0.00     0.033 A 
ATOM      6  C6  UNL d   1      -1.080  -2.107   0.078  0.00  0.00    -0.057 A 
ENDROOT
BRANCH   1   7
ATOM      7  N   UNL d   1      -0.794  -0.470   1.816  0.00  0.00    -0.732 N 
ATOM      8  C   UNL d   1       0.332   0.149   1.152  0.00  0.00     0.284 C 
ATOM      9  H3  UNL d   1      -1.313   0.158   2.427  0.00  0.00     0.395 HD
ENDBRANCH   1   7
TORSDOF 1
ENDMDL
