MODEL 1
REMARK minimizedAffinity 1.74601018
REMARK minimizedRMSD -1
REMARK  1 active torsions:
REMARK  status: ('A' for Active; 'I' for Inactive)
REMARK    1  A    between atoms: N_2  and  C1_3 
ROOT
ATOM      1  C1  UNL d   1      -0.512  -0.909   3.481  0.00  0.00     0.143 A 
ATOM      2  C2  UNL d   1      -1.109  -1.348   2.294  0.00  0.00    -0.057 A 
ATOM      3  C3  UNL d   1      -0.455  -1.221   1.062  0.00  0.00     0.033 A 
ATOM      4  C4  UNL d   1       0.799  -0.623   0.992  0.00  0.00    -0.042 A 
ATOM      5  C5  UNL d   1       1.400  -0.157   2.156  0.00  0.00     0.033 A 
ATOM      6  C6  UNL d   1       0.745  -0.293   3.383  0.00  0.00    -0.057 A 
ENDROOT
BRANCH   1   7
ATOM      7  N   UNL d   1      -1.152  -0.919   4.723  0.00  0.00    -0.732 N 
ATOM      8  C   UNL d   1      -1.471  -2.169   5.378  0.00  0.00     0.284 C 
ATOM      9  H3  UNL d   1      -0.796  -0.200   5.348  0.00  0.00     0.395 HD
ENDBRANCH   1   7
TORSDOF 1
ENDMDL
