MODEL 1
REMARK minimizedAffinity -1.6659193
REMARK minimizedRMSD -1
REMARK  1 active torsions:
REMARK  status: ('A' for Active; 'I' for Inactive)
REMARK    1  A    between atoms: N_2  and  C1_3 
ROOT
ATOM      1  C1  UNL d   1       5.397  -3.286  -5.095  0.00  0.00     0.143 A 
ATOM      2  C2  UNL d   1       4.344  -3.654  -5.940  0.00  0.00    -0.057 A 
ATOM      3  C3  UNL d   1       3.865  -4.969  -5.974  0.00  0.00     0.033 A 
ATOM      4  C4  UNL d   1       4.453  -5.950  -5.182  0.00  0.00    -0.042 A 
ATOM      5  C5  UNL d   1       5.517  -5.613  -4.353  0.00  0.00     0.033 A 
ATOM      6  C6  UNL d   1       5.986  -4.297  -4.319  0.00  0.00    -0.057 A 
ENDROOT
BRANCH   1   7
ATOM      7  N   UNL d   1       5.982  -2.018  -5.088  0.00  0.00    -0.732 N 
ATOM      8  C   UNL d   1       5.910  -1.179  -3.911  0.00  0.00     0.284 C 
ATOM      9  H3  UNL d   1       6.887  -2.005  -5.553  0.00  0.00     0.395 HD
ENDBRANCH   1   7
TORSDOF 1
ENDMDL
