MODEL 1
REMARK minimizedAffinity 6.93107033
REMARK minimizedRMSD -1
REMARK  1 active torsions:
REMARK  status: ('A' for Active; 'I' for Inactive)
REMARK    1  A    between atoms: N_2  and  C1_3 
ROOT
ATOM      1  C1  UNL d   1       1.046  -0.752   0.805  0.00  0.00     0.143 A 
ATOM      2  C2  UNL d   1       0.470  -0.072   1.884  0.00  0.00    -0.057 A 
ATOM      3  C3  UNL d   1      -0.739  -0.495   2.447  0.00  0.00     0.033 A 
ATOM      4  C4  UNL d   1      -1.412  -1.593   1.922  0.00  0.00    -0.042 A 
ATOM      5  C5  UNL d   1      -0.872  -2.270   0.834  0.00  0.00     0.033 A 
ATOM      6  C6  UNL d   1       0.340  -1.846   0.280  0.00  0.00    -0.057 A 
ENDROOT
BRANCH   1   7
ATOM      7  N   UNL d   1       2.195  -0.323   0.138  0.00  0.00    -0.732 N 
ATOM      8  C   UNL d   1       2.118   0.708  -0.875  0.00  0.00     0.284 C 
ATOM      9  H3  UNL d   1       2.995  -0.235   0.760  0.00  0.00     0.395 HD
ENDBRANCH   1   7
TORSDOF 1
ENDMDL
