MODEL 1
REMARK minimizedAffinity 16.204525
REMARK minimizedRMSD -1
REMARK  0 active torsions:
REMARK  status: ('A' for Active; 'I' for Inactive)
ROOT
ATOM      1  C   UNL d   1       1.123  -3.305   2.189  0.00  0.00     0.124 A 
ATOM      2  C1  UNL d   1       1.826  -4.470   2.461  0.00  0.00     0.062 A 
ATOM      3  C2  UNL d   1       3.218  -4.460   2.477  0.00  0.00     0.162 A 
ATOM      4  C3  UNL d   1       3.916  -3.280   2.220  0.00  0.00    -0.034 A 
ATOM      5  C4  UNL d   1       3.202  -2.112   1.947  0.00  0.00     0.162 A 
ATOM      6  C5  UNL d   1       1.811  -2.127   1.932  0.00  0.00     0.062 A 
ATOM      7  F   UNL d   1       1.134  -1.000   1.669  0.00  0.00    -0.097 F 
ATOM      8  F1  UNL d   1       3.842  -0.960   1.696  0.00  0.00    -0.096 F 
ATOM      9  I   UNL d   1       5.997  -3.261   2.243  0.00  0.00    -0.060 I 
ATOM     10  F2  UNL d   1       3.871  -5.601   2.743  0.00  0.00    -0.096 F 
ATOM     11  F3  UNL d   1       1.163  -5.609   2.708  0.00  0.00    -0.097 F 
ATOM     12  F4  UNL d   1      -0.216  -3.317   2.174  0.00  0.00    -0.092 F 
ENDROOT
TORSDOF 0
ENDMDL
