MODEL 1
REMARK minimizedAffinity 19.3585663
REMARK minimizedRMSD -1
REMARK  0 active torsions:
REMARK  status: ('A' for Active; 'I' for Inactive)
ROOT
ATOM      1  C   UNL d   1       1.360   0.250   1.889  0.00  0.00     0.124 A 
ATOM      2  C1  UNL d   1       1.537   0.067   3.253  0.00  0.00     0.062 A 
ATOM      3  C2  UNL d   1       1.349  -1.190   3.820  0.00  0.00     0.162 A 
ATOM      4  C3  UNL d   1       0.983  -2.275   3.023  0.00  0.00    -0.034 A 
ATOM      5  C4  UNL d   1       0.806  -2.082   1.652  0.00  0.00     0.162 A 
ATOM      6  C5  UNL d   1       0.995  -0.824   1.089  0.00  0.00     0.062 A 
ATOM      7  F   UNL d   1       0.824  -0.649  -0.229  0.00  0.00    -0.097 F 
ATOM      8  F1  UNL d   1       0.455  -3.103   0.856  0.00  0.00    -0.096 F 
ATOM      9  I   UNL d   1       0.701  -4.156   3.868  0.00  0.00    -0.060 I 
ATOM     10  F2  UNL d   1       1.527  -1.338   5.142  0.00  0.00    -0.096 F 
ATOM     11  F3  UNL d   1       1.889   1.103   4.027  0.00  0.00    -0.097 F 
ATOM     12  F4  UNL d   1       1.541   1.461   1.345  0.00  0.00    -0.092 F 
ENDROOT
TORSDOF 0
ENDMDL
