MODEL 1
REMARK minimizedAffinity 20.0751896
REMARK minimizedRMSD -1
REMARK  0 active torsions:
REMARK  status: ('A' for Active; 'I' for Inactive)
ROOT
ATOM      1  C   UNL d   1       2.234  -1.554  -0.995  0.00  0.00     0.124 A 
ATOM      2  C1  UNL d   1       3.354  -0.765  -0.773  0.00  0.00     0.062 A 
ATOM      3  C2  UNL d   1       4.431  -0.815  -1.654  0.00  0.00     0.162 A 
ATOM      4  C3  UNL d   1       4.392  -1.657  -2.766  0.00  0.00    -0.034 A 
ATOM      5  C4  UNL d   1       3.262  -2.448  -2.981  0.00  0.00     0.162 A 
ATOM      6  C5  UNL d   1       2.189  -2.394  -2.098  0.00  0.00     0.062 A 
ATOM      7  F   UNL d   1       1.107  -3.157  -2.314  0.00  0.00    -0.097 F 
ATOM      8  F1  UNL d   1       3.192  -3.268  -4.040  0.00  0.00    -0.096 F 
ATOM      9  I   UNL d   1       6.000  -1.735  -4.085  0.00  0.00    -0.060 I 
ATOM     10  F2  UNL d   1       5.501  -0.042  -1.415  0.00  0.00    -0.096 F 
ATOM     11  F3  UNL d   1       3.401   0.047   0.293  0.00  0.00    -0.097 F 
ATOM     12  F4  UNL d   1       1.200  -1.504  -0.145  0.00  0.00    -0.092 F 
ENDROOT
TORSDOF 0
ENDMDL
