MODEL 1
REMARK minimizedAffinity 15.2031221
REMARK minimizedRMSD -1
REMARK  0 active torsions:
REMARK  status: ('A' for Active; 'I' for Inactive)
ROOT
ATOM      1  C   UNL d   1      -5.742  -2.326  -2.442  0.00  0.00     0.124 A 
ATOM      2  C1  UNL d   1      -5.544  -2.061  -3.790  0.00  0.00     0.062 A 
ATOM      3  C2  UNL d   1      -5.403  -3.108  -4.696  0.00  0.00     0.162 A 
ATOM      4  C3  UNL d   1      -5.460  -4.431  -4.257  0.00  0.00    -0.034 A 
ATOM      5  C4  UNL d   1      -5.658  -4.689  -2.899  0.00  0.00     0.162 A 
ATOM      6  C5  UNL d   1      -5.799  -3.639  -1.998  0.00  0.00     0.062 A 
ATOM      7  F   UNL d   1      -5.990  -3.897  -0.696  0.00  0.00    -0.097 F 
ATOM      8  F1  UNL d   1      -5.718  -5.949  -2.443  0.00  0.00    -0.096 F 
ATOM      9  I   UNL d   1      -5.249  -5.999  -5.608  0.00  0.00    -0.060 I 
ATOM     10  F2  UNL d   1      -5.213  -2.822  -5.992  0.00  0.00    -0.096 F 
ATOM     11  F3  UNL d   1      -5.488  -0.792  -4.221  0.00  0.00    -0.097 F 
ATOM     12  F4  UNL d   1      -5.877  -1.316  -1.572  0.00  0.00    -0.092 F 
ENDROOT
TORSDOF 0
ENDMDL
