MODEL 1
REMARK minimizedAffinity 5.32634926
REMARK minimizedRMSD -1
REMARK  0 active torsions:
REMARK  status: ('A' for Active; 'I' for Inactive)
ROOT
ATOM      1  C   UNL d   1       0.383   1.274   0.454  0.00  0.00     0.124 A 
ATOM      2  C1  UNL d   1       1.687   1.730   0.592  0.00  0.00     0.062 A 
ATOM      3  C2  UNL d   1       2.032   3.005   0.154  0.00  0.00     0.162 A 
ATOM      4  C3  UNL d   1       1.071   3.835  -0.424  0.00  0.00    -0.034 A 
ATOM      5  C4  UNL d   1      -0.238   3.369  -0.560  0.00  0.00     0.162 A 
ATOM      6  C5  UNL d   1      -0.577   2.093  -0.121  0.00  0.00     0.062 A 
ATOM      7  F   UNL d   1      -1.837   1.654  -0.255  0.00  0.00    -0.097 F 
ATOM      8  F1  UNL d   1      -1.186   4.140  -1.111  0.00  0.00    -0.096 F 
ATOM      9  I   UNL d   1       1.583   5.743  -1.079  0.00  0.00    -0.060 I 
ATOM     10  F2  UNL d   1       3.299   3.420   0.300  0.00  0.00    -0.096 F 
ATOM     11  F3  UNL d   1       2.617   0.940   1.146  0.00  0.00    -0.097 F 
ATOM     12  F4  UNL d   1       0.054   0.046   0.875  0.00  0.00    -0.092 F 
ENDROOT
TORSDOF 0
ENDMDL
