MODEL 1
REMARK minimizedAffinity 25.9533081
REMARK minimizedRMSD -1
REMARK  0 active torsions:
REMARK  status: ('A' for Active; 'I' for Inactive)
ROOT
ATOM      1  C   UNL d   1       2.382  -1.293  -3.298  0.00  0.00     0.124 A 
ATOM      2  C1  UNL d   1       3.719  -1.544  -3.026  0.00  0.00     0.062 A 
ATOM      3  C2  UNL d   1       4.715  -0.900  -3.755  0.00  0.00     0.162 A 
ATOM      4  C3  UNL d   1       4.377   0.002  -4.764  0.00  0.00    -0.034 A 
ATOM      5  C4  UNL d   1       3.030   0.248  -5.033  0.00  0.00     0.162 A 
ATOM      6  C5  UNL d   1       2.038  -0.397  -4.301  0.00  0.00     0.062 A 
ATOM      7  F   UNL d   1       0.746  -0.154  -4.566  0.00  0.00    -0.097 F 
ATOM      8  F1  UNL d   1       2.670   1.110  -5.996  0.00  0.00    -0.096 F 
ATOM      9  I   UNL d   1       5.863   0.966  -5.856  0.00  0.00    -0.060 I 
ATOM     10  F2  UNL d   1       6.000  -1.162  -3.470  0.00  0.00    -0.096 F 
ATOM     11  F3  UNL d   1       4.054  -2.409  -2.058  0.00  0.00    -0.097 F 
ATOM     12  F4  UNL d   1       1.426  -1.914  -2.596  0.00  0.00    -0.092 F 
ENDROOT
TORSDOF 0
ENDMDL
