MODEL 1
REMARK minimizedAffinity 14.996892
REMARK minimizedRMSD -1
REMARK  0 active torsions:
REMARK  status: ('A' for Active; 'I' for Inactive)
ROOT
ATOM      1  C   UNL d   1      -5.645  -2.379  -2.421  0.00  0.00     0.124 A 
ATOM      2  C1  UNL d   1      -5.471  -2.080  -3.765  0.00  0.00     0.062 A 
ATOM      3  C2  UNL d   1      -5.405  -3.103  -4.707  0.00  0.00     0.162 A 
ATOM      4  C3  UNL d   1      -5.513  -4.435  -4.308  0.00  0.00    -0.034 A 
ATOM      5  C4  UNL d   1      -5.687  -4.728  -2.954  0.00  0.00     0.162 A 
ATOM      6  C5  UNL d   1      -5.753  -3.702  -2.017  0.00  0.00     0.062 A 
ATOM      7  F   UNL d   1      -5.921  -3.993  -0.719  0.00  0.00    -0.097 F 
ATOM      8  F1  UNL d   1      -5.795  -5.998  -2.536  0.00  0.00    -0.096 F 
ATOM      9  I   UNL d   1      -5.415  -5.967  -5.713  0.00  0.00    -0.060 I 
ATOM     10  F2  UNL d   1      -5.236  -2.784  -5.999  0.00  0.00    -0.096 F 
ATOM     11  F3  UNL d   1      -5.366  -0.802  -4.158  0.00  0.00    -0.097 F 
ATOM     12  F4  UNL d   1      -5.708  -1.393  -1.517  0.00  0.00    -0.092 F 
ENDROOT
TORSDOF 0
ENDMDL
