MODEL 1
REMARK minimizedAffinity 9.29605961
REMARK minimizedRMSD -1
REMARK  0 active torsions:
REMARK  status: ('A' for Active; 'I' for Inactive)
ROOT
ATOM      1  C   UNL d   1       2.380  -1.339  -3.215  0.00  0.00     0.124 A 
ATOM      2  C1  UNL d   1       2.090  -0.307  -4.096  0.00  0.00     0.062 A 
ATOM      3  C2  UNL d   1       3.119   0.369  -4.745  0.00  0.00     0.162 A 
ATOM      4  C3  UNL d   1       4.449   0.014  -4.516  0.00  0.00    -0.034 A 
ATOM      5  C4  UNL d   1       4.732  -1.025  -3.628  0.00  0.00     0.162 A 
ATOM      6  C5  UNL d   1       3.700  -1.697  -2.982  0.00  0.00     0.062 A 
ATOM      7  F   UNL d   1       3.982  -2.695  -2.131  0.00  0.00    -0.097 F 
ATOM      8  F1  UNL d   1       5.999  -1.392  -3.385  0.00  0.00    -0.096 F 
ATOM      9  I   UNL d   1       5.990   1.023  -5.485  0.00  0.00    -0.060 I 
ATOM     10  F2  UNL d   1       2.810   1.363  -5.591  0.00  0.00    -0.096 F 
ATOM     11  F3  UNL d   1       0.815   0.042  -4.322  0.00  0.00    -0.097 F 
ATOM     12  F4  UNL d   1       1.388  -1.987  -2.591  0.00  0.00    -0.092 F 
ENDROOT
TORSDOF 0
ENDMDL
