MODEL 1
REMARK minimizedAffinity 14.8267698
REMARK minimizedRMSD -1
REMARK  0 active torsions:
REMARK  status: ('A' for Active; 'I' for Inactive)
ROOT
ATOM      1  C   UNL d   1       2.331  -2.886  -1.008  0.00  0.00     0.124 A 
ATOM      2  C1  UNL d   1       2.232  -3.559  -2.218  0.00  0.00     0.062 A 
ATOM      3  C2  UNL d   1       2.838  -3.040  -3.359  0.00  0.00     0.162 A 
ATOM      4  C3  UNL d   1       3.549  -1.842  -3.296  0.00  0.00    -0.034 A 
ATOM      5  C4  UNL d   1       3.643  -1.170  -2.075  0.00  0.00     0.162 A 
ATOM      6  C5  UNL d   1       3.036  -1.692  -0.938  0.00  0.00     0.062 A 
ATOM      7  F   UNL d   1       3.132  -1.041   0.230  0.00  0.00    -0.097 F 
ATOM      8  F1  UNL d   1       4.319  -0.016  -1.979  0.00  0.00    -0.096 F 
ATOM      9  I   UNL d   1       4.456  -1.063  -4.999  0.00  0.00    -0.060 I 
ATOM     10  F2  UNL d   1       2.726  -3.712  -4.515  0.00  0.00    -0.096 F 
ATOM     11  F3  UNL d   1       1.550  -4.711  -2.289  0.00  0.00    -0.097 F 
ATOM     12  F4  UNL d   1       1.746  -3.386   0.088  0.00  0.00    -0.092 F 
ENDROOT
TORSDOF 0
ENDMDL
