MODEL 1
REMARK minimizedAffinity 21.1406746
REMARK minimizedRMSD -1
REMARK  0 active torsions:
REMARK  status: ('A' for Active; 'I' for Inactive)
ROOT
ATOM      1  C   UNL d   1       0.111   2.234  -0.022  0.00  0.00     0.124 A 
ATOM      2  C1  UNL d   1      -0.496   3.052  -0.964  0.00  0.00     0.062 A 
ATOM      3  C2  UNL d   1       0.200   4.127  -1.509  0.00  0.00     0.162 A 
ATOM      4  C3  UNL d   1       1.511   4.391  -1.113  0.00  0.00    -0.034 A 
ATOM      5  C4  UNL d   1       2.115   3.564  -0.164  0.00  0.00     0.162 A 
ATOM      6  C5  UNL d   1       1.415   2.490   0.378  0.00  0.00     0.062 A 
ATOM      7  F   UNL d   1       2.003   1.701   1.288  0.00  0.00    -0.097 F 
ATOM      8  F1  UNL d   1       3.374   3.788   0.239  0.00  0.00    -0.096 F 
ATOM      9  I   UNL d   1       2.555   5.998  -1.926  0.00  0.00    -0.060 I 
ATOM     10  F2  UNL d   1      -0.411   4.902  -2.418  0.00  0.00    -0.096 F 
ATOM     11  F3  UNL d   1      -1.756   2.807  -1.351  0.00  0.00    -0.097 F 
ATOM     12  F4  UNL d   1      -0.561   1.200   0.502  0.00  0.00    -0.092 F 
ENDROOT
TORSDOF 0
ENDMDL
