MODEL 1
REMARK minimizedAffinity 12.8068371
REMARK minimizedRMSD -1
REMARK  0 active torsions:
REMARK  status: ('A' for Active; 'I' for Inactive)
ROOT
ATOM      1  C   UNL d   1      -2.250  -0.219   2.264  0.00  0.00     0.078 C 
ATOM      2  C1  UNL d   1      -0.790  -0.353   2.577  0.00  0.00    -0.077 A 
ATOM      3  C2  UNL d   1      -0.359  -0.949   3.769  0.00  0.00    -0.001 A 
ATOM      4  C3  UNL d   1       1.003  -1.058   4.053  0.00  0.00     0.003 A 
ATOM      5  C4  UNL d   1       1.946  -0.573   3.149  0.00  0.00    -0.005 A 
ATOM      6  C5  UNL d   1       1.528   0.023   1.961  0.00  0.00     0.003 A 
ATOM      7  C6  UNL d   1       0.166   0.133   1.676  0.00  0.00    -0.001 A 
ENDROOT
TORSDOF 0
ENDMDL
