MODEL 1
REMARK minimizedAffinity 9.46694756
REMARK minimizedRMSD -1
REMARK  0 active torsions:
REMARK  status: ('A' for Active; 'I' for Inactive)
ROOT
ATOM      1  C   UNL d   1       1.866  -5.986  -5.979  0.00  0.00     0.078 C 
ATOM      2  C1  UNL d   1       0.630  -5.138  -5.976  0.00  0.00    -0.077 A 
ATOM      3  C2  UNL d   1      -0.644  -5.719  -5.973  0.00  0.00    -0.001 A 
ATOM      4  C3  UNL d   1      -1.787  -4.917  -5.979  0.00  0.00     0.003 A 
ATOM      5  C4  UNL d   1      -1.667  -3.529  -5.990  0.00  0.00    -0.005 A 
ATOM      6  C5  UNL d   1      -0.403  -2.941  -5.996  0.00  0.00     0.003 A 
ATOM      7  C6  UNL d   1       0.740  -3.742  -5.989  0.00  0.00    -0.001 A 
ENDROOT
TORSDOF 0
ENDMDL
