MODEL 1
REMARK minimizedAffinity 4.41874313
REMARK minimizedRMSD -1
REMARK  0 active torsions:
REMARK  status: ('A' for Active; 'I' for Inactive)
ROOT
ATOM      1  C   UNL d   1       5.309   4.187   0.744  0.00  0.00     0.078 C 
ATOM      2  C1  UNL d   1       4.985   4.807   2.070  0.00  0.00    -0.077 A 
ATOM      3  C2  UNL d   1       3.675   4.810   2.564  0.00  0.00    -0.001 A 
ATOM      4  C3  UNL d   1       3.387   5.400   3.796  0.00  0.00     0.003 A 
ATOM      5  C4  UNL d   1       4.403   5.992   4.543  0.00  0.00    -0.005 A 
ATOM      6  C5  UNL d   1       5.709   5.995   4.059  0.00  0.00     0.003 A 
ATOM      7  C6  UNL d   1       6.000   5.406   2.827  0.00  0.00    -0.001 A 
ENDROOT
TORSDOF 0
ENDMDL
