MODEL 1
REMARK minimizedAffinity 6.7551651
REMARK minimizedRMSD -1
REMARK  0 active torsions:
REMARK  status: ('A' for Active; 'I' for Inactive)
ROOT
ATOM      1  C   UNL d   1      -0.616   2.331   3.045  0.00  0.00     0.078 C 
ATOM      2  C1  UNL d   1       0.023   0.974   3.055  0.00  0.00    -0.077 A 
ATOM      3  C2  UNL d   1      -0.574  -0.109   2.399  0.00  0.00    -0.001 A 
ATOM      4  C3  UNL d   1       0.026  -1.368   2.424  0.00  0.00     0.003 A 
ATOM      5  C4  UNL d   1       1.227  -1.557   3.105  0.00  0.00    -0.005 A 
ATOM      6  C5  UNL d   1       1.828  -0.486   3.763  0.00  0.00     0.003 A 
ATOM      7  C6  UNL d   1       1.229   0.774   3.739  0.00  0.00    -0.001 A 
ENDROOT
TORSDOF 0
ENDMDL
