MODEL 1
REMARK minimizedAffinity 5.09501886
REMARK minimizedRMSD -1
REMARK  0 active torsions:
REMARK  status: ('A' for Active; 'I' for Inactive)
ROOT
ATOM      1  C   UNL d   1       0.366   1.968   5.394  0.00  0.00     0.078 C 
ATOM      2  C1  UNL d   1       0.397   0.825   4.424  0.00  0.00    -0.077 A 
ATOM      3  C2  UNL d   1      -0.269   0.904   3.195  0.00  0.00    -0.001 A 
ATOM      4  C3  UNL d   1      -0.240  -0.172   2.306  0.00  0.00     0.003 A 
ATOM      5  C4  UNL d   1       0.453  -1.335   2.637  0.00  0.00    -0.005 A 
ATOM      6  C5  UNL d   1       1.117  -1.423   3.858  0.00  0.00     0.003 A 
ATOM      7  C6  UNL d   1       1.089  -0.349   4.749  0.00  0.00    -0.001 A 
ENDROOT
TORSDOF 0
ENDMDL
