MODEL 1
REMARK minimizedAffinity -1.27266479
REMARK minimizedRMSD -1
REMARK  0 active torsions:
REMARK  status: ('A' for Active; 'I' for Inactive)
ROOT
ATOM      1  C   UNL d   1       0.720  -0.117  -1.369  0.00  0.00     0.020 A 
ATOM      2  C1  UNL d   1      -0.350   0.636  -1.850  0.00  0.00     0.020 A 
ATOM      3  C2  UNL d   1      -0.646   1.874  -1.275  0.00  0.00     0.034 A 
ATOM      4  C3  UNL d   1       0.129   2.362  -0.216  0.00  0.00     0.017 A 
ATOM      5  C4  UNL d   1       1.203   1.605   0.265  0.00  0.00     0.017 A 
ATOM      6  C5  UNL d   1       1.495   0.366  -0.314  0.00  0.00     0.034 A 
ATOM      7 Cl   UNL d   1       2.205   2.141   1.567  0.00  0.00    -0.070 Cl
ATOM      8 Cl1  UNL d   1      -0.294   3.901   0.446  0.00  0.00    -0.070 Cl
ENDROOT
TORSDOF 0
ENDMDL
