MODEL 1
REMARK minimizedAffinity 2.12783909
REMARK minimizedRMSD -1
REMARK  0 active torsions:
REMARK  status: ('A' for Active; 'I' for Inactive)
ROOT
ATOM      1  C   UNL d   1       2.623  -0.070  -2.474  0.00  0.00     0.020 A 
ATOM      2  C1  UNL d   1       2.425  -0.116  -1.094  0.00  0.00     0.020 A 
ATOM      3  C2  UNL d   1       3.297   0.563  -0.241  0.00  0.00     0.034 A 
ATOM      4  C3  UNL d   1       4.370   1.291  -0.766  0.00  0.00     0.017 A 
ATOM      5  C4  UNL d   1       4.568   1.337  -2.150  0.00  0.00     0.017 A 
ATOM      6  C5  UNL d   1       3.692   0.655  -3.000  0.00  0.00     0.034 A 
ATOM      7 Cl   UNL d   1       5.871   2.215  -2.872  0.00  0.00    -0.070 Cl
ATOM      8 Cl1  UNL d   1       5.409   2.107   0.349  0.00  0.00    -0.070 Cl
ENDROOT
TORSDOF 0
ENDMDL
