MODEL 1
REMARK minimizedAffinity 6.62590694
REMARK minimizedRMSD -1
REMARK  0 active torsions:
REMARK  status: ('A' for Active; 'I' for Inactive)
ROOT
ATOM      1  C   UNL d   1       0.087  -0.454  -1.799  0.00  0.00     0.020 A 
ATOM      2  C1  UNL d   1      -0.791   0.621  -1.939  0.00  0.00     0.020 A 
ATOM      3  C2  UNL d   1      -0.608   1.775  -1.175  0.00  0.00     0.034 A 
ATOM      4  C3  UNL d   1       0.454   1.859  -0.268  0.00  0.00     0.017 A 
ATOM      5  C4  UNL d   1       1.335   0.780  -0.128  0.00  0.00     0.017 A 
ATOM      6  C5  UNL d   1       1.147  -0.374  -0.896  0.00  0.00     0.034 A 
ATOM      7 Cl   UNL d   1       2.669   0.808   0.970  0.00  0.00    -0.070 Cl
ATOM      8 Cl1  UNL d   1       0.620   3.317   0.643  0.00  0.00    -0.070 Cl
ENDROOT
TORSDOF 0
ENDMDL
