MODEL 1
REMARK minimizedAffinity 2.72199178
REMARK minimizedRMSD -1
REMARK  0 active torsions:
REMARK  status: ('A' for Active; 'I' for Inactive)
ROOT
ATOM      1  C   UNL d   1       0.158   0.034  -1.281  0.00  0.00     0.020 A 
ATOM      2  C1  UNL d   1       1.226   0.815  -0.840  0.00  0.00     0.020 A 
ATOM      3  C2  UNL d   1       0.988   2.078  -0.295  0.00  0.00     0.034 A 
ATOM      4  C3  UNL d   1      -0.320   2.564  -0.189  0.00  0.00     0.017 A 
ATOM      5  C4  UNL d   1      -1.391   1.780  -0.632  0.00  0.00     0.017 A 
ATOM      6  C5  UNL d   1      -1.147   0.516  -1.178  0.00  0.00     0.034 A 
ATOM      7 Cl   UNL d   1      -3.033   2.312  -0.535  0.00  0.00    -0.070 Cl
ATOM      8 Cl1  UNL d   1      -0.540   4.135   0.496  0.00  0.00    -0.070 Cl
ENDROOT
TORSDOF 0
ENDMDL
