MODEL 1
REMARK minimizedAffinity 4.82360935
REMARK minimizedRMSD -1
REMARK  0 active torsions:
REMARK  status: ('A' for Active; 'I' for Inactive)
ROOT
ATOM      1  C   UNL d   1       1.043  -0.290  -0.497  0.00  0.00     0.020 A 
ATOM      2  C1  UNL d   1       1.367  -0.112   0.848  0.00  0.00     0.020 A 
ATOM      3  C2  UNL d   1       2.587   0.468   1.201  0.00  0.00     0.034 A 
ATOM      4  C3  UNL d   1       3.489   0.870   0.209  0.00  0.00     0.017 A 
ATOM      5  C4  UNL d   1       3.163   0.691  -1.140  0.00  0.00     0.017 A 
ATOM      6  C5  UNL d   1       1.939   0.111  -1.489  0.00  0.00     0.034 A 
ATOM      7 Cl   UNL d   1       4.223   1.163  -2.421  0.00  0.00    -0.070 Cl
ATOM      8 Cl1  UNL d   1       4.980   1.580   0.718  0.00  0.00    -0.070 Cl
ENDROOT
TORSDOF 0
ENDMDL
