MODEL 1
REMARK minimizedAffinity 3.80680251
REMARK minimizedRMSD -1
REMARK  0 active torsions:
REMARK  status: ('A' for Active; 'I' for Inactive)
ROOT
ATOM      1  C   UNL d   1      -1.493   3.096   0.334  0.00  0.00     0.020 A 
ATOM      2  C1  UNL d   1      -1.593   2.092  -0.629  0.00  0.00     0.020 A 
ATOM      3  C2  UNL d   1      -0.496   1.271  -0.897  0.00  0.00     0.034 A 
ATOM      4  C3  UNL d   1       0.706   1.453  -0.204  0.00  0.00     0.017 A 
ATOM      5  C4  UNL d   1       0.805   2.461   0.762  0.00  0.00     0.017 A 
ATOM      6  C5  UNL d   1      -0.297   3.280   1.027  0.00  0.00     0.034 A 
ATOM      7 Cl   UNL d   1       2.255   2.745   1.659  0.00  0.00    -0.070 Cl
ATOM      8 Cl1  UNL d   1       2.022   0.401  -0.587  0.00  0.00    -0.070 Cl
ENDROOT
TORSDOF 0
ENDMDL
