MODEL 1
REMARK minimizedAffinity 2.81476116
REMARK minimizedRMSD -1
REMARK  0 active torsions:
REMARK  status: ('A' for Active; 'I' for Inactive)
ROOT
ATOM      1  C   UNL d   1      -0.959   0.932  -1.946  0.00  0.00     0.020 A 
ATOM      2  C1  UNL d   1      -0.038  -0.012  -1.492  0.00  0.00     0.020 A 
ATOM      3  C2  UNL d   1       0.726   0.250  -0.353  0.00  0.00     0.034 A 
ATOM      4  C3  UNL d   1       0.571   1.458   0.336  0.00  0.00     0.017 A 
ATOM      5  C4  UNL d   1      -0.353   2.405  -0.120  0.00  0.00     0.017 A 
ATOM      6  C5  UNL d   1      -1.116   2.137  -1.261  0.00  0.00     0.034 A 
ATOM      7 Cl   UNL d   1      -0.600   3.918   0.677  0.00  0.00    -0.070 Cl
ATOM      8 Cl1  UNL d   1       1.550   1.715   1.737  0.00  0.00    -0.070 Cl
ENDROOT
TORSDOF 0
ENDMDL
