MODEL 1
REMARK minimizedAffinity 7.57140446
REMARK minimizedRMSD -1
REMARK  0 active torsions:
REMARK  status: ('A' for Active; 'I' for Inactive)
ROOT
ATOM      1  C   UNL d   1       3.680   1.155   1.485  0.00  0.00     0.020 A 
ATOM      2  C1  UNL d   1       2.385   1.148   2.002  0.00  0.00     0.020 A 
ATOM      3  C2  UNL d   1       1.297   0.926   1.155  0.00  0.00     0.034 A 
ATOM      4  C3  UNL d   1       1.502   0.711  -0.212  0.00  0.00     0.017 A 
ATOM      5  C4  UNL d   1       2.802   0.718  -0.730  0.00  0.00     0.017 A 
ATOM      6  C5  UNL d   1       3.888   0.940   0.122  0.00  0.00     0.034 A 
ATOM      7 Cl   UNL d   1       3.134   0.459  -2.406  0.00  0.00    -0.070 Cl
ATOM      8 Cl1  UNL d   1       0.110   0.443  -1.201  0.00  0.00    -0.070 Cl
ENDROOT
TORSDOF 0
ENDMDL
