MODEL 1
REMARK minimizedAffinity 3.33535957
REMARK minimizedRMSD -1
REMARK  0 active torsions:
REMARK  status: ('A' for Active; 'I' for Inactive)
ROOT
ATOM      1  C   UNL d   1       4.770   1.738  -2.347  0.00  0.00     0.020 A 
ATOM      2  C1  UNL d   1       3.666   0.886  -2.357  0.00  0.00     0.020 A 
ATOM      3  C2  UNL d   1       3.074   0.497  -1.154  0.00  0.00     0.034 A 
ATOM      4  C3  UNL d   1       3.584   0.960   0.065  0.00  0.00     0.017 A 
ATOM      5  C4  UNL d   1       4.692   1.815   0.073  0.00  0.00     0.017 A 
ATOM      6  C5  UNL d   1       5.282   2.201  -1.134  0.00  0.00     0.034 A 
ATOM      7 Cl   UNL d   1       5.378   2.427   1.537  0.00  0.00    -0.070 Cl
ATOM      8 Cl1  UNL d   1       2.801   0.439   1.514  0.00  0.00    -0.070 Cl
ENDROOT
TORSDOF 0
ENDMDL
