MODEL 1
REMARK minimizedAffinity 10.2420769
REMARK minimizedRMSD -1
REMARK  0 active torsions:
REMARK  status: ('A' for Active; 'I' for Inactive)
ROOT
ATOM      1  C   UNL d   1       2.457  -0.136  -0.060  0.00  0.00     0.020 A 
ATOM      2  C1  UNL d   1       2.317   0.029  -1.437  0.00  0.00     0.020 A 
ATOM      3  C2  UNL d   1       3.201   0.857  -2.134  0.00  0.00     0.034 A 
ATOM      4  C3  UNL d   1       4.227   1.522  -1.454  0.00  0.00     0.017 A 
ATOM      5  C4  UNL d   1       4.366   1.355  -0.072  0.00  0.00     0.017 A 
ATOM      6  C5  UNL d   1       3.479   0.525   0.621  0.00  0.00     0.034 A 
ATOM      7 Cl   UNL d   1       5.608   2.143   0.837  0.00  0.00    -0.070 Cl
ATOM      8 Cl1  UNL d   1       5.283   2.529  -2.379  0.00  0.00    -0.070 Cl
ENDROOT
TORSDOF 0
ENDMDL
