MODEL 1
REMARK minimizedAffinity 9.44146347
REMARK minimizedRMSD -1
REMARK  0 active torsions:
REMARK  status: ('A' for Active; 'I' for Inactive)
ROOT
ATOM      1  C   UNL d   1       2.765   0.291  -1.942  0.00  0.00     0.020 A 
ATOM      2  C1  UNL d   1       2.737   0.173  -0.553  0.00  0.00     0.020 A 
ATOM      3  C2  UNL d   1       3.700   0.823   0.222  0.00  0.00     0.034 A 
ATOM      4  C3  UNL d   1       4.693   1.595  -0.391  0.00  0.00     0.017 A 
ATOM      5  C4  UNL d   1       4.720   1.713  -1.785  0.00  0.00     0.017 A 
ATOM      6  C5  UNL d   1       3.754   1.060  -2.557  0.00  0.00     0.034 A 
ATOM      7 Cl   UNL d   1       5.915   2.648  -2.614  0.00  0.00    -0.070 Cl
ATOM      8 Cl1  UNL d   1       5.851   2.373   0.629  0.00  0.00    -0.070 Cl
ENDROOT
TORSDOF 0
ENDMDL
