MODEL 1
REMARK minimizedAffinity -5.46318007
REMARK minimizedRMSD -1
REMARK  0 active torsions:
REMARK  status: ('A' for Active; 'I' for Inactive)
ROOT
ATOM      1  C1  DEN d   1       2.348   2.338   0.966  0.00  0.00     0.130 A 
ATOM      2  C2  DEN d   1       3.261   1.577   0.118  0.00  0.00    -0.031 A 
ATOM      3  C3  DEN d   1       2.550   0.371  -0.351  0.00  0.00     0.027 A 
ATOM      4  C4  DEN d   1       0.136  -0.386   0.148  0.00  0.00     0.027 A 
ATOM      5  C5  DEN d   1      -1.021  -0.073   0.827  0.00  0.00    -0.003 A 
ATOM      6  C6  DEN d   1      -1.124   1.038   1.621  0.00  0.00     0.001 A 
ATOM      7  C7  DEN d   1      -0.065   1.902   1.719  0.00  0.00     0.017 A 
ATOM      8  C8  DEN d   1       1.107   1.590   1.043  0.00  0.00    -0.094 A 
ATOM      9  C9  DEN d   1       1.187   0.468   0.236  0.00  0.00    -0.072 A 
ENDROOT
TORSDOF 0
ENDMDL
