MODEL 1
REMARK minimizedAffinity -4.92701578
REMARK minimizedRMSD -1
REMARK  0 active torsions:
REMARK  status: ('A' for Active; 'I' for Inactive)
ROOT
ATOM      1  C1  DEN d   1       0.648  -0.698  -1.000  0.00  0.00     0.130 A 
ATOM      2  C2  DEN d   1      -0.641  -1.353  -0.798  0.00  0.00    -0.031 A 
ATOM      3  C3  DEN d   1      -1.352  -0.639   0.281  0.00  0.00     0.027 A 
ATOM      4  C4  DEN d   1      -0.588   1.408   1.651  0.00  0.00     0.027 A 
ATOM      5  C5  DEN d   1       0.437   2.307   1.848  0.00  0.00    -0.003 A 
ATOM      6  C6  DEN d   1       1.608   2.248   1.140  0.00  0.00     0.001 A 
ATOM      7  C7  DEN d   1       1.765   1.295   0.168  0.00  0.00     0.017 A 
ATOM      8  C8  DEN d   1       0.740   0.380  -0.032  0.00  0.00    -0.094 A 
ATOM      9  C9  DEN d   1      -0.441   0.465   0.686  0.00  0.00    -0.072 A 
ENDROOT
TORSDOF 0
ENDMDL
