MODEL 1
REMARK minimizedAffinity -1.52435291
REMARK minimizedRMSD -1
REMARK  0 active torsions:
REMARK  status: ('A' for Active; 'I' for Inactive)
ROOT
ATOM      1  C1  DEN d   1       2.971   0.997   0.849  0.00  0.00     0.130 A 
ATOM      2  C2  DEN d   1       3.405   0.141  -0.251  0.00  0.00    -0.031 A 
ATOM      3  C3  DEN d   1       2.214  -0.543  -0.794  0.00  0.00     0.027 A 
ATOM      4  C4  DEN d   1      -0.247  -0.355  -0.047  0.00  0.00     0.027 A 
ATOM      5  C5  DEN d   1      -1.105   0.238   0.853  0.00  0.00    -0.003 A 
ATOM      6  C6  DEN d   1      -0.663   1.093   1.828  0.00  0.00     0.001 A 
ATOM      7  C7  DEN d   1       0.667   1.414   1.898  0.00  0.00     0.017 A 
ATOM      8  C8  DEN d   1       1.539   0.814   0.999  0.00  0.00    -0.094 A 
ATOM      9  C9  DEN d   1       1.071  -0.038   0.013  0.00  0.00    -0.072 A 
ENDROOT
TORSDOF 0
ENDMDL
