MODEL 1
REMARK minimizedAffinity -4.11240482
REMARK minimizedRMSD -1
REMARK  0 active torsions:
REMARK  status: ('A' for Active; 'I' for Inactive)
ROOT
ATOM      1  C1  DEN d   1       1.364   2.045  -0.151  0.00  0.00     0.130 A 
ATOM      2  C2  DEN d   1       1.580   2.326   1.266  0.00  0.00    -0.031 A 
ATOM      3  C3  DEN d   1       0.721   1.415   2.049  0.00  0.00     0.027 A 
ATOM      4  C4  DEN d   1      -0.911  -0.397   1.210  0.00  0.00     0.027 A 
ATOM      5  C5  DEN d   1      -1.443  -0.997   0.090  0.00  0.00    -0.003 A 
ATOM      6  C6  DEN d   1      -1.105  -0.605  -1.179  0.00  0.00     0.001 A 
ATOM      7  C7  DEN d   1      -0.176   0.385  -1.358  0.00  0.00     0.017 A 
ATOM      8  C8  DEN d   1       0.359   1.000  -0.234  0.00  0.00    -0.094 A 
ATOM      9  C9  DEN d   1       0.015   0.581   1.040  0.00  0.00    -0.072 A 
ENDROOT
TORSDOF 0
ENDMDL
