MODEL 1
REMARK minimizedAffinity -3.58973074
REMARK minimizedRMSD -1
REMARK  0 active torsions:
REMARK  status: ('A' for Active; 'I' for Inactive)
ROOT
ATOM      1  C1  DEN d   1       2.488   1.400   0.768  0.00  0.00     0.130 A 
ATOM      2  C2  DEN d   1       1.877   2.370   1.672  0.00  0.00    -0.031 A 
ATOM      3  C3  DEN d   1       0.455   2.008   1.836  0.00  0.00     0.027 A 
ATOM      4  C4  DEN d   1      -0.852   0.047   0.787  0.00  0.00     0.027 A 
ATOM      5  C5  DEN d   1      -0.762  -1.037  -0.057  0.00  0.00    -0.003 A 
ATOM      6  C6  DEN d   1       0.399  -1.363  -0.707  0.00  0.00     0.001 A 
ATOM      7  C7  DEN d   1       1.530  -0.622  -0.488  0.00  0.00     0.017 A 
ATOM      8  C8  DEN d   1       1.446   0.477   0.356  0.00  0.00    -0.094 A 
ATOM      9  C9  DEN d   1       0.266   0.783   1.014  0.00  0.00    -0.072 A 
ENDROOT
TORSDOF 0
ENDMDL
