MODEL 1
REMARK minimizedAffinity -6.08599472
REMARK minimizedRMSD -1
REMARK  0 active torsions:
REMARK  status: ('A' for Active; 'I' for Inactive)
ROOT
ATOM      1  C1  DEN d   1       2.713   2.112   0.484  0.00  0.00     0.130 A 
ATOM      2  C2  DEN d   1       2.183   3.021   1.497  0.00  0.00    -0.031 A 
ATOM      3  C3  DEN d   1       0.871   2.503   1.934  0.00  0.00     0.027 A 
ATOM      4  C4  DEN d   1      -0.382   0.390   1.147  0.00  0.00     0.027 A 
ATOM      5  C5  DEN d   1      -0.336  -0.690   0.294  0.00  0.00    -0.003 A 
ATOM      6  C6  DEN d   1       0.705  -0.892  -0.572  0.00  0.00     0.001 A 
ATOM      7  C7  DEN d   1       1.765  -0.025  -0.574  0.00  0.00     0.017 A 
ATOM      8  C8  DEN d   1       1.722   1.071   0.278  0.00  0.00    -0.094 A 
ATOM      9  C9  DEN d   1       0.667   1.251   1.156  0.00  0.00    -0.072 A 
ENDROOT
TORSDOF 0
ENDMDL
