MODEL 1
REMARK minimizedAffinity -7.39565134
REMARK minimizedRMSD -1
REMARK  0 active torsions:
REMARK  status: ('A' for Active; 'I' for Inactive)
ROOT
ATOM      1  C1  DEN d   1       3.053   1.992   0.570  0.00  0.00     0.130 A 
ATOM      2  C2  DEN d   1       2.433   2.988   1.439  0.00  0.00    -0.031 A 
ATOM      3  C3  DEN d   1       1.069   2.524   1.764  0.00  0.00     0.027 A 
ATOM      4  C4  DEN d   1      -0.135   0.371   1.011  0.00  0.00     0.027 A 
ATOM      5  C5  DEN d   1      -0.017  -0.777   0.259  0.00  0.00    -0.003 A 
ATOM      6  C6  DEN d   1       1.110  -1.063  -0.464  0.00  0.00     0.001 A 
ATOM      7  C7  DEN d   1       2.183  -0.212  -0.414  0.00  0.00     0.017 A 
ATOM      8  C8  DEN d   1       2.069   0.950   0.337  0.00  0.00    -0.094 A 
ATOM      9  C9  DEN d   1       0.925   1.216   1.070  0.00  0.00    -0.072 A 
ENDROOT
TORSDOF 0
ENDMDL
