MODEL 1
REMARK minimizedAffinity -6.54328108
REMARK minimizedRMSD -1
REMARK  0 active torsions:
REMARK  status: ('A' for Active; 'I' for Inactive)
ROOT
ATOM      1  C1  DEN d   1       1.536   2.388   1.214  0.00  0.00     0.130 A 
ATOM      2  C2  DEN d   1       2.891   2.640   0.732  0.00  0.00    -0.031 A 
ATOM      3  C3  DEN d   1       3.352   1.435   0.014  0.00  0.00     0.027 A 
ATOM      4  C4  DEN d   1       2.103  -0.783  -0.401  0.00  0.00     0.027 A 
ATOM      5  C5  DEN d   1       0.931  -1.471  -0.174  0.00  0.00    -0.003 A 
ATOM      6  C6  DEN d   1      -0.099  -0.938   0.554  0.00  0.00     0.001 A 
ATOM      7  C7  DEN d   1       0.004   0.337   1.044  0.00  0.00     0.017 A 
ATOM      8  C8  DEN d   1       1.185   1.034   0.825  0.00  0.00    -0.094 A 
ATOM      9  C9  DEN d   1       2.210   0.483   0.076  0.00  0.00    -0.072 A 
ENDROOT
TORSDOF 0
ENDMDL
