MODEL 1
REMARK minimizedAffinity -6.48416424
REMARK minimizedRMSD -1
REMARK  0 active torsions:
REMARK  status: ('A' for Active; 'I' for Inactive)
ROOT
ATOM      1  C1  DEN d   1       2.591   1.108   0.393  0.00  0.00     0.130 A 
ATOM      2  C2  DEN d   1       2.257   2.295   1.176  0.00  0.00    -0.031 A 
ATOM      3  C3  DEN d   1       0.842   2.188   1.586  0.00  0.00     0.027 A 
ATOM      4  C4  DEN d   1      -0.853   0.308   1.091  0.00  0.00     0.027 A 
ATOM      5  C5  DEN d   1      -1.036  -0.900   0.455  0.00  0.00    -0.003 A 
ATOM      6  C6  DEN d   1      -0.041  -1.502  -0.269  0.00  0.00     0.001 A 
ATOM      7  C7  DEN d   1       1.197  -0.919  -0.337  0.00  0.00     0.017 A 
ATOM      8  C8  DEN d   1       1.387   0.303   0.296  0.00  0.00    -0.094 A 
ATOM      9  C9  DEN d   1       0.372   0.889   1.033  0.00  0.00    -0.072 A 
ENDROOT
TORSDOF 0
ENDMDL
