MODEL 1
REMARK minimizedAffinity -6.99159098
REMARK minimizedRMSD -1
REMARK  0 active torsions:
REMARK  status: ('A' for Active; 'I' for Inactive)
ROOT
ATOM      1  C1  DEN d   1      -0.689   0.266   0.931  0.00  0.00     0.130 A 
ATOM      2  C2  DEN d   1      -0.364  -0.854   0.053  0.00  0.00    -0.031 A 
ATOM      3  C3  DEN d   1       1.028  -0.683  -0.409  0.00  0.00     0.027 A 
ATOM      4  C4  DEN d   1       2.704   1.196   0.151  0.00  0.00     0.027 A 
ATOM      5  C5  DEN d   1       2.880   2.373   0.845  0.00  0.00    -0.003 A 
ATOM      6  C6  DEN d   1       1.877   2.943   1.582  0.00  0.00     0.001 A 
ATOM      7  C7  DEN d   1       0.664   2.313   1.680  0.00  0.00     0.017 A 
ATOM      8  C8  DEN d   1       0.477   1.130   0.977  0.00  0.00    -0.094 A 
ATOM      9  C9  DEN d   1       1.507   0.563   0.247  0.00  0.00    -0.072 A 
ENDROOT
TORSDOF 0
ENDMDL
