MODEL 1
REMARK minimizedAffinity -2.99649501
REMARK minimizedRMSD -1
REMARK  0 active torsions:
REMARK  status: ('A' for Active; 'I' for Inactive)
ROOT
ATOM      1  C1  DEN d   1       1.102   1.493   1.862  0.00  0.00     0.130 A 
ATOM      2  C2  DEN d   1       2.550   1.684   1.847  0.00  0.00    -0.031 A 
ATOM      3  C3  DEN d   1       3.136   0.665   0.953  0.00  0.00     0.027 A 
ATOM      4  C4  DEN d   1       1.947  -1.176  -0.407  0.00  0.00     0.027 A 
ATOM      5  C5  DEN d   1       0.726  -1.739  -0.707  0.00  0.00    -0.003 A 
ATOM      6  C6  DEN d   1      -0.442  -1.290  -0.149  0.00  0.00     0.001 A 
ATOM      7  C7  DEN d   1      -0.419  -0.217   0.703  0.00  0.00     0.017 A 
ATOM      8  C8  DEN d   1       0.809   0.351   1.015  0.00  0.00    -0.094 A 
ATOM      9  C9  DEN d   1       1.977  -0.110   0.432  0.00  0.00    -0.072 A 
ENDROOT
TORSDOF 0
ENDMDL
