MODEL 1
REMARK minimizedAffinity -4.26085901
REMARK minimizedRMSD -1
REMARK  0 active torsions:
REMARK  status: ('A' for Active; 'I' for Inactive)
ROOT
ATOM      1  C1  DEN d   1       0.991   2.172   2.247  0.00  0.00     0.130 A 
ATOM      2  C2  DEN d   1       2.274   2.797   1.937  0.00  0.00    -0.031 A 
ATOM      3  C3  DEN d   1       2.893   2.045   0.828  0.00  0.00     0.027 A 
ATOM      4  C4  DEN d   1       1.993  -0.015  -0.437  0.00  0.00     0.027 A 
ATOM      5  C5  DEN d   1       0.951  -0.912  -0.524  0.00  0.00    -0.003 A 
ATOM      6  C6  DEN d   1      -0.125  -0.865   0.322  0.00  0.00     0.001 A 
ATOM      7  C7  DEN d   1      -0.206   0.127   1.263  0.00  0.00     0.017 A 
ATOM      8  C8  DEN d   1       0.843   1.030   1.362  0.00  0.00    -0.094 A 
ATOM      9  C9  DEN d   1       1.917   0.974   0.489  0.00  0.00    -0.072 A 
ENDROOT
TORSDOF 0
ENDMDL
