MODEL 1
REMARK minimizedAffinity 8.56088924
REMARK minimizedRMSD -1
REMARK  0 active torsions:
REMARK  status: ('A' for Active; 'I' for Inactive)
ROOT
ATOM      1  C1  DEN d   1       4.224   1.864  -3.042  0.00  0.00     0.130 A 
ATOM      2  C2  DEN d   1       4.917   2.836  -2.202  0.00  0.00    -0.031 A 
ATOM      3  C3  DEN d   1       4.495   2.615  -0.804  0.00  0.00     0.027 A 
ATOM      4  C4  DEN d   1       2.847   0.867   0.136  0.00  0.00     0.027 A 
ATOM      5  C5  DEN d   1       2.000  -0.168  -0.194  0.00  0.00    -0.003 A 
ATOM      6  C6  DEN d   1       1.811  -0.573  -1.488  0.00  0.00     0.001 A 
ATOM      7  C7  DEN d   1       2.512   0.032  -2.498  0.00  0.00     0.017 A 
ATOM      8  C8  DEN d   1       3.362   1.081  -2.175  0.00  0.00    -0.094 A 
ATOM      9  C9  DEN d   1       3.549   1.467  -0.858  0.00  0.00    -0.072 A 
ENDROOT
TORSDOF 0
ENDMDL
