MODEL 1
REMARK minimizedAffinity -3.48205113
REMARK minimizedRMSD -1
REMARK  2 active torsions:
REMARK  status: ('A' for Active; 'I' for Inactive)
REMARK    1  A    between atoms: C2'_3  and  C1'_4 
REMARK    2  A    between atoms: C1'_4  and  C1_5 
ROOT
ATOM      1  C1  I4B d   1      -0.061  -0.335  -0.503  0.00  0.00    -0.075 A 
ATOM      2  C2  I4B d   1       0.305  -0.939   0.674  0.00  0.00     0.003 A 
ATOM      3  C3  I4B d   1      -0.443  -2.030   1.178  0.00  0.00     0.002 A 
ATOM      4  C4  I4B d   1      -1.572  -2.449   0.503  0.00  0.00    -0.004 A 
ATOM      5  C5  I4B d   1      -1.928  -1.851  -0.702  0.00  0.00     0.002 A 
ATOM      6  C6  I4B d   1      -1.161  -0.795  -1.215  0.00  0.00     0.003 A 
ENDROOT
BRANCH   1   7
ATOM      7  C1' I4B d   1       0.733   0.836  -0.990  0.00  0.00     0.060 C 
BRANCH   7   8
ATOM      8  C2' I4B d   1       0.422   1.033  -2.459  0.00  0.00    -0.013 C 
ATOM      9  C4' I4B d   1      -0.160   2.398  -2.716  0.00  0.00     0.013 C 
ATOM     10  C3' I4B d   1       1.691   0.832  -3.232  0.00  0.00     0.013 C 
ENDBRANCH   7   8
ENDBRANCH   1   7
TORSDOF 2
ENDMDL
