MODEL 1
REMARK minimizedAffinity -0.679129481
REMARK minimizedRMSD -1
REMARK  2 active torsions:
REMARK  status: ('A' for Active; 'I' for Inactive)
REMARK    1  A    between atoms: C2'_3  and  C1'_4 
REMARK    2  A    between atoms: C1'_4  and  C1_5 
ROOT
ATOM      1  C1  I4B d   1       2.014  -0.628   0.995  0.00  0.00    -0.075 A 
ATOM      2  C2  I4B d   1       2.275   0.712   1.136  0.00  0.00     0.003 A 
ATOM      3  C3  I4B d   1       3.596   1.159   1.378  0.00  0.00     0.002 A 
ATOM      4  C4  I4B d   1       4.611   0.234   1.522  0.00  0.00    -0.004 A 
ATOM      5  C5  I4B d   1       4.348  -1.122   1.357  0.00  0.00     0.002 A 
ATOM      6  C6  I4B d   1       3.044  -1.556   1.079  0.00  0.00     0.003 A 
ENDROOT
BRANCH   1   7
ATOM      7  C1' I4B d   1       0.601  -1.068   0.772  0.00  0.00     0.060 C 
BRANCH   7   8
ATOM      8  C2' I4B d   1      -0.118   0.035   0.022  0.00  0.00    -0.013 C 
ATOM      9  C4' I4B d   1      -0.517  -0.415  -1.358  0.00  0.00     0.013 C 
ATOM     10  C3' I4B d   1      -1.317   0.437   0.828  0.00  0.00     0.013 C 
ENDBRANCH   7   8
ENDBRANCH   1   7
TORSDOF 2
ENDMDL
