MODEL 1
REMARK minimizedAffinity -2.36072302
REMARK minimizedRMSD -1
REMARK  2 active torsions:
REMARK  status: ('A' for Active; 'I' for Inactive)
REMARK    1  A    between atoms: C2'_3  and  C1'_4 
REMARK    2  A    between atoms: C1'_4  and  C1_5 
ROOT
ATOM      1  C1  I4B d   1      -0.091   1.937  -1.148  0.00  0.00    -0.075 A 
ATOM      2  C2  I4B d   1       0.144   1.268  -2.323  0.00  0.00     0.003 A 
ATOM      3  C3  I4B d   1       0.220   1.979  -3.545  0.00  0.00     0.002 A 
ATOM      4  C4  I4B d   1       0.006   3.342  -3.553  0.00  0.00    -0.004 A 
ATOM      5  C5  I4B d   1      -0.209   4.022  -2.357  0.00  0.00     0.002 A 
ATOM      6  C6  I4B d   1      -0.246   3.317  -1.145  0.00  0.00     0.003 A 
ENDROOT
BRANCH   1   7
ATOM      7  C1' I4B d   1      -0.198   1.151   0.121  0.00  0.00     0.060 C 
BRANCH   7   8
ATOM      8  C2' I4B d   1      -0.808  -0.195  -0.215  0.00  0.00    -0.013 C 
ATOM      9  C4' I4B d   1      -0.056  -1.316   0.454  0.00  0.00     0.013 C 
ATOM     10  C3' I4B d   1      -2.244  -0.173   0.217  0.00  0.00     0.013 C 
ENDBRANCH   7   8
ENDBRANCH   1   7
TORSDOF 2
ENDMDL
