MODEL 1
REMARK minimizedAffinity -5.89453697
REMARK minimizedRMSD -1
REMARK  2 active torsions:
REMARK  status: ('A' for Active; 'I' for Inactive)
REMARK    1  A    between atoms: C2'_3  and  C1'_4 
REMARK    2  A    between atoms: C1'_4  and  C1_5 
ROOT
ATOM      1  C1  I4B d   1       1.046  -0.298   0.698  0.00  0.00    -0.075 A 
ATOM      2  C2  I4B d   1       0.940  -1.648   0.926  0.00  0.00     0.003 A 
ATOM      3  C3  I4B d   1      -0.328  -2.235   1.152  0.00  0.00     0.002 A 
ATOM      4  C4  I4B d   1      -1.451  -1.434   1.191  0.00  0.00    -0.004 A 
ATOM      5  C5  I4B d   1      -1.345  -0.070   0.937  0.00  0.00     0.002 A 
ATOM      6  C6  I4B d   1      -0.090   0.500   0.677  0.00  0.00     0.003 A 
ENDROOT
BRANCH   1   7
ATOM      7  C1' I4B d   1       2.404   0.294   0.496  0.00  0.00     0.060 C 
BRANCH   7   8
ATOM      8  C2' I4B d   1       3.265  -0.096   1.680  0.00  0.00    -0.013 C 
ATOM      9  C4' I4B d   1       4.543  -0.753   1.232  0.00  0.00     0.013 C 
ATOM     10  C3' I4B d   1       3.543   1.143   2.478  0.00  0.00     0.013 C 
ENDBRANCH   7   8
ENDBRANCH   1   7
TORSDOF 2
ENDMDL
