MODEL 1
REMARK minimizedAffinity -3.35651588
REMARK minimizedRMSD -1
REMARK  2 active torsions:
REMARK  status: ('A' for Active; 'I' for Inactive)
REMARK    1  A    between atoms: C2'_3  and  C1'_4 
REMARK    2  A    between atoms: C1'_4  and  C1_5 
ROOT
ATOM      1  C1  I4B d   1       0.384  -0.006   0.014  0.00  0.00    -0.075 A 
ATOM      2  C2  I4B d   1       0.862  -1.293  -0.003  0.00  0.00     0.003 A 
ATOM      3  C3  I4B d   1       0.152  -2.326   0.655  0.00  0.00     0.002 A 
ATOM      4  C4  I4B d   1      -0.997  -2.020   1.357  0.00  0.00    -0.004 A 
ATOM      5  C5  I4B d   1      -1.492  -0.720   1.354  0.00  0.00     0.002 A 
ATOM      6  C6  I4B d   1      -0.804   0.292   0.668  0.00  0.00     0.003 A 
ENDROOT
BRANCH   1   7
ATOM      7  C1' I4B d   1       1.176   1.066  -0.664  0.00  0.00     0.060 C 
BRANCH   7   8
ATOM      8  C2' I4B d   1       0.702   1.160  -2.100  0.00  0.00    -0.013 C 
ATOM      9  C4' I4B d   1      -0.069   2.432  -2.338  0.00  0.00     0.013 C 
ATOM     10  C3' I4B d   1       1.906   1.081  -2.991  0.00  0.00     0.013 C 
ENDBRANCH   7   8
ENDBRANCH   1   7
TORSDOF 2
ENDMDL
