MODEL 1
REMARK minimizedAffinity 6.12269354
REMARK minimizedRMSD -1
REMARK  2 active torsions:
REMARK  status: ('A' for Active; 'I' for Inactive)
REMARK    1  A    between atoms: C2'_3  and  C1'_4 
REMARK    2  A    between atoms: C1'_4  and  C1_5 
ROOT
ATOM      1  C1  I4B d   1       0.092  -1.602   2.147  0.00  0.00    -0.075 A 
ATOM      2  C2  I4B d   1       0.727  -2.736   1.703  0.00  0.00     0.003 A 
ATOM      3  C3  I4B d   1       1.007  -2.903   0.325  0.00  0.00     0.002 A 
ATOM      4  C4  I4B d   1       0.592  -1.941  -0.574  0.00  0.00    -0.004 A 
ATOM      5  C5  I4B d   1      -0.031  -0.783  -0.120  0.00  0.00     0.002 A 
ATOM      6  C6  I4B d   1      -0.272  -0.606   1.251  0.00  0.00     0.003 A 
ENDROOT
BRANCH   1   7
ATOM      7  C1' I4B d   1      -0.217  -1.474   3.605  0.00  0.00     0.060 C 
BRANCH   7   8
ATOM      8  C2' I4B d   1      -0.259  -2.867   4.198  0.00  0.00    -0.013 C 
ATOM      9  C4' I4B d   1       0.906  -3.101   5.124  0.00  0.00     0.013 C 
ATOM     10  C3' I4B d   1      -1.564  -3.025   4.919  0.00  0.00     0.013 C 
ENDBRANCH   7   8
ENDBRANCH   1   7
TORSDOF 2
ENDMDL
