MODEL 1
REMARK minimizedAffinity 0.0836581662
REMARK minimizedRMSD -1
REMARK  2 active torsions:
REMARK  status: ('A' for Active; 'I' for Inactive)
REMARK    1  A    between atoms: C2'_3  and  C1'_4 
REMARK    2  A    between atoms: C1'_4  and  C1_5 
ROOT
ATOM      1  C1  I4B d   1       1.282  -0.851   0.042  0.00  0.00    -0.075 A 
ATOM      2  C2  I4B d   1       0.578  -1.330   1.118  0.00  0.00     0.003 A 
ATOM      3  C3  I4B d   1      -0.830  -1.186   1.169  0.00  0.00     0.002 A 
ATOM      4  C4  I4B d   1      -1.483  -0.518   0.154  0.00  0.00    -0.004 A 
ATOM      5  C5  I4B d   1      -0.770  -0.053  -0.948  0.00  0.00     0.002 A 
ATOM      6  C6  I4B d   1       0.620  -0.232  -1.010  0.00  0.00     0.003 A 
ENDROOT
BRANCH   1   7
ATOM      7  C1' I4B d   1       2.771  -0.990   0.035  0.00  0.00     0.060 C 
BRANCH   7   8
ATOM      8  C2' I4B d   1       3.331  -0.063   1.095  0.00  0.00    -0.013 C 
ATOM      9  C4' I4B d   1       4.729  -0.464   1.487  0.00  0.00     0.013 C 
ATOM     10  C3' I4B d   1       3.301   1.334   0.551  0.00  0.00     0.013 C 
ENDBRANCH   7   8
ENDBRANCH   1   7
TORSDOF 2
ENDMDL
