MODEL 1
REMARK minimizedAffinity 6.63410282
REMARK minimizedRMSD -1
REMARK  2 active torsions:
REMARK  status: ('A' for Active; 'I' for Inactive)
REMARK    1  A    between atoms: C2'_3  and  C1'_4 
REMARK    2  A    between atoms: C1'_4  and  C1_5 
ROOT
ATOM      1  C1  I4B d   1       0.090  -2.225   2.262  0.00  0.00    -0.075 A 
ATOM      2  C2  I4B d   1       1.081  -3.141   2.513  0.00  0.00     0.003 A 
ATOM      3  C3  I4B d   1       1.262  -3.655   3.820  0.00  0.00     0.002 A 
ATOM      4  C4  I4B d   1       0.469  -3.190   4.849  0.00  0.00    -0.004 A 
ATOM      5  C5  I4B d   1      -0.550  -2.279   4.588  0.00  0.00     0.002 A 
ATOM      6  C6  I4B d   1      -0.749  -1.802   3.284  0.00  0.00     0.003 A 
ENDROOT
BRANCH   1   7
ATOM      7  C1' I4B d   1      -0.053  -1.679   0.876  0.00  0.00     0.060 C 
BRANCH   7   8
ATOM      8  C2' I4B d   1      -0.383  -0.205   0.988  0.00  0.00    -0.013 C 
ATOM      9  C4' I4B d   1       0.827   0.648   0.712  0.00  0.00     0.013 C 
ATOM     10  C3' I4B d   1      -1.489   0.096   0.021  0.00  0.00     0.013 C 
ENDBRANCH   7   8
ENDBRANCH   1   7
TORSDOF 2
ENDMDL
