MODEL 1
REMARK minimizedAffinity 8.79656982
REMARK minimizedRMSD -1
REMARK  0 active torsions:
REMARK  status: ('A' for Active; 'I' for Inactive)
ROOT
ATOM      1  C   UNL d   1       2.515  -3.523   5.995  0.00  0.00     0.077 C 
ATOM      2  C1  UNL d   1       2.173  -2.665   4.814  0.00  0.00    -0.074 A 
ATOM      3  C2  UNL d   1       1.466  -1.470   4.974  0.00  0.00    -0.005 A 
ATOM      4  C3  UNL d   1       1.163  -0.677   3.867  0.00  0.00     0.006 A 
ATOM      5  C4  UNL d   1       1.564  -1.072   2.590  0.00  0.00    -0.005 A 
ATOM      6  C5  UNL d   1       2.273  -2.264   2.410  0.00  0.00    -0.074 A 
ATOM      7  C6  UNL d   1       2.720  -2.697   1.046  0.00  0.00     0.077 C 
ATOM      8  C7  UNL d   1       2.580  -3.051   3.528  0.00  0.00    -0.001 A 
ENDROOT
TORSDOF 0
ENDMDL
