MODEL 1
REMARK minimizedAffinity 12.4343128
REMARK minimizedRMSD -1
REMARK  0 active torsions:
REMARK  status: ('A' for Active; 'I' for Inactive)
ROOT
ATOM      1  C   UNL d   1      -1.717  -5.337  -0.043  0.00  0.00     0.077 C 
ATOM      2  C1  UNL d   1      -0.330  -4.997  -0.501  0.00  0.00    -0.074 A 
ATOM      3  C2  UNL d   1       0.158  -5.468  -1.724  0.00  0.00    -0.005 A 
ATOM      4  C3  UNL d   1       1.447  -5.136  -2.142  0.00  0.00     0.006 A 
ATOM      5  C4  UNL d   1       2.260  -4.331  -1.341  0.00  0.00    -0.005 A 
ATOM      6  C5  UNL d   1       1.788  -3.851  -0.115  0.00  0.00    -0.074 A 
ATOM      7  C6  UNL d   1       2.645  -2.978   0.752  0.00  0.00     0.077 C 
ATOM      8  C7  UNL d   1       0.489  -4.183   0.294  0.00  0.00    -0.001 A 
ENDROOT
TORSDOF 0
ENDMDL
