MODEL 1
REMARK minimizedAffinity 14.3240967
REMARK minimizedRMSD -1
REMARK  0 active torsions:
REMARK  status: ('A' for Active; 'I' for Inactive)
ROOT
ATOM      1  C   UNL d   1      -3.145   3.391  -5.999  0.00  0.00     0.077 C 
ATOM      2  C1  UNL d   1      -3.461   3.211  -4.544  0.00  0.00    -0.074 A 
ATOM      3  C2  UNL d   1      -4.088   4.226  -3.814  0.00  0.00    -0.005 A 
ATOM      4  C3  UNL d   1      -4.385   4.041  -2.464  0.00  0.00     0.006 A 
ATOM      5  C4  UNL d   1      -4.058   2.841  -1.831  0.00  0.00    -0.005 A 
ATOM      6  C5  UNL d   1      -3.431   1.814  -2.545  0.00  0.00    -0.074 A 
ATOM      7  C6  UNL d   1      -3.082   0.515  -1.883  0.00  0.00     0.077 C 
ATOM      8  C7  UNL d   1      -3.143   2.006  -3.903  0.00  0.00    -0.001 A 
ENDROOT
TORSDOF 0
ENDMDL
