MODEL 1
REMARK minimizedAffinity 7.26719046
REMARK minimizedRMSD -1
REMARK  0 active torsions:
REMARK  status: ('A' for Active; 'I' for Inactive)
ROOT
ATOM      1  C   UNL d   1       1.173   0.321   4.853  0.00  0.00     0.077 C 
ATOM      2  C1  UNL d   1       1.735  -1.069   4.796  0.00  0.00    -0.074 A 
ATOM      3  C2  UNL d   1       1.844  -1.848   5.953  0.00  0.00    -0.005 A 
ATOM      4  C3  UNL d   1       2.360  -3.142   5.883  0.00  0.00     0.006 A 
ATOM      5  C4  UNL d   1       2.771  -3.670   4.658  0.00  0.00    -0.005 A 
ATOM      6  C5  UNL d   1       2.668  -2.906   3.491  0.00  0.00    -0.074 A 
ATOM      7  C6  UNL d   1       3.096  -3.461   2.165  0.00  0.00     0.077 C 
ATOM      8  C7  UNL d   1       2.143  -1.609   3.568  0.00  0.00    -0.001 A 
ENDROOT
TORSDOF 0
ENDMDL
