MODEL 1
REMARK minimizedAffinity 11.1315536
REMARK minimizedRMSD -1
REMARK  0 active torsions:
REMARK  status: ('A' for Active; 'I' for Inactive)
ROOT
ATOM      1  C   UNL d   1       0.860  -1.097   2.307  0.00  0.00     0.077 C 
ATOM      2  C1  UNL d   1       1.253  -1.968   3.463  0.00  0.00    -0.074 A 
ATOM      3  C2  UNL d   1       0.921  -1.615   4.774  0.00  0.00    -0.005 A 
ATOM      4  C3  UNL d   1       1.285  -2.440   5.838  0.00  0.00     0.006 A 
ATOM      5  C4  UNL d   1       1.985  -3.625   5.602  0.00  0.00    -0.005 A 
ATOM      6  C5  UNL d   1       2.325  -3.994   4.297  0.00  0.00    -0.074 A 
ATOM      7  C6  UNL d   1       3.067  -5.269   4.024  0.00  0.00     0.077 C 
ATOM      8  C7  UNL d   1       1.949  -3.163   3.232  0.00  0.00    -0.001 A 
ENDROOT
TORSDOF 0
ENDMDL
