MODEL 1
REMARK minimizedAffinity 6.16159296
REMARK minimizedRMSD -1
REMARK  0 active torsions:
REMARK  status: ('A' for Active; 'I' for Inactive)
ROOT
ATOM      1  C   UNL d   1       1.836  -2.706   5.825  0.00  0.00     0.077 C 
ATOM      2  C1  UNL d   1       1.722  -1.908   4.560  0.00  0.00    -0.074 A 
ATOM      3  C2  UNL d   1       1.147  -0.633   4.563  0.00  0.00    -0.005 A 
ATOM      4  C3  UNL d   1       1.057   0.100   3.380  0.00  0.00     0.006 A 
ATOM      5  C4  UNL d   1       1.539  -0.433   2.184  0.00  0.00    -0.005 A 
ATOM      6  C5  UNL d   1       2.117  -1.706   2.161  0.00  0.00    -0.074 A 
ATOM      7  C6  UNL d   1       2.649  -2.290   0.886  0.00  0.00     0.077 C 
ATOM      8  C7  UNL d   1       2.211  -2.434   3.355  0.00  0.00    -0.001 A 
ENDROOT
TORSDOF 0
ENDMDL
