MODEL 1
REMARK minimizedAffinity 7.57225561
REMARK minimizedRMSD -1
REMARK  0 active torsions:
REMARK  status: ('A' for Active; 'I' for Inactive)
ROOT
ATOM      1  C   UNL d   1       0.899  -1.399   1.499  0.00  0.00     0.077 C 
ATOM      2  C1  UNL d   1       1.503  -1.316   2.870  0.00  0.00    -0.074 A 
ATOM      3  C2  UNL d   1       2.176  -2.408   3.426  0.00  0.00    -0.005 A 
ATOM      4  C3  UNL d   1       2.741  -2.312   4.698  0.00  0.00     0.006 A 
ATOM      5  C4  UNL d   1       2.637  -1.125   5.425  0.00  0.00    -0.005 A 
ATOM      6  C5  UNL d   1       1.968  -0.023   4.885  0.00  0.00    -0.074 A 
ATOM      7  C6  UNL d   1       1.857   1.263   5.649  0.00  0.00     0.077 C 
ATOM      8  C7  UNL d   1       1.410  -0.124   3.603  0.00  0.00    -0.001 A 
ENDROOT
TORSDOF 0
ENDMDL
