MODEL 1
REMARK minimizedAffinity 11.5301743
REMARK minimizedRMSD -1
REMARK  0 active torsions:
REMARK  status: ('A' for Active; 'I' for Inactive)
ROOT
ATOM      1  C   UNL d   1       2.424  -2.855   1.933  0.00  0.00     0.077 C 
ATOM      2  C1  UNL d   1       0.974  -2.683   1.592  0.00  0.00    -0.074 A 
ATOM      3  C2  UNL d   1       0.337  -1.449   1.762  0.00  0.00    -0.005 A 
ATOM      4  C3  UNL d   1      -1.010  -1.302   1.431  0.00  0.00     0.006 A 
ATOM      5  C4  UNL d   1      -1.732  -2.384   0.927  0.00  0.00    -0.005 A 
ATOM      6  C5  UNL d   1      -1.112  -3.625   0.750  0.00  0.00    -0.074 A 
ATOM      7  C6  UNL d   1      -1.872  -4.796   0.201  0.00  0.00     0.077 C 
ATOM      8  C7  UNL d   1       0.243  -3.763   1.078  0.00  0.00    -0.001 A 
ENDROOT
TORSDOF 0
ENDMDL
