MODEL 1
REMARK minimizedAffinity 10.7874861
REMARK minimizedRMSD -1
REMARK  0 active torsions:
REMARK  status: ('A' for Active; 'I' for Inactive)
ROOT
ATOM      1  C1  DEN d   1      -5.999   1.847   1.805  0.00  0.00     0.130 A 
ATOM      2  C2  DEN d   1      -4.921   2.553   1.118  0.00  0.00    -0.031 A 
ATOM      3  C3  DEN d   1      -3.651   1.871   1.440  0.00  0.00     0.027 A 
ATOM      4  C4  DEN d   1      -3.252  -0.200   2.924  0.00  0.00     0.027 A 
ATOM      5  C5  DEN d   1      -3.860  -1.138   3.729  0.00  0.00    -0.003 A 
ATOM      6  C6  DEN d   1      -5.207  -1.127   3.974  0.00  0.00     0.001 A 
ATOM      7  C7  DEN d   1      -5.999  -0.185   3.372  0.00  0.00     0.017 A 
ATOM      8  C8  DEN d   1      -5.393   0.769   2.565  0.00  0.00    -0.094 A 
ATOM      9  C9  DEN d   1      -4.031   0.733   2.320  0.00  0.00    -0.072 A 
ENDROOT
TORSDOF 0
ENDMDL
