MODEL 1
REMARK minimizedAffinity 5.64199352
REMARK minimizedRMSD -1
REMARK  0 active torsions:
REMARK  status: ('A' for Active; 'I' for Inactive)
ROOT
ATOM      1  C1  DEN d   1       1.360  -5.958  -3.624  0.00  0.00     0.130 A 
ATOM      2  C2  DEN d   1       0.595  -5.930  -4.868  0.00  0.00    -0.031 A 
ATOM      3  C3  DEN d   1       1.552  -5.933  -5.993  0.00  0.00     0.027 A 
ATOM      4  C4  DEN d   1       4.130  -5.982  -5.930  0.00  0.00     0.027 A 
ATOM      5  C5  DEN d   1       5.232  -6.000  -5.104  0.00  0.00    -0.003 A 
ATOM      6  C6  DEN d   1       5.123  -5.971  -3.739  0.00  0.00     0.001 A 
ATOM      7  C7  DEN d   1       3.883  -5.968  -3.158  0.00  0.00     0.017 A 
ATOM      8  C8  DEN d   1       2.767  -5.942  -3.983  0.00  0.00    -0.094 A 
ATOM      9  C9  DEN d   1       2.898  -5.985  -5.361  0.00  0.00    -0.072 A 
ENDROOT
TORSDOF 0
ENDMDL
