MODEL 1
REMARK minimizedAffinity 11.1094275
REMARK minimizedRMSD -1
REMARK  0 active torsions:
REMARK  status: ('A' for Active; 'I' for Inactive)
ROOT
ATOM      1  C1  DEN d   1      -4.100   1.929  -5.860  0.00  0.00     0.130 A 
ATOM      2  C2  DEN d   1      -5.560   1.955  -5.882  0.00  0.00    -0.031 A 
ATOM      3  C3  DEN d   1      -5.993   3.367  -5.853  0.00  0.00     0.027 A 
ATOM      4  C4  DEN d   1      -4.551   5.504  -5.780  0.00  0.00     0.027 A 
ATOM      5  C5  DEN d   1      -3.262   5.988  -5.737  0.00  0.00    -0.003 A 
ATOM      6  C6  DEN d   1      -2.172   5.159  -5.698  0.00  0.00     0.001 A 
ATOM      7  C7  DEN d   1      -2.349   3.801  -5.747  0.00  0.00     0.017 A 
ATOM      8  C8  DEN d   1      -3.646   3.306  -5.783  0.00  0.00    -0.094 A 
ATOM      9  C9  DEN d   1      -4.734   4.161  -5.834  0.00  0.00    -0.072 A 
ENDROOT
TORSDOF 0
ENDMDL
