MODEL 1
REMARK minimizedAffinity 12.1640911
REMARK minimizedRMSD -1
REMARK  0 active torsions:
REMARK  status: ('A' for Active; 'I' for Inactive)
ROOT
ATOM      1  C1  DEN d   1      -3.089   5.595  -5.919  0.00  0.00     0.130 A 
ATOM      2  C2  DEN d   1      -4.502   5.959  -5.985  0.00  0.00    -0.031 A 
ATOM      3  C3  DEN d   1      -5.295   4.714  -5.994  0.00  0.00     0.027 A 
ATOM      4  C4  DEN d   1      -4.478   2.269  -5.906  0.00  0.00     0.027 A 
ATOM      5  C5  DEN d   1      -3.366   1.459  -5.854  0.00  0.00    -0.003 A 
ATOM      6  C6  DEN d   1      -2.093   1.965  -5.854  0.00  0.00     0.001 A 
ATOM      7  C7  DEN d   1      -1.902   3.321  -5.862  0.00  0.00     0.017 A 
ATOM      8  C8  DEN d   1      -3.018   4.145  -5.922  0.00  0.00    -0.094 A 
ATOM      9  C9  DEN d   1      -4.297   3.614  -5.908  0.00  0.00    -0.072 A 
ENDROOT
TORSDOF 0
ENDMDL
