MODEL 1
REMARK minimizedAffinity 13.2985811
REMARK minimizedRMSD -1
REMARK  0 active torsions:
REMARK  status: ('A' for Active; 'I' for Inactive)
ROOT
ATOM      1  C1  DEN d   1      -1.945   1.278  -5.908  0.00  0.00     0.130 A 
ATOM      2  C2  DEN d   1      -0.647   1.946  -5.931  0.00  0.00    -0.031 A 
ATOM      3  C3  DEN d   1      -0.884   3.403  -5.966  0.00  0.00     0.027 A 
ATOM      4  C4  DEN d   1      -3.124   4.683  -5.982  0.00  0.00     0.027 A 
ATOM      5  C5  DEN d   1      -4.494   4.546  -5.984  0.00  0.00    -0.003 A 
ATOM      6  C6  DEN d   1      -5.106   3.321  -5.995  0.00  0.00     0.001 A 
ATOM      7  C7  DEN d   1      -4.346   2.182  -5.959  0.00  0.00     0.017 A 
ATOM      8  C8  DEN d   1      -2.963   2.312  -5.964  0.00  0.00    -0.094 A 
ATOM      9  C9  DEN d   1      -2.364   3.559  -5.941  0.00  0.00    -0.072 A 
ENDROOT
TORSDOF 0
ENDMDL
