MODEL 1
REMARK minimizedAffinity 6.57178068
REMARK minimizedRMSD -1
REMARK  0 active torsions:
REMARK  status: ('A' for Active; 'I' for Inactive)
ROOT
ATOM      1  C1  DEN d   1      -0.303   4.145  -5.977  0.00  0.00     0.130 A 
ATOM      2  C2  DEN d   1      -1.555   3.395  -5.999  0.00  0.00    -0.031 A 
ATOM      3  C3  DEN d   1      -1.226   1.956  -5.999  0.00  0.00     0.027 A 
ATOM      4  C4  DEN d   1       1.091   0.822  -5.961  0.00  0.00     0.027 A 
ATOM      5  C5  DEN d   1       2.450   1.045  -5.950  0.00  0.00    -0.003 A 
ATOM      6  C6  DEN d   1       2.983   2.307  -5.981  0.00  0.00     0.001 A 
ATOM      7  C7  DEN d   1       2.151   3.395  -5.979  0.00  0.00     0.017 A 
ATOM      8  C8  DEN d   1       0.780   3.178  -5.998  0.00  0.00    -0.094 A 
ATOM      9  C9  DEN d   1       0.260   1.895  -5.954  0.00  0.00    -0.072 A 
ENDROOT
TORSDOF 0
ENDMDL
