MODEL 1
REMARK minimizedAffinity 0.556348503
REMARK minimizedRMSD -1
REMARK  0 active torsions:
REMARK  status: ('A' for Active; 'I' for Inactive)
ROOT
ATOM      1  C1  DEN d   1       3.816   5.870   5.851  0.00  0.00     0.130 A 
ATOM      2  C2  DEN d   1       2.417   5.997   5.453  0.00  0.00    -0.031 A 
ATOM      3  C3  DEN d   1       2.140   4.975   4.424  0.00  0.00     0.027 A 
ATOM      4  C4  DEN d   1       3.732   3.213   3.418  0.00  0.00     0.027 A 
ATOM      5  C5  DEN d   1       5.020   2.725   3.433  0.00  0.00    -0.003 A 
ATOM      6  C6  DEN d   1       5.998   3.268   4.223  0.00  0.00     0.001 A 
ATOM      7  C7  DEN d   1       5.691   4.304   5.066  0.00  0.00     0.017 A 
ATOM      8  C8  DEN d   1       4.397   4.806   5.051  0.00  0.00    -0.094 A 
ATOM      9  C9  DEN d   1       3.420   4.235   4.254  0.00  0.00    -0.072 A 
ENDROOT
TORSDOF 0
ENDMDL
