MODEL 1
REMARK minimizedAffinity 9.92952538
REMARK minimizedRMSD -1
REMARK  0 active torsions:
REMARK  status: ('A' for Active; 'I' for Inactive)
ROOT
ATOM      1  C1  DEN d   1       0.533   0.724   1.028  0.00  0.00     0.130 A 
ATOM      2  C2  DEN d   1       0.093   0.965  -0.344  0.00  0.00    -0.031 A 
ATOM      3  C3  DEN d   1       1.045   1.905  -0.970  0.00  0.00     0.027 A 
ATOM      4  C4  DEN d   1       3.148   3.000   0.044  0.00  0.00     0.027 A 
ATOM      5  C5  DEN d   1       3.921   3.109   1.179  0.00  0.00    -0.003 A 
ATOM      6  C6  DEN d   1       3.602   2.463   2.344  0.00  0.00     0.001 A 
ATOM      7  C7  DEN d   1       2.506   1.642   2.387  0.00  0.00     0.017 A 
ATOM      8  C8  DEN d   1       1.718   1.533   1.249  0.00  0.00    -0.094 A 
ATOM      9  C9  DEN d   1       2.064   2.185   0.077  0.00  0.00    -0.072 A 
ENDROOT
TORSDOF 0
ENDMDL
