MODEL 1
REMARK minimizedAffinity 11.4057636
REMARK minimizedRMSD -1
REMARK  0 active torsions:
REMARK  status: ('A' for Active; 'I' for Inactive)
ROOT
ATOM      1  C1  DEN d   1       5.981   2.997  -2.673  0.00  0.00     0.130 A 
ATOM      2  C2  DEN d   1       6.000   1.542  -2.791  0.00  0.00    -0.031 A 
ATOM      3  C3  DEN d   1       4.818   1.011  -2.082  0.00  0.00     0.027 A 
ATOM      4  C4  DEN d   1       2.968   2.296  -0.825  0.00  0.00     0.027 A 
ATOM      5  C5  DEN d   1       2.529   3.544  -0.444  0.00  0.00    -0.003 A 
ATOM      6  C6  DEN d   1       3.222   4.686  -0.748  0.00  0.00     0.001 A 
ATOM      7  C7  DEN d   1       4.369   4.606  -1.492  0.00  0.00     0.017 A 
ATOM      8  C8  DEN d   1       4.822   3.350  -1.874  0.00  0.00    -0.094 A 
ATOM      9  C9  DEN d   1       4.101   2.209  -1.567  0.00  0.00    -0.072 A 
ENDROOT
TORSDOF 0
ENDMDL
