MODEL 1
REMARK minimizedAffinity 2.97242832
REMARK minimizedRMSD -1
REMARK  0 active torsions:
REMARK  status: ('A' for Active; 'I' for Inactive)
ROOT
ATOM      1  C1  DEN d   1       4.009   3.818   2.520  0.00  0.00     0.130 A 
ATOM      2  C2  DEN d   1       3.001   4.156   1.519  0.00  0.00    -0.031 A 
ATOM      3  C3  DEN d   1       2.026   5.073   2.143  0.00  0.00     0.027 A 
ATOM      4  C4  DEN d   1       1.982   6.000   4.550  0.00  0.00     0.027 A 
ATOM      5  C5  DEN d   1       2.621   5.987   5.769  0.00  0.00    -0.003 A 
ATOM      6  C6  DEN d   1       3.739   5.231   6.000  0.00  0.00     0.001 A 
ATOM      7  C7  DEN d   1       4.279   4.489   4.982  0.00  0.00     0.017 A 
ATOM      8  C8  DEN d   1       3.635   4.491   3.751  0.00  0.00    -0.094 A 
ATOM      9  C9  DEN d   1       2.513   5.272   3.535  0.00  0.00    -0.072 A 
ENDROOT
TORSDOF 0
ENDMDL
