MODEL 1
REMARK minimizedAffinity 2.42535496
REMARK minimizedRMSD -1
REMARK  0 active torsions:
REMARK  status: ('A' for Active; 'I' for Inactive)
ROOT
ATOM      1  C1  DEN d   1      -2.001   4.138  -5.883  0.00  0.00     0.130 A 
ATOM      2  C2  DEN d   1      -2.116   5.593  -5.942  0.00  0.00    -0.031 A 
ATOM      3  C3  DEN d   1      -3.552   5.935  -6.000  0.00  0.00     0.027 A 
ATOM      4  C4  DEN d   1      -5.596   4.362  -6.000  0.00  0.00     0.027 A 
ATOM      5  C5  DEN d   1      -5.999   3.045  -5.974  0.00  0.00    -0.003 A 
ATOM      6  C6  DEN d   1      -5.104   2.008  -5.951  0.00  0.00     0.001 A 
ATOM      7  C7  DEN d   1      -3.761   2.271  -5.907  0.00  0.00     0.017 A 
ATOM      8  C8  DEN d   1      -3.347   3.596  -5.940  0.00  0.00    -0.094 A 
ATOM      9  C9  DEN d   1      -4.267   4.631  -5.952  0.00  0.00    -0.072 A 
ENDROOT
TORSDOF 0
ENDMDL
