MODEL 1
REMARK minimizedAffinity 20.4802799
REMARK minimizedRMSD -1
REMARK  0 active torsions:
REMARK  status: ('A' for Active; 'I' for Inactive)
ROOT
ATOM      1  C1  DEN d   1      -3.305  -3.819   5.372  0.00  0.00     0.130 A 
ATOM      2  C2  DEN d   1      -4.420  -4.522   6.000  0.00  0.00    -0.031 A 
ATOM      3  C3  DEN d   1      -5.675  -3.956   5.467  0.00  0.00     0.027 A 
ATOM      4  C4  DEN d   1      -5.999  -2.071   3.736  0.00  0.00     0.027 A 
ATOM      5  C5  DEN d   1      -5.348  -1.163   2.930  0.00  0.00    -0.003 A 
ATOM      6  C6  DEN d   1      -3.983  -1.054   2.907  0.00  0.00     0.001 A 
ATOM      7  C7  DEN d   1      -3.222  -1.898   3.672  0.00  0.00     0.017 A 
ATOM      8  C8  DEN d   1      -3.871  -2.812   4.493  0.00  0.00    -0.094 A 
ATOM      9  C9  DEN d   1      -5.252  -2.915   4.493  0.00  0.00    -0.072 A 
ENDROOT
TORSDOF 0
ENDMDL
