MODEL 1
REMARK minimizedAffinity 23.8645515
REMARK minimizedRMSD -1
REMARK  0 active torsions:
REMARK  status: ('A' for Active; 'I' for Inactive)
ROOT
ATOM      1  C1  DEN d   1      -5.566   3.802  -5.996  0.00  0.00     0.130 A 
ATOM      2  C2  DEN d   1      -5.326   5.242  -5.964  0.00  0.00    -0.031 A 
ATOM      3  C3  DEN d   1      -3.865   5.460  -5.945  0.00  0.00     0.027 A 
ATOM      4  C4  DEN d   1      -1.964   3.718  -5.966  0.00  0.00     0.027 A 
ATOM      5  C5  DEN d   1      -1.676   2.371  -5.979  0.00  0.00    -0.003 A 
ATOM      6  C6  DEN d   1      -2.656   1.414  -5.965  0.00  0.00     0.001 A 
ATOM      7  C7  DEN d   1      -3.973   1.791  -5.982  0.00  0.00     0.017 A 
ATOM      8  C8  DEN d   1      -4.271   3.147  -5.961  0.00  0.00    -0.094 A 
ATOM      9  C9  DEN d   1      -3.266   4.099  -5.988  0.00  0.00    -0.072 A 
ENDROOT
TORSDOF 0
ENDMDL
