MODEL 1
REMARK minimizedAffinity 5.49739695
REMARK minimizedRMSD -1
REMARK  2 active torsions:
REMARK  status: ('A' for Active; 'I' for Inactive)
REMARK    1  A    between atoms: C2'_3  and  C1'_4 
REMARK    2  A    between atoms: C1'_4  and  C1_5 
ROOT
ATOM      1  C1  I4B d   1      -1.368  -0.380   3.017  0.00  0.00    -0.075 A 
ATOM      2  C2  I4B d   1      -2.319   0.344   2.342  0.00  0.00     0.003 A 
ATOM      3  C3  I4B d   1      -2.140   0.653   0.972  0.00  0.00     0.002 A 
ATOM      4  C4  I4B d   1      -0.979   0.265   0.334  0.00  0.00    -0.004 A 
ATOM      5  C5  I4B d   1      -0.027  -0.488   1.014  0.00  0.00     0.002 A 
ATOM      6  C6  I4B d   1      -0.228  -0.824   2.361  0.00  0.00     0.003 A 
ENDROOT
BRANCH   1   7
ATOM      7  C1' I4B d   1      -1.575  -0.661   4.472  0.00  0.00     0.060 C 
BRANCH   7   8
ATOM      8  C2' I4B d   1      -0.410  -1.500   4.955  0.00  0.00    -0.013 C 
ATOM      9  C4' I4B d   1       0.399  -0.765   5.991  0.00  0.00     0.013 C 
ATOM     10  C3' I4B d   1      -0.960  -2.782   5.507  0.00  0.00     0.013 C 
ENDBRANCH   7   8
ENDBRANCH   1   7
TORSDOF 2
ENDMDL
