MODEL 1
REMARK minimizedAffinity 4.17916775
REMARK minimizedRMSD -1
REMARK  2 active torsions:
REMARK  status: ('A' for Active; 'I' for Inactive)
REMARK    1  A    between atoms: C2'_3  and  C1'_4 
REMARK    2  A    between atoms: C1'_4  and  C1_5 
ROOT
ATOM      1  C1  I4B d   1      -0.876  -0.762   1.199  0.00  0.00    -0.075 A 
ATOM      2  C2  I4B d   1      -2.000  -0.669   1.982  0.00  0.00     0.003 A 
ATOM      3  C3  I4B d   1      -1.924  -0.925   3.372  0.00  0.00     0.002 A 
ATOM      4  C4  I4B d   1      -0.722  -1.317   3.926  0.00  0.00    -0.004 A 
ATOM      5  C5  I4B d   1       0.421  -1.389   3.135  0.00  0.00     0.002 A 
ATOM      6  C6  I4B d   1       0.347  -1.097   1.765  0.00  0.00     0.003 A 
ENDROOT
BRANCH   1   7
ATOM      7  C1' I4B d   1      -1.000  -0.517  -0.271  0.00  0.00     0.060 C 
BRANCH   7   8
ATOM      8  C2' I4B d   1      -0.353   0.819  -0.578  0.00  0.00    -0.013 C 
ATOM      9  C4' I4B d   1       1.119   0.662  -0.852  0.00  0.00     0.013 C 
ATOM     10  C3' I4B d   1      -1.062   1.417  -1.757  0.00  0.00     0.013 C 
ENDBRANCH   7   8
ENDBRANCH   1   7
TORSDOF 2
ENDMDL
