MODEL 1
REMARK minimizedAffinity -3.29084158
REMARK minimizedRMSD -1
REMARK  0 active torsions:
REMARK  status: ('A' for Active; 'I' for Inactive)
ROOT
ATOM      1  C   UNL d   1      -5.948  -5.205  -5.864  0.00  0.00     0.078 C 
ATOM      2  C1  UNL d   1      -5.412  -5.027  -4.475  0.00  0.00    -0.077 A 
ATOM      3  C2  UNL d   1      -4.581  -5.992  -3.894  0.00  0.00    -0.001 A 
ATOM      4  C3  UNL d   1      -4.097  -5.818  -2.596  0.00  0.00     0.003 A 
ATOM      5  C4  UNL d   1      -4.439  -4.681  -1.868  0.00  0.00    -0.005 A 
ATOM      6  C5  UNL d   1      -5.268  -3.716  -2.437  0.00  0.00     0.003 A 
ATOM      7  C6  UNL d   1      -5.753  -3.888  -3.734  0.00  0.00    -0.001 A 
ENDROOT
TORSDOF 0
ENDMDL
