MODEL 1
REMARK minimizedAffinity -2.75821042
REMARK minimizedRMSD -1
REMARK  0 active torsions:
REMARK  status: ('A' for Active; 'I' for Inactive)
ROOT
ATOM      1  C   UNL d   1      -5.879  -4.145  -1.807  0.00  0.00     0.078 C 
ATOM      2  C1  UNL d   1      -5.665  -4.464  -3.257  0.00  0.00    -0.077 A 
ATOM      3  C2  UNL d   1      -5.182  -5.716  -3.656  0.00  0.00    -0.001 A 
ATOM      4  C3  UNL d   1      -4.978  -5.995  -5.008  0.00  0.00     0.003 A 
ATOM      5  C4  UNL d   1      -5.254  -5.027  -5.972  0.00  0.00    -0.005 A 
ATOM      6  C5  UNL d   1      -5.733  -3.777  -5.584  0.00  0.00     0.003 A 
ATOM      7  C6  UNL d   1      -5.937  -3.496  -4.232  0.00  0.00    -0.001 A 
ENDROOT
TORSDOF 0
ENDMDL
