MODEL 1
REMARK minimizedAffinity -2.50333357
REMARK minimizedRMSD -1
REMARK  0 active torsions:
REMARK  status: ('A' for Active; 'I' for Inactive)
ROOT
ATOM      1  C   UNL d   1      -4.501  -4.520  -1.958  0.00  0.00     0.078 C 
ATOM      2  C1  UNL d   1      -5.025  -4.647  -3.358  0.00  0.00    -0.077 A 
ATOM      3  C2  UNL d   1      -5.137  -5.898  -3.976  0.00  0.00    -0.001 A 
ATOM      4  C3  UNL d   1      -5.617  -6.000  -5.282  0.00  0.00     0.003 A 
ATOM      5  C4  UNL d   1      -5.988  -4.854  -5.983  0.00  0.00    -0.005 A 
ATOM      6  C5  UNL d   1      -5.878  -3.604  -5.377  0.00  0.00     0.003 A 
ATOM      7  C6  UNL d   1      -5.398  -3.500  -4.071  0.00  0.00    -0.001 A 
ENDROOT
TORSDOF 0
ENDMDL
