MODEL 1
REMARK minimizedAffinity -3.06327009
REMARK minimizedRMSD -1
REMARK  0 active torsions:
REMARK  status: ('A' for Active; 'I' for Inactive)
ROOT
ATOM      1  C   UNL d   1      -6.000  -4.634  -1.887  0.00  0.00     0.078 C 
ATOM      2  C1  UNL d   1      -5.581  -4.766  -3.321  0.00  0.00    -0.077 A 
ATOM      3  C2  UNL d   1      -5.989  -3.831  -4.280  0.00  0.00    -0.001 A 
ATOM      4  C3  UNL d   1      -5.599  -3.972  -5.613  0.00  0.00     0.003 A 
ATOM      5  C4  UNL d   1      -4.801  -5.047  -5.999  0.00  0.00    -0.005 A 
ATOM      6  C5  UNL d   1      -4.392  -5.984  -5.051  0.00  0.00     0.003 A 
ATOM      7  C6  UNL d   1      -4.780  -5.844  -3.718  0.00  0.00    -0.001 A 
ENDROOT
TORSDOF 0
ENDMDL
