MODEL 1
REMARK minimizedAffinity -2.58827209
REMARK minimizedRMSD -1
REMARK  0 active torsions:
REMARK  status: ('A' for Active; 'I' for Inactive)
ROOT
ATOM      1  C   UNL d   1       4.158  -1.513  -3.002  0.00  0.00     0.078 C 
ATOM      2  C1  UNL d   1       4.463  -0.487  -4.053  0.00  0.00    -0.077 A 
ATOM      3  C2  UNL d   1       5.727  -0.422  -4.652  0.00  0.00    -0.001 A 
ATOM      4  C3  UNL d   1       5.999   0.544  -5.622  0.00  0.00     0.003 A 
ATOM      5  C4  UNL d   1       5.013   1.453  -6.000  0.00  0.00    -0.005 A 
ATOM      6  C5  UNL d   1       3.753   1.397  -5.408  0.00  0.00     0.003 A 
ATOM      7  C6  UNL d   1       3.479   0.432  -4.438  0.00  0.00    -0.001 A 
ENDROOT
TORSDOF 0
ENDMDL
