MODEL 1
REMARK minimizedAffinity -1.0349946
REMARK minimizedRMSD -1
REMARK  0 active torsions:
REMARK  status: ('A' for Active; 'I' for Inactive)
ROOT
ATOM      1  C   UNL d   1       4.565   0.386  -1.823  0.00  0.00     0.078 C 
ATOM      2  C1  UNL d   1       4.931   0.364  -3.277  0.00  0.00    -0.077 A 
ATOM      3  C2  UNL d   1       5.653  -0.705  -3.822  0.00  0.00    -0.001 A 
ATOM      4  C3  UNL d   1       5.995  -0.708  -5.175  0.00  0.00     0.003 A 
ATOM      5  C4  UNL d   1       5.622   0.356  -5.994  0.00  0.00    -0.005 A 
ATOM      6  C5  UNL d   1       4.906   1.425  -5.460  0.00  0.00     0.003 A 
ATOM      7  C6  UNL d   1       4.563   1.430  -4.107  0.00  0.00    -0.001 A 
ENDROOT
TORSDOF 0
ENDMDL
