MODEL 1
REMARK minimizedAffinity -5.17897511
REMARK minimizedRMSD -1
REMARK  1 active torsions:
REMARK  status: ('A' for Active; 'I' for Inactive)
REMARK    1  A    between atoms: C3_4  and  O_7 
ROOT
ATOM      1  C   UNL d   1       3.553  -0.468   1.568  0.00  0.00    -0.033 A 
ATOM      2  C1  UNL d   1       2.453  -1.099   2.152  0.00  0.00     0.039 A 
ATOM      3  C2  UNL d   1       1.176  -0.913   1.620  0.00  0.00    -0.080 A 
ATOM      4  C3  UNL d   1       1.012  -0.095   0.506  0.00  0.00     0.150 A 
ATOM      5  C4  UNL d   1       2.104   0.534  -0.083  0.00  0.00    -0.007 A 
ATOM      6  C5  UNL d   1       3.379   0.348   0.450  0.00  0.00     0.039 A 
ENDROOT
BRANCH   4   7
ATOM      7  O   UNL d   1      -0.216   0.121  -0.045  0.00  0.00    -0.526 OA
ATOM      8  H5  UNL d   1      -0.878  -0.354   0.483  0.00  0.00     0.418 HD
ENDBRANCH   4   7
TORSDOF 1
ENDMDL
