MODEL 1
REMARK minimizedAffinity -5.34262514
REMARK minimizedRMSD -1
REMARK  1 active torsions:
REMARK  status: ('A' for Active; 'I' for Inactive)
REMARK    1  A    between atoms: C3_4  and  O_7 
ROOT
ATOM      1  C   UNL d   1       2.974  -0.724   0.912  0.00  0.00    -0.033 A 
ATOM      2  C1  UNL d   1       2.800  -1.694   1.900  0.00  0.00     0.039 A 
ATOM      3  C2  UNL d   1       1.520  -2.158   2.208  0.00  0.00    -0.080 A 
ATOM      4  C3  UNL d   1       0.423  -1.645   1.520  0.00  0.00     0.150 A 
ATOM      5  C4  UNL d   1       0.589  -0.681   0.532  0.00  0.00    -0.007 A 
ATOM      6  C5  UNL d   1       1.868  -0.218   0.226  0.00  0.00     0.039 A 
ENDROOT
BRANCH   4   7
ATOM      7  O   UNL d   1      -0.846  -2.064   1.789  0.00  0.00    -0.526 OA
ATOM      8  H5  UNL d   1      -0.810  -2.710   2.514  0.00  0.00     0.418 HD
ENDBRANCH   4   7
TORSDOF 1
ENDMDL
