MODEL 1
REMARK minimizedAffinity -3.97792339
REMARK minimizedRMSD -1
REMARK  1 active torsions:
REMARK  status: ('A' for Active; 'I' for Inactive)
REMARK    1  A    between atoms: C3_4  and  O_7 
ROOT
ATOM      1  C   UNL d   1       2.998  -0.069   0.319  0.00  0.00    -0.033 A 
ATOM      2  C1  UNL d   1       2.326   1.113   0.634  0.00  0.00     0.039 A 
ATOM      3  C2  UNL d   1       0.958   1.088   0.911  0.00  0.00    -0.080 A 
ATOM      4  C3  UNL d   1       0.275  -0.124   0.870  0.00  0.00     0.150 A 
ATOM      5  C4  UNL d   1       0.939  -1.307   0.560  0.00  0.00    -0.007 A 
ATOM      6  C5  UNL d   1       2.305  -1.279   0.283  0.00  0.00     0.039 A 
ENDROOT
BRANCH   4   7
ATOM      7  O   UNL d   1      -1.062  -0.199   1.128  0.00  0.00    -0.526 OA
ATOM      8  H5  UNL d   1      -1.393   0.699   1.298  0.00  0.00     0.418 HD
ENDBRANCH   4   7
TORSDOF 1
ENDMDL
