MODEL 1
REMARK minimizedAffinity -2.89419746
REMARK minimizedRMSD -1
REMARK  1 active torsions:
REMARK  status: ('A' for Active; 'I' for Inactive)
REMARK    1  A    between atoms: C3_4  and  O_7 
ROOT
ATOM      1  C   UNL d   1      -0.744   0.126   0.276  0.00  0.00    -0.033 A 
ATOM      2  C1  UNL d   1      -0.119  -1.074   0.619  0.00  0.00     0.039 A 
ATOM      3  C2  UNL d   1       1.227  -1.082   0.991  0.00  0.00    -0.080 A 
ATOM      4  C3  UNL d   1       1.935   0.116   1.016  0.00  0.00     0.150 A 
ATOM      5  C4  UNL d   1       1.318   1.316   0.679  0.00  0.00    -0.007 A 
ATOM      6  C5  UNL d   1      -0.026   1.322   0.308  0.00  0.00     0.039 A 
ENDROOT
BRANCH   4   7
ATOM      7  O   UNL d   1       3.252   0.158   1.368  0.00  0.00    -0.526 OA
ATOM      8  H5  UNL d   1       3.551  -0.749   1.546  0.00  0.00     0.418 HD
ENDBRANCH   4   7
TORSDOF 1
ENDMDL
