MODEL 1
REMARK minimizedAffinity -2.21024418
REMARK minimizedRMSD -1
REMARK  1 active torsions:
REMARK  status: ('A' for Active; 'I' for Inactive)
REMARK    1  A    between atoms: C3_4  and  O_7 
ROOT
ATOM      1  C   UNL d   1      -2.409   0.213  -3.928  0.00  0.00    -0.033 A 
ATOM      2  C1  UNL d   1      -1.928  -0.973  -3.370  0.00  0.00     0.039 A 
ATOM      3  C2  UNL d   1      -1.511  -1.001  -2.037  0.00  0.00    -0.080 A 
ATOM      4  C3  UNL d   1      -1.583   0.162  -1.275  0.00  0.00     0.150 A 
ATOM      5  C4  UNL d   1      -2.065   1.346  -1.823  0.00  0.00    -0.007 A 
ATOM      6  C5  UNL d   1      -2.479   1.372  -3.154  0.00  0.00     0.039 A 
ENDROOT
BRANCH   4   7
ATOM      7  O   UNL d   1      -1.183   0.185   0.029  0.00  0.00    -0.526 OA
ATOM      8  H5  UNL d   1      -0.847  -0.696   0.263  0.00  0.00     0.418 HD
ENDBRANCH   4   7
TORSDOF 1
ENDMDL
