MODEL 1
REMARK minimizedAffinity -4.39024353
REMARK minimizedRMSD -1
REMARK  1 active torsions:
REMARK  status: ('A' for Active; 'I' for Inactive)
REMARK    1  A    between atoms: C3_4  and  O_7 
ROOT
ATOM      1  C   UNL d   1       2.774  -0.356   0.941  0.00  0.00    -0.033 A 
ATOM      2  C1  UNL d   1       2.508   0.874   0.335  0.00  0.00     0.039 A 
ATOM      3  C2  UNL d   1       1.307   1.071  -0.349  0.00  0.00    -0.080 A 
ATOM      4  C3  UNL d   1       0.381   0.034  -0.418  0.00  0.00     0.150 A 
ATOM      5  C4  UNL d   1       0.638  -1.192   0.187  0.00  0.00    -0.007 A 
ATOM      6  C5  UNL d   1       1.839  -1.388   0.868  0.00  0.00     0.039 A 
ENDROOT
BRANCH   4   7
ATOM      7  O   UNL d   1      -0.803   0.178  -1.078  0.00  0.00    -0.526 OA
ATOM      8  H5  UNL d   1      -0.830   1.067  -1.470  0.00  0.00     0.418 HD
ENDBRANCH   4   7
TORSDOF 1
ENDMDL
