MODEL 1
REMARK minimizedAffinity 10.187171
REMARK minimizedRMSD -1
REMARK  2 active torsions:
REMARK  status: ('A' for Active; 'I' for Inactive)
REMARK    1  A    between atoms: C1_2  and  C2_3 
REMARK    2  A    between atoms: C2_3  and  C3_4 
ROOT
ATOM      1  C3  UNL d   1       3.266   0.991   0.830  0.00  0.00    -0.075 A 
ATOM      2  C4  UNL d   1       3.563  -0.368   0.658  0.00  0.00     0.002 A 
ATOM      3  C5  UNL d   1       2.946  -1.106  -0.353  0.00  0.00     0.002 A 
ATOM      4  C6  UNL d   1       2.019  -0.499  -1.196  0.00  0.00    -0.004 A 
ATOM      5  C7  UNL d   1       1.704   0.848  -1.024  0.00  0.00     0.002 A 
ATOM      6  C8  UNL d   1       2.323   1.590  -0.017  0.00  0.00     0.002 A 
ENDROOT
BRANCH   1   7
ATOM      7  C2  UNL d   1       3.952   1.803   1.902  0.00  0.00     0.056 C 
BRANCH   7   8
ATOM      8  C1  UNL d   1       3.185   3.062   2.318  0.00  0.00     0.007 C 
ATOM      9  C   UNL d   1       2.739   3.040   3.774  0.00  0.00     0.009 C 
ENDBRANCH   7   8
ENDBRANCH   1   7
TORSDOF 2
ENDMDL
