MODEL 1
REMARK minimizedAffinity 9.91141987
REMARK minimizedRMSD -1
REMARK  2 active torsions:
REMARK  status: ('A' for Active; 'I' for Inactive)
REMARK    1  A    between atoms: C1_2  and  C2_3 
REMARK    2  A    between atoms: C2_3  and  C3_4 
ROOT
ATOM      1  C3  UNL d   1       2.987   0.781  -0.662  0.00  0.00    -0.075 A 
ATOM      2  C4  UNL d   1       3.885   0.603   0.400  0.00  0.00     0.002 A 
ATOM      3  C5  UNL d   1       5.216   1.004   0.278  0.00  0.00     0.002 A 
ATOM      4  C6  UNL d   1       5.667   1.577  -0.909  0.00  0.00    -0.004 A 
ATOM      5  C7  UNL d   1       4.788   1.743  -1.977  0.00  0.00     0.002 A 
ATOM      6  C8  UNL d   1       3.455   1.347  -1.855  0.00  0.00     0.002 A 
ENDROOT
BRANCH   1   7
ATOM      7  C2  UNL d   1       1.539   0.376  -0.526  0.00  0.00     0.056 C 
BRANCH   7   8
ATOM      8  C1  UNL d   1       0.549   1.533  -0.700  0.00  0.00     0.007 C 
ATOM      9  C   UNL d   1      -0.656   1.168  -1.557  0.00  0.00     0.009 C 
ENDBRANCH   7   8
ENDBRANCH   1   7
TORSDOF 2
ENDMDL
