MODEL 1
REMARK minimizedAffinity 4.73657608
REMARK minimizedRMSD -1
REMARK  2 active torsions:
REMARK  status: ('A' for Active; 'I' for Inactive)
REMARK    1  A    between atoms: C1_2  and  C2_3 
REMARK    2  A    between atoms: C2_3  and  C3_4 
ROOT
ATOM      1  C3  UNL d   1       3.553   1.453  -1.069  0.00  0.00    -0.075 A 
ATOM      2  C4  UNL d   1       4.296   1.305   0.111  0.00  0.00     0.002 A 
ATOM      3  C5  UNL d   1       4.027   0.257   0.991  0.00  0.00     0.002 A 
ATOM      4  C6  UNL d   1       3.006  -0.649   0.708  0.00  0.00    -0.004 A 
ATOM      5  C7  UNL d   1       2.251  -0.502  -0.453  0.00  0.00     0.002 A 
ATOM      6  C8  UNL d   1       2.522   0.544  -1.337  0.00  0.00     0.002 A 
ENDROOT
BRANCH   1   7
ATOM      7  C2  UNL d   1       3.860   2.568  -2.040  0.00  0.00     0.056 C 
BRANCH   7   8
ATOM      8  C1  UNL d   1       5.349   2.715  -2.372  0.00  0.00     0.007 C 
ATOM      9  C   UNL d   1       5.863   4.139  -2.208  0.00  0.00     0.009 C 
ENDBRANCH   7   8
ENDBRANCH   1   7
TORSDOF 2
ENDMDL
