MODEL 1
REMARK minimizedAffinity 16.4763966
REMARK minimizedRMSD -1
REMARK  2 active torsions:
REMARK  status: ('A' for Active; 'I' for Inactive)
REMARK    1  A    between atoms: C1_2  and  C2_3 
REMARK    2  A    between atoms: C2_3  and  C3_4 
ROOT
ATOM      1  C3  UNL d   1       3.818   3.920   3.707  0.00  0.00    -0.075 A 
ATOM      2  C4  UNL d   1       3.265   5.208   3.662  0.00  0.00     0.002 A 
ATOM      3  C5  UNL d   1       1.933   5.419   4.020  0.00  0.00     0.002 A 
ATOM      4  C6  UNL d   1       1.137   4.348   4.416  0.00  0.00    -0.004 A 
ATOM      5  C7  UNL d   1       1.671   3.061   4.449  0.00  0.00     0.002 A 
ATOM      6  C8  UNL d   1       3.005   2.847   4.096  0.00  0.00     0.002 A 
ENDROOT
BRANCH   1   7
ATOM      7  C2  UNL d   1       5.267   3.688   3.349  0.00  0.00     0.056 C 
BRANCH   7   8
ATOM      8  C1  UNL d   1       5.924   2.538   4.120  0.00  0.00     0.007 C 
ATOM      9  C   UNL d   1       5.915   2.744   5.629  0.00  0.00     0.009 C 
ENDBRANCH   7   8
ENDBRANCH   1   7
TORSDOF 2
ENDMDL
