MODEL 1
REMARK minimizedAffinity 9.58004475
REMARK minimizedRMSD -1
REMARK  2 active torsions:
REMARK  status: ('A' for Active; 'I' for Inactive)
REMARK    1  A    between atoms: C1_2  and  C2_3 
REMARK    2  A    between atoms: C2_3  and  C3_4 
ROOT
ATOM      1  C3  UNL d   1      -4.969   4.228   3.575  0.00  0.00    -0.075 A 
ATOM      2  C4  UNL d   1      -3.819   4.981   3.851  0.00  0.00     0.002 A 
ATOM      3  C5  UNL d   1      -3.695   5.669   5.058  0.00  0.00     0.002 A 
ATOM      4  C6  UNL d   1      -4.720   5.620   6.000  0.00  0.00    -0.004 A 
ATOM      5  C7  UNL d   1      -5.875   4.888   5.730  0.00  0.00     0.002 A 
ATOM      6  C8  UNL d   1      -6.000   4.196   4.524  0.00  0.00     0.002 A 
ENDROOT
BRANCH   1   7
ATOM      7  C2  UNL d   1      -5.097   3.457   2.283  0.00  0.00     0.056 C 
BRANCH   7   8
ATOM      8  C1  UNL d   1      -3.761   2.976   1.709  0.00  0.00     0.007 C 
ATOM      9  C   UNL d   1      -3.914   1.862   0.682  0.00  0.00     0.009 C 
ENDBRANCH   7   8
ENDBRANCH   1   7
TORSDOF 2
ENDMDL
