MODEL 1
REMARK minimizedAffinity 0.140045941
REMARK minimizedRMSD -1
REMARK  2 active torsions:
REMARK  status: ('A' for Active; 'I' for Inactive)
REMARK    1  A    between atoms: C1_2  and  C2_3 
REMARK    2  A    between atoms: C2_3  and  C3_4 
ROOT
ATOM      1  C3  UNL d   1       3.006   0.500  -0.386  0.00  0.00    -0.075 A 
ATOM      2  C4  UNL d   1       2.096  -0.395  -0.967  0.00  0.00     0.002 A 
ATOM      3  C5  UNL d   1       1.892  -1.658  -0.410  0.00  0.00     0.002 A 
ATOM      4  C6  UNL d   1       2.601  -2.045   0.726  0.00  0.00    -0.004 A 
ATOM      5  C7  UNL d   1       3.519  -1.170   1.301  0.00  0.00     0.002 A 
ATOM      6  C8  UNL d   1       3.722   0.096   0.748  0.00  0.00     0.002 A 
ENDROOT
BRANCH   1   7
ATOM      7  C2  UNL d   1       3.209   1.879  -0.967  0.00  0.00     0.056 C 
BRANCH   7   8
ATOM      8  C1  UNL d   1       4.203   1.925  -2.132  0.00  0.00     0.007 C 
ATOM      9  C   UNL d   1       5.621   2.273  -1.699  0.00  0.00     0.009 C 
ENDBRANCH   7   8
ENDBRANCH   1   7
TORSDOF 2
ENDMDL
