MODEL 1
REMARK minimizedAffinity 0.614932179
REMARK minimizedRMSD -1
REMARK  2 active torsions:
REMARK  status: ('A' for Active; 'I' for Inactive)
REMARK    1  A    between atoms: C1_2  and  C2_3 
REMARK    2  A    between atoms: C2_3  and  C3_4 
ROOT
ATOM      1  C3  UNL d   1       3.501   3.052   4.346  0.00  0.00    -0.075 A 
ATOM      2  C4  UNL d   1       3.004   2.906   3.043  0.00  0.00     0.002 A 
ATOM      3  C5  UNL d   1       1.786   2.263   2.818  0.00  0.00     0.002 A 
ATOM      4  C6  UNL d   1       1.057   1.750   3.888  0.00  0.00    -0.004 A 
ATOM      5  C7  UNL d   1       1.550   1.874   5.186  0.00  0.00     0.002 A 
ATOM      6  C8  UNL d   1       2.766   2.521   5.414  0.00  0.00     0.002 A 
ENDROOT
BRANCH   1   7
ATOM      7  C2  UNL d   1       4.804   3.772   4.599  0.00  0.00     0.056 C 
BRANCH   7   8
ATOM      8  C1  UNL d   1       4.910   4.397   5.994  0.00  0.00     0.007 C 
ATOM      9  C   UNL d   1       5.641   5.733   5.999  0.00  0.00     0.009 C 
ENDBRANCH   7   8
ENDBRANCH   1   7
TORSDOF 2
ENDMDL
