MODEL 1
REMARK minimizedAffinity 10.4583015
REMARK minimizedRMSD -1
REMARK  2 active torsions:
REMARK  status: ('A' for Active; 'I' for Inactive)
REMARK    1  A    between atoms: C1_2  and  C2_3 
REMARK    2  A    between atoms: C2_3  and  C3_4 
ROOT
ATOM      1  C3  UNL d   1      -4.901   1.879  -1.082  0.00  0.00    -0.075 A 
ATOM      2  C4  UNL d   1      -5.624   1.697  -2.270  0.00  0.00     0.002 A 
ATOM      3  C5  UNL d   1      -5.991   2.793  -3.051  0.00  0.00     0.002 A 
ATOM      4  C6  UNL d   1      -5.649   4.083  -2.650  0.00  0.00    -0.004 A 
ATOM      5  C7  UNL d   1      -4.945   4.277  -1.463  0.00  0.00     0.002 A 
ATOM      6  C8  UNL d   1      -4.574   3.181  -0.682  0.00  0.00     0.002 A 
ENDROOT
BRANCH   1   7
ATOM      7  C2  UNL d   1      -4.476   0.694  -0.247  0.00  0.00     0.056 C 
BRANCH   7   8
ATOM      8  C1  UNL d   1      -3.805  -0.425  -1.050  0.00  0.00     0.007 C 
ATOM      9  C   UNL d   1      -2.433  -0.039  -1.588  0.00  0.00     0.009 C 
ENDBRANCH   7   8
ENDBRANCH   1   7
TORSDOF 2
ENDMDL
