MODEL 1
REMARK minimizedAffinity -3.0006156
REMARK minimizedRMSD -1
REMARK  0 active torsions:
REMARK  status: ('A' for Active; 'I' for Inactive)
ROOT
ATOM      1  C   UNL d   1      -0.284  -0.724  -0.664  0.00  0.00     0.172 C 
ATOM      2  N   UNL d   1      -0.109   0.330   0.307  0.00  0.00    -0.070 N 
ATOM      3  C1  UNL d   1       0.877   1.281   0.283  0.00  0.00    -0.004 A 
ATOM      4  C2  UNL d   1       0.699   2.100   1.377  0.00  0.00    -0.047 A 
ATOM      5  C3  UNL d   1      -0.432   1.625   2.083  0.00  0.00    -0.047 A 
ATOM      6  C4  UNL d   1      -0.912   0.529   1.398  0.00  0.00    -0.004 A 
ENDROOT
TORSDOF 0
ENDMDL
