MODEL 1
REMARK minimizedAffinity -1.81593287
REMARK minimizedRMSD -1
REMARK  0 active torsions:
REMARK  status: ('A' for Active; 'I' for Inactive)
ROOT
ATOM      1  C   UNL d   1       0.985   2.516   0.813  0.00  0.00     0.172 C 
ATOM      2  N   UNL d   1       0.477   1.218   0.437  0.00  0.00    -0.070 N 
ATOM      3  C1  UNL d   1      -0.500   0.521   1.096  0.00  0.00    -0.004 A 
ATOM      4  C2  UNL d   1      -0.698  -0.666   0.425  0.00  0.00    -0.047 A 
ATOM      5  C3  UNL d   1       0.192  -0.684  -0.675  0.00  0.00    -0.047 A 
ATOM      6  C4  UNL d   1       0.907   0.494  -0.644  0.00  0.00    -0.004 A 
ENDROOT
TORSDOF 0
ENDMDL
