MODEL 1
REMARK minimizedAffinity -3.87524509
REMARK minimizedRMSD -1
REMARK  0 active torsions:
REMARK  status: ('A' for Active; 'I' for Inactive)
ROOT
ATOM      1  C   UNL d   1       0.941   2.440   1.173  0.00  0.00     0.172 C 
ATOM      2  N   UNL d   1       0.688   1.131   0.621  0.00  0.00    -0.070 N 
ATOM      3  C1  UNL d   1       1.502   0.461  -0.253  0.00  0.00    -0.004 A 
ATOM      4  C2  UNL d   1       0.910  -0.750  -0.539  0.00  0.00    -0.047 A 
ATOM      5  C3  UNL d   1      -0.303  -0.810   0.187  0.00  0.00    -0.047 A 
ATOM      6  C4  UNL d   1      -0.416   0.367   0.897  0.00  0.00    -0.004 A 
ENDROOT
TORSDOF 0
ENDMDL
