MODEL 1
REMARK minimizedAffinity -2.13116813
REMARK minimizedRMSD -1
REMARK  0 active torsions:
REMARK  status: ('A' for Active; 'I' for Inactive)
ROOT
ATOM      1  C   UNL d   1       2.245   3.021  -2.501  0.00  0.00     0.172 C 
ATOM      2  N   UNL d   1       2.746   3.089  -3.854  0.00  0.00    -0.070 N 
ATOM      3  C1  UNL d   1       2.203   3.829  -4.870  0.00  0.00    -0.004 A 
ATOM      4  C2  UNL d   1       2.969   3.624  -5.997  0.00  0.00    -0.047 A 
ATOM      5  C3  UNL d   1       4.007   2.728  -5.647  0.00  0.00    -0.047 A 
ATOM      6  C4  UNL d   1       3.845   2.413  -4.314  0.00  0.00    -0.004 A 
ENDROOT
TORSDOF 0
ENDMDL
