MODEL 1
REMARK minimizedAffinity -2.58495259
REMARK minimizedRMSD -1
REMARK  0 active torsions:
REMARK  status: ('A' for Active; 'I' for Inactive)
ROOT
ATOM      1  C   UNL d   1      -0.586  -0.092  -1.186  0.00  0.00     0.172 C 
ATOM      2  N   UNL d   1      -0.048   0.743  -0.138  0.00  0.00    -0.070 N 
ATOM      3  C1  UNL d   1       0.733   1.852  -0.323  0.00  0.00    -0.004 A 
ATOM      4  C2  UNL d   1       1.039   2.365   0.919  0.00  0.00    -0.047 A 
ATOM      5  C3  UNL d   1       0.421   1.534   1.884  0.00  0.00    -0.047 A 
ATOM      6  C4  UNL d   1      -0.245   0.538   1.202  0.00  0.00    -0.004 A 
ENDROOT
TORSDOF 0
ENDMDL
