MODEL 1
REMARK minimizedAffinity -3.16157532
REMARK minimizedRMSD -1
REMARK  0 active torsions:
REMARK  status: ('A' for Active; 'I' for Inactive)
ROOT
ATOM      1  C   UNL d   1      -0.438  -0.700   1.593  0.00  0.00     0.172 C 
ATOM      2  N   UNL d   1       0.055   0.515   0.988  0.00  0.00    -0.070 N 
ATOM      3  C1  UNL d   1       0.505   0.640  -0.299  0.00  0.00    -0.004 A 
ATOM      4  C2  UNL d   1       0.886   1.951  -0.488  0.00  0.00    -0.047 A 
ATOM      5  C3  UNL d   1       0.657   2.637   0.729  0.00  0.00    -0.047 A 
ATOM      6  C4  UNL d   1       0.143   1.724   1.625  0.00  0.00    -0.004 A 
ENDROOT
TORSDOF 0
ENDMDL
