MODEL 1
REMARK minimizedAffinity -4.24858475
REMARK minimizedRMSD -1
REMARK  0 active torsions:
REMARK  status: ('A' for Active; 'I' for Inactive)
ROOT
ATOM      1  C   UNL d   1      -0.118  -0.972  -0.701  0.00  0.00     0.172 C 
ATOM      2  N   UNL d   1       0.323   0.215  -0.007  0.00  0.00    -0.070 N 
ATOM      3  C1  UNL d   1      -0.336   0.828   1.025  0.00  0.00    -0.004 A 
ATOM      4  C2  UNL d   1       0.407   1.922   1.410  0.00  0.00    -0.047 A 
ATOM      5  C3  UNL d   1       1.552   1.970   0.580  0.00  0.00    -0.047 A 
ATOM      6  C4  UNL d   1       1.474   0.902  -0.288  0.00  0.00    -0.004 A 
ENDROOT
TORSDOF 0
ENDMDL
