MODEL 1
REMARK minimizedAffinity -3.01420999
REMARK minimizedRMSD -1
REMARK  0 active torsions:
REMARK  status: ('A' for Active; 'I' for Inactive)
ROOT
ATOM      1  C   UNL d   1      -4.489   5.999  -2.248  0.00  0.00     0.172 C 
ATOM      2  N   UNL d   1      -3.627   5.445  -3.266  0.00  0.00    -0.070 N 
ATOM      3  C1  UNL d   1      -4.012   4.574  -4.251  0.00  0.00    -0.004 A 
ATOM      4  C2  UNL d   1      -2.903   4.286  -5.016  0.00  0.00    -0.047 A 
ATOM      5  C3  UNL d   1      -1.814   5.008  -4.473  0.00  0.00    -0.047 A 
ATOM      6  C4  UNL d   1      -2.290   5.717  -3.390  0.00  0.00    -0.004 A 
ENDROOT
TORSDOF 0
ENDMDL
