MODEL 1
REMARK minimizedAffinity -3.32496071
REMARK minimizedRMSD -1
REMARK  0 active torsions:
REMARK  status: ('A' for Active; 'I' for Inactive)
ROOT
ATOM      1  C   UNL d   1      -0.647  -0.709  -0.359  0.00  0.00     0.172 C 
ATOM      2  N   UNL d   1      -0.080   0.227   0.584  0.00  0.00    -0.070 N 
ATOM      3  C1  UNL d   1      -0.575   0.504   1.830  0.00  0.00    -0.004 A 
ATOM      4  C2  UNL d   1       0.247   1.445   2.411  0.00  0.00    -0.047 A 
ATOM      5  C3  UNL d   1       1.272   1.744   1.482  0.00  0.00    -0.047 A 
ATOM      6  C4  UNL d   1       1.045   0.976   0.360  0.00  0.00    -0.004 A 
ENDROOT
TORSDOF 0
ENDMDL
