MODEL 1
REMARK minimizedAffinity -4.03382969
REMARK minimizedRMSD -1
REMARK  0 active torsions:
REMARK  status: ('A' for Active; 'I' for Inactive)
ROOT
ATOM      1  C   UNL d   1      -0.127  -0.641  -0.131  0.00  0.00     0.172 C 
ATOM      2  N   UNL d   1       0.259   0.497   0.671  0.00  0.00    -0.070 N 
ATOM      3  C1  UNL d   1       0.025   0.645   2.012  0.00  0.00    -0.004 A 
ATOM      4  C2  UNL d   1       0.546   1.860   2.399  0.00  0.00    -0.047 A 
ATOM      5  C3  UNL d   1       1.112   2.464   1.251  0.00  0.00    -0.047 A 
ATOM      6  C4  UNL d   1       0.921   1.598   0.195  0.00  0.00    -0.004 A 
ENDROOT
TORSDOF 0
ENDMDL
