MODEL 1
REMARK minimizedAffinity -2.78187418
REMARK minimizedRMSD -1
REMARK  0 active torsions:
REMARK  status: ('A' for Active; 'I' for Inactive)
ROOT
ATOM      1  C   UNL d   1      -5.227  -2.262  -1.175  0.00  0.00     0.172 C 
ATOM      2  N   UNL d   1      -3.916  -1.977  -1.708  0.00  0.00    -0.070 N 
ATOM      3  C1  UNL d   1      -2.727  -2.200  -1.066  0.00  0.00    -0.004 A 
ATOM      4  C2  UNL d   1      -1.711  -1.798  -1.906  0.00  0.00    -0.047 A 
ATOM      5  C3  UNL d   1      -2.310  -1.315  -3.094  0.00  0.00    -0.047 A 
ATOM      6  C4  UNL d   1      -3.676  -1.438  -2.944  0.00  0.00    -0.004 A 
ENDROOT
TORSDOF 0
ENDMDL
