MODEL 1
REMARK minimizedAffinity -1.93504441
REMARK minimizedRMSD -1
REMARK  0 active torsions:
REMARK  status: ('A' for Active; 'I' for Inactive)
ROOT
ATOM      1  C   UNL d   1       0.698   1.734   1.957  0.00  0.00     0.172 C 
ATOM      2  N   UNL d   1       0.380   0.540   1.209  0.00  0.00    -0.070 N 
ATOM      3  C1  UNL d   1      -0.665  -0.307   1.465  0.00  0.00    -0.004 A 
ATOM      4  C2  UNL d   1      -0.625  -1.320   0.532  0.00  0.00    -0.047 A 
ATOM      5  C3  UNL d   1       0.483  -1.074  -0.313  0.00  0.00    -0.047 A 
ATOM      6  C4  UNL d   1       1.087   0.084   0.129  0.00  0.00    -0.004 A 
ENDROOT
TORSDOF 0
ENDMDL
