MODEL 1
REMARK minimizedAffinity -2.54256463
REMARK minimizedRMSD -1
REMARK  0 active torsions:
REMARK  status: ('A' for Active; 'I' for Inactive)
ROOT
ATOM      1  C   UNL d   1      -0.351  -1.205  -0.604  0.00  0.00     0.172 C 
ATOM      2  N   UNL d   1       0.053  -0.090   0.221  0.00  0.00    -0.070 N 
ATOM      3  C1  UNL d   1      -0.568   0.318   1.371  0.00  0.00    -0.004 A 
ATOM      4  C2  UNL d   1       0.120   1.410   1.857  0.00  0.00    -0.047 A 
ATOM      5  C3  UNL d   1       1.190   1.667   0.968  0.00  0.00    -0.047 A 
ATOM      6  C4  UNL d   1       1.125   0.724  -0.036  0.00  0.00    -0.004 A 
ENDROOT
TORSDOF 0
ENDMDL
