MODEL 1
REMARK minimizedAffinity -4.04502058
REMARK minimizedRMSD -1
REMARK  0 active torsions:
REMARK  status: ('A' for Active; 'I' for Inactive)
ROOT
ATOM      1  C   UNL d   1       0.090   1.397   1.476  0.00  0.00     0.172 C 
ATOM      2  N   UNL d   1       1.364   1.019   0.911  0.00  0.00    -0.070 N 
ATOM      3  C1  UNL d   1       2.576   1.565   1.240  0.00  0.00    -0.004 A 
ATOM      4  C2  UNL d   1       3.542   0.935   0.485  0.00  0.00    -0.047 A 
ATOM      5  C3  UNL d   1       2.888  -0.023  -0.326  0.00  0.00    -0.047 A 
ATOM      6  C4  UNL d   1       1.540   0.051  -0.042  0.00  0.00    -0.004 A 
ENDROOT
TORSDOF 0
ENDMDL
