MODEL 1
REMARK minimizedAffinity -3.50177169
REMARK minimizedRMSD -1
REMARK  0 active torsions:
REMARK  status: ('A' for Active; 'I' for Inactive)
ROOT
ATOM      1  C   UNL d   1       0.597   2.875   0.799  0.00  0.00     0.172 C 
ATOM      2  N   UNL d   1       0.294   1.467   0.899  0.00  0.00    -0.070 N 
ATOM      3  C1  UNL d   1      -0.401   0.870   1.917  0.00  0.00    -0.004 A 
ATOM      4  C2  UNL d   1      -0.476  -0.479   1.642  0.00  0.00    -0.047 A 
ATOM      5  C3  UNL d   1       0.198  -0.700   0.418  0.00  0.00    -0.047 A 
ATOM      6  C4  UNL d   1       0.665   0.521  -0.020  0.00  0.00    -0.004 A 
ENDROOT
TORSDOF 0
ENDMDL
