MODEL 1
REMARK minimizedAffinity -3.0335052
REMARK minimizedRMSD -1
REMARK  0 active torsions:
REMARK  status: ('A' for Active; 'I' for Inactive)
ROOT
ATOM      1  C   UNL d   1      -0.383  -0.580   0.012  0.00  0.00     0.172 C 
ATOM      2  N   UNL d   1      -1.285  -0.956  -1.051  0.00  0.00    -0.070 N 
ATOM      3  C1  UNL d   1      -2.310  -1.858  -0.947  0.00  0.00    -0.004 A 
ATOM      4  C2  UNL d   1      -2.930  -1.936  -2.175  0.00  0.00    -0.047 A 
ATOM      5  C3  UNL d   1      -2.254  -1.050  -3.048  0.00  0.00    -0.047 A 
ATOM      6  C4  UNL d   1      -1.240  -0.457  -2.326  0.00  0.00    -0.004 A 
ENDROOT
TORSDOF 0
ENDMDL
