MODEL 1
REMARK minimizedAffinity -4.13664103
REMARK minimizedRMSD -1
REMARK  0 active torsions:
REMARK  status: ('A' for Active; 'I' for Inactive)
ROOT
ATOM      1  C   UNL d   1      -0.136  -0.451  -0.684  0.00  0.00     0.172 C 
ATOM      2  N   UNL d   1       0.301   0.627   0.173  0.00  0.00    -0.070 N 
ATOM      3  C1  UNL d   1       1.375   1.444  -0.057  0.00  0.00    -0.004 A 
ATOM      4  C2  UNL d   1       1.455   2.339   0.988  0.00  0.00    -0.047 A 
ATOM      5  C3  UNL d   1       0.392   2.050   1.876  0.00  0.00    -0.047 A 
ATOM      6  C4  UNL d   1      -0.306   0.985   1.347  0.00  0.00    -0.004 A 
ENDROOT
TORSDOF 0
ENDMDL
