MODEL 1
REMARK minimizedAffinity -2.94153953
REMARK minimizedRMSD -1
REMARK  0 active torsions:
REMARK  status: ('A' for Active; 'I' for Inactive)
ROOT
ATOM      1  C   UNL d   1       1.253   2.426   1.379  0.00  0.00     0.172 C 
ATOM      2  N   UNL d   1       0.802   1.174   0.820  0.00  0.00    -0.070 N 
ATOM      3  C1  UNL d   1      -0.296   0.466   1.230  0.00  0.00    -0.004 A 
ATOM      4  C2  UNL d   1      -0.385  -0.666   0.449  0.00  0.00    -0.047 A 
ATOM      5  C3  UNL d   1       0.698  -0.638  -0.462  0.00  0.00    -0.047 A 
ATOM      6  C4  UNL d   1       1.416   0.512  -0.210  0.00  0.00    -0.004 A 
ENDROOT
TORSDOF 0
ENDMDL
