MODEL 1
REMARK minimizedAffinity 1.79818022
REMARK minimizedRMSD -1
REMARK  3 active torsions:
REMARK  status: ('A' for Active; 'I' for Inactive)
REMARK    1  A    between atoms: C3'_2  and  C2'_3 
REMARK    2  A    between atoms: C2'_3  and  C1'_4 
REMARK    3  A    between atoms: C1'_4  and  C1_5 
ROOT
ATOM      1  C1  N4B d   1      -0.206   3.119  -1.562  0.00  0.00    -0.075 A 
ATOM      2  C2  N4B d   1       0.319   4.422  -1.423  0.00  0.00     0.002 A 
ATOM      3  C3  N4B d   1       0.643   4.903  -0.179  0.00  0.00     0.002 A 
ATOM      4  C4  N4B d   1       0.434   4.110   0.939  0.00  0.00    -0.004 A 
ATOM      5  C5  N4B d   1      -0.049   2.842   0.795  0.00  0.00     0.002 A 
ATOM      6  C6  N4B d   1      -0.376   2.344  -0.451  0.00  0.00     0.002 A 
ENDROOT
BRANCH   1   7
ATOM      7  C1' N4B d   1      -0.656   2.581  -2.893  0.00  0.00     0.057 C 
BRANCH   7   8
ATOM      8  C2' N4B d   1      -2.178   2.643  -2.970  0.00  0.00     0.009 C 
BRANCH   8   9
ATOM      9  C3' N4B d   1      -2.801   1.260  -3.037  0.00  0.00     0.004 C 
ATOM     10  C4' N4B d   1      -3.110   0.695  -1.682  0.00  0.00     0.003 C 
ENDBRANCH   8   9
ENDBRANCH   7   8
ENDBRANCH   1   7
TORSDOF 3
ENDMDL
