MODEL 1
REMARK minimizedAffinity 4.41144657
REMARK minimizedRMSD -1
REMARK  3 active torsions:
REMARK  status: ('A' for Active; 'I' for Inactive)
REMARK    1  A    between atoms: C3'_2  and  C2'_3 
REMARK    2  A    between atoms: C2'_3  and  C1'_4 
REMARK    3  A    between atoms: C1'_4  and  C1_5 
ROOT
ATOM      1  C1  N4B d   1      -0.719   2.166   0.952  0.00  0.00    -0.075 A 
ATOM      2  C2  N4B d   1      -1.806   1.737   1.745  0.00  0.00     0.002 A 
ATOM      3  C3  N4B d   1      -1.678   1.677   3.111  0.00  0.00     0.002 A 
ATOM      4  C4  N4B d   1      -0.472   2.023   3.703  0.00  0.00    -0.004 A 
ATOM      5  C5  N4B d   1       0.564   2.461   2.932  0.00  0.00     0.002 A 
ATOM      6  C6  N4B d   1       0.448   2.530   1.558  0.00  0.00     0.002 A 
ENDROOT
BRANCH   1   7
ATOM      7  C1' N4B d   1      -0.784   2.165  -0.551  0.00  0.00     0.057 C 
BRANCH   7   8
ATOM      8  C2' N4B d   1       0.332   3.050  -1.100  0.00  0.00     0.009 C 
BRANCH   8   9
ATOM      9  C3' N4B d   1      -0.080   3.752  -2.383  0.00  0.00     0.004 C 
ATOM     10  C4' N4B d   1      -1.227   3.076  -3.073  0.00  0.00     0.003 C 
ENDBRANCH   8   9
ENDBRANCH   7   8
ENDBRANCH   1   7
TORSDOF 3
ENDMDL
