MODEL 1
REMARK minimizedAffinity 7.65119171
REMARK minimizedRMSD -1
REMARK  3 active torsions:
REMARK  status: ('A' for Active; 'I' for Inactive)
REMARK    1  A    between atoms: C3'_2  and  C2'_3 
REMARK    2  A    between atoms: C2'_3  and  C1'_4 
REMARK    3  A    between atoms: C1'_4  and  C1_5 
ROOT
ATOM      1  C1  N4B d   1      -2.754   5.830   0.021  0.00  0.00    -0.075 A 
ATOM      2  C2  N4B d   1      -3.417   5.905  -1.223  0.00  0.00     0.002 A 
ATOM      3  C3  N4B d   1      -4.787   5.999  -1.266  0.00  0.00     0.002 A 
ATOM      4  C4  N4B d   1      -5.512   6.000  -0.084  0.00  0.00    -0.004 A 
ATOM      5  C5  N4B d   1      -4.861   5.953   1.114  0.00  0.00     0.002 A 
ATOM      6  C6  N4B d   1      -3.485   5.863   1.173  0.00  0.00     0.002 A 
ENDROOT
BRANCH   1   7
ATOM      7  C1' N4B d   1      -1.264   5.640   0.117  0.00  0.00     0.057 C 
BRANCH   7   8
ATOM      8  C2' N4B d   1      -0.845   4.501  -0.807  0.00  0.00     0.009 C 
BRANCH   8   9
ATOM      9  C3' N4B d   1       0.417   3.809  -0.319  0.00  0.00     0.004 C 
ATOM     10  C4' N4B d   1       0.193   2.367   0.026  0.00  0.00     0.003 C 
ENDBRANCH   8   9
ENDBRANCH   7   8
ENDBRANCH   1   7
TORSDOF 3
ENDMDL
