MODEL 1
REMARK minimizedAffinity 7.95419836
REMARK minimizedRMSD -1
REMARK  3 active torsions:
REMARK  status: ('A' for Active; 'I' for Inactive)
REMARK    1  A    between atoms: C3'_2  and  C2'_3 
REMARK    2  A    between atoms: C2'_3  and  C1'_4 
REMARK    3  A    between atoms: C1'_4  and  C1_5 
ROOT
ATOM      1  C1  N4B d   1       1.874  -3.598  -3.514  0.00  0.00    -0.075 A 
ATOM      2  C2  N4B d   1       1.293  -4.189  -4.658  0.00  0.00     0.002 A 
ATOM      3  C3  N4B d   1       1.457  -3.606  -5.890  0.00  0.00     0.002 A 
ATOM      4  C4  N4B d   1       2.178  -2.426  -6.000  0.00  0.00    -0.004 A 
ATOM      5  C5  N4B d   1       2.757  -1.876  -4.894  0.00  0.00     0.002 A 
ATOM      6  C6  N4B d   1       2.604  -2.453  -3.650  0.00  0.00     0.002 A 
ENDROOT
BRANCH   1   7
ATOM      7  C1' N4B d   1       1.650  -4.153  -2.133  0.00  0.00     0.057 C 
BRANCH   7   8
ATOM      8  C2' N4B d   1       1.061  -3.061  -1.245  0.00  0.00     0.009 C 
BRANCH   8   9
ATOM      9  C3' N4B d   1       1.910  -2.815  -0.009  0.00  0.00     0.004 C 
ATOM     10  C4' N4B d   1       1.542  -1.549   0.705  0.00  0.00     0.003 C 
ENDBRANCH   8   9
ENDBRANCH   7   8
ENDBRANCH   1   7
TORSDOF 3
ENDMDL
