MODEL 1
REMARK minimizedAffinity 14.6958141
REMARK minimizedRMSD -1
REMARK  3 active torsions:
REMARK  status: ('A' for Active; 'I' for Inactive)
REMARK    1  A    between atoms: C3'_2  and  C2'_3 
REMARK    2  A    between atoms: C2'_3  and  C1'_4 
REMARK    3  A    between atoms: C1'_4  and  C1_5 
ROOT
ATOM      1  C1  N4B d   1       0.626   3.087   0.596  0.00  0.00    -0.075 A 
ATOM      2  C2  N4B d   1       1.449   3.543   1.649  0.00  0.00     0.002 A 
ATOM      3  C3  N4B d   1       1.340   2.982   2.898  0.00  0.00     0.002 A 
ATOM      4  C4  N4B d   1       0.406   1.982   3.121  0.00  0.00    -0.004 A 
ATOM      5  C5  N4B d   1      -0.368   1.530   2.092  0.00  0.00     0.002 A 
ATOM      6  C6  N4B d   1      -0.266   2.082   0.831  0.00  0.00     0.002 A 
ENDROOT
BRANCH   1   7
ATOM      7  C1' N4B d   1       0.649   3.729  -0.765  0.00  0.00     0.057 C 
BRANCH   7   8
ATOM      8  C2' N4B d   1      -0.687   3.480  -1.458  0.00  0.00     0.009 C 
BRANCH   8   9
ATOM      9  C3' N4B d   1      -0.634   3.831  -2.935  0.00  0.00     0.004 C 
ATOM     10  C4' N4B d   1      -1.612   3.043  -3.754  0.00  0.00     0.003 C 
ENDBRANCH   8   9
ENDBRANCH   7   8
ENDBRANCH   1   7
TORSDOF 3
ENDMDL
