MODEL 1
REMARK minimizedAffinity 4.42668056
REMARK minimizedRMSD -1
REMARK  3 active torsions:
REMARK  status: ('A' for Active; 'I' for Inactive)
REMARK    1  A    between atoms: C3'_2  and  C2'_3 
REMARK    2  A    between atoms: C2'_3  and  C1'_4 
REMARK    3  A    between atoms: C1'_4  and  C1_5 
ROOT
ATOM      1  C1  N4B d   1      -0.966   0.304   2.536  0.00  0.00    -0.075 A 
ATOM      2  C2  N4B d   1       0.118   1.162   2.248  0.00  0.00     0.002 A 
ATOM      3  C3  N4B d   1      -0.103   2.356   1.606  0.00  0.00     0.002 A 
ATOM      4  C4  N4B d   1      -1.392   2.703   1.228  0.00  0.00    -0.004 A 
ATOM      5  C5  N4B d   1      -2.436   1.880   1.532  0.00  0.00     0.002 A 
ATOM      6  C6  N4B d   1      -2.229   0.679   2.180  0.00  0.00     0.002 A 
ENDROOT
BRANCH   1   7
ATOM      7  C1' N4B d   1      -0.763  -1.050   3.159  0.00  0.00     0.057 C 
BRANCH   7   8
ATOM      8  C2' N4B d   1      -2.048  -1.475   3.862  0.00  0.00     0.009 C 
BRANCH   8   9
ATOM      9  C3' N4B d   1      -1.832  -2.680   4.761  0.00  0.00     0.004 C 
ATOM     10  C4' N4B d   1      -0.822  -3.642   4.210  0.00  0.00     0.003 C 
ENDBRANCH   8   9
ENDBRANCH   7   8
ENDBRANCH   1   7
TORSDOF 3
ENDMDL
