MODEL 1
REMARK minimizedAffinity -2.45774889
REMARK minimizedRMSD -1
REMARK  3 active torsions:
REMARK  status: ('A' for Active; 'I' for Inactive)
REMARK    1  A    between atoms: C3'_2  and  C2'_3 
REMARK    2  A    between atoms: C2'_3  and  C1'_4 
REMARK    3  A    between atoms: C1'_4  and  C1_5 
ROOT
ATOM      1  C1  N4B d   1      -0.948   1.511   1.898  0.00  0.00    -0.075 A 
ATOM      2  C2  N4B d   1      -0.666   2.833   2.308  0.00  0.00     0.002 A 
ATOM      3  C3  N4B d   1      -0.129   3.729   1.417  0.00  0.00     0.002 A 
ATOM      4  C4  N4B d   1       0.152   3.323   0.121  0.00  0.00    -0.004 A 
ATOM      5  C5  N4B d   1      -0.147   2.052  -0.275  0.00  0.00     0.002 A 
ATOM      6  C6  N4B d   1      -0.691   1.142   0.609  0.00  0.00     0.002 A 
ENDROOT
BRANCH   1   7
ATOM      7  C1' N4B d   1      -1.455   0.472   2.859  0.00  0.00     0.057 C 
BRANCH   7   8
ATOM      8  C2' N4B d   1      -0.491  -0.710   2.874  0.00  0.00     0.009 C 
BRANCH   8   9
ATOM      9  C3' N4B d   1      -1.025  -1.869   3.698  0.00  0.00     0.004 C 
ATOM     10  C4' N4B d   1      -0.811  -3.199   3.037  0.00  0.00     0.003 C 
ENDBRANCH   8   9
ENDBRANCH   7   8
ENDBRANCH   1   7
TORSDOF 3
ENDMDL
