MODEL 1
REMARK minimizedAffinity 3.27095866
REMARK minimizedRMSD -1
REMARK  3 active torsions:
REMARK  status: ('A' for Active; 'I' for Inactive)
REMARK    1  A    between atoms: C3'_2  and  C2'_3 
REMARK    2  A    between atoms: C2'_3  and  C1'_4 
REMARK    3  A    between atoms: C1'_4  and  C1_5 
ROOT
ATOM      1  C1  N4B d   1      -1.469  -1.132   3.361  0.00  0.00    -0.075 A 
ATOM      2  C2  N4B d   1      -0.289  -1.480   2.666  0.00  0.00     0.002 A 
ATOM      3  C3  N4B d   1       0.120  -2.790   2.622  0.00  0.00     0.002 A 
ATOM      4  C4  N4B d   1      -0.619  -3.763   3.277  0.00  0.00    -0.004 A 
ATOM      5  C5  N4B d   1      -1.771  -3.422   3.925  0.00  0.00     0.002 A 
ATOM      6  C6  N4B d   1      -2.197  -2.110   3.974  0.00  0.00     0.002 A 
ENDROOT
BRANCH   1   7
ATOM      7  C1' N4B d   1      -1.910   0.298   3.510  0.00  0.00     0.057 C 
BRANCH   7   8
ATOM      8  C2' N4B d   1      -1.204   1.152   2.461  0.00  0.00     0.009 C 
BRANCH   8   9
ATOM      9  C3' N4B d   1      -0.314   2.208   3.093  0.00  0.00     0.004 C 
ATOM     10  C4' N4B d   1       0.317   3.117   2.082  0.00  0.00     0.003 C 
ENDBRANCH   8   9
ENDBRANCH   7   8
ENDBRANCH   1   7
TORSDOF 3
ENDMDL
