MODEL 1
REMARK minimizedAffinity 2.54084229
REMARK minimizedRMSD -1
REMARK  3 active torsions:
REMARK  status: ('A' for Active; 'I' for Inactive)
REMARK    1  A    between atoms: C3'_2  and  C2'_3 
REMARK    2  A    between atoms: C2'_3  and  C1'_4 
REMARK    3  A    between atoms: C1'_4  and  C1_5 
ROOT
ATOM      1  C1  N4B d   1      -1.520   0.032   3.247  0.00  0.00    -0.075 A 
ATOM      2  C2  N4B d   1      -2.558  -0.629   3.941  0.00  0.00     0.002 A 
ATOM      3  C3  N4B d   1      -2.307  -1.819   4.580  0.00  0.00     0.002 A 
ATOM      4  C4  N4B d   1      -1.038  -2.374   4.523  0.00  0.00    -0.004 A 
ATOM      5  C5  N4B d   1      -0.035  -1.717   3.872  0.00  0.00     0.002 A 
ATOM      6  C6  N4B d   1      -0.271  -0.518   3.229  0.00  0.00     0.002 A 
ENDROOT
BRANCH   1   7
ATOM      7  C1' N4B d   1      -1.766   1.291   2.461  0.00  0.00     0.057 C 
BRANCH   7   8
ATOM      8  C2' N4B d   1      -0.637   1.481   1.454  0.00  0.00     0.009 C 
BRANCH   8   9
ATOM      9  C3' N4B d   1       0.011   2.850   1.577  0.00  0.00     0.004 C 
ATOM     10  C4' N4B d   1       0.121   3.561   0.262  0.00  0.00     0.003 C 
ENDBRANCH   8   9
ENDBRANCH   7   8
ENDBRANCH   1   7
TORSDOF 3
ENDMDL
