MODEL 1
REMARK minimizedAffinity 2.07298446
REMARK minimizedRMSD -1
REMARK  1 active torsions:
REMARK  status: ('A' for Active; 'I' for Inactive)
REMARK    1  A    between atoms: C1_2  and  C2_3 
ROOT
ATOM      1  C2  UNL d   1      -0.870  -0.474   1.751  0.00  0.00    -0.077 A 
ATOM      2  C3  UNL d   1      -1.777  -1.250   1.016  0.00  0.00     0.002 A 
ATOM      3  C4  UNL d   1      -2.570  -0.665   0.028  0.00  0.00     0.002 A 
ATOM      4  C5  UNL d   1      -2.461   0.699  -0.238  0.00  0.00    -0.004 A 
ATOM      5  C6  UNL d   1      -1.564   1.480   0.488  0.00  0.00     0.002 A 
ATOM      6  C7  UNL d   1      -0.771   0.897   1.478  0.00  0.00     0.002 A 
ENDROOT
BRANCH   1   7
ATOM      7  C1  UNL d   1       0.021  -1.113   2.783  0.00  0.00     0.055 C 
ATOM      8  C   UNL d   1       1.440  -1.285   2.260  0.00  0.00     0.019 C 
ENDBRANCH   1   7
TORSDOF 1
ENDMDL
