MODEL 1
REMARK minimizedAffinity 5.23790121
REMARK minimizedRMSD -1
REMARK  1 active torsions:
REMARK  status: ('A' for Active; 'I' for Inactive)
REMARK    1  A    between atoms: C1_2  and  C2_3 
ROOT
ATOM      1  C2  UNL d   1       0.706  -0.752   2.914  0.00  0.00    -0.077 A 
ATOM      2  C3  UNL d   1       1.171  -0.231   1.699  0.00  0.00     0.002 A 
ATOM      3  C4  UNL d   1       0.270   0.232   0.738  0.00  0.00     0.002 A 
ATOM      4  C5  UNL d   1      -1.101   0.182   0.985  0.00  0.00    -0.004 A 
ATOM      5  C6  UNL d   1      -1.573  -0.337   2.190  0.00  0.00     0.002 A 
ATOM      6  C7  UNL d   1      -0.673  -0.801   3.151  0.00  0.00     0.002 A 
ENDROOT
BRANCH   1   7
ATOM      7  C1  UNL d   1       1.679  -1.207   3.972  0.00  0.00     0.055 C 
ATOM      8  C   UNL d   1       0.975  -1.988   5.071  0.00  0.00     0.019 C 
ENDBRANCH   1   7
TORSDOF 1
ENDMDL
