MODEL 1
REMARK minimizedAffinity 4.94264841
REMARK minimizedRMSD -1
REMARK  1 active torsions:
REMARK  status: ('A' for Active; 'I' for Inactive)
REMARK    1  A    between atoms: C1_2  and  C2_3 
ROOT
ATOM      1  C2  UNL d   1       1.229  -1.411   3.481  0.00  0.00    -0.077 A 
ATOM      2  C3  UNL d   1       1.887  -0.667   4.471  0.00  0.00     0.002 A 
ATOM      3  C4  UNL d   1       2.144  -1.230   5.723  0.00  0.00     0.002 A 
ATOM      4  C5  UNL d   1       1.749  -2.538   5.995  0.00  0.00    -0.004 A 
ATOM      5  C6  UNL d   1       1.092  -3.284   5.018  0.00  0.00     0.002 A 
ATOM      6  C7  UNL d   1       0.834  -2.724   3.766  0.00  0.00     0.002 A 
ENDROOT
BRANCH   1   7
ATOM      7  C1  UNL d   1       0.996  -0.823   2.114  0.00  0.00     0.055 C 
ATOM      8  C   UNL d   1      -0.365  -0.148   2.027  0.00  0.00     0.019 C 
ENDBRANCH   1   7
TORSDOF 1
ENDMDL
