MODEL 1
REMARK minimizedAffinity -2.13369322
REMARK minimizedRMSD -1
REMARK  1 active torsions:
REMARK  status: ('A' for Active; 'I' for Inactive)
REMARK    1  A    between atoms: C1_2  and  C2_3 
ROOT
ATOM      1  C2  UNL d   1       0.813  -1.403   3.807  0.00  0.00    -0.077 A 
ATOM      2  C3  UNL d   1       1.721  -1.274   2.747  0.00  0.00     0.002 A 
ATOM      3  C4  UNL d   1       1.361  -0.580   1.590  0.00  0.00     0.002 A 
ATOM      4  C5  UNL d   1       0.096  -0.006   1.484  0.00  0.00    -0.004 A 
ATOM      5  C6  UNL d   1      -0.815  -0.131   2.533  0.00  0.00     0.002 A 
ATOM      6  C7  UNL d   1      -0.458  -0.825   3.689  0.00  0.00     0.002 A 
ENDROOT
BRANCH   1   7
ATOM      7  C1  UNL d   1       1.216  -2.108   5.076  0.00  0.00     0.055 C 
ATOM      8  C   UNL d   1       2.649  -1.775   5.463  0.00  0.00     0.019 C 
ENDBRANCH   1   7
TORSDOF 1
ENDMDL
