MODEL 1
REMARK minimizedAffinity 5.03574562
REMARK minimizedRMSD -1
REMARK  1 active torsions:
REMARK  status: ('A' for Active; 'I' for Inactive)
REMARK    1  A    between atoms: C1_2  and  C2_3 
ROOT
ATOM      1  C2  UNL d   1       5.198   5.419   1.666  0.00  0.00    -0.077 A 
ATOM      2  C3  UNL d   1       5.722   5.978   0.492  0.00  0.00     0.002 A 
ATOM      3  C4  UNL d   1       4.964   5.997  -0.681  0.00  0.00     0.002 A 
ATOM      4  C5  UNL d   1       3.678   5.461  -0.690  0.00  0.00    -0.004 A 
ATOM      5  C6  UNL d   1       3.149   4.901   0.472  0.00  0.00     0.002 A 
ATOM      6  C7  UNL d   1       3.905   4.880   1.645  0.00  0.00     0.002 A 
ENDROOT
BRANCH   1   7
ATOM      7  C1  UNL d   1       5.994   5.442   2.944  0.00  0.00     0.055 C 
ATOM      8  C   UNL d   1       5.868   4.127   3.699  0.00  0.00     0.019 C 
ENDBRANCH   1   7
TORSDOF 1
ENDMDL
