MODEL 1
REMARK minimizedAffinity 0.237262934
REMARK minimizedRMSD -1
REMARK  1 active torsions:
REMARK  status: ('A' for Active; 'I' for Inactive)
REMARK    1  A    between atoms: C1_2  and  C2_3 
ROOT
ATOM      1  C2  UNL d   1      -2.008   0.730  -4.494  0.00  0.00    -0.077 A 
ATOM      2  C3  UNL d   1      -2.388   0.518  -3.161  0.00  0.00     0.002 A 
ATOM      3  C4  UNL d   1      -3.691   0.121  -2.853  0.00  0.00     0.002 A 
ATOM      4  C5  UNL d   1      -4.622  -0.071  -3.871  0.00  0.00    -0.004 A 
ATOM      5  C6  UNL d   1      -4.255   0.139  -5.199  0.00  0.00     0.002 A 
ATOM      6  C7  UNL d   1      -2.953   0.537  -5.510  0.00  0.00     0.002 A 
ENDROOT
BRANCH   1   7
ATOM      7  C1  UNL d   1      -0.591   1.110  -4.833  0.00  0.00     0.055 C 
ATOM      8  C   UNL d   1       0.157  -0.052  -5.471  0.00  0.00     0.019 C 
ENDBRANCH   1   7
TORSDOF 1
ENDMDL
