MODEL 1
REMARK minimizedAffinity -0.664091468
REMARK minimizedRMSD -1
REMARK  1 active torsions:
REMARK  status: ('A' for Active; 'I' for Inactive)
REMARK    1  A    between atoms: C1_2  and  C2_3 
ROOT
ATOM      1  C2  UNL d   1      -0.152  -0.063   2.042  0.00  0.00    -0.077 A 
ATOM      2  C3  UNL d   1       1.239  -0.122   1.876  0.00  0.00     0.002 A 
ATOM      3  C4  UNL d   1       2.019  -0.905   2.730  0.00  0.00     0.002 A 
ATOM      4  C5  UNL d   1       1.417  -1.636   3.752  0.00  0.00    -0.004 A 
ATOM      5  C6  UNL d   1       0.035  -1.582   3.926  0.00  0.00     0.002 A 
ATOM      6  C7  UNL d   1      -0.746  -0.800   3.074  0.00  0.00     0.002 A 
ENDROOT
BRANCH   1   7
ATOM      7  C1  UNL d   1      -1.000   0.742   1.092  0.00  0.00     0.055 C 
ATOM      8  C   UNL d   1      -1.639  -0.146   0.033  0.00  0.00     0.019 C 
ENDBRANCH   1   7
TORSDOF 1
ENDMDL
