MODEL 1
REMARK minimizedAffinity 2.36193252
REMARK minimizedRMSD -1
REMARK  1 active torsions:
REMARK  status: ('A' for Active; 'I' for Inactive)
REMARK    1  A    between atoms: C1_2  and  C2_3 
ROOT
ATOM      1  C2  UNL d   1       0.471  -0.142   2.807  0.00  0.00    -0.077 A 
ATOM      2  C3  UNL d   1       1.147  -1.317   2.451  0.00  0.00     0.002 A 
ATOM      3  C4  UNL d   1       1.806  -2.074   3.421  0.00  0.00     0.002 A 
ATOM      4  C5  UNL d   1       1.793  -1.666   4.753  0.00  0.00    -0.004 A 
ATOM      5  C6  UNL d   1       1.125  -0.497   5.117  0.00  0.00     0.002 A 
ATOM      6  C7  UNL d   1       0.466   0.261   4.148  0.00  0.00     0.002 A 
ENDROOT
BRANCH   1   7
ATOM      7  C1  UNL d   1      -0.283   0.649   1.769  0.00  0.00     0.055 C 
ATOM      8  C   UNL d   1      -1.482  -0.127   1.244  0.00  0.00     0.019 C 
ENDBRANCH   1   7
TORSDOF 1
ENDMDL
