MODEL 1
REMARK minimizedAffinity 6.79871082
REMARK minimizedRMSD -1
REMARK  1 active torsions:
REMARK  status: ('A' for Active; 'I' for Inactive)
REMARK    1  A    between atoms: C1_2  and  C2_3 
ROOT
ATOM      1  C2  UNL d   1       0.415  -0.931   2.910  0.00  0.00    -0.077 A 
ATOM      2  C3  UNL d   1       0.782   0.371   2.542  0.00  0.00     0.002 A 
ATOM      3  C4  UNL d   1      -0.043   1.129   1.710  0.00  0.00     0.002 A 
ATOM      4  C5  UNL d   1      -1.242   0.595   1.241  0.00  0.00    -0.004 A 
ATOM      5  C6  UNL d   1      -1.615  -0.700   1.599  0.00  0.00     0.002 A 
ATOM      6  C7  UNL d   1      -0.791  -1.459   2.430  0.00  0.00     0.002 A 
ENDROOT
BRANCH   1   7
ATOM      7  C1  UNL d   1       1.280  -1.732   3.848  0.00  0.00     0.055 C 
ATOM      8  C   UNL d   1       1.290  -1.128   5.244  0.00  0.00     0.019 C 
ENDBRANCH   1   7
TORSDOF 1
ENDMDL
