MODEL 1
REMARK minimizedAffinity 9.65900898
REMARK minimizedRMSD -1
REMARK  0 active torsions:
REMARK  status: ('A' for Active; 'I' for Inactive)
ROOT
ATOM      1  C   UNL d   1      -0.017   4.450   1.077  0.00  0.00     0.023 A 
ATOM      2  C1  UNL d   1       0.006   4.434  -0.318  0.00  0.00     0.003 A 
ATOM      3  C2  UNL d   1      -0.028   3.219  -1.004  0.00  0.00     0.048 A 
ATOM      4  C3  UNL d   1      -0.088   2.023  -0.290  0.00  0.00     0.023 A 
ATOM      5  C4  UNL d   1      -0.112   2.034   1.106  0.00  0.00     0.048 A 
ATOM      6  C5  UNL d   1      -0.077   3.252   1.788  0.00  0.00     0.003 A 
ATOM      7  I   UNL d   1      -0.139   0.212  -1.309  0.00  0.00    -0.146 I 
ENDROOT
TORSDOF 0
ENDMDL
