MODEL 1
REMARK minimizedAffinity 2.38623261
REMARK minimizedRMSD -1
REMARK  0 active torsions:
REMARK  status: ('A' for Active; 'I' for Inactive)
ROOT
ATOM      1  C   UNL d   1      -5.892   4.464  -6.000  0.00  0.00     0.023 A 
ATOM      2  C1  UNL d   1      -5.704   5.320  -4.915  0.00  0.00     0.003 A 
ATOM      3  C2  UNL d   1      -5.626   4.802  -3.620  0.00  0.00     0.048 A 
ATOM      4  C3  UNL d   1      -5.735   3.427  -3.418  0.00  0.00     0.023 A 
ATOM      5  C4  UNL d   1      -5.921   2.566  -4.501  0.00  0.00     0.048 A 
ATOM      6  C5  UNL d   1      -6.000   3.088  -5.793  0.00  0.00     0.003 A 
ATOM      7  I   UNL d   1      -5.619   2.653  -1.493  0.00  0.00    -0.146 I 
ENDROOT
TORSDOF 0
ENDMDL
