MODEL 1
REMARK minimizedAffinity 10.3256664
REMARK minimizedRMSD -1
REMARK  0 active torsions:
REMARK  status: ('A' for Active; 'I' for Inactive)
ROOT
ATOM      1  C   UNL d   1       0.580   0.878   4.375  0.00  0.00     0.023 A 
ATOM      2  C1  UNL d   1       1.724   1.202   3.645  0.00  0.00     0.003 A 
ATOM      3  C2  UNL d   1       1.651   2.126   2.602  0.00  0.00     0.048 A 
ATOM      4  C3  UNL d   1       0.429   2.724   2.293  0.00  0.00     0.023 A 
ATOM      5  C4  UNL d   1      -0.718   2.404   3.020  0.00  0.00     0.048 A 
ATOM      6  C5  UNL d   1      -0.640   1.479   4.062  0.00  0.00     0.003 A 
ATOM      7  I   UNL d   1       0.317   4.101   0.740  0.00  0.00    -0.146 I 
ENDROOT
TORSDOF 0
ENDMDL
