MODEL 1
REMARK minimizedAffinity 11.5372
REMARK minimizedRMSD -1
REMARK  0 active torsions:
REMARK  status: ('A' for Active; 'I' for Inactive)
ROOT
ATOM      1  C   UNL d   1      -0.367   6.000   0.425  0.00  0.00     0.023 A 
ATOM      2  C1  UNL d   1      -0.736   5.051   1.378  0.00  0.00     0.003 A 
ATOM      3  C2  UNL d   1      -0.525   3.693   1.131  0.00  0.00     0.048 A 
ATOM      4  C3  UNL d   1       0.057   3.291  -0.070  0.00  0.00     0.023 A 
ATOM      5  C4  UNL d   1       0.429   4.237  -1.026  0.00  0.00     0.048 A 
ATOM      6  C5  UNL d   1       0.215   5.594  -0.776  0.00  0.00     0.003 A 
ATOM      7  I   UNL d   1       0.372   1.270  -0.440  0.00  0.00    -0.146 I 
ENDROOT
TORSDOF 0
ENDMDL
