MODEL 1
REMARK minimizedAffinity 7.3413167
REMARK minimizedRMSD -1
REMARK  0 active torsions:
REMARK  status: ('A' for Active; 'I' for Inactive)
ROOT
ATOM      1  C   UNL d   1       2.844   4.493   3.290  0.00  0.00     0.023 A 
ATOM      2  C1  UNL d   1       1.831   3.537   3.373  0.00  0.00     0.003 A 
ATOM      3  C2  UNL d   1       0.993   3.310   2.279  0.00  0.00     0.048 A 
ATOM      4  C3  UNL d   1       1.173   4.041   1.106  0.00  0.00     0.023 A 
ATOM      5  C4  UNL d   1       2.186   4.998   1.018  0.00  0.00     0.048 A 
ATOM      6  C5  UNL d   1       3.021   5.222   2.114  0.00  0.00     0.003 A 
ATOM      7  I   UNL d   1      -0.073   3.704  -0.523  0.00  0.00    -0.146 I 
ENDROOT
TORSDOF 0
ENDMDL
