MODEL 1
REMARK minimizedAffinity 9.33834362
REMARK minimizedRMSD -1
REMARK  0 active torsions:
REMARK  status: ('A' for Active; 'I' for Inactive)
ROOT
ATOM      1  C   UNL d   1      -0.211   6.000  -1.060  0.00  0.00     0.023 A 
ATOM      2  C1  UNL d   1      -1.155   5.261  -0.347  0.00  0.00     0.003 A 
ATOM      3  C2  UNL d   1      -0.739   4.314   0.591  0.00  0.00     0.048 A 
ATOM      4  C3  UNL d   1       0.623   4.111   0.811  0.00  0.00     0.023 A 
ATOM      5  C4  UNL d   1       1.571   4.849   0.100  0.00  0.00     0.048 A 
ATOM      6  C5  UNL d   1       1.150   5.794  -0.837  0.00  0.00     0.003 A 
ATOM      7  I   UNL d   1       1.246   2.702   2.206  0.00  0.00    -0.146 I 
ENDROOT
TORSDOF 0
ENDMDL
