MODEL 1
REMARK minimizedAffinity 5.73693514
REMARK minimizedRMSD -1
REMARK  0 active torsions:
REMARK  status: ('A' for Active; 'I' for Inactive)
ROOT
ATOM      1  C1  DEN d   1       1.168   3.133  -0.668  0.00  0.00     0.130 A 
ATOM      2  C2  DEN d   1       0.054   3.716  -1.410  0.00  0.00    -0.031 A 
ATOM      3  C3  DEN d   1      -1.172   3.537  -0.608  0.00  0.00     0.027 A 
ATOM      4  C4  DEN d   1      -1.453   2.423   1.702  0.00  0.00     0.027 A 
ATOM      5  C5  DEN d   1      -0.794   1.772   2.721  0.00  0.00    -0.003 A 
ATOM      6  C6  DEN d   1       0.547   1.500   2.667  0.00  0.00     0.001 A 
ATOM      7  C7  DEN d   1       1.283   1.922   1.591  0.00  0.00     0.017 A 
ATOM      8  C8  DEN d   1       0.625   2.573   0.556  0.00  0.00    -0.094 A 
ATOM      9  C9  DEN d   1      -0.730   2.849   0.635  0.00  0.00    -0.072 A 
ENDROOT
TORSDOF 0
ENDMDL
