MODEL 1
REMARK minimizedAffinity 2.15480614
REMARK minimizedRMSD -1
REMARK  0 active torsions:
REMARK  status: ('A' for Active; 'I' for Inactive)
ROOT
ATOM      1  C1  DEN d   1      -2.116  -3.669  -5.544  0.00  0.00     0.130 A 
ATOM      2  C2  DEN d   1      -1.370  -4.879  -5.209  0.00  0.00    -0.031 A 
ATOM      3  C3  DEN d   1      -2.330  -5.997  -5.120  0.00  0.00     0.027 A 
ATOM      4  C4  DEN d   1      -4.885  -5.975  -5.470  0.00  0.00     0.027 A 
ATOM      5  C5  DEN d   1      -5.972  -5.178  -5.758  0.00  0.00    -0.003 A 
ATOM      6  C6  DEN d   1      -5.855  -3.829  -5.960  0.00  0.00     0.001 A 
ATOM      7  C7  DEN d   1      -4.618  -3.241  -5.921  0.00  0.00     0.017 A 
ATOM      8  C8  DEN d   1      -3.519  -4.036  -5.624  0.00  0.00    -0.094 A 
ATOM      9  C9  DEN d   1      -3.656  -5.401  -5.435  0.00  0.00    -0.072 A 
ENDROOT
TORSDOF 0
ENDMDL
