MODEL 1
REMARK minimizedAffinity 15.7992744
REMARK minimizedRMSD -1
REMARK  0 active torsions:
REMARK  status: ('A' for Active; 'I' for Inactive)
ROOT
ATOM      1  C1  DEN d   1       0.782   2.471  -1.100  0.00  0.00     0.130 A 
ATOM      2  C2  DEN d   1      -0.297   1.604  -0.634  0.00  0.00    -0.031 A 
ATOM      3  C3  DEN d   1      -1.565   2.352  -0.749  0.00  0.00     0.027 A 
ATOM      4  C4  DEN d   1      -1.961   4.753  -1.604  0.00  0.00     0.027 A 
ATOM      5  C5  DEN d   1      -1.348   5.885  -2.097  0.00  0.00    -0.003 A 
ATOM      6  C6  DEN d   1       0.009   5.969  -2.258  0.00  0.00     0.001 A 
ATOM      7  C7  DEN d   1       0.796   4.886  -1.966  0.00  0.00     0.017 A 
ATOM      8  C8  DEN d   1       0.187   3.744  -1.462  0.00  0.00    -0.094 A 
ATOM      9  C9  DEN d   1      -1.189   3.675  -1.318  0.00  0.00    -0.072 A 
ENDROOT
TORSDOF 0
ENDMDL
