MODEL 1
REMARK minimizedAffinity 9.18318653
REMARK minimizedRMSD -1
REMARK  0 active torsions:
REMARK  status: ('A' for Active; 'I' for Inactive)
ROOT
ATOM      1  C1  DEN d   1      -4.573   5.986   1.145  0.00  0.00     0.130 A 
ATOM      2  C2  DEN d   1      -3.371   6.000   1.973  0.00  0.00    -0.031 A 
ATOM      3  C3  DEN d   1      -2.206   5.784   1.091  0.00  0.00     0.027 A 
ATOM      4  C4  DEN d   1      -2.149   5.438  -1.464  0.00  0.00     0.027 A 
ATOM      5  C5  DEN d   1      -2.920   5.336  -2.601  0.00  0.00    -0.003 A 
ATOM      6  C6  DEN d   1      -4.287   5.409  -2.565  0.00  0.00     0.001 A 
ATOM      7  C7  DEN d   1      -4.923   5.634  -1.373  0.00  0.00     0.017 A 
ATOM      8  C8  DEN d   1      -4.153   5.731  -0.221  0.00  0.00    -0.094 A 
ATOM      9  C9  DEN d   1      -2.771   5.666  -0.280  0.00  0.00    -0.072 A 
ENDROOT
TORSDOF 0
ENDMDL
