MODEL 1
REMARK minimizedAffinity 19.5095463
REMARK minimizedRMSD -1
REMARK  0 active torsions:
REMARK  status: ('A' for Active; 'I' for Inactive)
ROOT
ATOM      1  C1  DEN d   1       3.518  -4.327  -2.968  0.00  0.00     0.130 A 
ATOM      2  C2  DEN d   1       2.682  -4.977  -3.973  0.00  0.00    -0.031 A 
ATOM      3  C3  DEN d   1       1.338  -5.172  -3.392  0.00  0.00     0.027 A 
ATOM      4  C4  DEN d   1       0.476  -4.530  -1.048  0.00  0.00     0.027 A 
ATOM      5  C5  DEN d   1       0.822  -3.967   0.161  0.00  0.00    -0.003 A 
ATOM      6  C6  DEN d   1       2.090  -3.519   0.421  0.00  0.00     0.001 A 
ATOM      7  C7  DEN d   1       3.047  -3.585  -0.557  0.00  0.00     0.017 A 
ATOM      8  C8  DEN d   1       2.707  -4.158  -1.776  0.00  0.00    -0.094 A 
ATOM      9  C9  DEN d   1       1.417  -4.595  -2.023  0.00  0.00    -0.072 A 
ENDROOT
TORSDOF 0
ENDMDL
