MODEL 1
REMARK minimizedAffinity 7.80695105
REMARK minimizedRMSD -1
REMARK  0 active torsions:
REMARK  status: ('A' for Active; 'I' for Inactive)
ROOT
ATOM      1  C1  DEN d   1       1.176   2.052   1.209  0.00  0.00     0.130 A 
ATOM      2  C2  DEN d   1       1.306   1.867   2.652  0.00  0.00    -0.031 A 
ATOM      3  C3  DEN d   1       0.003   2.181   3.272  0.00  0.00     0.027 A 
ATOM      4  C4  DEN d   1      -2.194   2.925   2.143  0.00  0.00     0.027 A 
ATOM      5  C5  DEN d   1      -2.790   3.231   0.940  0.00  0.00    -0.003 A 
ATOM      6  C6  DEN d   1      -2.103   3.199  -0.244  0.00  0.00     0.001 A 
ATOM      7  C7  DEN d   1      -0.789   2.809  -0.257  0.00  0.00     0.017 A 
ATOM      8  C8  DEN d   1      -0.179   2.506   0.953  0.00  0.00    -0.094 A 
ATOM      9  C9  DEN d   1      -0.894   2.532   2.139  0.00  0.00    -0.072 A 
ENDROOT
TORSDOF 0
ENDMDL
