MODEL 1
REMARK minimizedAffinity 9.91140366
REMARK minimizedRMSD -1
REMARK  0 active torsions:
REMARK  status: ('A' for Active; 'I' for Inactive)
ROOT
ATOM      1  C1  DEN d   1      -0.096  -2.408  -0.552  0.00  0.00     0.130 A 
ATOM      2  C2  DEN d   1       1.329  -2.698  -0.689  0.00  0.00    -0.031 A 
ATOM      3  C3  DEN d   1       2.068  -1.427  -0.553  0.00  0.00     0.027 A 
ATOM      4  C4  DEN d   1       1.150   0.948  -0.139  0.00  0.00     0.027 A 
ATOM      5  C5  DEN d   1       0.006   1.695   0.035  0.00  0.00    -0.003 A 
ATOM      6  C6  DEN d   1      -1.244   1.136  -0.008  0.00  0.00     0.001 A 
ATOM      7  C7  DEN d   1      -1.378  -0.216  -0.186  0.00  0.00     0.017 A 
ATOM      8  C8  DEN d   1      -0.229  -0.974  -0.369  0.00  0.00    -0.094 A 
ATOM      9  C9  DEN d   1       1.026  -0.392  -0.310  0.00  0.00    -0.072 A 
ENDROOT
TORSDOF 0
ENDMDL
