MODEL 1
REMARK minimizedAffinity 12.2536898
REMARK minimizedRMSD -1
REMARK  0 active torsions:
REMARK  status: ('A' for Active; 'I' for Inactive)
ROOT
ATOM      1  C1  DEN d   1       1.618   4.104  -0.937  0.00  0.00     0.130 A 
ATOM      2  C2  DEN d   1       0.857   5.144  -1.623  0.00  0.00    -0.031 A 
ATOM      3  C3  DEN d   1      -0.573   4.944  -1.313  0.00  0.00     0.027 A 
ATOM      4  C4  DEN d   1      -1.677   3.137   0.159  0.00  0.00     0.027 A 
ATOM      5  C5  DEN d   1      -1.440   2.028   0.942  0.00  0.00    -0.003 A 
ATOM      6  C6  DEN d   1      -0.183   1.518   1.124  0.00  0.00     0.001 A 
ATOM      7  C7  DEN d   1       0.893   2.144   0.552  0.00  0.00     0.017 A 
ATOM      8  C8  DEN d   1       0.662   3.257  -0.244  0.00  0.00    -0.094 A 
ATOM      9  C9  DEN d   1      -0.615   3.765  -0.406  0.00  0.00    -0.072 A 
ENDROOT
TORSDOF 0
ENDMDL
