MODEL 1
REMARK minimizedAffinity -3.73637223
REMARK minimizedRMSD -1
REMARK  0 active torsions:
REMARK  status: ('A' for Active; 'I' for Inactive)
ROOT
ATOM      1  C   UNL d   1       0.534   2.401  -0.201  0.00  0.00     0.023 A 
ATOM      2  C1  UNL d   1       1.119   1.349   0.503  0.00  0.00     0.003 A 
ATOM      3  C2  UNL d   1       0.878   0.029   0.116  0.00  0.00     0.048 A 
ATOM      4  C3  UNL d   1       0.051  -0.231  -0.976  0.00  0.00     0.023 A 
ATOM      5  C4  UNL d   1      -0.536   0.819  -1.684  0.00  0.00     0.048 A 
ATOM      6  C5  UNL d   1      -0.293   2.137  -1.293  0.00  0.00     0.003 A 
ATOM      7  I   UNL d   1      -0.309  -2.195  -1.554  0.00  0.00    -0.146 I 
ENDROOT
TORSDOF 0
ENDMDL
