MODEL 1
REMARK minimizedAffinity 1.75545502
REMARK minimizedRMSD -1
REMARK  0 active torsions:
REMARK  status: ('A' for Active; 'I' for Inactive)
ROOT
ATOM      1  C   UNL d   1      -0.528  -0.614  -0.145  0.00  0.00     0.023 A 
ATOM      2  C1  UNL d   1      -1.047   0.608   0.283  0.00  0.00     0.003 A 
ATOM      3  C2  UNL d   1      -0.192   1.600   0.767  0.00  0.00     0.048 A 
ATOM      4  C3  UNL d   1       1.182   1.363   0.820  0.00  0.00     0.023 A 
ATOM      5  C4  UNL d   1       1.705   0.142   0.391  0.00  0.00     0.048 A 
ATOM      6  C5  UNL d   1       0.846  -0.847  -0.091  0.00  0.00     0.003 A 
ATOM      7  I   UNL d   1       2.457   2.838   1.540  0.00  0.00    -0.146 I 
ENDROOT
TORSDOF 0
ENDMDL
