MODEL 1
REMARK minimizedAffinity -1.06382
REMARK minimizedRMSD -1
REMARK  0 active torsions:
REMARK  status: ('A' for Active; 'I' for Inactive)
ROOT
ATOM      1  C   UNL d   1       2.159   2.927   1.388  0.00  0.00     0.023 A 
ATOM      2  C1  UNL d   1       0.776   2.906   1.201  0.00  0.00     0.003 A 
ATOM      3  C2  UNL d   1       0.152   1.751   0.723  0.00  0.00     0.048 A 
ATOM      4  C3  UNL d   1       0.917   0.621   0.437  0.00  0.00     0.023 A 
ATOM      5  C4  UNL d   1       2.300   0.637   0.623  0.00  0.00     0.048 A 
ATOM      6  C5  UNL d   1       2.919   1.794   1.100  0.00  0.00     0.003 A 
ATOM      7  I   UNL d   1      -0.010  -1.099  -0.273  0.00  0.00    -0.146 I 
ENDROOT
TORSDOF 0
ENDMDL
