MODEL 1
REMARK minimizedAffinity -3.3475399
REMARK minimizedRMSD -1
REMARK  0 active torsions:
REMARK  status: ('A' for Active; 'I' for Inactive)
ROOT
ATOM      1  C   UNL d   1       0.011  -2.703  -0.904  0.00  0.00     0.023 A 
ATOM      2  C1  UNL d   1      -1.017  -1.972  -1.498  0.00  0.00     0.003 A 
ATOM      3  C2  UNL d   1      -1.207  -0.630  -1.160  0.00  0.00     0.048 A 
ATOM      4  C3  UNL d   1      -0.364  -0.026  -0.229  0.00  0.00     0.023 A 
ATOM      5  C4  UNL d   1       0.667  -0.753   0.367  0.00  0.00     0.048 A 
ATOM      6  C5  UNL d   1       0.853  -2.095   0.028  0.00  0.00     0.003 A 
ATOM      7  I   UNL d   1      -0.644   1.971   0.274  0.00  0.00    -0.146 I 
ENDROOT
TORSDOF 0
ENDMDL
