MODEL 1
REMARK minimizedAffinity -2.08111691
REMARK minimizedRMSD -1
REMARK  0 active torsions:
REMARK  status: ('A' for Active; 'I' for Inactive)
ROOT
ATOM      1  C   UNL d   1      -0.002   0.547   0.817  0.00  0.00     0.023 A 
ATOM      2  C1  UNL d   1      -1.130   0.385   0.011  0.00  0.00     0.003 A 
ATOM      3  C2  UNL d   1      -1.260  -0.750  -0.791  0.00  0.00     0.048 A 
ATOM      4  C3  UNL d   1      -0.259  -1.721  -0.782  0.00  0.00     0.023 A 
ATOM      5  C4  UNL d   1       0.871  -1.565   0.023  0.00  0.00     0.048 A 
ATOM      6  C5  UNL d   1       0.997  -0.427   0.823  0.00  0.00     0.003 A 
ATOM      7  I   UNL d   1      -0.450  -3.413  -1.975  0.00  0.00    -0.146 I 
ENDROOT
TORSDOF 0
ENDMDL
