MODEL 1
REMARK minimizedAffinity -1.95833695
REMARK minimizedRMSD -1
REMARK  0 active torsions:
REMARK  status: ('A' for Active; 'I' for Inactive)
ROOT
ATOM      1  C   UNL d   1       2.172  -1.425   0.410  0.00  0.00     0.023 A 
ATOM      2  C1  UNL d   1       0.905  -2.007   0.364  0.00  0.00     0.003 A 
ATOM      3  C2  UNL d   1      -0.232  -1.201   0.268  0.00  0.00     0.048 A 
ATOM      4  C3  UNL d   1      -0.094   0.185   0.218  0.00  0.00     0.023 A 
ATOM      5  C4  UNL d   1       1.172   0.772   0.263  0.00  0.00     0.048 A 
ATOM      6  C5  UNL d   1       2.305  -0.038   0.359  0.00  0.00     0.003 A 
ATOM      7  I   UNL d   1      -1.784   1.387   0.075  0.00  0.00    -0.146 I 
ENDROOT
TORSDOF 0
ENDMDL
