MODEL 1
REMARK minimizedAffinity -3.15054107
REMARK minimizedRMSD -1
REMARK  0 active torsions:
REMARK  status: ('A' for Active; 'I' for Inactive)
ROOT
ATOM      1  C   UNL d   1      -0.753   2.744   0.729  0.00  0.00     0.023 A 
ATOM      2  C1  UNL d   1       0.506   2.316   0.307  0.00  0.00     0.003 A 
ATOM      3  C2  UNL d   1       0.705   0.983  -0.058  0.00  0.00     0.048 A 
ATOM      4  C3  UNL d   1      -0.359   0.083   0.001  0.00  0.00     0.023 A 
ATOM      5  C4  UNL d   1      -1.620   0.507   0.422  0.00  0.00     0.048 A 
ATOM      6  C5  UNL d   1      -1.815   1.840   0.787  0.00  0.00     0.003 A 
ATOM      7  I   UNL d   1      -0.064  -1.902  -0.542  0.00  0.00    -0.146 I 
ENDROOT
TORSDOF 0
ENDMDL
