MODEL 1
REMARK minimizedAffinity -4.22254992
REMARK minimizedRMSD -1
REMARK  0 active torsions:
REMARK  status: ('A' for Active; 'I' for Inactive)
ROOT
ATOM      1  C   UNL d   1      -0.014  -3.096  -1.864  0.00  0.00     0.023 A 
ATOM      2  C1  UNL d   1      -0.063  -3.169  -0.472  0.00  0.00     0.003 A 
ATOM      3  C2  UNL d   1      -1.149  -3.780   0.159  0.00  0.00     0.048 A 
ATOM      4  C3  UNL d   1      -2.182  -4.316  -0.609  0.00  0.00     0.023 A 
ATOM      5  C4  UNL d   1      -2.137  -4.246  -2.002  0.00  0.00     0.048 A 
ATOM      6  C5  UNL d   1      -1.050  -3.634  -2.628  0.00  0.00     0.003 A 
ATOM      7  I   UNL d   1      -3.799  -5.226   0.328  0.00  0.00    -0.146 I 
ENDROOT
TORSDOF 0
ENDMDL
