MODEL 1
REMARK minimizedAffinity -1.8314718
REMARK minimizedRMSD -1
REMARK  0 active torsions:
REMARK  status: ('A' for Active; 'I' for Inactive)
ROOT
ATOM      1  C   UNL d   1       0.922   0.464   0.487  0.00  0.00     0.023 A 
ATOM      2  C1  UNL d   1       1.537  -0.781   0.623  0.00  0.00     0.003 A 
ATOM      3  C2  UNL d   1       1.064  -1.877  -0.101  0.00  0.00     0.048 A 
ATOM      4  C3  UNL d   1      -0.022  -1.722  -0.961  0.00  0.00     0.023 A 
ATOM      5  C4  UNL d   1      -0.640  -0.478  -1.101  0.00  0.00     0.048 A 
ATOM      6  C5  UNL d   1      -0.165   0.615  -0.374  0.00  0.00     0.003 A 
ATOM      7  I   UNL d   1      -0.727  -3.352  -2.040  0.00  0.00    -0.146 I 
ENDROOT
TORSDOF 0
ENDMDL
