MODEL 1
REMARK minimizedAffinity -0.505927384
REMARK minimizedRMSD -1
REMARK  0 active torsions:
REMARK  status: ('A' for Active; 'I' for Inactive)
ROOT
ATOM      1  C   UNL d   1      -0.428   2.128   1.201  0.00  0.00     0.023 A 
ATOM      2  C1  UNL d   1       0.673   1.271   1.232  0.00  0.00     0.003 A 
ATOM      3  C2  UNL d   1       0.587   0.001   0.658  0.00  0.00     0.048 A 
ATOM      4  C3  UNL d   1      -0.602  -0.406   0.054  0.00  0.00     0.023 A 
ATOM      5  C4  UNL d   1      -1.706   0.447   0.020  0.00  0.00     0.048 A 
ATOM      6  C5  UNL d   1      -1.616   1.716   0.596  0.00  0.00     0.003 A 
ATOM      7  I   UNL d   1      -0.732  -2.297  -0.800  0.00  0.00    -0.146 I 
ENDROOT
TORSDOF 0
ENDMDL
