MODEL 1
REMARK minimizedAffinity -2.44954014
REMARK minimizedRMSD -1
REMARK  0 active torsions:
REMARK  status: ('A' for Active; 'I' for Inactive)
ROOT
ATOM      1  C   UNL d   1      -0.506   0.380   0.353  0.00  0.00     0.023 A 
ATOM      2  C1  UNL d   1      -0.902   0.617  -0.963  0.00  0.00     0.003 A 
ATOM      3  C2  UNL d   1      -0.923  -0.430  -1.887  0.00  0.00     0.048 A 
ATOM      4  C3  UNL d   1      -0.547  -1.712  -1.488  0.00  0.00     0.023 A 
ATOM      5  C4  UNL d   1      -0.151  -1.954  -0.171  0.00  0.00     0.048 A 
ATOM      6  C5  UNL d   1      -0.131  -0.904   0.749  0.00  0.00     0.003 A 
ATOM      7  I   UNL d   1      -0.577  -3.271  -2.861  0.00  0.00    -0.146 I 
ENDROOT
TORSDOF 0
ENDMDL
