MODEL 1
REMARK minimizedAffinity -2.05192256
REMARK minimizedRMSD -1
REMARK  0 active torsions:
REMARK  status: ('A' for Active; 'I' for Inactive)
ROOT
ATOM      1  C   UNL d   1      -1.200   1.279  -0.290  0.00  0.00     0.023 A 
ATOM      2  C1  UNL d   1      -0.111   0.413  -0.393  0.00  0.00     0.003 A 
ATOM      3  C2  UNL d   1       1.116   0.761   0.175  0.00  0.00     0.048 A 
ATOM      4  C3  UNL d   1       1.248   1.977   0.845  0.00  0.00     0.023 A 
ATOM      5  C4  UNL d   1       0.161   2.846   0.951  0.00  0.00     0.048 A 
ATOM      6  C5  UNL d   1      -1.064   2.494   0.381  0.00  0.00     0.003 A 
ATOM      7  I   UNL d   1       3.073   2.498   1.691  0.00  0.00    -0.146 I 
ENDROOT
TORSDOF 0
ENDMDL
