MODEL 1
REMARK minimizedAffinity 0.0469672568
REMARK minimizedRMSD -1
REMARK  0 active torsions:
REMARK  status: ('A' for Active; 'I' for Inactive)
ROOT
ATOM      1  C   UNL d   1      -1.533  -4.458  -1.987  0.00  0.00     0.023 A 
ATOM      2  C1  UNL d   1      -0.833  -3.482  -2.697  0.00  0.00     0.003 A 
ATOM      3  C2  UNL d   1      -0.485  -2.280  -2.076  0.00  0.00     0.048 A 
ATOM      4  C3  UNL d   1      -0.840  -2.061  -0.746  0.00  0.00     0.023 A 
ATOM      5  C4  UNL d   1      -1.540  -3.035  -0.031  0.00  0.00     0.048 A 
ATOM      6  C5  UNL d   1      -1.886  -4.234  -0.656  0.00  0.00     0.003 A 
ATOM      7  I   UNL d   1      -0.323  -0.273   0.180  0.00  0.00    -0.146 I 
ENDROOT
TORSDOF 0
ENDMDL
