MODEL 1
REMARK minimizedAffinity -0.916538715
REMARK minimizedRMSD -1
REMARK  0 active torsions:
REMARK  status: ('A' for Active; 'I' for Inactive)
ROOT
ATOM      1  C   UNL d   1       0.980  -1.313   0.373  0.00  0.00     0.023 A 
ATOM      2  C1  UNL d   1       1.930  -0.295   0.466  0.00  0.00     0.003 A 
ATOM      3  C2  UNL d   1       1.524   1.041   0.484  0.00  0.00     0.048 A 
ATOM      4  C3  UNL d   1       0.167   1.352   0.410  0.00  0.00     0.023 A 
ATOM      5  C4  UNL d   1      -0.787   0.337   0.318  0.00  0.00     0.048 A 
ATOM      6  C5  UNL d   1      -0.377  -0.997   0.299  0.00  0.00     0.003 A 
ATOM      7  I   UNL d   1      -0.440   3.340   0.436  0.00  0.00    -0.146 I 
ENDROOT
TORSDOF 0
ENDMDL
