MODEL 1
REMARK minimizedAffinity -3.27858305
REMARK minimizedRMSD -1
REMARK  0 active torsions:
REMARK  status: ('A' for Active; 'I' for Inactive)
ROOT
ATOM      1  C   UNL d   1       0.374   3.076  -0.224  0.00  0.00     0.023 A 
ATOM      2  C1  UNL d   1      -0.816   2.486   0.200  0.00  0.00     0.003 A 
ATOM      3  C2  UNL d   1      -0.922   1.095   0.269  0.00  0.00     0.048 A 
ATOM      4  C3  UNL d   1       0.167   0.301  -0.086  0.00  0.00     0.023 A 
ATOM      5  C4  UNL d   1       1.361   0.887  -0.511  0.00  0.00     0.048 A 
ATOM      6  C5  UNL d   1       1.461   2.277  -0.579  0.00  0.00     0.003 A 
ATOM      7  I   UNL d   1       0.012  -1.769   0.016  0.00  0.00    -0.146 I 
ENDROOT
TORSDOF 0
ENDMDL
