MODEL 1
REMARK minimizedAffinity -4.24786949
REMARK minimizedRMSD -1
REMARK  0 active torsions:
REMARK  status: ('A' for Active; 'I' for Inactive)
ROOT
ATOM      1  C   UNL d   1      -0.490   2.124   0.632  0.00  0.00     0.023 A 
ATOM      2  C1  UNL d   1       0.713   1.573   0.191  0.00  0.00     0.003 A 
ATOM      3  C2  UNL d   1       0.752   0.253  -0.264  0.00  0.00     0.048 A 
ATOM      4  C3  UNL d   1      -0.416  -0.509  -0.277  0.00  0.00     0.023 A 
ATOM      5  C4  UNL d   1      -1.622   0.040   0.162  0.00  0.00     0.048 A 
ATOM      6  C5  UNL d   1      -1.656   1.359   0.618  0.00  0.00     0.003 A 
ATOM      7  I   UNL d   1      -0.361  -2.473  -0.955  0.00  0.00    -0.146 I 
ENDROOT
TORSDOF 0
ENDMDL
