MODEL 1
REMARK minimizedAffinity 7.16132975
REMARK minimizedRMSD -1
REMARK  0 active torsions:
REMARK  status: ('A' for Active; 'I' for Inactive)
ROOT
ATOM      1  C2' OXE d   1      -2.741   0.351  -2.622  0.00  0.00     0.078 C 
ATOM      2  C1' OXE d   1      -3.565  -1.523  -0.702  0.00  0.00     0.078 C 
ATOM      3  C1  OXE d   1      -3.392  -2.001  -2.122  0.00  0.00    -0.078 A 
ATOM      4  C2  OXE d   1      -3.034  -1.067  -3.064  0.00  0.00    -0.078 A 
ATOM      5  C3  OXE d   1      -2.808  -1.465  -4.378  0.00  0.00     0.003 A 
ATOM      6  C4  OXE d   1      -3.090  -2.776  -4.780  0.00  0.00    -0.002 A 
ATOM      7  C5  OXE d   1      -3.494  -3.734  -3.844  0.00  0.00    -0.002 A 
ATOM      8  C6  OXE d   1      -3.608  -3.374  -2.506  0.00  0.00     0.003 A 
ENDROOT
TORSDOF 0
ENDMDL
