MODEL 1
REMARK minimizedAffinity 5.30513763
REMARK minimizedRMSD -1
REMARK  0 active torsions:
REMARK  status: ('A' for Active; 'I' for Inactive)
ROOT
ATOM      1  C2' OXE d   1       3.489   1.876   0.652  0.00  0.00     0.078 C 
ATOM      2  C1' OXE d   1       3.831  -0.788   1.468  0.00  0.00     0.078 C 
ATOM      3  C1  OXE d   1       3.174   0.166   2.435  0.00  0.00    -0.078 A 
ATOM      4  C2  OXE d   1       3.053   1.478   2.045  0.00  0.00    -0.078 A 
ATOM      5  C3  OXE d   1       2.406   2.387   2.877  0.00  0.00     0.003 A 
ATOM      6  C4  OXE d   1       2.014   2.013   4.168  0.00  0.00    -0.002 A 
ATOM      7  C5  OXE d   1       2.164   0.691   4.600  0.00  0.00    -0.002 A 
ATOM      8  C6  OXE d   1       2.702  -0.253   3.732  0.00  0.00     0.003 A 
ENDROOT
TORSDOF 0
ENDMDL
