MODEL 1
REMARK minimizedAffinity 8.41844273
REMARK minimizedRMSD -1
REMARK  0 active torsions:
REMARK  status: ('A' for Active; 'I' for Inactive)
ROOT
ATOM      1  C2' OXE d   1      -3.724  -1.606  -4.028  0.00  0.00     0.078 C 
ATOM      2  C1' OXE d   1      -4.456   1.104  -4.078  0.00  0.00     0.078 C 
ATOM      3  C1  OXE d   1      -3.460   0.663  -3.034  0.00  0.00    -0.078 A 
ATOM      4  C2  OXE d   1      -3.144  -0.673  -2.987  0.00  0.00    -0.078 A 
ATOM      5  C3  OXE d   1      -2.189  -1.123  -2.079  0.00  0.00     0.003 A 
ATOM      6  C4  OXE d   1      -1.664  -0.256  -1.113  0.00  0.00    -0.002 A 
ATOM      7  C5  OXE d   1      -2.004   1.101  -1.119  0.00  0.00    -0.002 A 
ATOM      8  C6  OXE d   1      -2.866   1.584  -2.097  0.00  0.00     0.003 A 
ENDROOT
TORSDOF 0
ENDMDL
