MODEL 1
REMARK minimizedAffinity 5.25020504
REMARK minimizedRMSD -1
REMARK  0 active torsions:
REMARK  status: ('A' for Active; 'I' for Inactive)
ROOT
ATOM      1  C2' OXE d   1       2.735  -5.979   2.260  0.00  0.00     0.078 C 
ATOM      2  C1' OXE d   1       0.236  -5.962   0.982  0.00  0.00     0.078 C 
ATOM      3  C1  OXE d   1       1.470  -5.972   0.115  0.00  0.00    -0.078 A 
ATOM      4  C2  OXE d   1       2.688  -5.933   0.748  0.00  0.00    -0.078 A 
ATOM      5  C3  OXE d   1       3.858  -5.995  -0.004  0.00  0.00     0.003 A 
ATOM      6  C4  OXE d   1       3.806  -5.942  -1.402  0.00  0.00    -0.002 A 
ATOM      7  C5  OXE d   1       2.576  -5.941  -2.067  0.00  0.00    -0.002 A 
ATOM      8  C6  OXE d   1       1.400  -5.998  -1.326  0.00  0.00     0.003 A 
ENDROOT
TORSDOF 0
ENDMDL
