MODEL 1
REMARK minimizedAffinity 12.2323885
REMARK minimizedRMSD -1
REMARK  0 active torsions:
REMARK  status: ('A' for Active; 'I' for Inactive)
ROOT
ATOM      1  C2' OXE d   1       3.548  -2.869   3.532  0.00  0.00     0.078 C 
ATOM      2  C1' OXE d   1       1.336  -1.960   2.062  0.00  0.00     0.078 C 
ATOM      3  C1  OXE d   1       1.928  -3.296   1.689  0.00  0.00    -0.078 A 
ATOM      4  C2  OXE d   1       3.039  -3.711   2.382  0.00  0.00    -0.078 A 
ATOM      5  C3  OXE d   1       3.591  -4.961   2.115  0.00  0.00     0.003 A 
ATOM      6  C4  OXE d   1       3.120  -5.730   1.044  0.00  0.00    -0.002 A 
ATOM      7  C5  OXE d   1       2.014  -5.307   0.299  0.00  0.00    -0.002 A 
ATOM      8  C6  OXE d   1       1.382  -4.115   0.635  0.00  0.00     0.003 A 
ENDROOT
TORSDOF 0
ENDMDL
