MODEL 1
REMARK minimizedAffinity -2.72284317
REMARK minimizedRMSD -1
REMARK  0 active torsions:
REMARK  status: ('A' for Active; 'I' for Inactive)
ROOT
ATOM      1  C2' OXE d   1       1.124  -5.947  -0.403  0.00  0.00     0.078 C 
ATOM      2  C1' OXE d   1       3.403  -6.000   1.235  0.00  0.00     0.078 C 
ATOM      3  C1  OXE d   1       3.610  -5.977  -0.258  0.00  0.00    -0.078 A 
ATOM      4  C2  OXE d   1       2.490  -5.998  -1.053  0.00  0.00    -0.078 A 
ATOM      5  C3  OXE d   1       2.624  -5.922  -2.436  0.00  0.00     0.003 A 
ATOM      6  C4  OXE d   1       3.890  -5.980  -3.030  0.00  0.00    -0.002 A 
ATOM      7  C5  OXE d   1       5.045  -5.999  -2.240  0.00  0.00    -0.002 A 
ATOM      8  C6  OXE d   1       4.923  -5.955  -0.855  0.00  0.00     0.003 A 
ENDROOT
TORSDOF 0
ENDMDL
