MODEL 1
REMARK minimizedAffinity 5.0676446
REMARK minimizedRMSD -1
REMARK  0 active torsions:
REMARK  status: ('A' for Active; 'I' for Inactive)
ROOT
ATOM      1  C2' OXE d   1       5.911  -5.970  -1.002  0.00  0.00     0.078 C 
ATOM      2  C1' OXE d   1       3.106  -5.957  -1.127  0.00  0.00     0.078 C 
ATOM      3  C1  OXE d   1       3.868  -5.968  -2.428  0.00  0.00    -0.078 A 
ATOM      4  C2  OXE d   1       5.240  -5.927  -2.358  0.00  0.00    -0.078 A 
ATOM      5  C3  OXE d   1       5.992  -5.990  -3.527  0.00  0.00     0.003 A 
ATOM      6  C4  OXE d   1       5.364  -5.940  -4.778  0.00  0.00    -0.002 A 
ATOM      7  C5  OXE d   1       3.969  -5.941  -4.872  0.00  0.00    -0.002 A 
ATOM      8  C6  OXE d   1       3.207  -5.998  -3.709  0.00  0.00     0.003 A 
ENDROOT
TORSDOF 0
ENDMDL
