MODEL 1
REMARK minimizedAffinity 6.28911114
REMARK minimizedRMSD -1
REMARK  0 active torsions:
REMARK  status: ('A' for Active; 'I' for Inactive)
ROOT
ATOM      1  C2' OXE d   1       1.530  -1.991  -0.761  0.00  0.00     0.078 C 
ATOM      2  C1' OXE d   1       3.197   0.075  -1.673  0.00  0.00     0.078 C 
ATOM      3  C1  OXE d   1       2.032   0.448  -0.791  0.00  0.00    -0.078 A 
ATOM      4  C2  OXE d   1       1.194  -0.563  -0.388  0.00  0.00    -0.078 A 
ATOM      5  C3  OXE d   1       0.136  -0.281   0.471  0.00  0.00     0.003 A 
ATOM      6  C4  OXE d   1      -0.174   1.043   0.803  0.00  0.00    -0.002 A 
ATOM      7  C5  OXE d   1       0.644   2.093   0.370  0.00  0.00    -0.002 A 
ATOM      8  C6  OXE d   1       1.772   1.809  -0.391  0.00  0.00     0.003 A 
ENDROOT
TORSDOF 0
ENDMDL
