MODEL 1
REMARK minimizedAffinity 5.91272783
REMARK minimizedRMSD -1
REMARK  0 active torsions:
REMARK  status: ('A' for Active; 'I' for Inactive)
ROOT
ATOM      1  C2' OXE d   1       2.801  -2.492  -4.802  0.00  0.00     0.078 C 
ATOM      2  C1' OXE d   1       1.755  -5.014  -5.451  0.00  0.00     0.078 C 
ATOM      3  C1  OXE d   1       3.252  -4.837  -5.511  0.00  0.00    -0.078 A 
ATOM      4  C2  OXE d   1       3.751  -3.586  -5.237  0.00  0.00    -0.078 A 
ATOM      5  C3  OXE d   1       5.128  -3.382  -5.225  0.00  0.00     0.003 A 
ATOM      6  C4  OXE d   1       5.999  -4.397  -5.639  0.00  0.00    -0.002 A 
ATOM      7  C5  OXE d   1       5.508  -5.667  -5.960  0.00  0.00    -0.002 A 
ATOM      8  C6  OXE d   1       4.144  -5.915  -5.861  0.00  0.00     0.003 A 
ENDROOT
TORSDOF 0
ENDMDL
