MODEL 1
REMARK minimizedAffinity 1.85190558
REMARK minimizedRMSD -1
REMARK  0 active torsions:
REMARK  status: ('A' for Active; 'I' for Inactive)
ROOT
ATOM      1  C2' OXE d   1      -0.419   0.874  -2.135  0.00  0.00     0.078 C 
ATOM      2  C1' OXE d   1      -0.261   2.547   0.114  0.00  0.00     0.078 C 
ATOM      3  C1  OXE d   1       0.547   1.274   0.127  0.00  0.00    -0.078 A 
ATOM      4  C2  OXE d   1       0.427   0.438  -0.958  0.00  0.00    -0.078 A 
ATOM      5  C3  OXE d   1       1.193  -0.723  -1.021  0.00  0.00     0.003 A 
ATOM      6  C4  OXE d   1       1.965  -1.123   0.076  0.00  0.00    -0.002 A 
ATOM      7  C5  OXE d   1       2.069  -0.307   1.207  0.00  0.00    -0.002 A 
ATOM      8  C6  OXE d   1       1.402   0.913   1.230  0.00  0.00     0.003 A 
ENDROOT
TORSDOF 0
ENDMDL
