MODEL 1
REMARK minimizedAffinity 16.0059299
REMARK minimizedRMSD -1
REMARK  1 active torsions:
REMARK  status: ('A' for Active; 'I' for Inactive)
REMARK    1  A    between atoms: C1_2  and  C2_3 
ROOT
ATOM      1  C2  UNL d   1      -0.085  -2.235   1.728  0.00  0.00    -0.081 A 
ATOM      2  C3  UNL d   1       0.711  -1.213   2.262  0.00  0.00     0.006 A 
ATOM      3  C4  UNL d   1       2.055  -1.101   1.901  0.00  0.00     0.002 A 
ATOM      4  C5  UNL d   1       2.625  -2.002   0.995  0.00  0.00    -0.080 A 
ATOM      5  C6  UNL d   1       4.059  -1.875   0.576  0.00  0.00     0.076 C 
ATOM      6  C7  UNL d   1       1.834  -3.033   0.475  0.00  0.00     0.002 A 
ATOM      7  C8  UNL d   1       0.490  -3.146   0.836  0.00  0.00     0.006 A 
ENDROOT
BRANCH   1   8
ATOM      8  C1  UNL d   1      -1.552  -2.319   2.066  0.00  0.00     0.054 C 
ATOM      9  C   UNL d   1      -1.768  -2.922   3.446  0.00  0.00     0.018 C 
ENDBRANCH   1   8
TORSDOF 1
ENDMDL
