MODEL 1
REMARK minimizedAffinity 9.19227123
REMARK minimizedRMSD -1
REMARK  1 active torsions:
REMARK  status: ('A' for Active; 'I' for Inactive)
REMARK    1  A    between atoms: C1_2  and  C2_3 
ROOT
ATOM      1  C2  UNL d   1      -3.625   1.135  -2.564  0.00  0.00    -0.081 A 
ATOM      2  C3  UNL d   1      -2.928   2.317  -2.845  0.00  0.00     0.006 A 
ATOM      3  C4  UNL d   1      -3.352   3.162  -3.874  0.00  0.00     0.002 A 
ATOM      4  C5  UNL d   1      -4.483   2.843  -4.633  0.00  0.00    -0.080 A 
ATOM      5  C6  UNL d   1      -4.967   3.756  -5.720  0.00  0.00     0.076 C 
ATOM      6  C7  UNL d   1      -5.169   1.654  -4.364  0.00  0.00     0.002 A 
ATOM      7  C8  UNL d   1      -4.745   0.809  -3.336  0.00  0.00     0.006 A 
ENDROOT
BRANCH   1   8
ATOM      8  C1  UNL d   1      -3.208   0.255  -1.414  0.00  0.00     0.054 C 
ATOM      9  C   UNL d   1      -3.384  -1.218  -1.753  0.00  0.00     0.018 C 
ENDBRANCH   1   8
TORSDOF 1
ENDMDL
