MODEL 1
REMARK minimizedAffinity 5.10481358
REMARK minimizedRMSD -1
REMARK  1 active torsions:
REMARK  status: ('A' for Active; 'I' for Inactive)
REMARK    1  A    between atoms: C1_2  and  C2_3 
ROOT
ATOM      1  C2  UNL d   1       1.950  -2.315   1.339  0.00  0.00    -0.081 A 
ATOM      2  C3  UNL d   1       1.485  -3.440   0.648  0.00  0.00     0.006 A 
ATOM      3  C4  UNL d   1       2.348  -4.499   0.355  0.00  0.00     0.002 A 
ATOM      4  C5  UNL d   1       3.688  -4.453   0.755  0.00  0.00    -0.080 A 
ATOM      5  C6  UNL d   1       4.618  -5.595   0.473  0.00  0.00     0.076 C 
ATOM      6  C7  UNL d   1       4.158  -3.321   1.429  0.00  0.00     0.002 A 
ATOM      7  C8  UNL d   1       3.295  -2.262   1.722  0.00  0.00     0.006 A 
ENDROOT
BRANCH   1   8
ATOM      8  C1  UNL d   1       1.007  -1.201   1.713  0.00  0.00     0.054 C 
ATOM      9  C   UNL d   1      -0.318  -1.747   2.227  0.00  0.00     0.018 C 
ENDBRANCH   1   8
TORSDOF 1
ENDMDL
