MODEL 1
REMARK minimizedAffinity 15.9619379
REMARK minimizedRMSD -1
REMARK  1 active torsions:
REMARK  status: ('A' for Active; 'I' for Inactive)
REMARK    1  A    between atoms: C1_2  and  C2_3 
ROOT
ATOM      1  C2  UNL d   1       1.851  -0.183   0.488  0.00  0.00    -0.081 A 
ATOM      2  C3  UNL d   1       3.086  -0.678   0.053  0.00  0.00     0.006 A 
ATOM      3  C4  UNL d   1       3.362  -2.046   0.116  0.00  0.00     0.002 A 
ATOM      4  C5  UNL d   1       2.406  -2.941   0.607  0.00  0.00    -0.080 A 
ATOM      5  C6  UNL d   1       2.678  -4.415   0.652  0.00  0.00     0.076 C 
ATOM      6  C7  UNL d   1       1.178  -2.444   1.058  0.00  0.00     0.002 A 
ATOM      7  C8  UNL d   1       0.902  -1.077   0.996  0.00  0.00     0.006 A 
ENDROOT
BRANCH   1   8
ATOM      8  C1  UNL d   1       1.526   1.284   0.361  0.00  0.00     0.054 C 
ATOM      9  C   UNL d   1       2.722   2.150   0.730  0.00  0.00     0.018 C 
ENDBRANCH   1   8
TORSDOF 1
ENDMDL
