MODEL 1
REMARK minimizedAffinity 5.65938854
REMARK minimizedRMSD -1
REMARK  1 active torsions:
REMARK  status: ('A' for Active; 'I' for Inactive)
REMARK    1  A    between atoms: C1_2  and  C2_3 
ROOT
ATOM      1  C2  UNL d   1       4.010  -2.001   3.870  0.00  0.00    -0.081 A 
ATOM      2  C3  UNL d   1       2.930  -1.119   4.001  0.00  0.00     0.006 A 
ATOM      3  C4  UNL d   1       1.992  -0.991   2.974  0.00  0.00     0.002 A 
ATOM      4  C5  UNL d   1       2.114  -1.747   1.803  0.00  0.00    -0.080 A 
ATOM      5  C6  UNL d   1       1.097  -1.641   0.706  0.00  0.00     0.076 C 
ATOM      6  C7  UNL d   1       3.202  -2.615   1.665  0.00  0.00     0.002 A 
ATOM      7  C8  UNL d   1       4.141  -2.743   2.691  0.00  0.00     0.006 A 
ENDROOT
BRANCH   1   8
ATOM      8  C1  UNL d   1       4.987  -2.189   5.003  0.00  0.00     0.054 C 
ATOM      9  C   UNL d   1       4.497  -3.242   5.987  0.00  0.00     0.018 C 
ENDBRANCH   1   8
TORSDOF 1
ENDMDL
