MODEL 1
REMARK minimizedAffinity 17.8430214
REMARK minimizedRMSD -1
REMARK  1 active torsions:
REMARK  status: ('A' for Active; 'I' for Inactive)
REMARK    1  A    between atoms: C1_2  and  C2_3 
ROOT
ATOM      1  C2  UNL d   1      -3.077   1.999   4.667  0.00  0.00    -0.081 A 
ATOM      2  C3  UNL d   1      -2.468   3.165   4.188  0.00  0.00     0.006 A 
ATOM      3  C4  UNL d   1      -2.914   4.421   4.606  0.00  0.00     0.002 A 
ATOM      4  C5  UNL d   1      -3.971   4.531   5.516  0.00  0.00    -0.080 A 
ATOM      5  C6  UNL d   1      -4.441   5.873   5.996  0.00  0.00     0.076 C 
ATOM      6  C7  UNL d   1      -4.592   3.367   5.981  0.00  0.00     0.002 A 
ATOM      7  C8  UNL d   1      -4.146   2.111   5.563  0.00  0.00     0.006 A 
ENDROOT
BRANCH   1   8
ATOM      8  C1  UNL d   1      -2.556   0.642   4.268  0.00  0.00     0.054 C 
ATOM      9  C   UNL d   1      -1.075   0.698   3.922  0.00  0.00     0.018 C 
ENDBRANCH   1   8
TORSDOF 1
ENDMDL
