MODEL 1
REMARK minimizedAffinity 12.7495098
REMARK minimizedRMSD -1
REMARK  1 active torsions:
REMARK  status: ('A' for Active; 'I' for Inactive)
REMARK    1  A    between atoms: C1_2  and  C2_3 
ROOT
ATOM      1  C2  UNL d   1      -4.821   1.322   1.701  0.00  0.00    -0.081 A 
ATOM      2  C3  UNL d   1      -3.702   0.944   2.454  0.00  0.00     0.006 A 
ATOM      3  C4  UNL d   1      -3.704   1.085   3.844  0.00  0.00     0.002 A 
ATOM      4  C5  UNL d   1      -4.825   1.598   4.504  0.00  0.00    -0.080 A 
ATOM      5  C6  UNL d   1      -4.851   1.726   5.998  0.00  0.00     0.076 C 
ATOM      6  C7  UNL d   1      -5.936   1.992   3.750  0.00  0.00     0.002 A 
ATOM      7  C8  UNL d   1      -5.935   1.852   2.360  0.00  0.00     0.006 A 
ENDROOT
BRANCH   1   8
ATOM      8  C1  UNL d   1      -4.847   1.112   0.208  0.00  0.00     0.054 C 
ATOM      9  C   UNL d   1      -4.134  -0.175  -0.181  0.00  0.00     0.018 C 
ENDBRANCH   1   8
TORSDOF 1
ENDMDL
