MODEL 1
REMARK minimizedAffinity 14.6068821
REMARK minimizedRMSD -1
REMARK  1 active torsions:
REMARK  status: ('A' for Active; 'I' for Inactive)
REMARK    1  A    between atoms: C1_2  and  C2_3 
ROOT
ATOM      1  C2  UNL d   1      -2.993   2.702  -3.621  0.00  0.00    -0.081 A 
ATOM      2  C3  UNL d   1      -2.339   2.171  -2.502  0.00  0.00     0.006 A 
ATOM      3  C4  UNL d   1      -1.017   1.729  -2.598  0.00  0.00     0.002 A 
ATOM      4  C5  UNL d   1      -0.326   1.818  -3.811  0.00  0.00    -0.080 A 
ATOM      5  C6  UNL d   1       1.103   1.375  -3.920  0.00  0.00     0.076 C 
ATOM      6  C7  UNL d   1      -0.984   2.332  -4.933  0.00  0.00     0.002 A 
ATOM      7  C8  UNL d   1      -2.306   2.773  -4.838  0.00  0.00     0.006 A 
ENDROOT
BRANCH   1   8
ATOM      8  C1  UNL d   1      -4.397   3.239  -3.505  0.00  0.00     0.054 C 
ATOM      9  C   UNL d   1      -5.170   3.050  -4.802  0.00  0.00     0.018 C 
ENDBRANCH   1   8
TORSDOF 1
ENDMDL
