MODEL 1
REMARK minimizedAffinity 12.2748976
REMARK minimizedRMSD -1
REMARK  1 active torsions:
REMARK  status: ('A' for Active; 'I' for Inactive)
REMARK    1  A    between atoms: C1_2  and  C2_3 
ROOT
ATOM      1  C2  UNL d   1       1.440  -2.567   0.655  0.00  0.00    -0.081 A 
ATOM      2  C3  UNL d   1       0.041  -2.595   0.600  0.00  0.00     0.006 A 
ATOM      3  C4  UNL d   1      -0.718  -1.832   1.491  0.00  0.00     0.002 A 
ATOM      4  C5  UNL d   1      -0.091  -1.023   2.445  0.00  0.00    -0.080 A 
ATOM      5  C6  UNL d   1      -0.894  -0.175   3.387  0.00  0.00     0.076 C 
ATOM      6  C7  UNL d   1       1.306  -1.008   2.511  0.00  0.00     0.002 A 
ATOM      7  C8  UNL d   1       2.065  -1.772   1.621  0.00  0.00     0.006 A 
ENDROOT
BRANCH   1   8
ATOM      8  C1  UNL d   1       2.262  -3.339  -0.346  0.00  0.00     0.054 C 
ATOM      9  C   UNL d   1       2.034  -4.838  -0.211  0.00  0.00     0.018 C 
ENDBRANCH   1   8
TORSDOF 1
ENDMDL
