MODEL 1
REMARK minimizedAffinity -2.67703319
REMARK minimizedRMSD -1
REMARK  0 active torsions:
REMARK  status: ('A' for Active; 'I' for Inactive)
ROOT
ATOM      1  O1  BZF d   1       0.892  -0.257  -0.530  0.00  0.00    -0.204 OA
ATOM      2  C2  BZF d   1      -0.074  -0.918  -1.265  0.00  0.00     0.174 A 
ATOM      3  C3  BZF d   1      -1.285  -0.795  -0.683  0.00  0.00    -0.012 A 
ATOM      4  C3A BZF d   1      -1.077   0.069   0.438  0.00  0.00    -0.107 A 
ATOM      5  C4  BZF d   1      -1.906   0.578   1.397  0.00  0.00     0.055 A 
ATOM      6  C5  BZF d   1      -1.376   1.332   2.396  0.00  0.00    -0.016 A 
ATOM      7  C6  BZF d   1      -0.023   1.592   2.469  0.00  0.00     0.022 A 
ATOM      8  C7  BZF d   1       0.838   1.113   1.538  0.00  0.00     0.029 A 
ATOM      9  C7A BZF d   1       0.300   0.378   0.510  0.00  0.00     0.058 A 
ENDROOT
TORSDOF 0
ENDMDL
