MODEL 1
REMARK minimizedAffinity -5.2268939
REMARK minimizedRMSD -1
REMARK  0 active torsions:
REMARK  status: ('A' for Active; 'I' for Inactive)
ROOT
ATOM      1  O1  BZF d   1       1.256  -1.085   0.296  0.00  0.00    -0.204 OA
ATOM      2  C2  BZF d   1       0.392  -0.963  -0.775  0.00  0.00     0.174 A 
ATOM      3  C3  BZF d   1      -0.720  -0.289  -0.418  0.00  0.00    -0.012 A 
ATOM      4  C3A BZF d   1      -0.499   0.110   0.938  0.00  0.00    -0.107 A 
ATOM      5  C4  BZF d   1      -1.237   0.823   1.839  0.00  0.00     0.055 A 
ATOM      6  C5  BZF d   1      -0.768   0.975   3.105  0.00  0.00    -0.016 A 
ATOM      7  C6  BZF d   1       0.432   0.423   3.505  0.00  0.00     0.022 A 
ATOM      8  C7  BZF d   1       1.202  -0.287   2.645  0.00  0.00     0.029 A 
ATOM      9  C7A BZF d   1       0.746  -0.414   1.356  0.00  0.00     0.058 A 
ENDROOT
TORSDOF 0
ENDMDL
