MODEL 1
REMARK minimizedAffinity -4.35498238
REMARK minimizedRMSD -1
REMARK  0 active torsions:
REMARK  status: ('A' for Active; 'I' for Inactive)
ROOT
ATOM      1  O1  BZF d   1      -0.853   0.159  -6.000  0.00  0.00    -0.204 OA
ATOM      2  C2  BZF d   1      -1.858  -0.768  -5.800  0.00  0.00     0.174 A 
ATOM      3  C3  BZF d   1      -1.683  -1.420  -4.633  0.00  0.00    -0.012 A 
ATOM      4  C3A BZF d   1      -0.545  -0.802  -4.024  0.00  0.00    -0.107 A 
ATOM      5  C4  BZF d   1       0.111  -1.001  -2.843  0.00  0.00     0.055 A 
ATOM      6  C5  BZF d   1       1.232  -0.279  -2.580  0.00  0.00    -0.016 A 
ATOM      7  C6  BZF d   1       1.727   0.645  -3.477  0.00  0.00     0.022 A 
ATOM      8  C7  BZF d   1       1.107   0.881  -4.659  0.00  0.00     0.029 A 
ATOM      9  C7A BZF d   1      -0.044   0.176  -4.913  0.00  0.00     0.058 A 
ENDROOT
TORSDOF 0
ENDMDL
