MODEL 1
REMARK minimizedAffinity 2.47937846
REMARK minimizedRMSD -1
REMARK  0 active torsions:
REMARK  status: ('A' for Active; 'I' for Inactive)
ROOT
ATOM      1  O1  BZF d   1       1.369  -0.359   2.361  0.00  0.00    -0.204 OA
ATOM      2  C2  BZF d   1       2.187  -0.468   1.253  0.00  0.00     0.174 A 
ATOM      3  C3  BZF d   1       1.464  -0.392   0.117  0.00  0.00    -0.012 A 
ATOM      4  C3A BZF d   1       0.122  -0.134   0.540  0.00  0.00    -0.107 A 
ATOM      5  C4  BZF d   1      -1.052   0.058  -0.129  0.00  0.00     0.055 A 
ATOM      6  C5  BZF d   1      -2.200   0.215   0.582  0.00  0.00    -0.016 A 
ATOM      7  C6  BZF d   1      -2.209   0.179   1.961  0.00  0.00     0.022 A 
ATOM      8  C7  BZF d   1      -1.068  -0.005   2.669  0.00  0.00     0.029 A 
ATOM      9  C7A BZF d   1       0.098  -0.130   1.954  0.00  0.00     0.058 A 
ENDROOT
TORSDOF 0
ENDMDL
