MODEL 1
REMARK minimizedAffinity -3.72104979
REMARK minimizedRMSD -1
REMARK  0 active torsions:
REMARK  status: ('A' for Active; 'I' for Inactive)
ROOT
ATOM      1  O1  BZF d   1       1.727  -0.754   0.066  0.00  0.00    -0.204 OA
ATOM      2  C2  BZF d   1       1.072  -1.225  -1.056  0.00  0.00     0.174 A 
ATOM      3  C3  BZF d   1      -0.240  -0.917  -1.008  0.00  0.00    -0.012 A 
ATOM      4  C3A BZF d   1      -0.399  -0.130   0.176  0.00  0.00    -0.107 A 
ATOM      5  C4  BZF d   1      -1.470   0.485   0.759  0.00  0.00     0.055 A 
ATOM      6  C5  BZF d   1      -1.303   1.114   1.952  0.00  0.00    -0.016 A 
ATOM      7  C6  BZF d   1      -0.082   1.143   2.592  0.00  0.00     0.022 A 
ATOM      8  C7  BZF d   1       1.011   0.552   2.051  0.00  0.00     0.029 A 
ATOM      9  C7A BZF d   1       0.853  -0.056   0.830  0.00  0.00     0.058 A 
ENDROOT
TORSDOF 0
ENDMDL
