MODEL 1
REMARK minimizedAffinity -2.02458024
REMARK minimizedRMSD -1
REMARK  0 active torsions:
REMARK  status: ('A' for Active; 'I' for Inactive)
ROOT
ATOM      1  C   UNL d   1       1.478   1.602   0.946  0.00  0.00     0.124 A 
ATOM      2  C1  UNL d   1       0.928   0.328   0.966  0.00  0.00     0.062 A 
ATOM      3  C2  UNL d   1      -0.451   0.160   0.877  0.00  0.00     0.162 A 
ATOM      4  C3  UNL d   1      -1.290   1.269   0.765  0.00  0.00    -0.034 A 
ATOM      5  C4  UNL d   1      -0.729   2.547   0.746  0.00  0.00     0.162 A 
ATOM      6  C5  UNL d   1       0.650   2.710   0.836  0.00  0.00     0.062 A 
ATOM      7  F   UNL d   1       1.179   3.942   0.816  0.00  0.00    -0.097 F 
ATOM      8  F1  UNL d   1      -1.506   3.635   0.639  0.00  0.00    -0.096 F 
ATOM      9  I   UNL d   1      -3.352   1.021   0.631  0.00  0.00    -0.060 I 
ATOM     10  F2  UNL d   1      -0.955  -1.083   0.899  0.00  0.00    -0.096 F 
ATOM     11  F3  UNL d   1       1.726  -0.744   1.074  0.00  0.00    -0.097 F 
ATOM     12  F4  UNL d   1       2.805   1.762   1.033  0.00  0.00    -0.092 F 
ENDROOT
TORSDOF 0
ENDMDL
