MODEL 1
REMARK minimizedAffinity 11.9309368
REMARK minimizedRMSD -1
REMARK  0 active torsions:
REMARK  status: ('A' for Active; 'I' for Inactive)
ROOT
ATOM      1  C   UNL d   1      -2.734   0.395   2.081  0.00  0.00     0.124 A 
ATOM      2  C1  UNL d   1      -1.863   0.265   1.009  0.00  0.00     0.062 A 
ATOM      3  C2  UNL d   1      -0.718   1.053   0.936  0.00  0.00     0.162 A 
ATOM      4  C3  UNL d   1      -0.437   1.980   1.940  0.00  0.00    -0.034 A 
ATOM      5  C4  UNL d   1      -1.319   2.106   3.016  0.00  0.00     0.162 A 
ATOM      6  C5  UNL d   1      -2.461   1.316   3.083  0.00  0.00     0.062 A 
ATOM      7  F   UNL d   1      -3.302   1.444   4.120  0.00  0.00    -0.097 F 
ATOM      8  F1  UNL d   1      -1.079   2.987   3.998  0.00  0.00    -0.096 F 
ATOM      9  I   UNL d   1       1.273   3.161   1.836  0.00  0.00    -0.060 I 
ATOM     10  F2  UNL d   1       0.106   0.906  -0.112  0.00  0.00    -0.096 F 
ATOM     11  F3  UNL d   1      -2.124  -0.623   0.039  0.00  0.00    -0.097 F 
ATOM     12  F4  UNL d   1      -3.835  -0.364   2.148  0.00  0.00    -0.092 F 
ENDROOT
TORSDOF 0
ENDMDL
