MODEL 1
REMARK minimizedAffinity 16.8683205
REMARK minimizedRMSD -1
REMARK  0 active torsions:
REMARK  status: ('A' for Active; 'I' for Inactive)
ROOT
ATOM      1  C   UNL d   1       3.745   2.756  -3.534  0.00  0.00     0.124 A 
ATOM      2  C1  UNL d   1       2.638   1.940  -3.724  0.00  0.00     0.062 A 
ATOM      3  C2  UNL d   1       2.292   0.995  -2.763  0.00  0.00     0.162 A 
ATOM      4  C3  UNL d   1       3.052   0.861  -1.601  0.00  0.00    -0.034 A 
ATOM      5  C4  UNL d   1       4.164   1.685  -1.417  0.00  0.00     0.162 A 
ATOM      6  C5  UNL d   1       4.506   2.627  -2.381  0.00  0.00     0.062 A 
ATOM      7  F   UNL d   1       5.576   3.415  -2.195  0.00  0.00    -0.097 F 
ATOM      8  F1  UNL d   1       4.917   1.582  -0.312  0.00  0.00    -0.096 F 
ATOM      9  I   UNL d   1       2.537  -0.551  -0.161  0.00  0.00    -0.060 I 
ATOM     10  F2  UNL d   1       1.217   0.220  -2.973  0.00  0.00    -0.096 F 
ATOM     11  F3  UNL d   1       1.901   2.061  -4.838  0.00  0.00    -0.097 F 
ATOM     12  F4  UNL d   1       4.077   3.663  -4.461  0.00  0.00    -0.092 F 
ENDROOT
TORSDOF 0
ENDMDL
