MODEL 1
REMARK minimizedAffinity 14.1638288
REMARK minimizedRMSD -1
REMARK  0 active torsions:
REMARK  status: ('A' for Active; 'I' for Inactive)
ROOT
ATOM      1  C   UNL d   1       1.370   0.549  -4.555  0.00  0.00     0.124 A 
ATOM      2  C1  UNL d   1       1.345   1.730  -5.284  0.00  0.00     0.062 A 
ATOM      3  C2  UNL d   1       2.449   2.576  -5.284  0.00  0.00     0.162 A 
ATOM      4  C3  UNL d   1       3.590   2.245  -4.553  0.00  0.00    -0.034 A 
ATOM      5  C4  UNL d   1       3.608   1.056  -3.822  0.00  0.00     0.162 A 
ATOM      6  C5  UNL d   1       2.501   0.213  -3.825  0.00  0.00     0.062 A 
ATOM      7  F   UNL d   1       2.528  -0.927  -3.120  0.00  0.00    -0.097 F 
ATOM      8  F1  UNL d   1       4.688   0.707  -3.108  0.00  0.00    -0.096 F 
ATOM      9  I   UNL d   1       5.244   3.508  -4.551  0.00  0.00    -0.060 I 
ATOM     10  F2  UNL d   1       2.397   3.711  -5.998  0.00  0.00    -0.096 F 
ATOM     11  F3  UNL d   1       0.253   2.057  -5.990  0.00  0.00    -0.097 F 
ATOM     12  F4  UNL d   1       0.305  -0.263  -4.556  0.00  0.00    -0.092 F 
ENDROOT
TORSDOF 0
ENDMDL
