MODEL 1
REMARK minimizedAffinity 36.3527374
REMARK minimizedRMSD -1
REMARK  0 active torsions:
REMARK  status: ('A' for Active; 'I' for Inactive)
ROOT
ATOM      1  C   UNL d   1       2.397   1.442  -0.130  0.00  0.00     0.124 A 
ATOM      2  C1  UNL d   1       1.383   1.163  -1.036  0.00  0.00     0.062 A 
ATOM      3  C2  UNL d   1       0.114   0.816  -0.582  0.00  0.00     0.162 A 
ATOM      4  C3  UNL d   1      -0.150   0.747   0.786  0.00  0.00    -0.034 A 
ATOM      5  C4  UNL d   1       0.875   1.028   1.692  0.00  0.00     0.162 A 
ATOM      6  C5  UNL d   1       2.142   1.374   1.233  0.00  0.00     0.062 A 
ATOM      7  F   UNL d   1       3.119   1.644   2.110  0.00  0.00    -0.097 F 
ATOM      8  F1  UNL d   1       0.656   0.972   3.014  0.00  0.00    -0.096 F 
ATOM      9  I   UNL d   1      -2.046   0.229   1.469  0.00  0.00    -0.060 I 
ATOM     10  F2  UNL d   1      -0.846   0.551  -1.480  0.00  0.00    -0.096 F 
ATOM     11  F3  UNL d   1       1.627   1.226  -2.353  0.00  0.00    -0.097 F 
ATOM     12  F4  UNL d   1       3.617   1.774  -0.569  0.00  0.00    -0.092 F 
ENDROOT
TORSDOF 0
ENDMDL
