MODEL 1
REMARK minimizedAffinity 13.7456398
REMARK minimizedRMSD -1
REMARK  0 active torsions:
REMARK  status: ('A' for Active; 'I' for Inactive)
ROOT
ATOM      1  C   UNL d   1      -2.401   2.375  -5.948  0.00  0.00     0.124 A 
ATOM      2  C1  UNL d   1      -1.974   3.696  -5.965  0.00  0.00     0.062 A 
ATOM      3  C2  UNL d   1      -2.903   4.732  -5.972  0.00  0.00     0.162 A 
ATOM      4  C3  UNL d   1      -4.269   4.452  -5.960  0.00  0.00    -0.034 A 
ATOM      5  C4  UNL d   1      -4.691   3.121  -5.944  0.00  0.00     0.162 A 
ATOM      6  C5  UNL d   1      -3.759   2.089  -5.938  0.00  0.00     0.062 A 
ATOM      7  F   UNL d   1      -4.173   0.814  -5.921  0.00  0.00    -0.097 F 
ATOM      8  F1  UNL d   1      -5.998   2.817  -5.933  0.00  0.00    -0.096 F 
ATOM      9  I   UNL d   1      -5.662   5.999  -5.970  0.00  0.00    -0.060 I 
ATOM     10  F2  UNL d   1      -2.462   5.999  -5.988  0.00  0.00    -0.096 F 
ATOM     11  F3  UNL d   1      -0.662   3.975  -5.976  0.00  0.00    -0.097 F 
ATOM     12  F4  UNL d   1      -1.505   1.380  -5.942  0.00  0.00    -0.092 F 
ENDROOT
TORSDOF 0
ENDMDL
