MODEL 1
REMARK minimizedAffinity -3.7594285
REMARK minimizedRMSD -1
REMARK  0 active torsions:
REMARK  status: ('A' for Active; 'I' for Inactive)
ROOT
ATOM      1  C   UNL d   1       1.087   2.193   0.792  0.00  0.00     0.124 A 
ATOM      2  C1  UNL d   1      -0.189   1.999   0.281  0.00  0.00     0.062 A 
ATOM      3  C2  UNL d   1      -0.642   0.714  -0.000  0.00  0.00     0.162 A 
ATOM      4  C3  UNL d   1       0.180  -0.389   0.230  0.00  0.00    -0.034 A 
ATOM      5  C4  UNL d   1       1.463  -0.186   0.743  0.00  0.00     0.162 A 
ATOM      6  C5  UNL d   1       1.911   1.100   1.023  0.00  0.00     0.062 A 
ATOM      7  F   UNL d   1       3.144   1.285   1.516  0.00  0.00    -0.097 F 
ATOM      8  F1  UNL d   1       2.279  -1.224   0.976  0.00  0.00    -0.096 F 
ATOM      9  I   UNL d   1      -0.495  -2.313  -0.190  0.00  0.00    -0.060 I 
ATOM     10  F2  UNL d   1      -1.880   0.556  -0.493  0.00  0.00    -0.096 F 
ATOM     11  F3  UNL d   1      -0.986   3.053   0.057  0.00  0.00    -0.097 F 
ATOM     12  F4  UNL d   1       1.522   3.431   1.061  0.00  0.00    -0.092 F 
ENDROOT
TORSDOF 0
ENDMDL
