MODEL 1
REMARK minimizedAffinity 12.7133789
REMARK minimizedRMSD -1
REMARK  0 active torsions:
REMARK  status: ('A' for Active; 'I' for Inactive)
ROOT
ATOM      1  C   UNL d   1      -2.579   0.871   0.141  0.00  0.00     0.124 A 
ATOM      2  C1  UNL d   1      -2.116  -0.343  -0.348  0.00  0.00     0.062 A 
ATOM      3  C2  UNL d   1      -0.756  -0.637  -0.320  0.00  0.00     0.162 A 
ATOM      4  C3  UNL d   1       0.152   0.285   0.202  0.00  0.00    -0.034 A 
ATOM      5  C4  UNL d   1      -0.320   1.504   0.691  0.00  0.00     0.162 A 
ATOM      6  C5  UNL d   1      -1.681   1.793   0.660  0.00  0.00     0.062 A 
ATOM      7  F   UNL d   1      -2.125   2.966   1.133  0.00  0.00    -0.097 F 
ATOM      8  F1  UNL d   1       0.526   2.412   1.199  0.00  0.00    -0.096 F 
ATOM      9  I   UNL d   1       2.187  -0.151   0.247  0.00  0.00    -0.060 I 
ATOM     10  F2  UNL d   1      -0.338  -1.817  -0.799  0.00  0.00    -0.096 F 
ATOM     11  F3  UNL d   1      -2.982  -1.235  -0.851  0.00  0.00    -0.097 F 
ATOM     12  F4  UNL d   1      -3.888   1.152   0.111  0.00  0.00    -0.092 F 
ENDROOT
TORSDOF 0
ENDMDL
