MODEL 1
REMARK minimizedAffinity 0.628943503
REMARK minimizedRMSD -1
REMARK  0 active torsions:
REMARK  status: ('A' for Active; 'I' for Inactive)
ROOT
ATOM      1  C   UNL d   1       0.671   2.641   1.516  0.00  0.00     0.124 A 
ATOM      2  C1  UNL d   1       1.590   1.914   0.772  0.00  0.00     0.062 A 
ATOM      3  C2  UNL d   1       1.213   0.717   0.171  0.00  0.00     0.162 A 
ATOM      4  C3  UNL d   1      -0.090   0.238   0.312  0.00  0.00    -0.034 A 
ATOM      5  C4  UNL d   1      -1.008   0.974   1.063  0.00  0.00     0.162 A 
ATOM      6  C5  UNL d   1      -0.626   2.171   1.661  0.00  0.00     0.062 A 
ATOM      7  F   UNL d   1      -1.515   2.872   2.380  0.00  0.00    -0.097 F 
ATOM      8  F1  UNL d   1      -2.268   0.543   1.219  0.00  0.00    -0.096 F 
ATOM      9  I   UNL d   1      -0.657  -1.553  -0.584  0.00  0.00    -0.060 I 
ATOM     10  F2  UNL d   1       2.121   0.035  -0.543  0.00  0.00    -0.096 F 
ATOM     11  F3  UNL d   1       2.844   2.367   0.631  0.00  0.00    -0.097 F 
ATOM     12  F4  UNL d   1       1.036   3.793   2.094  0.00  0.00    -0.092 F 
ENDROOT
TORSDOF 0
ENDMDL
