MODEL 1
REMARK minimizedAffinity 15.1820621
REMARK minimizedRMSD -1
REMARK  0 active torsions:
REMARK  status: ('A' for Active; 'I' for Inactive)
ROOT
ATOM      1  C   UNL d   1       2.764   1.455   1.802  0.00  0.00     0.124 A 
ATOM      2  C1  UNL d   1       1.900   2.239   2.554  0.00  0.00     0.062 A 
ATOM      3  C2  UNL d   1       0.523   2.119   2.390  0.00  0.00     0.162 A 
ATOM      4  C3  UNL d   1       0.001   1.210   1.469  0.00  0.00    -0.034 A 
ATOM      5  C4  UNL d   1       0.876   0.425   0.716  0.00  0.00     0.162 A 
ATOM      6  C5  UNL d   1       2.251   0.549   0.884  0.00  0.00     0.062 A 
ATOM      7  F   UNL d   1       3.085  -0.209   0.157  0.00  0.00    -0.097 F 
ATOM      8  F1  UNL d   1       0.408  -0.459  -0.178  0.00  0.00    -0.096 F 
ATOM      9  I   UNL d   1      -2.057   1.027   1.220  0.00  0.00    -0.060 I 
ATOM     10  F2  UNL d   1      -0.289   2.889   3.130  0.00  0.00    -0.096 F 
ATOM     11  F3  UNL d   1       2.392   3.115   3.441  0.00  0.00    -0.097 F 
ATOM     12  F4  UNL d   1       4.088   1.573   1.962  0.00  0.00    -0.092 F 
ENDROOT
TORSDOF 0
ENDMDL
