MODEL 1
REMARK minimizedAffinity -3.27883673
REMARK minimizedRMSD -1
REMARK  0 active torsions:
REMARK  status: ('A' for Active; 'I' for Inactive)
ROOT
ATOM      1  C   UNL d   1       0.592   2.319   0.727  0.00  0.00     0.124 A 
ATOM      2  C1  UNL d   1       1.483   1.255   0.743  0.00  0.00     0.062 A 
ATOM      3  C2  UNL d   1       1.092   0.007   0.267  0.00  0.00     0.162 A 
ATOM      4  C3  UNL d   1      -0.197  -0.184  -0.230  0.00  0.00    -0.034 A 
ATOM      5  C4  UNL d   1      -1.088   0.891  -0.242  0.00  0.00     0.162 A 
ATOM      6  C5  UNL d   1      -0.692   2.136   0.235  0.00  0.00     0.062 A 
ATOM      7  F   UNL d   1      -1.554   3.163   0.218  0.00  0.00    -0.097 F 
ATOM      8  F1  UNL d   1      -2.335   0.742  -0.714  0.00  0.00    -0.096 F 
ATOM      9  I   UNL d   1      -0.786  -2.048  -0.944  0.00  0.00    -0.060 I 
ATOM     10  F2  UNL d   1       1.974  -1.004   0.295  0.00  0.00    -0.096 F 
ATOM     11  F3  UNL d   1       2.725   1.428   1.220  0.00  0.00    -0.097 F 
ATOM     12  F4  UNL d   1       0.971   3.518   1.187  0.00  0.00    -0.092 F 
ENDROOT
TORSDOF 0
ENDMDL
