MODEL 1
REMARK minimizedAffinity -3.58423209
REMARK minimizedRMSD -1
REMARK  0 active torsions:
REMARK  status: ('A' for Active; 'I' for Inactive)
ROOT
ATOM      1  C   UNL d   1       0.684  -1.934  -0.876  0.00  0.00     0.124 A 
ATOM      2  C1  UNL d   1      -0.208  -1.975   0.186  0.00  0.00     0.062 A 
ATOM      3  C2  UNL d   1      -1.350  -2.767   0.111  0.00  0.00     0.162 A 
ATOM      4  C3  UNL d   1      -1.606  -3.526  -1.031  0.00  0.00    -0.034 A 
ATOM      5  C4  UNL d   1      -0.705  -3.479  -2.096  0.00  0.00     0.162 A 
ATOM      6  C5  UNL d   1       0.435  -2.686  -2.016  0.00  0.00     0.062 A 
ATOM      7  F   UNL d   1       1.296  -2.648  -3.043  0.00  0.00    -0.097 F 
ATOM      8  F1  UNL d   1      -0.920  -4.196  -3.209  0.00  0.00    -0.096 F 
ATOM      9  I   UNL d   1      -3.313  -4.712  -1.147  0.00  0.00    -0.060 I 
ATOM     10  F2  UNL d   1      -2.195  -2.788   1.152  0.00  0.00    -0.096 F 
ATOM     11  F3  UNL d   1       0.030  -1.249   1.288  0.00  0.00    -0.097 F 
ATOM     12  F4  UNL d   1       1.782  -1.171  -0.802  0.00  0.00    -0.092 F 
ENDROOT
TORSDOF 0
ENDMDL
