MODEL 1
REMARK minimizedAffinity 0.66840446
REMARK minimizedRMSD -1
REMARK  0 active torsions:
REMARK  status: ('A' for Active; 'I' for Inactive)
ROOT
ATOM      1  C   UNL d   1       0.800  -1.474  -1.400  0.00  0.00     0.124 A 
ATOM      2  C1  UNL d   1       0.835  -2.735  -1.979  0.00  0.00     0.062 A 
ATOM      3  C2  UNL d   1      -0.292  -3.551  -1.946  0.00  0.00     0.162 A 
ATOM      4  C3  UNL d   1      -1.465  -3.108  -1.334  0.00  0.00    -0.034 A 
ATOM      5  C4  UNL d   1      -1.491  -1.839  -0.753  0.00  0.00     0.162 A 
ATOM      6  C5  UNL d   1      -0.363  -1.027  -0.789  0.00  0.00     0.062 A 
ATOM      7  F   UNL d   1      -0.398   0.191  -0.229  0.00  0.00    -0.097 F 
ATOM      8  F1  UNL d   1      -2.602  -1.382  -0.156  0.00  0.00    -0.096 F 
ATOM      9  I   UNL d   1      -3.152  -4.326  -1.283  0.00  0.00    -0.060 I 
ATOM     10  F2  UNL d   1      -0.230  -4.765  -2.513  0.00  0.00    -0.096 F 
ATOM     11  F3  UNL d   1       1.957  -3.170  -2.570  0.00  0.00    -0.097 F 
ATOM     12  F4  UNL d   1       1.886  -0.691  -1.432  0.00  0.00    -0.092 F 
ENDROOT
TORSDOF 0
ENDMDL
