MODEL 1
REMARK minimizedAffinity 4.9120183
REMARK minimizedRMSD -1
REMARK  0 active torsions:
REMARK  status: ('A' for Active; 'I' for Inactive)
ROOT
ATOM      1  C   UNL d   1       1.708   3.858   0.220  0.00  0.00     0.124 A 
ATOM      2  C1  UNL d   1       2.349   3.511  -0.962  0.00  0.00     0.062 A 
ATOM      3  C2  UNL d   1       2.626   2.177  -1.242  0.00  0.00     0.162 A 
ATOM      4  C3  UNL d   1       2.262   1.177  -0.340  0.00  0.00    -0.034 A 
ATOM      5  C4  UNL d   1       1.619   1.533   0.847  0.00  0.00     0.162 A 
ATOM      6  C5  UNL d   1       1.344   2.869   1.123  0.00  0.00     0.062 A 
ATOM      7  F   UNL d   1       0.725   3.202   2.265  0.00  0.00    -0.097 F 
ATOM      8  F1  UNL d   1       1.255   0.598   1.737  0.00  0.00    -0.096 F 
ATOM      9  I   UNL d   1       2.675  -0.820  -0.756  0.00  0.00    -0.060 I 
ATOM     10  F2  UNL d   1       3.247   1.871  -2.392  0.00  0.00    -0.096 F 
ATOM     11  F3  UNL d   1       2.703   4.465  -1.835  0.00  0.00    -0.097 F 
ATOM     12  F4  UNL d   1       1.443   5.143   0.488  0.00  0.00    -0.092 F 
ENDROOT
TORSDOF 0
ENDMDL
