MODEL 1
REMARK minimizedAffinity -3.51579475
REMARK minimizedRMSD -1
REMARK  0 active torsions:
REMARK  status: ('A' for Active; 'I' for Inactive)
ROOT
ATOM      1  C2' OXE d   1      -0.752  -1.156   1.539  0.00  0.00     0.078 C 
ATOM      2  C1' OXE d   1      -1.922   1.343   1.022  0.00  0.00     0.078 C 
ATOM      3  C1  OXE d   1      -0.715   0.949   0.207  0.00  0.00    -0.078 A 
ATOM      4  C2  OXE d   1      -0.121  -0.255   0.499  0.00  0.00    -0.078 A 
ATOM      5  C3  OXE d   1       0.962  -0.691  -0.259  0.00  0.00     0.003 A 
ATOM      6  C4  OXE d   1       1.546   0.153  -1.212  0.00  0.00    -0.002 A 
ATOM      7  C5  OXE d   1       0.980   1.400  -1.497  0.00  0.00    -0.002 A 
ATOM      8  C6  OXE d   1      -0.173   1.795  -0.828  0.00  0.00     0.003 A 
ENDROOT
TORSDOF 0
ENDMDL
