MODEL 1
REMARK minimizedAffinity -4.84019518
REMARK minimizedRMSD -1
REMARK  0 active torsions:
REMARK  status: ('A' for Active; 'I' for Inactive)
ROOT
ATOM      1  C2' OXE d   1       1.258  -0.413  -1.036  0.00  0.00     0.078 C 
ATOM      2  C1' OXE d   1       0.105   2.117  -1.419  0.00  0.00     0.078 C 
ATOM      3  C1  OXE d   1      -0.314   1.330  -0.203  0.00  0.00    -0.078 A 
ATOM      4  C2  OXE d   1       0.220   0.074  -0.048  0.00  0.00    -0.078 A 
ATOM      5  C3  OXE d   1      -0.091  -0.673   1.085  0.00  0.00     0.003 A 
ATOM      6  C4  OXE d   1      -1.060  -0.220   1.988  0.00  0.00    -0.002 A 
ATOM      7  C5  OXE d   1      -1.646   1.040   1.828  0.00  0.00    -0.002 A 
ATOM      8  C6  OXE d   1      -1.253   1.844   0.763  0.00  0.00     0.003 A 
ENDROOT
TORSDOF 0
ENDMDL
