MODEL 1
REMARK minimizedAffinity -5.85216141
REMARK minimizedRMSD -1
REMARK  0 active torsions:
REMARK  status: ('A' for Active; 'I' for Inactive)
ROOT
ATOM      1  C2' OXE d   1       0.281  -1.133   2.048  0.00  0.00     0.078 C 
ATOM      2  C1' OXE d   1       0.994  -0.716  -0.635  0.00  0.00     0.078 C 
ATOM      3  C1  OXE d   1      -0.060   0.183  -0.039  0.00  0.00    -0.078 A 
ATOM      4  C2  OXE d   1      -0.437  -0.058   1.260  0.00  0.00    -0.078 A 
ATOM      5  C3  OXE d   1      -1.366   0.776   1.875  0.00  0.00     0.003 A 
ATOM      6  C4  OXE d   1      -2.032   1.761   1.136  0.00  0.00    -0.002 A 
ATOM      7  C5  OXE d   1      -1.692   1.998  -0.200  0.00  0.00    -0.002 A 
ATOM      8  C6  OXE d   1      -0.681   1.248  -0.789  0.00  0.00     0.003 A 
ENDROOT
TORSDOF 0
ENDMDL
