MODEL 1
REMARK minimizedAffinity -3.75347733
REMARK minimizedRMSD -1
REMARK  0 active torsions:
REMARK  status: ('A' for Active; 'I' for Inactive)
ROOT
ATOM      1  C2' OXE d   1       0.528  -0.750  -0.750  0.00  0.00     0.078 C 
ATOM      2  C1' OXE d   1      -0.045   1.894  -1.500  0.00  0.00     0.078 C 
ATOM      3  C1  OXE d   1      -0.586   1.404  -0.180  0.00  0.00    -0.078 A 
ATOM      4  C2  OXE d   1      -0.340   0.095   0.158  0.00  0.00    -0.078 A 
ATOM      5  C3  OXE d   1      -0.769  -0.392   1.389  0.00  0.00     0.003 A 
ATOM      6  C4  OXE d   1      -1.579   0.393   2.218  0.00  0.00    -0.002 A 
ATOM      7  C5  OXE d   1      -1.875   1.717   1.875  0.00  0.00    -0.002 A 
ATOM      8  C6  OXE d   1      -1.351   2.250   0.702  0.00  0.00     0.003 A 
ENDROOT
TORSDOF 0
ENDMDL
