MODEL 1
REMARK minimizedAffinity -5.26450062
REMARK minimizedRMSD -1
REMARK  0 active torsions:
REMARK  status: ('A' for Active; 'I' for Inactive)
ROOT
ATOM      1  C2' OXE d   1       0.317  -1.172   2.080  0.00  0.00     0.078 C 
ATOM      2  C1' OXE d   1       0.417  -0.850  -0.707  0.00  0.00     0.078 C 
ATOM      3  C1  OXE d   1      -0.495   0.062   0.074  0.00  0.00    -0.078 A 
ATOM      4  C2  OXE d   1      -0.573  -0.133   1.432  0.00  0.00    -0.078 A 
ATOM      5  C3  OXE d   1      -1.358   0.716   2.207  0.00  0.00     0.003 A 
ATOM      6  C4  OXE d   1      -2.186   1.668   1.598  0.00  0.00    -0.002 A 
ATOM      7  C5  OXE d   1      -2.151   1.857   0.213  0.00  0.00    -0.002 A 
ATOM      8  C6  OXE d   1      -1.282   1.093  -0.558  0.00  0.00     0.003 A 
ENDROOT
TORSDOF 0
ENDMDL
