MODEL 1
REMARK minimizedAffinity -3.61234784
REMARK minimizedRMSD -1
REMARK  0 active torsions:
REMARK  status: ('A' for Active; 'I' for Inactive)
ROOT
ATOM      1  C2' OXE d   1       0.274  -1.344   1.916  0.00  0.00     0.078 C 
ATOM      2  C1' OXE d   1       0.981  -0.946  -0.772  0.00  0.00     0.078 C 
ATOM      3  C1  OXE d   1       0.071   0.069  -0.126  0.00  0.00    -0.078 A 
ATOM      4  C2  OXE d   1      -0.307  -0.159   1.175  0.00  0.00    -0.078 A 
ATOM      5  C3  OXE d   1      -1.101   0.775   1.836  0.00  0.00     0.003 A 
ATOM      6  C4  OXE d   1      -1.642   1.864   1.141  0.00  0.00    -0.002 A 
ATOM      7  C5  OXE d   1      -1.301   2.092  -0.196  0.00  0.00    -0.002 A 
ATOM      8  C6  OXE d   1      -0.413   1.230  -0.831  0.00  0.00     0.003 A 
ENDROOT
TORSDOF 0
ENDMDL
