MODEL 1
REMARK minimizedAffinity -5.33938456
REMARK minimizedRMSD -1
REMARK  0 active torsions:
REMARK  status: ('A' for Active; 'I' for Inactive)
ROOT
ATOM      1  C2' OXE d   1      -0.123  -0.917   1.990  0.00  0.00     0.078 C 
ATOM      2  C1' OXE d   1       0.945  -0.248  -0.518  0.00  0.00     0.078 C 
ATOM      3  C1  OXE d   1      -0.188   0.595   0.012  0.00  0.00    -0.078 A 
ATOM      4  C2  OXE d   1      -0.735   0.232   1.219  0.00  0.00    -0.078 A 
ATOM      5  C3  OXE d   1      -1.746   1.008   1.779  0.00  0.00     0.003 A 
ATOM      6  C4  OXE d   1      -2.313   2.063   1.054  0.00  0.00    -0.002 A 
ATOM      7  C5  OXE d   1      -1.797   2.425  -0.194  0.00  0.00    -0.002 A 
ATOM      8  C6  OXE d   1      -0.709   1.729  -0.710  0.00  0.00     0.003 A 
ENDROOT
TORSDOF 0
ENDMDL
