MODEL 1
REMARK minimizedAffinity -2.02512145
REMARK minimizedRMSD -1
REMARK  0 active torsions:
REMARK  status: ('A' for Active; 'I' for Inactive)
ROOT
ATOM      1  C2' OXE d   1      -2.889   1.514   0.538  0.00  0.00     0.078 C 
ATOM      2  C1' OXE d   1      -1.023   1.551   2.634  0.00  0.00     0.078 C 
ATOM      3  C1  OXE d   1      -0.658   0.795   1.382  0.00  0.00    -0.078 A 
ATOM      4  C2  OXE d   1      -1.597   0.742   0.379  0.00  0.00    -0.078 A 
ATOM      5  C3  OXE d   1      -1.291   0.104  -0.819  0.00  0.00     0.003 A 
ATOM      6  C4  OXE d   1      -0.097  -0.616  -0.954  0.00  0.00    -0.002 A 
ATOM      7  C5  OXE d   1       0.856  -0.609   0.070  0.00  0.00    -0.002 A 
ATOM      8  C6  OXE d   1       0.609   0.125   1.225  0.00  0.00     0.003 A 
ENDROOT
TORSDOF 0
ENDMDL
