MODEL 1
REMARK minimizedAffinity -0.541307569
REMARK minimizedRMSD -1
REMARK  0 active torsions:
REMARK  status: ('A' for Active; 'I' for Inactive)
ROOT
ATOM      1  C2' OXE d   1       0.368  -1.173   2.076  0.00  0.00     0.078 C 
ATOM      2  C1' OXE d   1       0.862  -0.730  -0.652  0.00  0.00     0.078 C 
ATOM      3  C1  OXE d   1      -0.030   0.249   0.070  0.00  0.00    -0.078 A 
ATOM      4  C2  OXE d   1      -0.303  -0.001   1.393  0.00  0.00    -0.078 A 
ATOM      5  C3  OXE d   1      -1.075   0.900   2.120  0.00  0.00     0.003 A 
ATOM      6  C4  OXE d   1      -1.701   1.976   1.478  0.00  0.00    -0.002 A 
ATOM      7  C5  OXE d   1      -1.468   2.227   0.122  0.00  0.00    -0.002 A 
ATOM      8  C6  OXE d   1      -0.602   1.399  -0.585  0.00  0.00     0.003 A 
ENDROOT
TORSDOF 0
ENDMDL
