MODEL 1
REMARK minimizedAffinity -4.2612071
REMARK minimizedRMSD -1
REMARK  0 active torsions:
REMARK  status: ('A' for Active; 'I' for Inactive)
ROOT
ATOM      1  C2' OXE d   1       1.185  -0.049   1.484  0.00  0.00     0.078 C 
ATOM      2  C1' OXE d   1       0.284  -0.269  -1.165  0.00  0.00     0.078 C 
ATOM      3  C1  OXE d   1      -0.585   0.481  -0.187  0.00  0.00    -0.078 A 
ATOM      4  C2  OXE d   1      -0.159   0.544   1.118  0.00  0.00    -0.078 A 
ATOM      5  C3  OXE d   1      -0.895   1.270   2.050  0.00  0.00     0.003 A 
ATOM      6  C4  OXE d   1      -2.141   1.807   1.705  0.00  0.00    -0.002 A 
ATOM      7  C5  OXE d   1      -2.613   1.720   0.391  0.00  0.00    -0.002 A 
ATOM      8  C6  OXE d   1      -1.829   1.099  -0.575  0.00  0.00     0.003 A 
ENDROOT
TORSDOF 0
ENDMDL
