MODEL 1
REMARK minimizedAffinity -4.96046305
REMARK minimizedRMSD -1
REMARK  0 active torsions:
REMARK  status: ('A' for Active; 'I' for Inactive)
ROOT
ATOM      1  C2' OXE d   1      -2.011   2.504   1.287  0.00  0.00     0.078 C 
ATOM      2  C1' OXE d   1      -0.564   2.632  -1.115  0.00  0.00     0.078 C 
ATOM      3  C1  OXE d   1      -0.379   1.413  -0.247  0.00  0.00    -0.078 A 
ATOM      4  C2  OXE d   1      -1.055   1.380   0.949  0.00  0.00    -0.078 A 
ATOM      5  C3  OXE d   1      -0.962   0.255   1.763  0.00  0.00     0.003 A 
ATOM      6  C4  OXE d   1      -0.068  -0.776   1.448  0.00  0.00    -0.002 A 
ATOM      7  C5  OXE d   1       0.660  -0.744   0.255  0.00  0.00    -0.002 A 
ATOM      8  C6  OXE d   1       0.485   0.321  -0.623  0.00  0.00     0.003 A 
ENDROOT
TORSDOF 0
ENDMDL
