MODEL 1
REMARK minimizedAffinity -2.70438361
REMARK minimizedRMSD -1
REMARK  0 active torsions:
REMARK  status: ('A' for Active; 'I' for Inactive)
ROOT
ATOM      1  C2' OXE d   1       1.034  -0.466  -0.796  0.00  0.00     0.078 C 
ATOM      2  C1' OXE d   1       0.313   2.215  -1.216  0.00  0.00     0.078 C 
ATOM      3  C1  OXE d   1      -0.352   1.477  -0.081  0.00  0.00    -0.078 A 
ATOM      4  C2  OXE d   1      -0.028   0.152   0.088  0.00  0.00    -0.078 A 
ATOM      5  C3  OXE d   1      -0.571  -0.560   1.153  0.00  0.00     0.003 A 
ATOM      6  C4  OXE d   1      -1.561   0.015   1.960  0.00  0.00    -0.002 A 
ATOM      7  C5  OXE d   1      -1.935   1.351   1.780  0.00  0.00    -0.002 A 
ATOM      8  C6  OXE d   1      -1.310   2.107   0.793  0.00  0.00     0.003 A 
ENDROOT
TORSDOF 0
ENDMDL
