MODEL 1
REMARK minimizedAffinity -3.82623434
REMARK minimizedRMSD -1
REMARK  0 active torsions:
REMARK  status: ('A' for Active; 'I' for Inactive)
ROOT
ATOM      1  C2' OXE d   1      -1.533   1.232   2.036  0.00  0.00     0.078 C 
ATOM      2  C1' OXE d   1      -0.454  -1.277   2.688  0.00  0.00     0.078 C 
ATOM      3  C1  OXE d   1      -0.286  -0.786   1.272  0.00  0.00    -0.078 A 
ATOM      4  C2  OXE d   1      -0.858   0.422   0.950  0.00  0.00    -0.078 A 
ATOM      5  C3  OXE d   1      -0.686   0.947  -0.328  0.00  0.00     0.003 A 
ATOM      6  C4  OXE d   1      -0.069   0.187  -1.329  0.00  0.00    -0.002 A 
ATOM      7  C5  OXE d   1       0.485  -1.062  -1.033  0.00  0.00    -0.002 A 
ATOM      8  C6  OXE d   1       0.422  -1.544   0.270  0.00  0.00     0.003 A 
ENDROOT
TORSDOF 0
ENDMDL
