MODEL 1
REMARK minimizedAffinity -5.24833488
REMARK minimizedRMSD -1
REMARK  0 active torsions:
REMARK  status: ('A' for Active; 'I' for Inactive)
ROOT
ATOM      1  C2' OXE d   1       0.252  -1.032   2.362  0.00  0.00     0.078 C 
ATOM      2  C1' OXE d   1       1.019  -0.648  -0.311  0.00  0.00     0.078 C 
ATOM      3  C1  OXE d   1      -0.023   0.280   0.262  0.00  0.00    -0.078 A 
ATOM      4  C2  OXE d   1      -0.427   0.055   1.556  0.00  0.00    -0.078 A 
ATOM      5  C3  OXE d   1      -1.345   0.915   2.151  0.00  0.00     0.003 A 
ATOM      6  C4  OXE d   1      -1.975   1.912   1.396  0.00  0.00    -0.002 A 
ATOM      7  C5  OXE d   1      -1.608   2.133   0.065  0.00  0.00    -0.002 A 
ATOM      8  C6  OXE d   1      -0.605   1.354  -0.504  0.00  0.00     0.003 A 
ENDROOT
TORSDOF 0
ENDMDL
