MODEL 1
REMARK minimizedAffinity -2.92714262
REMARK minimizedRMSD -1
REMARK  0 active torsions:
REMARK  status: ('A' for Active; 'I' for Inactive)
ROOT
ATOM      1  C2' OXE d   1       0.935  -0.821   1.907  0.00  0.00     0.078 C 
ATOM      2  C1' OXE d   1       0.459  -0.375  -0.823  0.00  0.00     0.078 C 
ATOM      3  C1  OXE d   1      -0.381   0.387   0.171  0.00  0.00    -0.078 A 
ATOM      4  C2  OXE d   1      -0.173   0.128   1.505  0.00  0.00    -0.078 A 
ATOM      5  C3  OXE d   1      -0.882   0.844   2.465  0.00  0.00     0.003 A 
ATOM      6  C4  OXE d   1      -1.912   1.712   2.084  0.00  0.00    -0.002 A 
ATOM      7  C5  OXE d   1      -2.167   1.961   0.732  0.00  0.00    -0.002 A 
ATOM      8  C6  OXE d   1      -1.384   1.340  -0.235  0.00  0.00     0.003 A 
ENDROOT
TORSDOF 0
ENDMDL
