MODEL 1
REMARK minimizedAffinity -4.80614901
REMARK minimizedRMSD -1
REMARK  0 active torsions:
REMARK  status: ('A' for Active; 'I' for Inactive)
ROOT
ATOM      1  C2' OXE d   1      -2.168   1.910   1.261  0.00  0.00     0.078 C 
ATOM      2  C1' OXE d   1      -0.786   2.134  -1.172  0.00  0.00     0.078 C 
ATOM      3  C1  OXE d   1      -0.481   0.944  -0.297  0.00  0.00    -0.078 A 
ATOM      4  C2  OXE d   1      -1.128   0.867   0.913  0.00  0.00    -0.078 A 
ATOM      5  C3  OXE d   1      -0.924  -0.238   1.735  0.00  0.00     0.003 A 
ATOM      6  C4  OXE d   1       0.047  -1.193   1.411  0.00  0.00    -0.002 A 
ATOM      7  C5  OXE d   1       0.745  -1.112   0.201  0.00  0.00    -0.002 A 
ATOM      8  C6  OXE d   1       0.463  -0.075  -0.681  0.00  0.00     0.003 A 
ENDROOT
TORSDOF 0
ENDMDL
