MODEL 1
REMARK minimizedAffinity -4.22194576
REMARK minimizedRMSD -1
REMARK  0 active torsions:
REMARK  status: ('A' for Active; 'I' for Inactive)
ROOT
ATOM      1  C2' OXE d   1      -0.511   2.306  -1.299  0.00  0.00     0.078 C 
ATOM      2  C1' OXE d   1      -1.889   1.766   1.087  0.00  0.00     0.078 C 
ATOM      3  C1  OXE d   1      -0.873   0.755   0.617  0.00  0.00    -0.078 A 
ATOM      4  C2  OXE d   1      -0.238   1.004  -0.576  0.00  0.00    -0.078 A 
ATOM      5  C3  OXE d   1       0.747   0.131  -1.028  0.00  0.00     0.003 A 
ATOM      6  C4  OXE d   1       0.986  -1.076  -0.359  0.00  0.00    -0.002 A 
ATOM      7  C5  OXE d   1       0.321  -1.368   0.837  0.00  0.00    -0.002 A 
ATOM      8  C6  OXE d   1      -0.579  -0.446   1.359  0.00  0.00     0.003 A 
ENDROOT
TORSDOF 0
ENDMDL
