MODEL 1
REMARK minimizedAffinity -1.79834592
REMARK minimizedRMSD -1
REMARK  1 active torsions:
REMARK  status: ('A' for Active; 'I' for Inactive)
REMARK    1  A    between atoms: C3_4  and  O_7 
ROOT
ATOM      1  C   UNL d   1      -2.539  -2.032  -3.196  0.00  0.00    -0.033 A 
ATOM      2  C1  UNL d   1      -1.517  -1.096  -3.372  0.00  0.00     0.039 A 
ATOM      3  C2  UNL d   1      -0.672  -0.776  -2.308  0.00  0.00    -0.080 A 
ATOM      4  C3  UNL d   1      -0.857  -1.397  -1.077  0.00  0.00     0.150 A 
ATOM      5  C4  UNL d   1      -1.870  -2.333  -0.896  0.00  0.00    -0.007 A 
ATOM      6  C5  UNL d   1      -2.714  -2.651  -1.959  0.00  0.00     0.039 A 
ENDROOT
BRANCH   4   7
ATOM      7  O   UNL d   1      -0.060  -1.113  -0.008  0.00  0.00    -0.526 OA
ATOM      8  H5  UNL d   1       0.577  -0.428  -0.273  0.00  0.00     0.418 HD
ENDBRANCH   4   7
TORSDOF 1
ENDMDL
