MODEL 1
REMARK minimizedAffinity -4.31876898
REMARK minimizedRMSD -1
REMARK  1 active torsions:
REMARK  status: ('A' for Active; 'I' for Inactive)
REMARK    1  A    between atoms: C3_4  and  O_7 
ROOT
ATOM      1  C   UNL d   1      -0.759   0.795   0.969  0.00  0.00    -0.033 A 
ATOM      2  C1  UNL d   1      -0.295  -0.126   0.028  0.00  0.00     0.039 A 
ATOM      3  C2  UNL d   1       1.077  -0.279  -0.184  0.00  0.00    -0.080 A 
ATOM      4  C3  UNL d   1       1.972   0.493   0.552  0.00  0.00     0.150 A 
ATOM      5  C4  UNL d   1       1.517   1.409   1.493  0.00  0.00    -0.007 A 
ATOM      6  C5  UNL d   1       0.147   1.562   1.703  0.00  0.00     0.039 A 
ENDROOT
BRANCH   4   7
ATOM      7  O   UNL d   1       3.320   0.382   0.376  0.00  0.00    -0.526 OA
ATOM      8  H5  UNL d   1       3.486  -0.268  -0.326  0.00  0.00     0.418 HD
ENDBRANCH   4   7
TORSDOF 1
ENDMDL
