MODEL 1
REMARK minimizedAffinity -2.88361621
REMARK minimizedRMSD -1
REMARK  1 active torsions:
REMARK  status: ('A' for Active; 'I' for Inactive)
REMARK    1  A    between atoms: C3_4  and  O_7 
ROOT
ATOM      1  C   UNL d   1      -1.247  -0.791  -1.043  0.00  0.00    -0.033 A 
ATOM      2  C1  UNL d   1      -1.769   0.502  -0.974  0.00  0.00     0.039 A 
ATOM      3  C2  UNL d   1      -1.255   1.415  -0.052  0.00  0.00    -0.080 A 
ATOM      4  C3  UNL d   1      -0.220   1.025   0.794  0.00  0.00     0.150 A 
ATOM      5  C4  UNL d   1       0.308  -0.261   0.727  0.00  0.00    -0.007 A 
ATOM      6  C5  UNL d   1      -0.208  -1.172  -0.193  0.00  0.00     0.039 A 
ENDROOT
BRANCH   4   7
ATOM      7  O   UNL d   1       0.311   1.880   1.713  0.00  0.00    -0.526 OA
ATOM      8  H5  UNL d   1      -0.171   2.722   1.664  0.00  0.00     0.418 HD
ENDBRANCH   4   7
TORSDOF 1
ENDMDL
