MODEL 1
REMARK minimizedAffinity -3.18977427
REMARK minimizedRMSD -1
REMARK  1 active torsions:
REMARK  status: ('A' for Active; 'I' for Inactive)
REMARK    1  A    between atoms: C3_4  and  O_7 
ROOT
ATOM      1  C   UNL d   1      -0.204   1.825   0.970  0.00  0.00    -0.033 A 
ATOM      2  C1  UNL d   1      -0.226   0.635   1.699  0.00  0.00     0.039 A 
ATOM      3  C2  UNL d   1      -0.541  -0.569   1.065  0.00  0.00    -0.080 A 
ATOM      4  C3  UNL d   1      -0.831  -0.568  -0.297  0.00  0.00     0.150 A 
ATOM      5  C4  UNL d   1      -0.807   0.614  -1.030  0.00  0.00    -0.007 A 
ATOM      6  C5  UNL d   1      -0.493   1.815  -0.395  0.00  0.00     0.039 A 
ENDROOT
BRANCH   4   7
ATOM      7  O   UNL d   1      -1.149  -1.717  -0.959  0.00  0.00    -0.526 OA
ATOM      8  H5  UNL d   1      -1.154  -2.448  -0.320  0.00  0.00     0.418 HD
ENDBRANCH   4   7
TORSDOF 1
ENDMDL
