MODEL 1
REMARK minimizedAffinity -3.20907426
REMARK minimizedRMSD -1
REMARK  1 active torsions:
REMARK  status: ('A' for Active; 'I' for Inactive)
REMARK    1  A    between atoms: C3_4  and  O_7 
ROOT
ATOM      1  C   UNL d   1      -2.086  -1.979  -2.241  0.00  0.00    -0.033 A 
ATOM      2  C1  UNL d   1      -2.022  -2.106  -0.852  0.00  0.00     0.039 A 
ATOM      3  C2  UNL d   1      -1.012  -1.460  -0.137  0.00  0.00    -0.080 A 
ATOM      4  C3  UNL d   1      -0.074  -0.691  -0.821  0.00  0.00     0.150 A 
ATOM      5  C4  UNL d   1      -0.135  -0.558  -2.204  0.00  0.00    -0.007 A 
ATOM      6  C5  UNL d   1      -1.143  -1.204  -2.917  0.00  0.00     0.039 A 
ENDROOT
BRANCH   4   7
ATOM      7  O   UNL d   1       0.933  -0.046  -0.166  0.00  0.00    -0.526 OA
ATOM      8  H5  UNL d   1       0.865  -0.252   0.781  0.00  0.00     0.418 HD
ENDBRANCH   4   7
TORSDOF 1
ENDMDL
