MODEL 1
REMARK minimizedAffinity -0.230350628
REMARK minimizedRMSD -1
REMARK  1 active torsions:
REMARK  status: ('A' for Active; 'I' for Inactive)
REMARK    1  A    between atoms: C3_4  and  O_7 
ROOT
ATOM      1  C   UNL d   1      -1.164   0.826  -0.017  0.00  0.00    -0.033 A 
ATOM      2  C1  UNL d   1      -0.739   0.616  -1.330  0.00  0.00     0.039 A 
ATOM      3  C2  UNL d   1       0.549   0.139  -1.581  0.00  0.00    -0.080 A 
ATOM      4  C3  UNL d   1       1.400  -0.125  -0.512  0.00  0.00     0.150 A 
ATOM      5  C4  UNL d   1       0.982   0.079   0.799  0.00  0.00    -0.007 A 
ATOM      6  C5  UNL d   1      -0.304   0.556   1.048  0.00  0.00     0.039 A 
ENDROOT
BRANCH   4   7
ATOM      7  O   UNL d   1       2.668  -0.587  -0.707  0.00  0.00    -0.526 OA
ATOM      8  H5  UNL d   1       2.828  -0.652  -1.664  0.00  0.00     0.418 HD
ENDBRANCH   4   7
TORSDOF 1
ENDMDL
