MODEL 1
REMARK minimizedAffinity -3.48214221
REMARK minimizedRMSD -1
REMARK  1 active torsions:
REMARK  status: ('A' for Active; 'I' for Inactive)
REMARK    1  A    between atoms: C3_4  and  O_7 
ROOT
ATOM      1  C   UNL d   1      -2.432  -1.798  -3.360  0.00  0.00    -0.033 A 
ATOM      2  C1  UNL d   1      -2.659  -2.104  -2.017  0.00  0.00     0.039 A 
ATOM      3  C2  UNL d   1      -1.597  -2.105  -1.111  0.00  0.00    -0.080 A 
ATOM      4  C3  UNL d   1      -0.315  -1.798  -1.559  0.00  0.00     0.150 A 
ATOM      5  C4  UNL d   1      -0.082  -1.489  -2.895  0.00  0.00    -0.007 A 
ATOM      6  C5  UNL d   1      -1.144  -1.489  -3.799  0.00  0.00     0.039 A 
ENDROOT
BRANCH   4   7
ATOM      7  O   UNL d   1       0.754  -1.792  -0.713  0.00  0.00    -0.526 OA
ATOM      8  H5  UNL d   1       0.447  -2.052   0.172  0.00  0.00     0.418 HD
ENDBRANCH   4   7
TORSDOF 1
ENDMDL
