MODEL 1
REMARK minimizedAffinity -0.458298594
REMARK minimizedRMSD -1
REMARK  1 active torsions:
REMARK  status: ('A' for Active; 'I' for Inactive)
REMARK    1  A    between atoms: C3_4  and  O_7 
ROOT
ATOM      1  C   UNL d   1      -1.420   1.263   1.620  0.00  0.00    -0.033 A 
ATOM      2  C1  UNL d   1      -1.205   1.383   0.246  0.00  0.00     0.039 A 
ATOM      3  C2  UNL d   1      -0.578   0.352  -0.456  0.00  0.00    -0.080 A 
ATOM      4  C3  UNL d   1      -0.172  -0.792   0.226  0.00  0.00     0.150 A 
ATOM      5  C4  UNL d   1      -0.387  -0.919   1.595  0.00  0.00    -0.007 A 
ATOM      6  C5  UNL d   1      -1.013   0.112   2.294  0.00  0.00     0.039 A 
ENDROOT
BRANCH   4   7
ATOM      7  O   UNL d   1       0.448  -1.822  -0.415  0.00  0.00    -0.526 OA
ATOM      8  H5  UNL d   1       0.555  -1.582  -1.351  0.00  0.00     0.418 HD
ENDBRANCH   4   7
TORSDOF 1
ENDMDL
