MODEL 1
REMARK minimizedAffinity -1.79391515
REMARK minimizedRMSD -1
REMARK  1 active torsions:
REMARK  status: ('A' for Active; 'I' for Inactive)
REMARK    1  A    between atoms: C3_4  and  O_7 
ROOT
ATOM      1  C   UNL d   1      -0.392  -1.162  -0.816  0.00  0.00    -0.033 A 
ATOM      2  C1  UNL d   1      -1.470  -0.794  -0.008  0.00  0.00     0.039 A 
ATOM      3  C2  UNL d   1      -1.299   0.161   0.996  0.00  0.00    -0.080 A 
ATOM      4  C3  UNL d   1      -0.047   0.741   1.181  0.00  0.00     0.150 A 
ATOM      5  C4  UNL d   1       1.031   0.382   0.377  0.00  0.00    -0.007 A 
ATOM      6  C5  UNL d   1       0.858  -0.573  -0.624  0.00  0.00     0.039 A 
ENDROOT
BRANCH   4   7
ATOM      7  O   UNL d   1       0.170   1.674   2.150  0.00  0.00    -0.526 OA
ATOM      8  H5  UNL d   1      -0.656   1.801   2.646  0.00  0.00     0.418 HD
ENDBRANCH   4   7
TORSDOF 1
ENDMDL
