MODEL 1
REMARK minimizedAffinity -1.3624754
REMARK minimizedRMSD -1
REMARK  1 active torsions:
REMARK  status: ('A' for Active; 'I' for Inactive)
REMARK    1  A    between atoms: C3_4  and  O_7 
ROOT
ATOM      1  C   UNL d   1      -2.549  -1.417  -2.974  0.00  0.00    -0.033 A 
ATOM      2  C1  UNL d   1      -1.455  -0.589  -3.234  0.00  0.00     0.039 A 
ATOM      3  C2  UNL d   1      -0.591  -0.226  -2.200  0.00  0.00    -0.080 A 
ATOM      4  C3  UNL d   1      -0.831  -0.697  -0.912  0.00  0.00     0.150 A 
ATOM      5  C4  UNL d   1      -1.916  -1.524  -0.646  0.00  0.00    -0.007 A 
ATOM      6  C5  UNL d   1      -2.779  -1.885  -1.680  0.00  0.00     0.039 A 
ENDROOT
BRANCH   4   7
ATOM      7  O   UNL d   1      -0.017  -0.365   0.131  0.00  0.00    -0.526 OA
ATOM      8  H5  UNL d   1       0.674   0.235  -0.196  0.00  0.00     0.418 HD
ENDBRANCH   4   7
TORSDOF 1
ENDMDL
