MODEL 1
REMARK minimizedAffinity -2.10121918
REMARK minimizedRMSD -1
REMARK  1 active torsions:
REMARK  status: ('A' for Active; 'I' for Inactive)
REMARK    1  A    between atoms: C3_4  and  O_7 
ROOT
ATOM      1  C   UNL d   1      -0.022  -1.209  -0.691  0.00  0.00    -0.033 A 
ATOM      2  C1  UNL d   1      -1.191  -0.854  -0.015  0.00  0.00     0.039 A 
ATOM      3  C2  UNL d   1      -1.173   0.186   0.916  0.00  0.00    -0.080 A 
ATOM      4  C3  UNL d   1       0.018   0.864   1.160  0.00  0.00     0.150 A 
ATOM      5  C4  UNL d   1       1.186   0.519   0.488  0.00  0.00    -0.007 A 
ATOM      6  C5  UNL d   1       1.166  -0.521  -0.441  0.00  0.00     0.039 A 
ENDROOT
BRANCH   4   7
ATOM      7  O   UNL d   1       0.086   1.883   2.063  0.00  0.00    -0.526 OA
ATOM      8  H5  UNL d   1      -0.789   1.991   2.472  0.00  0.00     0.418 HD
ENDBRANCH   4   7
TORSDOF 1
ENDMDL
