MODEL 1
REMARK minimizedAffinity -3.67959023
REMARK minimizedRMSD -1
REMARK  1 active torsions:
REMARK  status: ('A' for Active; 'I' for Inactive)
REMARK    1  A    between atoms: C3_4  and  O_7 
ROOT
ATOM      1  C   UNL d   1      -2.914  -2.103  -2.801  0.00  0.00    -0.033 A 
ATOM      2  C1  UNL d   1      -3.290  -1.949  -1.465  0.00  0.00     0.039 A 
ATOM      3  C2  UNL d   1      -2.363  -1.498  -0.524  0.00  0.00    -0.080 A 
ATOM      4  C3  UNL d   1      -1.065  -1.202  -0.931  0.00  0.00     0.150 A 
ATOM      5  C4  UNL d   1      -0.684  -1.349  -2.261  0.00  0.00    -0.007 A 
ATOM      6  C5  UNL d   1      -1.612  -1.801  -3.199  0.00  0.00     0.039 A 
ENDROOT
BRANCH   4   7
ATOM      7  O   UNL d   1      -0.124  -0.763  -0.049  0.00  0.00    -0.526 OA
ATOM      8  H5  UNL d   1      -0.521  -0.737   0.838  0.00  0.00     0.418 HD
ENDBRANCH   4   7
TORSDOF 1
ENDMDL
