MODEL 1
REMARK minimizedAffinity -1.43988025
REMARK minimizedRMSD -1
REMARK  1 active torsions:
REMARK  status: ('A' for Active; 'I' for Inactive)
REMARK    1  A    between atoms: C3_4  and  O_7 
ROOT
ATOM      1  C   UNL d   1      -1.678   0.625   2.061  0.00  0.00    -0.033 A 
ATOM      2  C1  UNL d   1      -1.652  -0.393   1.107  0.00  0.00     0.039 A 
ATOM      3  C2  UNL d   1      -0.470  -0.680   0.420  0.00  0.00    -0.080 A 
ATOM      4  C3  UNL d   1       0.677   0.058   0.698  0.00  0.00     0.150 A 
ATOM      5  C4  UNL d   1       0.660   1.072   1.650  0.00  0.00    -0.007 A 
ATOM      6  C5  UNL d   1      -0.521   1.357   2.334  0.00  0.00     0.039 A 
ENDROOT
BRANCH   4   7
ATOM      7  O   UNL d   1       1.852  -0.181   0.050  0.00  0.00    -0.526 OA
ATOM      8  H5  UNL d   1       1.707  -0.889  -0.600  0.00  0.00     0.418 HD
ENDBRANCH   4   7
TORSDOF 1
ENDMDL
