MODEL 1
REMARK minimizedAffinity -3.9580369
REMARK minimizedRMSD -1
REMARK  1 active torsions:
REMARK  status: ('A' for Active; 'I' for Inactive)
REMARK    1  A    between atoms: C3_4  and  O_7 
ROOT
ATOM      1  C   UNL d   1       0.337   1.315   1.825  0.00  0.00    -0.033 A 
ATOM      2  C1  UNL d   1      -0.260   0.440   0.915  0.00  0.00     0.039 A 
ATOM      3  C2  UNL d   1       0.529  -0.282   0.018  0.00  0.00    -0.080 A 
ATOM      4  C3  UNL d   1       1.912  -0.122   0.041  0.00  0.00     0.150 A 
ATOM      5  C4  UNL d   1       2.514   0.745   0.948  0.00  0.00    -0.007 A 
ATOM      6  C5  UNL d   1       1.724   1.466   1.843  0.00  0.00     0.039 A 
ENDROOT
BRANCH   4   7
ATOM      7  O   UNL d   1       2.723  -0.801  -0.818  0.00  0.00    -0.526 OA
ATOM      8  H5  UNL d   1       2.167  -1.340  -1.405  0.00  0.00     0.418 HD
ENDBRANCH   4   7
TORSDOF 1
ENDMDL
