MODEL 1
REMARK minimizedAffinity -0.733107686
REMARK minimizedRMSD -1
REMARK  1 active torsions:
REMARK  status: ('A' for Active; 'I' for Inactive)
REMARK    1  A    between atoms: C3_4  and  O_7 
ROOT
ATOM      1  C   UNL d   1      -1.902  -1.919  -3.325  0.00  0.00    -0.033 A 
ATOM      2  C1  UNL d   1      -0.532  -1.721  -3.143  0.00  0.00     0.039 A 
ATOM      3  C2  UNL d   1      -0.016  -1.537  -1.859  0.00  0.00    -0.080 A 
ATOM      4  C3  UNL d   1      -0.878  -1.555  -0.766  0.00  0.00     0.150 A 
ATOM      5  C4  UNL d   1      -2.244  -1.756  -0.940  0.00  0.00    -0.007 A 
ATOM      6  C5  UNL d   1      -2.758  -1.938  -2.223  0.00  0.00     0.039 A 
ENDROOT
BRANCH   4   7
ATOM      7  O   UNL d   1      -0.421  -1.376   0.506  0.00  0.00    -0.526 OA
ATOM      8  H5  UNL d   1       0.537  -1.220   0.469  0.00  0.00     0.418 HD
ENDBRANCH   4   7
TORSDOF 1
ENDMDL
