MODEL 1
REMARK minimizedAffinity 0.70966202
REMARK minimizedRMSD -1
REMARK  1 active torsions:
REMARK  status: ('A' for Active; 'I' for Inactive)
REMARK    1  A    between atoms: C3_4  and  O_7 
ROOT
ATOM      1  C   UNL d   1       0.348  -1.561  -2.535  0.00  0.00    -0.033 A 
ATOM      2  C1  UNL d   1      -0.810  -1.681  -3.305  0.00  0.00     0.039 A 
ATOM      3  C2  UNL d   1      -2.058  -1.765  -2.683  0.00  0.00    -0.080 A 
ATOM      4  C3  UNL d   1      -2.133  -1.727  -1.293  0.00  0.00     0.150 A 
ATOM      5  C4  UNL d   1      -0.983  -1.604  -0.521  0.00  0.00    -0.007 A 
ATOM      6  C5  UNL d   1       0.262  -1.521  -1.143  0.00  0.00     0.039 A 
ENDROOT
BRANCH   4   7
ATOM      7  O   UNL d   1      -3.327  -1.810  -0.642  0.00  0.00    -0.526 OA
ATOM      8  H5  UNL d   1      -4.031  -1.921  -1.302  0.00  0.00     0.418 HD
ENDBRANCH   4   7
TORSDOF 1
ENDMDL
