MODEL 1
REMARK minimizedAffinity 7.10252285
REMARK minimizedRMSD -1
REMARK  0 active torsions:
REMARK  status: ('A' for Active; 'I' for Inactive)
ROOT
ATOM      1  C   UNL d   1      -0.195   2.070   3.239  0.00  0.00     0.023 A 
ATOM      2  C1  UNL d   1       0.792   1.875   2.272  0.00  0.00     0.003 A 
ATOM      3  C2  UNL d   1       0.550   2.232   0.944  0.00  0.00     0.048 A 
ATOM      4  C3  UNL d   1      -0.681   2.784   0.590  0.00  0.00     0.023 A 
ATOM      5  C4  UNL d   1      -1.670   2.982   1.554  0.00  0.00     0.048 A 
ATOM      6  C5  UNL d   1      -1.424   2.623   2.881  0.00  0.00     0.003 A 
ATOM      7  I   UNL d   1      -1.043   3.316  -1.386  0.00  0.00    -0.146 I 
ENDROOT
TORSDOF 0
ENDMDL
