MODEL 1
REMARK minimizedAffinity 5.78947544
REMARK minimizedRMSD -1
REMARK  0 active torsions:
REMARK  status: ('A' for Active; 'I' for Inactive)
ROOT
ATOM      1  C   UNL d   1      -4.963   5.506  -4.631  0.00  0.00     0.023 A 
ATOM      2  C1  UNL d   1      -3.731   5.280  -5.245  0.00  0.00     0.003 A 
ATOM      3  C2  UNL d   1      -2.738   4.561  -4.577  0.00  0.00     0.048 A 
ATOM      4  C3  UNL d   1      -2.984   4.069  -3.296  0.00  0.00     0.023 A 
ATOM      5  C4  UNL d   1      -4.216   4.291  -2.678  0.00  0.00     0.048 A 
ATOM      6  C5  UNL d   1      -5.205   5.012  -3.350  0.00  0.00     0.003 A 
ATOM      7  I   UNL d   1      -1.508   2.997  -2.299  0.00  0.00    -0.146 I 
ENDROOT
TORSDOF 0
ENDMDL
