MODEL 1
REMARK minimizedAffinity 1.01229882
REMARK minimizedRMSD -1
REMARK  0 active torsions:
REMARK  status: ('A' for Active; 'I' for Inactive)
ROOT
ATOM      1  C   UNL d   1      -1.474   3.322   1.333  0.00  0.00     0.023 A 
ATOM      2  C1  UNL d   1      -0.564   2.376   0.860  0.00  0.00     0.003 A 
ATOM      3  C2  UNL d   1      -0.271   1.245   1.624  0.00  0.00     0.048 A 
ATOM      4  C3  UNL d   1      -0.891   1.066   2.860  0.00  0.00     0.023 A 
ATOM      5  C4  UNL d   1      -1.803   2.009   3.337  0.00  0.00     0.048 A 
ATOM      6  C5  UNL d   1      -2.092   3.139   2.570  0.00  0.00     0.003 A 
ATOM      7  I   UNL d   1      -0.456  -0.617   4.000  0.00  0.00    -0.146 I 
ENDROOT
TORSDOF 0
ENDMDL
