MODEL 1
REMARK minimizedAffinity 8.20025539
REMARK minimizedRMSD -1
REMARK  0 active torsions:
REMARK  status: ('A' for Active; 'I' for Inactive)
ROOT
ATOM      1  C   UNL d   1      -1.264  -0.903  -1.690  0.00  0.00     0.023 A 
ATOM      2  C1  UNL d   1      -0.160  -0.090  -1.432  0.00  0.00     0.003 A 
ATOM      3  C2  UNL d   1      -0.297   1.039  -0.622  0.00  0.00     0.048 A 
ATOM      4  C3  UNL d   1      -1.541   1.349  -0.073  0.00  0.00     0.023 A 
ATOM      5  C4  UNL d   1      -2.648   0.538  -0.328  0.00  0.00     0.048 A 
ATOM      6  C5  UNL d   1      -2.506  -0.589  -1.139  0.00  0.00     0.003 A 
ATOM      7  I   UNL d   1      -1.748   3.029   1.133  0.00  0.00    -0.146 I 
ENDROOT
TORSDOF 0
ENDMDL
