MODEL 1
REMARK minimizedAffinity 5.17872906
REMARK minimizedRMSD -1
REMARK  0 active torsions:
REMARK  status: ('A' for Active; 'I' for Inactive)
ROOT
ATOM      1  C   UNL d   1      -1.333  -0.838  -1.826  0.00  0.00     0.023 A 
ATOM      2  C1  UNL d   1      -1.001  -2.136  -1.438  0.00  0.00     0.003 A 
ATOM      3  C2  UNL d   1       0.330  -2.471  -1.183  0.00  0.00     0.048 A 
ATOM      4  C3  UNL d   1       1.325  -1.503  -1.318  0.00  0.00     0.023 A 
ATOM      5  C4  UNL d   1       0.998  -0.203  -1.705  0.00  0.00     0.048 A 
ATOM      6  C5  UNL d   1      -0.335   0.128  -1.960  0.00  0.00     0.003 A 
ATOM      7  I   UNL d   1       3.307  -2.000  -0.939  0.00  0.00    -0.146 I 
ENDROOT
TORSDOF 0
ENDMDL
