MODEL 1
REMARK minimizedAffinity -1.18824601
REMARK minimizedRMSD -1
REMARK  0 active torsions:
REMARK  status: ('A' for Active; 'I' for Inactive)
ROOT
ATOM      1  C   UNL d   1      -3.456   0.155  -1.886  0.00  0.00     0.023 A 
ATOM      2  C1  UNL d   1      -2.442   1.070  -2.170  0.00  0.00     0.003 A 
ATOM      3  C2  UNL d   1      -2.756   2.315  -2.720  0.00  0.00     0.048 A 
ATOM      4  C3  UNL d   1      -4.087   2.638  -2.983  0.00  0.00     0.023 A 
ATOM      5  C4  UNL d   1      -5.105   1.726  -2.700  0.00  0.00     0.048 A 
ATOM      6  C5  UNL d   1      -4.786   0.483  -2.151  0.00  0.00     0.003 A 
ATOM      7  I   UNL d   1      -4.557   4.489  -3.802  0.00  0.00    -0.146 I 
ENDROOT
TORSDOF 0
ENDMDL
