MODEL 1
REMARK minimizedAffinity 2.69185209
REMARK minimizedRMSD -1
REMARK  0 active torsions:
REMARK  status: ('A' for Active; 'I' for Inactive)
ROOT
ATOM      1  C   UNL d   1      -3.592   3.863  -2.327  0.00  0.00     0.023 A 
ATOM      2  C1  UNL d   1      -3.794   5.243  -2.317  0.00  0.00     0.003 A 
ATOM      3  C2  UNL d   1      -4.474   5.858  -3.370  0.00  0.00     0.048 A 
ATOM      4  C3  UNL d   1      -4.950   5.087  -4.430  0.00  0.00     0.023 A 
ATOM      5  C4  UNL d   1      -4.751   3.705  -4.443  0.00  0.00     0.048 A 
ATOM      6  C5  UNL d   1      -4.070   3.095  -3.388  0.00  0.00     0.003 A 
ATOM      7  I   UNL d   1      -5.963   5.999  -5.999  0.00  0.00    -0.146 I 
ENDROOT
TORSDOF 0
ENDMDL
