MODEL 1
REMARK minimizedAffinity 9.2128334
REMARK minimizedRMSD -1
REMARK  0 active torsions:
REMARK  status: ('A' for Active; 'I' for Inactive)
ROOT
ATOM      1  C   UNL d   1       4.423   0.673  -0.517  0.00  0.00     0.077 C 
ATOM      2  C1  UNL d   1       3.374   0.837   0.542  0.00  0.00    -0.074 A 
ATOM      3  C2  UNL d   1       2.900   2.105   0.895  0.00  0.00    -0.005 A 
ATOM      4  C3  UNL d   1       1.918   2.240   1.875  0.00  0.00     0.006 A 
ATOM      5  C4  UNL d   1       1.399   1.112   2.511  0.00  0.00    -0.005 A 
ATOM      6  C5  UNL d   1       1.859  -0.164   2.171  0.00  0.00    -0.074 A 
ATOM      7  C6  UNL d   1       1.305  -1.388   2.838  0.00  0.00     0.077 C 
ATOM      8  C7  UNL d   1       2.842  -0.293   1.180  0.00  0.00    -0.001 A 
ENDROOT
TORSDOF 0
ENDMDL
