MODEL 1
REMARK minimizedAffinity 4.23295879
REMARK minimizedRMSD -1
REMARK  0 active torsions:
REMARK  status: ('A' for Active; 'I' for Inactive)
ROOT
ATOM      1  C   UNL d   1       1.401  -5.932  -1.087  0.00  0.00     0.077 C 
ATOM      2  C1  UNL d   1       2.526  -5.949  -2.079  0.00  0.00    -0.074 A 
ATOM      3  C2  UNL d   1       3.858  -5.967  -1.654  0.00  0.00    -0.005 A 
ATOM      4  C3  UNL d   1       4.894  -5.992  -2.588  0.00  0.00     0.006 A 
ATOM      5  C4  UNL d   1       4.608  -6.000  -3.954  0.00  0.00    -0.005 A 
ATOM      6  C5  UNL d   1       3.282  -5.982  -4.397  0.00  0.00    -0.074 A 
ATOM      7  C6  UNL d   1       2.957  -6.000  -5.861  0.00  0.00     0.077 C 
ATOM      8  C7  UNL d   1       2.246  -5.964  -3.452  0.00  0.00    -0.001 A 
ENDROOT
TORSDOF 0
ENDMDL
