MODEL 1
REMARK minimizedAffinity -4.02202702
REMARK minimizedRMSD -1
REMARK  0 active torsions:
REMARK  status: ('A' for Active; 'I' for Inactive)
ROOT
ATOM      1  C   UNL d   1       0.600  -5.762   5.191  0.00  0.00     0.077 C 
ATOM      2  C1  UNL d   1       1.488  -4.558   5.079  0.00  0.00    -0.074 A 
ATOM      3  C2  UNL d   1       2.516  -4.335   6.000  0.00  0.00    -0.005 A 
ATOM      4  C3  UNL d   1       3.340  -3.216   5.876  0.00  0.00     0.006 A 
ATOM      5  C4  UNL d   1       3.144  -2.310   4.833  0.00  0.00    -0.005 A 
ATOM      6  C5  UNL d   1       2.121  -2.517   3.902  0.00  0.00    -0.074 A 
ATOM      7  C6  UNL d   1       1.902  -1.559   2.769  0.00  0.00     0.077 C 
ATOM      8  C7  UNL d   1       1.302  -3.648   4.029  0.00  0.00    -0.001 A 
ENDROOT
TORSDOF 0
ENDMDL
