MODEL 1
REMARK minimizedAffinity 5.6925292
REMARK minimizedRMSD -1
REMARK  0 active torsions:
REMARK  status: ('A' for Active; 'I' for Inactive)
ROOT
ATOM      1  C   UNL d   1       4.944  -2.968   4.296  0.00  0.00     0.077 C 
ATOM      2  C1  UNL d   1       3.475  -3.000   3.996  0.00  0.00    -0.074 A 
ATOM      3  C2  UNL d   1       2.913  -2.125   3.060  0.00  0.00    -0.005 A 
ATOM      4  C3  UNL d   1       1.546  -2.173   2.785  0.00  0.00     0.006 A 
ATOM      5  C4  UNL d   1       0.729  -3.094   3.441  0.00  0.00    -0.005 A 
ATOM      6  C5  UNL d   1       1.273  -3.978   4.378  0.00  0.00    -0.074 A 
ATOM      7  C6  UNL d   1       0.411  -4.981   5.085  0.00  0.00     0.077 C 
ATOM      8  C7  UNL d   1       2.648  -3.928   4.645  0.00  0.00    -0.001 A 
ENDROOT
TORSDOF 0
ENDMDL
