MODEL 1
REMARK minimizedAffinity 9.83455467
REMARK minimizedRMSD -1
REMARK  0 active torsions:
REMARK  status: ('A' for Active; 'I' for Inactive)
ROOT
ATOM      1  C   UNL d   1      -6.000   3.729   0.741  0.00  0.00     0.077 C 
ATOM      2  C1  UNL d   1      -4.705   3.160   0.242  0.00  0.00    -0.074 A 
ATOM      3  C2  UNL d   1      -3.708   2.751   1.133  0.00  0.00    -0.005 A 
ATOM      4  C3  UNL d   1      -2.513   2.215   0.654  0.00  0.00     0.006 A 
ATOM      5  C4  UNL d   1      -2.302   2.083  -0.719  0.00  0.00    -0.005 A 
ATOM      6  C5  UNL d   1      -3.288   2.486  -1.626  0.00  0.00    -0.074 A 
ATOM      7  C6  UNL d   1      -3.083   2.342  -3.104  0.00  0.00     0.077 C 
ATOM      8  C7  UNL d   1      -4.490   3.017  -1.136  0.00  0.00    -0.001 A 
ENDROOT
TORSDOF 0
ENDMDL
