MODEL 1
REMARK minimizedAffinity 7.1815958
REMARK minimizedRMSD -1
REMARK  0 active torsions:
REMARK  status: ('A' for Active; 'I' for Inactive)
ROOT
ATOM      1  C   UNL d   1      -3.139  -1.515  -3.596  0.00  0.00     0.077 C 
ATOM      2  C1  UNL d   1      -3.009  -0.183  -2.919  0.00  0.00    -0.074 A 
ATOM      3  C2  UNL d   1      -3.429   0.990  -3.555  0.00  0.00    -0.005 A 
ATOM      4  C3  UNL d   1      -3.311   2.221  -2.909  0.00  0.00     0.006 A 
ATOM      5  C4  UNL d   1      -2.774   2.291  -1.623  0.00  0.00    -0.005 A 
ATOM      6  C5  UNL d   1      -2.349   1.129  -0.972  0.00  0.00    -0.074 A 
ATOM      7  C6  UNL d   1      -1.778   1.185   0.414  0.00  0.00     0.077 C 
ATOM      8  C7  UNL d   1      -2.477  -0.105  -1.624  0.00  0.00    -0.001 A 
ENDROOT
TORSDOF 0
ENDMDL
