MODEL 1
REMARK minimizedAffinity -3.97194648
REMARK minimizedRMSD -1
REMARK  0 active torsions:
REMARK  status: ('A' for Active; 'I' for Inactive)
ROOT
ATOM      1  C   UNL d   1       3.023   1.156   0.326  0.00  0.00     0.077 C 
ATOM      2  C1  UNL d   1       2.271   0.094   1.072  0.00  0.00    -0.074 A 
ATOM      3  C2  UNL d   1       2.578  -0.202   2.403  0.00  0.00    -0.005 A 
ATOM      4  C3  UNL d   1       1.863  -1.186   3.087  0.00  0.00     0.006 A 
ATOM      5  C4  UNL d   1       0.837  -1.882   2.447  0.00  0.00    -0.005 A 
ATOM      6  C5  UNL d   1       0.516  -1.598   1.116  0.00  0.00    -0.074 A 
ATOM      7  C6  UNL d   1      -0.591  -2.329   0.416  0.00  0.00     0.077 C 
ATOM      8  C7  UNL d   1       1.234  -0.603   0.438  0.00  0.00    -0.001 A 
ENDROOT
TORSDOF 0
ENDMDL
