MODEL 1
REMARK minimizedAffinity 8.12022877
REMARK minimizedRMSD -1
REMARK  0 active torsions:
REMARK  status: ('A' for Active; 'I' for Inactive)
ROOT
ATOM      1  C   UNL d   1      -5.981   4.296  -0.734  0.00  0.00     0.077 C 
ATOM      2  C1  UNL d   1      -5.515   3.720  -2.038  0.00  0.00    -0.074 A 
ATOM      3  C2  UNL d   1      -5.998   4.212  -3.254  0.00  0.00    -0.005 A 
ATOM      4  C3  UNL d   1      -5.548   3.673  -4.460  0.00  0.00     0.006 A 
ATOM      5  C4  UNL d   1      -4.613   2.638  -4.460  0.00  0.00    -0.005 A 
ATOM      6  C5  UNL d   1      -4.118   2.133  -3.253  0.00  0.00    -0.074 A 
ATOM      7  C6  UNL d   1      -3.104   1.028  -3.236  0.00  0.00     0.077 C 
ATOM      8  C7  UNL d   1      -4.569   2.685  -2.047  0.00  0.00    -0.001 A 
ENDROOT
TORSDOF 0
ENDMDL
