MODEL 1
REMARK minimizedAffinity 6.69939375
REMARK minimizedRMSD -1
REMARK  0 active torsions:
REMARK  status: ('A' for Active; 'I' for Inactive)
ROOT
ATOM      1  C   UNL d   1       3.202  -5.990  -5.884  0.00  0.00     0.077 C 
ATOM      2  C1  UNL d   1       3.271  -5.991  -4.385  0.00  0.00    -0.074 A 
ATOM      3  C2  UNL d   1       4.503  -5.968  -3.723  0.00  0.00    -0.005 A 
ATOM      4  C3  UNL d   1       4.551  -5.959  -2.329  0.00  0.00     0.006 A 
ATOM      5  C4  UNL d   1       3.371  -5.972  -1.585  0.00  0.00    -0.005 A 
ATOM      6  C5  UNL d   1       2.130  -5.994  -2.230  0.00  0.00    -0.074 A 
ATOM      7  C6  UNL d   1       0.852  -5.998  -1.445  0.00  0.00     0.077 C 
ATOM      8  C7  UNL d   1       2.090  -5.996  -3.631  0.00  0.00    -0.001 A 
ENDROOT
TORSDOF 0
ENDMDL
