MODEL 1
REMARK minimizedAffinity 4.29516315
REMARK minimizedRMSD -1
REMARK  0 active torsions:
REMARK  status: ('A' for Active; 'I' for Inactive)
ROOT
ATOM      1  C   UNL d   1      -4.128   3.349   1.786  0.00  0.00     0.077 C 
ATOM      2  C1  UNL d   1      -3.492   2.579   0.667  0.00  0.00    -0.074 A 
ATOM      3  C2  UNL d   1      -2.620   1.518   0.929  0.00  0.00    -0.005 A 
ATOM      4  C3  UNL d   1      -2.043   0.805  -0.122  0.00  0.00     0.006 A 
ATOM      5  C4  UNL d   1      -2.332   1.146  -1.444  0.00  0.00    -0.005 A 
ATOM      6  C5  UNL d   1      -3.202   2.203  -1.726  0.00  0.00    -0.074 A 
ATOM      7  C6  UNL d   1      -3.531   2.576  -3.141  0.00  0.00     0.077 C 
ATOM      8  C7  UNL d   1      -3.783   2.910  -0.664  0.00  0.00    -0.001 A 
ENDROOT
TORSDOF 0
ENDMDL
