MODEL 1
REMARK minimizedAffinity -1.68386924
REMARK minimizedRMSD -1
REMARK  0 active torsions:
REMARK  status: ('A' for Active; 'I' for Inactive)
ROOT
ATOM      1  O1  BZF d   1      -3.151   0.743  -1.996  0.00  0.00    -0.204 OA
ATOM      2  C2  BZF d   1      -2.501  -0.438  -2.294  0.00  0.00     0.174 A 
ATOM      3  C3  BZF d   1      -3.099  -1.066  -3.326  0.00  0.00    -0.012 A 
ATOM      4  C3A BZF d   1      -4.136  -0.179  -3.757  0.00  0.00    -0.107 A 
ATOM      5  C4  BZF d   1      -5.067  -0.236  -4.754  0.00  0.00     0.055 A 
ATOM      6  C5  BZF d   1      -5.983   0.762  -4.861  0.00  0.00    -0.016 A 
ATOM      7  C6  BZF d   1      -6.000   1.828  -3.986  0.00  0.00     0.022 A 
ATOM      8  C7  BZF d   1      -5.093   1.931  -2.984  0.00  0.00     0.029 A 
ATOM      9  C7A BZF d   1      -4.146   0.941  -2.893  0.00  0.00     0.058 A 
ENDROOT
TORSDOF 0
ENDMDL
