MODEL 1
REMARK minimizedAffinity 1.30477262
REMARK minimizedRMSD -1
REMARK  0 active torsions:
REMARK  status: ('A' for Active; 'I' for Inactive)
ROOT
ATOM      1  O1  BZF d   1       2.244   5.953   2.051  0.00  0.00    -0.204 OA
ATOM      2  C2  BZF d   1       0.918   5.601   1.891  0.00  0.00     0.174 A 
ATOM      3  C3  BZF d   1       0.396   5.165   3.056  0.00  0.00    -0.012 A 
ATOM      4  C3A BZF d   1       1.436   5.336   4.023  0.00  0.00    -0.107 A 
ATOM      5  C4  BZF d   1       1.520   5.096   5.364  0.00  0.00     0.055 A 
ATOM      6  C5  BZF d   1       2.703   5.303   6.000  0.00  0.00    -0.016 A 
ATOM      7  C6  BZF d   1       3.823   5.742   5.325  0.00  0.00     0.022 A 
ATOM      8  C7  BZF d   1       3.788   5.998   3.994  0.00  0.00     0.029 A 
ATOM      9  C7A BZF d   1       2.584   5.822   3.355  0.00  0.00     0.058 A 
ENDROOT
TORSDOF 0
ENDMDL
