MODEL 1
REMARK minimizedAffinity 9.3104372
REMARK minimizedRMSD -1
REMARK  0 active torsions:
REMARK  status: ('A' for Active; 'I' for Inactive)
ROOT
ATOM      1  O1  BZF d   1       1.871  -4.880   0.001  0.00  0.00    -0.204 OA
ATOM      2  C2  BZF d   1       3.217  -5.188   0.042  0.00  0.00     0.174 A 
ATOM      3  C3  BZF d   1       3.890  -4.292   0.793  0.00  0.00    -0.012 A 
ATOM      4  C3A BZF d   1       2.888  -3.419   1.325  0.00  0.00    -0.107 A 
ATOM      5  C4  BZF d   1       2.931  -2.337   2.158  0.00  0.00     0.055 A 
ATOM      6  C5  BZF d   1       1.782  -1.663   2.424  0.00  0.00    -0.016 A 
ATOM      7  C6  BZF d   1       0.575  -2.038   1.872  0.00  0.00     0.022 A 
ATOM      8  C7  BZF d   1       0.482  -3.107   1.044  0.00  0.00     0.029 A 
ATOM      9  C7A BZF d   1       1.635  -3.811   0.799  0.00  0.00     0.058 A 
ENDROOT
TORSDOF 0
ENDMDL
