MODEL 1
REMARK minimizedAffinity 9.36520386
REMARK minimizedRMSD -1
REMARK  0 active torsions:
REMARK  status: ('A' for Active; 'I' for Inactive)
ROOT
ATOM      1  O1  BZF d   1       5.192   5.500   4.691  0.00  0.00    -0.204 OA
ATOM      2  C2  BZF d   1       4.477   5.961   5.780  0.00  0.00     0.174 A 
ATOM      3  C3  BZF d   1       3.392   5.192   6.000  0.00  0.00    -0.012 A 
ATOM      4  C3A BZF d   1       3.481   4.132   5.042  0.00  0.00    -0.107 A 
ATOM      5  C4  BZF d   1       2.703   3.043   4.773  0.00  0.00     0.055 A 
ATOM      6  C5  BZF d   1       3.028   2.243   3.723  0.00  0.00    -0.016 A 
ATOM      7  C6  BZF d   1       4.119   2.505   2.921  0.00  0.00     0.022 A 
ATOM      8  C7  BZF d   1       4.923   3.571   3.152  0.00  0.00     0.029 A 
ATOM      9  C7A BZF d   1       4.616   4.363   4.232  0.00  0.00     0.058 A 
ENDROOT
TORSDOF 0
ENDMDL
