MODEL 1
REMARK minimizedAffinity 8.67900181
REMARK minimizedRMSD -1
REMARK  0 active torsions:
REMARK  status: ('A' for Active; 'I' for Inactive)
ROOT
ATOM      1  O1  BZF d   1       1.571  -3.589   0.679  0.00  0.00    -0.204 OA
ATOM      2  C2  BZF d   1       2.548  -2.825   0.070  0.00  0.00     0.174 A 
ATOM      3  C3  BZF d   1       2.443  -1.532   0.438  0.00  0.00    -0.012 A 
ATOM      4  C3A BZF d   1       1.389  -1.500   1.406  0.00  0.00    -0.107 A 
ATOM      5  C4  BZF d   1       0.827  -0.503   2.149  0.00  0.00     0.055 A 
ATOM      6  C5  BZF d   1      -0.234  -0.791   2.947  0.00  0.00    -0.016 A 
ATOM      7  C6  BZF d   1      -0.762  -2.064   3.021  0.00  0.00     0.022 A 
ATOM      8  C7  BZF d   1      -0.234  -3.088   2.306  0.00  0.00     0.029 A 
ATOM      9  C7A BZF d   1       0.859  -2.806   1.524  0.00  0.00     0.058 A 
ENDROOT
TORSDOF 0
ENDMDL
