MODEL 1
REMARK minimizedAffinity 4.42424965
REMARK minimizedRMSD -1
REMARK  0 active torsions:
REMARK  status: ('A' for Active; 'I' for Inactive)
ROOT
ATOM      1  O1  BZF d   1       2.615  -2.991   2.534  0.00  0.00    -0.204 OA
ATOM      2  C2  BZF d   1       3.011  -3.617   1.368  0.00  0.00     0.174 A 
ATOM      3  C3  BZF d   1       2.231  -3.241   0.334  0.00  0.00    -0.012 A 
ATOM      4  C3A BZF d   1       1.348  -2.251   0.870  0.00  0.00    -0.107 A 
ATOM      5  C4  BZF d   1       0.351  -1.491   0.328  0.00  0.00     0.055 A 
ATOM      6  C5  BZF d   1      -0.370  -0.672   1.139  0.00  0.00    -0.016 A 
ATOM      7  C6  BZF d   1      -0.124  -0.592   2.494  0.00  0.00     0.022 A 
ATOM      8  C7  BZF d   1       0.858  -1.323   3.076  0.00  0.00     0.029 A 
ATOM      9  C7A BZF d   1       1.609  -2.127   2.254  0.00  0.00     0.058 A 
ENDROOT
TORSDOF 0
ENDMDL
