MODEL 1
REMARK minimizedAffinity 4.18674231
REMARK minimizedRMSD -1
REMARK  0 active torsions:
REMARK  status: ('A' for Active; 'I' for Inactive)
ROOT
ATOM      1  O1  BZF d   1       1.376  -4.805   1.375  0.00  0.00    -0.204 OA
ATOM      2  C2  BZF d   1       2.450  -4.152   0.803  0.00  0.00     0.174 A 
ATOM      3  C3  BZF d   1       2.324  -2.816   0.936  0.00  0.00    -0.012 A 
ATOM      4  C3A BZF d   1       1.139  -2.626   1.716  0.00  0.00    -0.107 A 
ATOM      5  C4  BZF d   1       0.497  -1.519   2.194  0.00  0.00     0.055 A 
ATOM      6  C5  BZF d   1      -0.677  -1.673   2.859  0.00  0.00    -0.016 A 
ATOM      7  C6  BZF d   1      -1.241  -2.916   3.060  0.00  0.00     0.022 A 
ATOM      8  C7  BZF d   1      -0.639  -4.043   2.609  0.00  0.00     0.029 A 
ATOM      9  C7A BZF d   1       0.565  -3.894   1.964  0.00  0.00     0.058 A 
ENDROOT
TORSDOF 0
ENDMDL
