MODEL 1
REMARK minimizedAffinity 10.4598074
REMARK minimizedRMSD -1
REMARK  0 active torsions:
REMARK  status: ('A' for Active; 'I' for Inactive)
ROOT
ATOM      1  O1  BZF d   1       4.653  -2.965  -0.370  0.00  0.00    -0.204 OA
ATOM      2  C2  BZF d   1       5.318  -1.812  -0.001  0.00  0.00     0.174 A 
ATOM      3  C3  BZF d   1       4.470  -0.930   0.566  0.00  0.00    -0.012 A 
ATOM      4  C3A BZF d   1       3.212  -1.609   0.635  0.00  0.00    -0.107 A 
ATOM      5  C4  BZF d   1       1.981  -1.260   1.112  0.00  0.00     0.055 A 
ATOM      6  C5  BZF d   1       0.945  -2.125   0.962  0.00  0.00    -0.016 A 
ATOM      7  C6  BZF d   1       1.101  -3.344   0.335  0.00  0.00     0.022 A 
ATOM      8  C7  BZF d   1       2.304  -3.737  -0.150  0.00  0.00     0.029 A 
ATOM      9  C7A BZF d   1       3.361  -2.878   0.029  0.00  0.00     0.058 A 
ENDROOT
TORSDOF 0
ENDMDL
