MODEL 1
REMARK minimizedAffinity 11.8940668
REMARK minimizedRMSD -1
REMARK  0 active torsions:
REMARK  status: ('A' for Active; 'I' for Inactive)
ROOT
ATOM      1  O1  BZF d   1       1.931  -0.833   3.687  0.00  0.00    -0.204 OA
ATOM      2  C2  BZF d   1       3.012  -1.459   4.278  0.00  0.00     0.174 A 
ATOM      3  C3  BZF d   1       3.518  -2.408   3.465  0.00  0.00    -0.012 A 
ATOM      4  C3A BZF d   1       2.760  -2.311   2.255  0.00  0.00    -0.107 A 
ATOM      5  C4  BZF d   1       2.801  -2.979   1.065  0.00  0.00     0.055 A 
ATOM      6  C5  BZF d   1       1.874  -2.692   0.113  0.00  0.00    -0.016 A 
ATOM      7  C6  BZF d   1       0.890  -1.748   0.320  0.00  0.00     0.022 A 
ATOM      8  C7  BZF d   1       0.812  -1.055   1.482  0.00  0.00     0.029 A 
ATOM      9  C7A BZF d   1       1.767  -1.320   2.433  0.00  0.00     0.058 A 
ENDROOT
TORSDOF 0
ENDMDL
