MODEL 1
REMARK minimizedAffinity 2.34007907
REMARK minimizedRMSD -1
REMARK  0 active torsions:
REMARK  status: ('A' for Active; 'I' for Inactive)
ROOT
ATOM      1  O1  BZF d   1       4.933   5.862   2.979  0.00  0.00    -0.204 OA
ATOM      2  C2  BZF d   1       6.000   5.981   3.850  0.00  0.00     0.174 A 
ATOM      3  C3  BZF d   1       5.573   5.998   5.129  0.00  0.00    -0.012 A 
ATOM      4  C3A BZF d   1       4.159   5.790   5.057  0.00  0.00    -0.107 A 
ATOM      5  C4  BZF d   1       3.176   5.691   6.000  0.00  0.00     0.055 A 
ATOM      6  C5  BZF d   1       1.885   5.561   5.596  0.00  0.00    -0.016 A 
ATOM      7  C6  BZF d   1       1.542   5.531   4.260  0.00  0.00     0.022 A 
ATOM      8  C7  BZF d   1       2.483   5.621   3.289  0.00  0.00     0.029 A 
ATOM      9  C7A BZF d   1       3.791   5.719   3.694  0.00  0.00     0.058 A 
ENDROOT
TORSDOF 0
ENDMDL
