MODEL 1
REMARK minimizedAffinity -1.89670551
REMARK minimizedRMSD -1
REMARK  0 active torsions:
REMARK  status: ('A' for Active; 'I' for Inactive)
ROOT
ATOM      1  C   UNL d   1      -0.136   2.071   3.301  0.00  0.00     0.077 C 
ATOM      2  C1  UNL d   1      -0.541   1.204   2.146  0.00  0.00    -0.074 A 
ATOM      3  C2  UNL d   1      -1.887   0.903   1.910  0.00  0.00    -0.005 A 
ATOM      4  C3  UNL d   1      -2.250   0.104   0.827  0.00  0.00     0.006 A 
ATOM      5  C4  UNL d   1      -1.272  -0.403  -0.031  0.00  0.00    -0.005 A 
ATOM      6  C5  UNL d   1       0.078  -0.112   0.188  0.00  0.00    -0.074 A 
ATOM      7  C6  UNL d   1       1.140  -0.641  -0.729  0.00  0.00     0.077 C 
ATOM      8  C7  UNL d   1       0.434   0.698   1.275  0.00  0.00    -0.001 A 
ENDROOT
TORSDOF 0
ENDMDL
