MODEL 1
REMARK minimizedAffinity 1.16151273
REMARK minimizedRMSD -1
REMARK  0 active torsions:
REMARK  status: ('A' for Active; 'I' for Inactive)
ROOT
ATOM      1  C   UNL d   1      -0.528  -0.788  -5.571  0.00  0.00     0.077 C 
ATOM      2  C1  UNL d   1       0.244  -0.135  -4.464  0.00  0.00    -0.074 A 
ATOM      3  C2  UNL d   1       1.384   0.629  -4.735  0.00  0.00    -0.005 A 
ATOM      4  C3  UNL d   1       2.087   1.237  -3.696  0.00  0.00     0.006 A 
ATOM      5  C4  UNL d   1       1.657   1.089  -2.376  0.00  0.00    -0.005 A 
ATOM      6  C5  UNL d   1       0.519   0.330  -2.085  0.00  0.00    -0.074 A 
ATOM      7  C6  UNL d   1       0.039   0.169  -0.674  0.00  0.00     0.077 C 
ATOM      8  C7  UNL d   1      -0.185  -0.273  -3.136  0.00  0.00    -0.001 A 
ENDROOT
TORSDOF 0
ENDMDL
