MODEL 1
REMARK minimizedAffinity -3.17928219
REMARK minimizedRMSD -1
REMARK  0 active torsions:
REMARK  status: ('A' for Active; 'I' for Inactive)
ROOT
ATOM      1  C   UNL d   1      -3.745  -2.404  -1.575  0.00  0.00     0.077 C 
ATOM      2  C1  UNL d   1      -2.314  -2.001  -1.378  0.00  0.00    -0.074 A 
ATOM      3  C2  UNL d   1      -1.300  -2.537  -2.179  0.00  0.00    -0.005 A 
ATOM      4  C3  UNL d   1       0.025  -2.145  -1.991  0.00  0.00     0.006 A 
ATOM      5  C4  UNL d   1       0.350  -1.216  -1.001  0.00  0.00    -0.005 A 
ATOM      6  C5  UNL d   1      -0.651  -0.670  -0.192  0.00  0.00    -0.074 A 
ATOM      7  C6  UNL d   1      -0.320   0.338   0.870  0.00  0.00     0.077 C 
ATOM      8  C7  UNL d   1      -1.981  -1.063  -0.392  0.00  0.00    -0.001 A 
ENDROOT
TORSDOF 0
ENDMDL
