MODEL 1
REMARK minimizedAffinity -0.0765807852
REMARK minimizedRMSD -1
REMARK  0 active torsions:
REMARK  status: ('A' for Active; 'I' for Inactive)
ROOT
ATOM      1  C   UNL d   1      -2.649  -3.040  -1.840  0.00  0.00     0.077 C 
ATOM      2  C1  UNL d   1      -1.505  -2.084  -2.006  0.00  0.00    -0.074 A 
ATOM      3  C2  UNL d   1      -1.071  -1.697  -3.278  0.00  0.00    -0.005 A 
ATOM      4  C3  UNL d   1      -0.012  -0.800  -3.416  0.00  0.00     0.006 A 
ATOM      5  C4  UNL d   1       0.624  -0.283  -2.286  0.00  0.00    -0.005 A 
ATOM      6  C5  UNL d   1       0.203  -0.658  -1.007  0.00  0.00    -0.074 A 
ATOM      7  C6  UNL d   1       0.868  -0.104   0.218  0.00  0.00     0.077 C 
ATOM      8  C7  UNL d   1      -0.867  -1.554  -0.876  0.00  0.00    -0.001 A 
ENDROOT
TORSDOF 0
ENDMDL
