MODEL 1
REMARK minimizedAffinity -4.67540359
REMARK minimizedRMSD -1
REMARK  0 active torsions:
REMARK  status: ('A' for Active; 'I' for Inactive)
ROOT
ATOM      1  C   UNL d   1       2.114   0.514   3.393  0.00  0.00     0.077 C 
ATOM      2  C1  UNL d   1       0.834   0.499   2.612  0.00  0.00    -0.074 A 
ATOM      3  C2  UNL d   1      -0.395   0.725   3.241  0.00  0.00    -0.005 A 
ATOM      4  C3  UNL d   1      -1.576   0.718   2.500  0.00  0.00     0.006 A 
ATOM      5  C4  UNL d   1      -1.542   0.485   1.125  0.00  0.00    -0.005 A 
ATOM      6  C5  UNL d   1      -0.323   0.257   0.478  0.00  0.00    -0.074 A 
ATOM      7  C6  UNL d   1      -0.267   0.015  -1.001  0.00  0.00     0.077 C 
ATOM      8  C7  UNL d   1       0.861   0.273   1.229  0.00  0.00    -0.001 A 
ENDROOT
TORSDOF 0
ENDMDL
