MODEL 1
REMARK minimizedAffinity -0.514862716
REMARK minimizedRMSD -1
REMARK  0 active torsions:
REMARK  status: ('A' for Active; 'I' for Inactive)
ROOT
ATOM      1  C   UNL d   1      -0.106   0.970   1.184  0.00  0.00     0.077 C 
ATOM      2  C1  UNL d   1      -0.234   0.100  -0.030  0.00  0.00    -0.074 A 
ATOM      3  C2  UNL d   1       0.710   0.161  -1.061  0.00  0.00    -0.005 A 
ATOM      4  C3  UNL d   1       0.584  -0.662  -2.180  0.00  0.00     0.006 A 
ATOM      5  C4  UNL d   1      -0.486  -1.552  -2.281  0.00  0.00    -0.005 A 
ATOM      6  C5  UNL d   1      -1.439  -1.627  -1.260  0.00  0.00    -0.074 A 
ATOM      7  C6  UNL d   1      -2.590  -2.585  -1.348  0.00  0.00     0.077 C 
ATOM      8  C7  UNL d   1      -1.301  -0.802  -0.135  0.00  0.00    -0.001 A 
ENDROOT
TORSDOF 0
ENDMDL
