MODEL 1
REMARK minimizedAffinity -3.0036726
REMARK minimizedRMSD -1
REMARK  0 active torsions:
REMARK  status: ('A' for Active; 'I' for Inactive)
ROOT
ATOM      1  C   UNL d   1      -0.047   0.678   0.743  0.00  0.00     0.077 C 
ATOM      2  C1  UNL d   1      -0.257  -0.274  -0.397  0.00  0.00    -0.074 A 
ATOM      3  C2  UNL d   1       0.570  -0.239  -1.524  0.00  0.00    -0.005 A 
ATOM      4  C3  UNL d   1       0.369  -1.137  -2.572  0.00  0.00     0.006 A 
ATOM      5  C4  UNL d   1      -0.660  -2.077  -2.504  0.00  0.00    -0.005 A 
ATOM      6  C5  UNL d   1      -1.496  -2.128  -1.384  0.00  0.00    -0.074 A 
ATOM      7  C6  UNL d   1      -2.601  -3.138  -1.290  0.00  0.00     0.077 C 
ATOM      8  C7  UNL d   1      -1.283  -1.227  -0.332  0.00  0.00    -0.001 A 
ENDROOT
TORSDOF 0
ENDMDL
