MODEL 1
REMARK minimizedAffinity -5.82146645
REMARK minimizedRMSD -1
REMARK  0 active torsions:
REMARK  status: ('A' for Active; 'I' for Inactive)
ROOT
ATOM      1  C   UNL d   1      -0.020   1.863   1.952  0.00  0.00     0.077 C 
ATOM      2  C1  UNL d   1      -0.221   0.617   2.762  0.00  0.00    -0.074 A 
ATOM      3  C2  UNL d   1       0.860  -0.026   3.374  0.00  0.00    -0.005 A 
ATOM      4  C3  UNL d   1       0.656  -1.179   4.132  0.00  0.00     0.006 A 
ATOM      5  C4  UNL d   1      -0.630  -1.700   4.286  0.00  0.00    -0.005 A 
ATOM      6  C5  UNL d   1      -1.723  -1.070   3.682  0.00  0.00    -0.074 A 
ATOM      7  C6  UNL d   1      -3.112  -1.612   3.846  0.00  0.00     0.077 C 
ATOM      8  C7  UNL d   1      -1.511   0.092   2.928  0.00  0.00    -0.001 A 
ENDROOT
TORSDOF 0
ENDMDL
