MODEL 1
REMARK minimizedAffinity -0.0433710627
REMARK minimizedRMSD -1
REMARK  0 active torsions:
REMARK  status: ('A' for Active; 'I' for Inactive)
ROOT
ATOM      1  C   UNL d   1      -2.060  -1.292  -0.745  0.00  0.00     0.077 C 
ATOM      2  C1  UNL d   1      -0.811  -0.838  -0.049  0.00  0.00    -0.074 A 
ATOM      3  C2  UNL d   1       0.423  -1.432  -0.328  0.00  0.00    -0.005 A 
ATOM      4  C3  UNL d   1       1.578  -0.993   0.320  0.00  0.00     0.006 A 
ATOM      5  C4  UNL d   1       1.509   0.045   1.251  0.00  0.00    -0.005 A 
ATOM      6  C5  UNL d   1       0.283   0.652   1.541  0.00  0.00    -0.074 A 
ATOM      7  C6  UNL d   1       0.194   1.775   2.532  0.00  0.00     0.077 C 
ATOM      8  C7  UNL d   1      -0.871   0.209   0.881  0.00  0.00    -0.001 A 
ENDROOT
TORSDOF 0
ENDMDL
