MODEL 1
REMARK minimizedAffinity 30.3699379
REMARK minimizedRMSD -1
REMARK  0 active torsions:
REMARK  status: ('A' for Active; 'I' for Inactive)
ROOT
ATOM      1  C   UNL d   1       3.837  -0.843  -3.698  0.00  0.00     0.124 A 
ATOM      2  C1  UNL d   1       4.933  -0.003  -3.556  0.00  0.00     0.062 A 
ATOM      3  C2  UNL d   1       4.927   0.997  -2.588  0.00  0.00     0.162 A 
ATOM      4  C3  UNL d   1       3.822   1.162  -1.753  0.00  0.00    -0.034 A 
ATOM      5  C4  UNL d   1       2.723   0.313  -1.902  0.00  0.00     0.162 A 
ATOM      6  C5  UNL d   1       2.734  -0.685  -2.871  0.00  0.00     0.062 A 
ATOM      7  F   UNL d   1       1.675  -1.496  -3.007  0.00  0.00    -0.097 F 
ATOM      8  F1  UNL d   1       1.644   0.444  -1.116  0.00  0.00    -0.096 F 
ATOM      9  I   UNL d   1       3.809   2.655  -0.304  0.00  0.00    -0.060 I 
ATOM     10  F2  UNL d   1       5.999   1.794  -2.472  0.00  0.00    -0.096 F 
ATOM     11  F3  UNL d   1       6.000  -0.154  -4.354  0.00  0.00    -0.097 F 
ATOM     12  F4  UNL d   1       3.845  -1.804  -4.631  0.00  0.00    -0.092 F 
ENDROOT
TORSDOF 0
ENDMDL
