MODEL 1
REMARK minimizedAffinity 24.6206493
REMARK minimizedRMSD -1
REMARK  0 active torsions:
REMARK  status: ('A' for Active; 'I' for Inactive)
ROOT
ATOM      1  C   UNL d   1       2.863   2.291  -0.227  0.00  0.00     0.124 A 
ATOM      2  C1  UNL d   1       2.615   1.059  -0.817  0.00  0.00     0.062 A 
ATOM      3  C2  UNL d   1       3.509   0.536  -1.747  0.00  0.00     0.162 A 
ATOM      4  C3  UNL d   1       4.660   1.244  -2.092  0.00  0.00    -0.034 A 
ATOM      5  C4  UNL d   1       4.903   2.482  -1.494  0.00  0.00     0.162 A 
ATOM      6  C5  UNL d   1       4.006   3.001  -0.566  0.00  0.00     0.062 A 
ATOM      7  F   UNL d   1       4.247   4.191   0.004  0.00  0.00    -0.097 F 
ATOM      8  F1  UNL d   1       6.000   3.189  -1.803  0.00  0.00    -0.096 F 
ATOM      9  I   UNL d   1       6.000   0.465  -3.482  0.00  0.00    -0.060 I 
ATOM     10  F2  UNL d   1       3.244  -0.656  -2.302  0.00  0.00    -0.096 F 
ATOM     11  F3  UNL d   1       1.511   0.372  -0.492  0.00  0.00    -0.097 F 
ATOM     12  F4  UNL d   1       2.001   2.792   0.667  0.00  0.00    -0.092 F 
ENDROOT
TORSDOF 0
ENDMDL
