MODEL 1
REMARK minimizedAffinity 32.3111115
REMARK minimizedRMSD -1
REMARK  0 active torsions:
REMARK  status: ('A' for Active; 'I' for Inactive)
ROOT
ATOM      1  C   UNL d   1       4.207   2.599   2.377  0.00  0.00     0.124 A 
ATOM      2  C1  UNL d   1       4.106   2.198   3.702  0.00  0.00     0.062 A 
ATOM      3  C2  UNL d   1       4.449   3.074   4.727  0.00  0.00     0.162 A 
ATOM      4  C3  UNL d   1       4.895   4.362   4.432  0.00  0.00    -0.034 A 
ATOM      5  C4  UNL d   1       4.995   4.758   3.097  0.00  0.00     0.162 A 
ATOM      6  C5  UNL d   1       4.651   3.879   2.076  0.00  0.00     0.062 A 
ATOM      7  F   UNL d   1       4.749   4.268   0.797  0.00  0.00    -0.097 F 
ATOM      8  F1  UNL d   1       5.421   5.990   2.777  0.00  0.00    -0.096 F 
ATOM      9  I   UNL d   1       5.409   5.676   5.962  0.00  0.00    -0.060 I 
ATOM     10  F2  UNL d   1       4.341   2.660   5.998  0.00  0.00    -0.096 F 
ATOM     11  F3  UNL d   1       3.677   0.961   3.996  0.00  0.00    -0.097 F 
ATOM     12  F4  UNL d   1       3.877   1.753   1.393  0.00  0.00    -0.092 F 
ENDROOT
TORSDOF 0
ENDMDL
