MODEL 1
REMARK minimizedAffinity 29.1827888
REMARK minimizedRMSD -1
REMARK  0 active torsions:
REMARK  status: ('A' for Active; 'I' for Inactive)
ROOT
ATOM      1  C   UNL d   1       2.729   2.192  -0.408  0.00  0.00     0.124 A 
ATOM      2  C1  UNL d   1       3.918   2.824  -0.745  0.00  0.00     0.062 A 
ATOM      3  C2  UNL d   1       4.853   2.176  -1.546  0.00  0.00     0.162 A 
ATOM      4  C3  UNL d   1       4.603   0.888  -2.019  0.00  0.00    -0.034 A 
ATOM      5  C4  UNL d   1       3.405   0.257  -1.675  0.00  0.00     0.162 A 
ATOM      6  C5  UNL d   1       2.474   0.909  -0.874  0.00  0.00     0.062 A 
ATOM      7  F   UNL d   1       1.326   0.297  -0.549  0.00  0.00    -0.097 F 
ATOM      8  F1  UNL d   1       3.133  -0.981  -2.112  0.00  0.00    -0.096 F 
ATOM      9  I   UNL d   1       5.999  -0.085  -3.218  0.00  0.00    -0.060 I 
ATOM     10  F2  UNL d   1       5.993   2.811  -1.856  0.00  0.00    -0.096 F 
ATOM     11  F3  UNL d   1       4.167   4.063  -0.296  0.00  0.00    -0.097 F 
ATOM     12  F4  UNL d   1       1.831   2.817   0.364  0.00  0.00    -0.092 F 
ENDROOT
TORSDOF 0
ENDMDL
