MODEL 1
REMARK minimizedAffinity 31.8889198
REMARK minimizedRMSD -1
REMARK  0 active torsions:
REMARK  status: ('A' for Active; 'I' for Inactive)
ROOT
ATOM      1  C   UNL d   1      -1.132  -1.246   3.021  0.00  0.00     0.124 A 
ATOM      2  C1  UNL d   1      -0.462  -2.045   2.105  0.00  0.00     0.062 A 
ATOM      3  C2  UNL d   1      -0.285  -3.402   2.357  0.00  0.00     0.162 A 
ATOM      4  C3  UNL d   1      -0.781  -3.970   3.531  0.00  0.00    -0.034 A 
ATOM      5  C4  UNL d   1      -1.454  -3.161   4.448  0.00  0.00     0.162 A 
ATOM      6  C5  UNL d   1      -1.628  -1.805   4.191  0.00  0.00     0.062 A 
ATOM      7  F   UNL d   1      -2.276  -1.035   5.077  0.00  0.00    -0.097 F 
ATOM      8  F1  UNL d   1      -1.943  -3.675   5.586  0.00  0.00    -0.096 F 
ATOM      9  I   UNL d   1      -0.519  -6.000   3.911  0.00  0.00    -0.060 I 
ATOM     10  F2  UNL d   1       0.367  -4.150   1.454  0.00  0.00    -0.096 F 
ATOM     11  F3  UNL d   1       0.019  -1.507   0.975  0.00  0.00    -0.097 F 
ATOM     12  F4  UNL d   1      -1.300   0.060   2.777  0.00  0.00    -0.092 F 
ENDROOT
TORSDOF 0
ENDMDL
