MODEL 1
REMARK minimizedAffinity 40.1771622
REMARK minimizedRMSD -1
REMARK  0 active torsions:
REMARK  status: ('A' for Active; 'I' for Inactive)
ROOT
ATOM      1  C   UNL d   1       3.338   1.230  -0.758  0.00  0.00     0.124 A 
ATOM      2  C1  UNL d   1       2.720   0.134  -1.345  0.00  0.00     0.062 A 
ATOM      3  C2  UNL d   1       1.674   0.319  -2.244  0.00  0.00     0.162 A 
ATOM      4  C3  UNL d   1       1.239   1.606  -2.563  0.00  0.00    -0.034 A 
ATOM      5  C4  UNL d   1       1.864   2.703  -1.968  0.00  0.00     0.162 A 
ATOM      6  C5  UNL d   1       2.909   2.513  -1.070  0.00  0.00     0.062 A 
ATOM      7  F   UNL d   1       3.505   3.572  -0.503  0.00  0.00    -0.097 F 
ATOM      8  F1  UNL d   1       1.471   3.953  -2.251  0.00  0.00    -0.096 F 
ATOM      9  I   UNL d   1      -0.326   1.886  -3.907  0.00  0.00    -0.060 I 
ATOM     10  F2  UNL d   1       1.096  -0.758  -2.797  0.00  0.00    -0.096 F 
ATOM     11  F3  UNL d   1       3.132  -1.106  -1.045  0.00  0.00    -0.097 F 
ATOM     12  F4  UNL d   1       4.344   1.049   0.107  0.00  0.00    -0.092 F 
ENDROOT
TORSDOF 0
ENDMDL
