MODEL 1
REMARK minimizedAffinity 20.8620396
REMARK minimizedRMSD -1
REMARK  0 active torsions:
REMARK  status: ('A' for Active; 'I' for Inactive)
ROOT
ATOM      1  C   UNL d   1      -2.106   1.456  -4.674  0.00  0.00     0.124 A 
ATOM      2  C1  UNL d   1      -0.983   2.217  -4.969  0.00  0.00     0.062 A 
ATOM      3  C2  UNL d   1       0.243   1.910  -4.387  0.00  0.00     0.162 A 
ATOM      4  C3  UNL d   1       0.353   0.836  -3.503  0.00  0.00    -0.034 A 
ATOM      5  C4  UNL d   1      -0.780   0.076  -3.211  0.00  0.00     0.162 A 
ATOM      6  C5  UNL d   1      -2.004   0.387  -3.795  0.00  0.00     0.062 A 
ATOM      7  F   UNL d   1      -3.087  -0.349  -3.509  0.00  0.00    -0.097 F 
ATOM      8  F1  UNL d   1      -0.710  -0.963  -2.366  0.00  0.00    -0.096 F 
ATOM      9  I   UNL d   1       2.185   0.374  -2.630  0.00  0.00    -0.060 I 
ATOM     10  F2  UNL d   1       1.311   2.662  -4.690  0.00  0.00    -0.096 F 
ATOM     11  F3  UNL d   1      -1.080   3.251  -5.817  0.00  0.00    -0.097 F 
ATOM     12  F4  UNL d   1      -3.285   1.754  -5.235  0.00  0.00    -0.092 F 
ENDROOT
TORSDOF 0
ENDMDL
