MODEL 1
REMARK minimizedAffinity 25.6121559
REMARK minimizedRMSD -1
REMARK  0 active torsions:
REMARK  status: ('A' for Active; 'I' for Inactive)
ROOT
ATOM      1  C   UNL d   1      -2.234   1.840  -4.317  0.00  0.00     0.124 A 
ATOM      2  C1  UNL d   1      -2.250   0.663  -3.581  0.00  0.00     0.062 A 
ATOM      3  C2  UNL d   1      -1.076   0.178  -3.011  0.00  0.00     0.162 A 
ATOM      4  C3  UNL d   1       0.123   0.871  -3.173  0.00  0.00    -0.034 A 
ATOM      5  C4  UNL d   1       0.132   2.053  -3.915  0.00  0.00     0.162 A 
ATOM      6  C5  UNL d   1      -1.044   2.534  -4.483  0.00  0.00     0.062 A 
ATOM      7  F   UNL d   1      -1.027   3.671  -5.193  0.00  0.00    -0.097 F 
ATOM      8  F1  UNL d   1       1.268   2.745  -4.090  0.00  0.00    -0.096 F 
ATOM      9  I   UNL d   1       1.880   0.149  -2.322  0.00  0.00    -0.060 I 
ATOM     10  F2  UNL d   1      -1.121  -0.962  -2.305  0.00  0.00    -0.096 F 
ATOM     11  F3  UNL d   1      -3.398  -0.010  -3.420  0.00  0.00    -0.097 F 
ATOM     12  F4  UNL d   1      -3.364   2.304  -4.865  0.00  0.00    -0.092 F 
ENDROOT
TORSDOF 0
ENDMDL
