MODEL 1
REMARK minimizedAffinity 36.4629364
REMARK minimizedRMSD -1
REMARK  0 active torsions:
REMARK  status: ('A' for Active; 'I' for Inactive)
ROOT
ATOM      1  C   UNL d   1      -1.638  -4.035   4.870  0.00  0.00     0.124 A 
ATOM      2  C1  UNL d   1      -1.098  -4.667   3.758  0.00  0.00     0.062 A 
ATOM      3  C2  UNL d   1      -0.713  -3.923   2.647  0.00  0.00     0.162 A 
ATOM      4  C3  UNL d   1      -0.865  -2.536   2.642  0.00  0.00    -0.034 A 
ATOM      5  C4  UNL d   1      -1.410  -1.907   3.763  0.00  0.00     0.162 A 
ATOM      6  C5  UNL d   1      -1.794  -2.656   4.871  0.00  0.00     0.062 A 
ATOM      7  F   UNL d   1      -2.315  -2.043   5.944  0.00  0.00    -0.097 F 
ATOM      8  F1  UNL d   1      -1.571  -0.576   3.792  0.00  0.00    -0.096 F 
ATOM      9  I   UNL d   1      -0.291  -1.419   0.983  0.00  0.00    -0.060 I 
ATOM     10  F2  UNL d   1      -0.194  -4.560   1.588  0.00  0.00    -0.096 F 
ATOM     11  F3  UNL d   1      -0.948  -6.000   3.754  0.00  0.00    -0.097 F 
ATOM     12  F4  UNL d   1      -2.009  -4.754   5.937  0.00  0.00    -0.092 F 
ENDROOT
TORSDOF 0
ENDMDL
