MODEL 1
REMARK minimizedAffinity 29.7500191
REMARK minimizedRMSD -1
REMARK  0 active torsions:
REMARK  status: ('A' for Active; 'I' for Inactive)
ROOT
ATOM      1  C   UNL d   1       2.620   1.432  -0.481  0.00  0.00     0.124 A 
ATOM      2  C1  UNL d   1       2.350   0.321  -1.268  0.00  0.00     0.062 A 
ATOM      3  C2  UNL d   1       3.309  -0.159  -2.154  0.00  0.00     0.162 A 
ATOM      4  C3  UNL d   1       4.549   0.472  -2.258  0.00  0.00    -0.034 A 
ATOM      5  C4  UNL d   1       4.813   1.589  -1.465  0.00  0.00     0.162 A 
ATOM      6  C5  UNL d   1       3.850   2.065  -0.580  0.00  0.00     0.062 A 
ATOM      7  F   UNL d   1       4.113   3.139   0.179  0.00  0.00    -0.097 F 
ATOM      8  F1  UNL d   1       5.995   2.220  -1.539  0.00  0.00    -0.096 F 
ATOM      9  I   UNL d   1       5.987  -0.243  -3.583  0.00  0.00    -0.060 I 
ATOM     10  F2  UNL d   1       3.021  -1.235  -2.902  0.00  0.00    -0.096 F 
ATOM     11  F3  UNL d   1       1.161  -0.292  -1.175  0.00  0.00    -0.097 F 
ATOM     12  F4  UNL d   1       1.694   1.892   0.370  0.00  0.00    -0.092 F 
ENDROOT
TORSDOF 0
ENDMDL
