MODEL 1
REMARK minimizedAffinity 27.2903385
REMARK minimizedRMSD -1
REMARK  0 active torsions:
REMARK  status: ('A' for Active; 'I' for Inactive)
ROOT
ATOM      1  C   UNL d   1      -0.380  -3.738   1.964  0.00  0.00     0.124 A 
ATOM      2  C1  UNL d   1      -0.638  -2.396   2.206  0.00  0.00     0.062 A 
ATOM      3  C2  UNL d   1      -1.324  -2.011   3.354  0.00  0.00     0.162 A 
ATOM      4  C3  UNL d   1      -1.757  -2.969   4.271  0.00  0.00    -0.034 A 
ATOM      5  C4  UNL d   1      -1.495  -4.317   4.020  0.00  0.00     0.162 A 
ATOM      6  C5  UNL d   1      -0.809  -4.697   2.871  0.00  0.00     0.062 A 
ATOM      7  F   UNL d   1      -0.561  -5.995   2.639  0.00  0.00    -0.097 F 
ATOM      8  F1  UNL d   1      -1.897  -5.265   4.880  0.00  0.00    -0.096 F 
ATOM      9  I   UNL d   1      -2.783  -2.397   5.989  0.00  0.00    -0.060 I 
ATOM     10  F2  UNL d   1      -1.559  -0.706   3.562  0.00  0.00    -0.096 F 
ATOM     11  F3  UNL d   1      -0.226  -1.467   1.331  0.00  0.00    -0.097 F 
ATOM     12  F4  UNL d   1       0.279  -4.106   0.859  0.00  0.00    -0.092 F 
ENDROOT
TORSDOF 0
ENDMDL
