MODEL 1
REMARK minimizedAffinity 18.6062832
REMARK minimizedRMSD -1
REMARK  0 active torsions:
REMARK  status: ('A' for Active; 'I' for Inactive)
ROOT
ATOM      1  C   UNL d   1      -0.963  -2.413  -1.180  0.00  0.00     0.124 A 
ATOM      2  C1  UNL d   1      -0.708  -1.967   0.109  0.00  0.00     0.062 A 
ATOM      3  C2  UNL d   1      -0.565  -2.880   1.150  0.00  0.00     0.162 A 
ATOM      4  C3  UNL d   1      -0.676  -4.249   0.906  0.00  0.00    -0.034 A 
ATOM      5  C4  UNL d   1      -0.934  -4.690  -0.393  0.00  0.00     0.162 A 
ATOM      6  C5  UNL d   1      -1.076  -3.774  -1.430  0.00  0.00     0.062 A 
ATOM      7  F   UNL d   1      -1.323  -4.206  -2.675  0.00  0.00    -0.097 F 
ATOM      8  F1  UNL d   1      -1.047  -5.999  -0.663  0.00  0.00    -0.096 F 
ATOM      9  I   UNL d   1      -0.463  -5.617   2.460  0.00  0.00    -0.060 I 
ATOM     10  F2  UNL d   1      -0.318  -2.421   2.386  0.00  0.00    -0.096 F 
ATOM     11  F3  UNL d   1      -0.599  -0.653   0.353  0.00  0.00    -0.097 F 
ATOM     12  F4  UNL d   1      -1.101  -1.533  -2.180  0.00  0.00    -0.092 F 
ENDROOT
TORSDOF 0
ENDMDL
