MODEL 1
REMARK minimizedAffinity 33.5576859
REMARK minimizedRMSD -1
REMARK  0 active torsions:
REMARK  status: ('A' for Active; 'I' for Inactive)
ROOT
ATOM      1  C   UNL d   1      -0.821  -4.169   0.052  0.00  0.00     0.124 A 
ATOM      2  C1  UNL d   1      -0.534  -2.889   0.504  0.00  0.00     0.062 A 
ATOM      3  C2  UNL d   1      -0.682  -1.797  -0.346  0.00  0.00     0.162 A 
ATOM      4  C3  UNL d   1      -1.120  -1.980  -1.657  0.00  0.00    -0.034 A 
ATOM      5  C4  UNL d   1      -1.406  -3.271  -2.105  0.00  0.00     0.162 A 
ATOM      6  C5  UNL d   1      -1.257  -4.359  -1.252  0.00  0.00     0.062 A 
ATOM      7  F   UNL d   1      -1.535  -5.595  -1.690  0.00  0.00    -0.097 F 
ATOM      8  F1  UNL d   1      -1.830  -3.483  -3.360  0.00  0.00    -0.096 F 
ATOM      9  I   UNL d   1      -1.343  -0.349  -2.931  0.00  0.00    -0.060 I 
ATOM     10  F2  UNL d   1      -0.397  -0.571   0.118  0.00  0.00    -0.096 F 
ATOM     11  F3  UNL d   1      -0.112  -2.703   1.763  0.00  0.00    -0.097 F 
ATOM     12  F4  UNL d   1      -0.677  -5.218   0.872  0.00  0.00    -0.092 F 
ENDROOT
TORSDOF 0
ENDMDL
