MODEL 1
REMARK minimizedAffinity 25.5985565
REMARK minimizedRMSD -1
REMARK  0 active torsions:
REMARK  status: ('A' for Active; 'I' for Inactive)
ROOT
ATOM      1  C   UNL d   1      -1.750  -2.997  -1.404  0.00  0.00     0.124 A 
ATOM      2  C1  UNL d   1      -0.921  -2.747  -2.489  0.00  0.00     0.062 A 
ATOM      3  C2  UNL d   1      -0.999  -1.532  -3.164  0.00  0.00     0.162 A 
ATOM      4  C3  UNL d   1      -1.908  -0.557  -2.756  0.00  0.00    -0.034 A 
ATOM      5  C4  UNL d   1      -2.739  -0.816  -1.665  0.00  0.00     0.162 A 
ATOM      6  C5  UNL d   1      -2.658  -2.031  -0.993  0.00  0.00     0.062 A 
ATOM      7  F   UNL d   1      -3.460  -2.271   0.055  0.00  0.00    -0.097 F 
ATOM      8  F1  UNL d   1      -3.625   0.100  -1.245  0.00  0.00    -0.096 F 
ATOM      9  I   UNL d   1      -2.027   1.261  -3.763  0.00  0.00    -0.060 I 
ATOM     10  F2  UNL d   1      -0.185  -1.318  -4.209  0.00  0.00    -0.096 F 
ATOM     11  F3  UNL d   1      -0.044  -3.679  -2.889  0.00  0.00    -0.097 F 
ATOM     12  F4  UNL d   1      -1.674  -4.167  -0.757  0.00  0.00    -0.092 F 
ENDROOT
TORSDOF 0
ENDMDL
