MODEL 1
REMARK minimizedAffinity -1.78303349
REMARK minimizedRMSD -1
REMARK  0 active torsions:
REMARK  status: ('A' for Active; 'I' for Inactive)
ROOT
ATOM      1  C   UNL d   1      -1.323  -0.949   0.309  0.00  0.00     0.078 C 
ATOM      2  C1  UNL d   1      -2.495  -0.136   0.772  0.00  0.00    -0.077 A 
ATOM      3  C2  UNL d   1      -2.666   0.177   2.126  0.00  0.00    -0.001 A 
ATOM      4  C3  UNL d   1      -3.766   0.927   2.544  0.00  0.00     0.003 A 
ATOM      5  C4  UNL d   1      -4.705   1.370   1.614  0.00  0.00    -0.005 A 
ATOM      6  C5  UNL d   1      -4.545   1.062   0.265  0.00  0.00     0.003 A 
ATOM      7  C6  UNL d   1      -3.445   0.312  -0.155  0.00  0.00    -0.001 A 
ENDROOT
TORSDOF 0
ENDMDL
