MODEL 1
REMARK minimizedAffinity -4.79873514
REMARK minimizedRMSD -1
REMARK  0 active torsions:
REMARK  status: ('A' for Active; 'I' for Inactive)
ROOT
ATOM      1  C   UNL d   1      -0.881  -2.804  -0.687  0.00  0.00     0.078 C 
ATOM      2  C1  UNL d   1      -1.572  -1.713   0.075  0.00  0.00    -0.077 A 
ATOM      3  C2  UNL d   1      -0.880  -0.943   1.018  0.00  0.00    -0.001 A 
ATOM      4  C3  UNL d   1      -1.538   0.064   1.727  0.00  0.00     0.003 A 
ATOM      5  C4  UNL d   1      -2.891   0.308   1.501  0.00  0.00    -0.005 A 
ATOM      6  C5  UNL d   1      -3.588  -0.455   0.566  0.00  0.00     0.003 A 
ATOM      7  C6  UNL d   1      -2.932  -1.461  -0.144  0.00  0.00    -0.001 A 
ENDROOT
TORSDOF 0
ENDMDL
