MODEL 1
REMARK minimizedAffinity -4.11245632
REMARK minimizedRMSD -1
REMARK  0 active torsions:
REMARK  status: ('A' for Active; 'I' for Inactive)
ROOT
ATOM      1  C   UNL d   1      -4.537   0.616   0.115  0.00  0.00     0.078 C 
ATOM      2  C1  UNL d   1      -3.246  -0.059   0.471  0.00  0.00    -0.077 A 
ATOM      3  C2  UNL d   1      -2.523  -0.783  -0.485  0.00  0.00    -0.001 A 
ATOM      4  C3  UNL d   1      -1.328  -1.414  -0.137  0.00  0.00     0.003 A 
ATOM      5  C4  UNL d   1      -0.846  -1.330   1.168  0.00  0.00    -0.005 A 
ATOM      6  C5  UNL d   1      -1.560  -0.614   2.127  0.00  0.00     0.003 A 
ATOM      7  C6  UNL d   1      -2.755   0.019   1.781  0.00  0.00    -0.001 A 
ENDROOT
TORSDOF 0
ENDMDL
