MODEL 1
REMARK minimizedAffinity -5.28691673
REMARK minimizedRMSD -1
REMARK  0 active torsions:
REMARK  status: ('A' for Active; 'I' for Inactive)
ROOT
ATOM      1  C   UNL d   1      -2.967  -0.115   0.842  0.00  0.00     0.078 C 
ATOM      2  C1  UNL d   1      -1.578  -0.520   1.233  0.00  0.00    -0.077 A 
ATOM      3  C2  UNL d   1      -1.175  -0.512   2.574  0.00  0.00    -0.001 A 
ATOM      4  C3  UNL d   1       0.125  -0.883   2.923  0.00  0.00     0.003 A 
ATOM      5  C4  UNL d   1       1.032  -1.263   1.936  0.00  0.00    -0.005 A 
ATOM      6  C5  UNL d   1       0.641  -1.272   0.599  0.00  0.00     0.003 A 
ATOM      7  C6  UNL d   1      -0.658  -0.902   0.248  0.00  0.00    -0.001 A 
ENDROOT
TORSDOF 0
ENDMDL
