MODEL 1
REMARK minimizedAffinity -1.11921549
REMARK minimizedRMSD -1
REMARK  0 active torsions:
REMARK  status: ('A' for Active; 'I' for Inactive)
ROOT
ATOM      1  C   UNL d   1      -0.143   0.631  -5.106  0.00  0.00     0.078 C 
ATOM      2  C1  UNL d   1      -0.172  -0.686  -4.390  0.00  0.00    -0.077 A 
ATOM      3  C2  UNL d   1       0.276  -0.799  -3.068  0.00  0.00    -0.001 A 
ATOM      4  C3  UNL d   1       0.252  -2.033  -2.418  0.00  0.00     0.003 A 
ATOM      5  C4  UNL d   1      -0.219  -3.165  -3.081  0.00  0.00    -0.005 A 
ATOM      6  C5  UNL d   1      -0.666  -3.063  -4.397  0.00  0.00     0.003 A 
ATOM      7  C6  UNL d   1      -0.642  -1.829  -5.049  0.00  0.00    -0.001 A 
ENDROOT
TORSDOF 0
ENDMDL
