MODEL 1
REMARK minimizedAffinity -5.23272514
REMARK minimizedRMSD -1
REMARK  0 active torsions:
REMARK  status: ('A' for Active; 'I' for Inactive)
ROOT
ATOM      1  C4' PXY d   1      -1.683   0.409  -0.001  0.00  0.00     0.077 C 
ATOM      2  C1' PXY d   1       3.400   0.358  -2.753  0.00  0.00     0.077 C 
ATOM      3  C1  PXY d   1       2.067   0.358  -2.031  0.00  0.00    -0.082 A 
ATOM      4  C2  PXY d   1       1.272   1.412  -2.126  0.00  0.00     0.003 A 
ATOM      5  C3  PXY d   1       0.077   1.442  -1.454  0.00  0.00     0.003 A 
ATOM      6  C4  PXY d   1      -0.332   0.361  -0.720  0.00  0.00    -0.082 A 
ATOM      7  C5  PXY d   1       0.468  -0.722  -0.628  0.00  0.00     0.003 A 
ATOM      8  C6  PXY d   1       1.696  -0.716  -1.284  0.00  0.00     0.003 A 
ENDROOT
TORSDOF 0
ENDMDL
