MODEL 1
REMARK minimizedAffinity -4.88221645
REMARK minimizedRMSD -1
REMARK  0 active torsions:
REMARK  status: ('A' for Active; 'I' for Inactive)
ROOT
ATOM      1  C4' PXY d   1      -1.141   0.860   1.440  0.00  0.00     0.077 C 
ATOM      2  C1' PXY d   1       3.237  -0.103  -2.210  0.00  0.00     0.077 C 
ATOM      3  C1  PXY d   1       2.086   0.161  -1.259  0.00  0.00    -0.082 A 
ATOM      4  C2  PXY d   1       2.067  -0.431  -0.076  0.00  0.00     0.003 A 
ATOM      5  C3  PXY d   1       1.019  -0.228   0.784  0.00  0.00     0.003 A 
ATOM      6  C4  PXY d   1       0.005   0.630   0.451  0.00  0.00    -0.082 A 
ATOM      7  C5  PXY d   1       0.023   1.246  -0.750  0.00  0.00     0.003 A 
ATOM      8  C6  PXY d   1       1.075   0.995  -1.626  0.00  0.00     0.003 A 
ENDROOT
TORSDOF 0
ENDMDL
