MODEL 1
REMARK minimizedAffinity -0.592762768
REMARK minimizedRMSD -1
REMARK  0 active torsions:
REMARK  status: ('A' for Active; 'I' for Inactive)
ROOT
ATOM      1  C4' PXY d   1       1.858  -1.851  -1.461  0.00  0.00     0.077 C 
ATOM      2  C1' PXY d   1      -0.985   2.410   1.218  0.00  0.00     0.077 C 
ATOM      3  C1  PXY d   1      -0.235   1.288   0.527  0.00  0.00    -0.082 A 
ATOM      4  C2  PXY d   1       0.163   1.442  -0.726  0.00  0.00     0.003 A 
ATOM      5  C3  PXY d   1       0.814   0.425  -1.376  0.00  0.00     0.003 A 
ATOM      6  C4  PXY d   1       1.107  -0.741  -0.720  0.00  0.00    -0.082 A 
ATOM      7  C5  PXY d   1       0.713  -0.901   0.561  0.00  0.00     0.003 A 
ATOM      8  C6  PXY d   1       0.018   0.127   1.190  0.00  0.00     0.003 A 
ENDROOT
TORSDOF 0
ENDMDL
