MODEL 1
REMARK minimizedAffinity -0.652356327
REMARK minimizedRMSD -1
REMARK  0 active torsions:
REMARK  status: ('A' for Active; 'I' for Inactive)
ROOT
ATOM      1  C4' PXY d   1       0.311  -2.537  -0.232  0.00  0.00     0.077 C 
ATOM      2  C1' PXY d   1      -0.856   3.069  -1.023  0.00  0.00     0.077 C 
ATOM      3  C1  PXY d   1      -0.558   1.599  -0.805  0.00  0.00    -0.082 A 
ATOM      4  C2  PXY d   1       0.560   1.080  -1.287  0.00  0.00     0.003 A 
ATOM      5  C3  PXY d   1       0.830  -0.255  -1.127  0.00  0.00     0.003 A 
ATOM      6  C4  PXY d   1      -0.027  -1.055  -0.420  0.00  0.00    -0.082 A 
ATOM      7  C5  PXY d   1      -1.164  -0.531   0.084  0.00  0.00     0.003 A 
ATOM      8  C6  PXY d   1      -1.440   0.817  -0.126  0.00  0.00     0.003 A 
ENDROOT
TORSDOF 0
ENDMDL
