MODEL 1
REMARK minimizedAffinity -3.66089749
REMARK minimizedRMSD -1
REMARK  0 active torsions:
REMARK  status: ('A' for Active; 'I' for Inactive)
ROOT
ATOM      1  C4' PXY d   1      -2.348   0.510   1.368  0.00  0.00     0.077 C 
ATOM      2  C1' PXY d   1       2.226  -1.016  -1.822  0.00  0.00     0.077 C 
ATOM      3  C1  PXY d   1       1.029  -0.603  -0.987  0.00  0.00    -0.082 A 
ATOM      4  C2  PXY d   1       0.554  -1.431  -0.071  0.00  0.00     0.003 A 
ATOM      5  C3  PXY d   1      -0.547  -1.087   0.670  0.00  0.00     0.003 A 
ATOM      6  C4  PXY d   1      -1.136   0.139   0.509  0.00  0.00    -0.082 A 
ATOM      7  C5  PXY d   1      -0.650   0.994  -0.417  0.00  0.00     0.003 A 
ATOM      8  C6  PXY d   1       0.443   0.609  -1.188  0.00  0.00     0.003 A 
ENDROOT
TORSDOF 0
ENDMDL
