MODEL 1
REMARK minimizedAffinity -1.75982869
REMARK minimizedRMSD -1
REMARK  0 active torsions:
REMARK  status: ('A' for Active; 'I' for Inactive)
ROOT
ATOM      1  C4' PXY d   1       0.800  -1.743  -1.400  0.00  0.00     0.077 C 
ATOM      2  C1' PXY d   1      -2.163   1.382   2.457  0.00  0.00     0.077 C 
ATOM      3  C1  PXY d   1      -1.376   0.562   1.453  0.00  0.00    -0.082 A 
ATOM      4  C2  PXY d   1      -1.669   0.646   0.166  0.00  0.00     0.003 A 
ATOM      5  C3  PXY d   1      -0.989  -0.113  -0.751  0.00  0.00     0.003 A 
ATOM      6  C4  PXY d   1       0.038  -0.926  -0.353  0.00  0.00    -0.082 A 
ATOM      7  C5  PXY d   1       0.350  -1.009   0.958  0.00  0.00     0.003 A 
ATOM      8  C6  PXY d   1      -0.380  -0.262   1.878  0.00  0.00     0.003 A 
ENDROOT
TORSDOF 0
ENDMDL
