MODEL 1
REMARK minimizedAffinity -4.63289642
REMARK minimizedRMSD -1
REMARK  0 active torsions:
REMARK  status: ('A' for Active; 'I' for Inactive)
ROOT
ATOM      1  C4' PXY d   1      -1.791   1.407   2.947  0.00  0.00     0.077 C 
ATOM      2  C1' PXY d   1       1.356  -1.632  -0.831  0.00  0.00     0.077 C 
ATOM      3  C1  PXY d   1       0.526  -0.829   0.150  0.00  0.00    -0.082 A 
ATOM      4  C2  PXY d   1       0.927  -0.712   1.405  0.00  0.00     0.003 A 
ATOM      5  C3  PXY d   1       0.172  -0.016   2.313  0.00  0.00     0.003 A 
ATOM      6  C4  PXY d   1      -0.979   0.613   1.920  0.00  0.00    -0.082 A 
ATOM      7  C5  PXY d   1      -1.390   0.507   0.638  0.00  0.00     0.003 A 
ATOM      8  C6  PXY d   1      -0.630  -0.238  -0.258  0.00  0.00     0.003 A 
ENDROOT
TORSDOF 0
ENDMDL
