MODEL 1
REMARK minimizedAffinity -4.15615749
REMARK minimizedRMSD -1
REMARK  0 active torsions:
REMARK  status: ('A' for Active; 'I' for Inactive)
ROOT
ATOM      1  C4' PXY d   1       1.721  -1.875  -0.750  0.00  0.00     0.077 C 
ATOM      2  C1' PXY d   1      -1.359   1.684   2.606  0.00  0.00     0.077 C 
ATOM      3  C1  PXY d   1      -0.542   0.750   1.735  0.00  0.00    -0.082 A 
ATOM      4  C2  PXY d   1      -0.725   0.751   0.424  0.00  0.00     0.003 A 
ATOM      5  C3  PXY d   1      -0.017  -0.110  -0.375  0.00  0.00     0.003 A 
ATOM      6  C4  PXY d   1       0.925  -0.943   0.167  0.00  0.00    -0.082 A 
ATOM      7  C5  PXY d   1       1.125  -0.941   1.502  0.00  0.00     0.003 A 
ATOM      8  C6  PXY d   1       0.367  -0.089   2.300  0.00  0.00     0.003 A 
ENDROOT
TORSDOF 0
ENDMDL
