MODEL 1
REMARK minimizedAffinity 1.16726351
REMARK minimizedRMSD -1
REMARK  0 active torsions:
REMARK  status: ('A' for Active; 'I' for Inactive)
ROOT
ATOM      1  C4' PXY d   1      -1.312   0.527   2.082  0.00  0.00     0.077 C 
ATOM      2  C1' PXY d   1       1.546  -1.721  -2.412  0.00  0.00     0.077 C 
ATOM      3  C1  PXY d   1       0.787  -1.141  -1.234  0.00  0.00    -0.082 A 
ATOM      4  C2  PXY d   1       0.975   0.124  -0.895  0.00  0.00     0.003 A 
ATOM      5  C3  PXY d   1       0.321   0.656   0.187  0.00  0.00     0.003 A 
ATOM      6  C4  PXY d   1      -0.575  -0.099   0.895  0.00  0.00    -0.082 A 
ATOM      7  C5  PXY d   1      -0.780  -1.387   0.548  0.00  0.00     0.003 A 
ATOM      8  C6  PXY d   1      -0.075  -1.920  -0.527  0.00  0.00     0.003 A 
ENDROOT
TORSDOF 0
ENDMDL
