MODEL 1
REMARK minimizedAffinity -4.32683277
REMARK minimizedRMSD -1
REMARK  0 active torsions:
REMARK  status: ('A' for Active; 'I' for Inactive)
ROOT
ATOM      1  C4' PXY d   1      -1.376   0.054   1.028  0.00  0.00     0.077 C 
ATOM      2  C1' PXY d   1       3.549  -0.568  -1.934  0.00  0.00     0.077 C 
ATOM      3  C1  PXY d   1       2.253  -0.417  -1.161  0.00  0.00    -0.082 A 
ATOM      4  C2  PXY d   1       1.785   0.793  -0.899  0.00  0.00     0.003 A 
ATOM      5  C3  PXY d   1       0.632   0.948  -0.174  0.00  0.00     0.003 A 
ATOM      6  C4  PXY d   1      -0.077  -0.146   0.242  0.00  0.00    -0.082 A 
ATOM      7  C5  PXY d   1       0.388  -1.384  -0.030  0.00  0.00     0.003 A 
ATOM      8  C6  PXY d   1       1.582  -1.520  -0.732  0.00  0.00     0.003 A 
ENDROOT
TORSDOF 0
ENDMDL
