MODEL 1
REMARK minimizedAffinity -1.71430898
REMARK minimizedRMSD -1
REMARK  0 active torsions:
REMARK  status: ('A' for Active; 'I' for Inactive)
ROOT
ATOM      1  C4' PXY d   1      -2.130   0.781   2.020  0.00  0.00     0.077 C 
ATOM      2  C1' PXY d   1       1.791  -1.752  -1.389  0.00  0.00     0.077 C 
ATOM      3  C1  PXY d   1       0.763  -1.078  -0.503  0.00  0.00    -0.082 A 
ATOM      4  C2  PXY d   1       0.662  -1.431   0.768  0.00  0.00     0.003 A 
ATOM      5  C3  PXY d   1      -0.284  -0.854   1.576  0.00  0.00     0.003 A 
ATOM      6  C4  PXY d   1      -1.100   0.133   1.091  0.00  0.00    -0.082 A 
ATOM      7  C5  PXY d   1      -0.996   0.507  -0.202  0.00  0.00     0.003 A 
ATOM      8  C6  PXY d   1      -0.057  -0.120  -1.016  0.00  0.00     0.003 A 
ENDROOT
TORSDOF 0
ENDMDL
