MODEL 1
REMARK minimizedAffinity -4.53314877
REMARK minimizedRMSD -1
REMARK  0 active torsions:
REMARK  status: ('A' for Active; 'I' for Inactive)
ROOT
ATOM      1  C4' PXY d   1      -2.108   1.621   2.560  0.00  0.00     0.077 C 
ATOM      2  C1' PXY d   1       1.397  -1.092  -1.151  0.00  0.00     0.077 C 
ATOM      3  C1  PXY d   1       0.472  -0.375  -0.188  0.00  0.00    -0.082 A 
ATOM      4  C2  PXY d   1       0.860  -0.167   1.060  0.00  0.00     0.003 A 
ATOM      5  C3  PXY d   1       0.023   0.451   1.953  0.00  0.00     0.003 A 
ATOM      6  C4  PXY d   1      -1.203   0.910   1.550  0.00  0.00    -0.082 A 
ATOM      7  C5  PXY d   1      -1.602   0.711   0.276  0.00  0.00     0.003 A 
ATOM      8  C6  PXY d   1      -0.754   0.044  -0.604  0.00  0.00     0.003 A 
ENDROOT
TORSDOF 0
ENDMDL
