MODEL 1
REMARK minimizedAffinity -3.27127481
REMARK minimizedRMSD -1
REMARK  0 active torsions:
REMARK  status: ('A' for Active; 'I' for Inactive)
ROOT
ATOM      1  C4' PXY d   1      -2.017   0.813   2.202  0.00  0.00     0.077 C 
ATOM      2  C1' PXY d   1       1.723  -1.267  -1.683  0.00  0.00     0.077 C 
ATOM      3  C1  PXY d   1       0.740  -0.712  -0.672  0.00  0.00    -0.082 A 
ATOM      4  C2  PXY d   1       0.854  -1.046   0.603  0.00  0.00     0.003 A 
ATOM      5  C3  PXY d   1      -0.046  -0.578   1.526  0.00  0.00     0.003 A 
ATOM      6  C4  PXY d   1      -1.041   0.283   1.148  0.00  0.00    -0.082 A 
ATOM      7  C5  PXY d   1      -1.157   0.638  -0.149  0.00  0.00     0.003 A 
ATOM      8  C6  PXY d   1      -0.259   0.119  -1.077  0.00  0.00     0.003 A 
ENDROOT
TORSDOF 0
ENDMDL
