MODEL 1
REMARK minimizedAffinity -5.53154707
REMARK minimizedRMSD -1
REMARK  0 active torsions:
REMARK  status: ('A' for Active; 'I' for Inactive)
ROOT
ATOM      1  C4' PXY d   1       1.958   1.450  -3.123  0.00  0.00     0.077 C 
ATOM      2  C1' PXY d   1       1.325  -1.383   1.876  0.00  0.00     0.077 C 
ATOM      3  C1  PXY d   1       1.504  -0.642   0.566  0.00  0.00    -0.082 A 
ATOM      4  C2  PXY d   1       0.591   0.235   0.180  0.00  0.00     0.003 A 
ATOM      5  C3  PXY d   1       0.721   0.890  -1.018  0.00  0.00     0.003 A 
ATOM      6  C4  PXY d   1       1.823   0.685  -1.803  0.00  0.00    -0.082 A 
ATOM      7  C5  PXY d   1       2.765  -0.199  -1.411  0.00  0.00     0.003 A 
ATOM      8  C6  PXY d   1       2.593  -0.885  -0.212  0.00  0.00     0.003 A 
ENDROOT
TORSDOF 0
ENDMDL
