MODEL 1
REMARK minimizedAffinity -3.94971633
REMARK minimizedRMSD -1
REMARK  0 active torsions:
REMARK  status: ('A' for Active; 'I' for Inactive)
ROOT
ATOM      1  C4' PXY d   1      -1.837   0.776   2.345  0.00  0.00     0.077 C 
ATOM      2  C1' PXY d   1       1.632  -1.785  -1.504  0.00  0.00     0.077 C 
ATOM      3  C1  PXY d   1       0.723  -1.102  -0.501  0.00  0.00    -0.082 A 
ATOM      4  C2  PXY d   1       0.674  -1.545   0.745  0.00  0.00     0.003 A 
ATOM      5  C3  PXY d   1      -0.167  -0.960   1.656  0.00  0.00     0.003 A 
ATOM      6  C4  PXY d   1      -0.926   0.124   1.302  0.00  0.00    -0.082 A 
ATOM      7  C5  PXY d   1      -0.873   0.588   0.035  0.00  0.00     0.003 A 
ATOM      8  C6  PXY d   1      -0.044  -0.046  -0.885  0.00  0.00     0.003 A 
ENDROOT
TORSDOF 0
ENDMDL
