MODEL 1
REMARK minimizedAffinity -1.11145222
REMARK minimizedRMSD -1
REMARK  0 active torsions:
REMARK  status: ('A' for Active; 'I' for Inactive)
ROOT
ATOM      1  C4' PXY d   1       2.068  -1.183  -2.282  0.00  0.00     0.077 C 
ATOM      2  C1' PXY d   1      -1.825   0.542   1.627  0.00  0.00     0.077 C 
ATOM      3  C1  PXY d   1      -0.797   0.083   0.611  0.00  0.00    -0.082 A 
ATOM      4  C2  PXY d   1      -0.643   0.760  -0.515  0.00  0.00     0.003 A 
ATOM      5  C3  PXY d   1       0.259   0.341  -1.459  0.00  0.00     0.003 A 
ATOM      6  C4  PXY d   1       1.050  -0.752  -1.224  0.00  0.00    -0.082 A 
ATOM      7  C5  PXY d   1       0.906  -1.442  -0.073  0.00  0.00     0.003 A 
ATOM      8  C6  PXY d   1      -0.044  -1.024   0.854  0.00  0.00     0.003 A 
ENDROOT
TORSDOF 0
ENDMDL
