MODEL 1
REMARK minimizedAffinity -4.72584915
REMARK minimizedRMSD -1
REMARK  0 active torsions:
REMARK  status: ('A' for Active; 'I' for Inactive)
ROOT
ATOM      1  C4' PXY d   1      -1.623   0.149   1.050  0.00  0.00     0.077 C 
ATOM      2  C1' PXY d   1       2.177   0.422  -3.297  0.00  0.00     0.077 C 
ATOM      3  C1  PXY d   1       1.182   0.338  -2.157  0.00  0.00    -0.082 A 
ATOM      4  C2  PXY d   1       0.282   1.295  -2.001  0.00  0.00     0.003 A 
ATOM      5  C3  PXY d   1      -0.604   1.251  -0.956  0.00  0.00     0.003 A 
ATOM      6  C4  PXY d   1      -0.605   0.188  -0.093  0.00  0.00    -0.082 A 
ATOM      7  C5  PXY d   1       0.303  -0.798  -0.251  0.00  0.00     0.003 A 
ATOM      8  C6  PXY d   1       1.221  -0.714  -1.294  0.00  0.00     0.003 A 
ENDROOT
TORSDOF 0
ENDMDL
