MODEL 1
REMARK minimizedAffinity 2.83770466
REMARK minimizedRMSD -1
REMARK  0 active torsions:
REMARK  status: ('A' for Active; 'I' for Inactive)
ROOT
ATOM      1  C4' PXY d   1      -2.666   1.824   4.481  0.00  0.00     0.077 C 
ATOM      2  C1' PXY d   1      -5.999  -1.479   1.106  0.00  0.00     0.077 C 
ATOM      3  C1  PXY d   1      -5.117  -0.623   1.993  0.00  0.00    -0.082 A 
ATOM      4  C2  PXY d   1      -5.626   0.444   2.588  0.00  0.00     0.003 A 
ATOM      5  C3  PXY d   1      -4.835   1.247   3.368  0.00  0.00     0.003 A 
ATOM      6  C4  PXY d   1      -3.521   0.925   3.584  0.00  0.00    -0.082 A 
ATOM      7  C5  PXY d   1      -2.997  -0.167   2.990  0.00  0.00     0.003 A 
ATOM      8  C6  PXY d   1      -3.807  -0.947   2.168  0.00  0.00     0.003 A 
ENDROOT
TORSDOF 0
ENDMDL
