MODEL 1
REMARK minimizedAffinity -4.64698601
REMARK minimizedRMSD -1
REMARK  0 active torsions:
REMARK  status: ('A' for Active; 'I' for Inactive)
ROOT
ATOM      1  C4' PXY d   1       1.665  -1.438  -1.248  0.00  0.00     0.077 C 
ATOM      2  C1' PXY d   1      -1.604   1.736   2.310  0.00  0.00     0.077 C 
ATOM      3  C1  PXY d   1      -0.757   0.903   1.369  0.00  0.00    -0.082 A 
ATOM      4  C2  PXY d   1       0.264   0.209   1.847  0.00  0.00     0.003 A 
ATOM      5  C3  PXY d   1       1.060  -0.524   1.005  0.00  0.00     0.003 A 
ATOM      6  C4  PXY d   1       0.776  -0.591  -0.333  0.00  0.00    -0.082 A 
ATOM      7  C5  PXY d   1      -0.269   0.105  -0.827  0.00  0.00     0.003 A 
ATOM      8  C6  PXY d   1      -1.040   0.876   0.038  0.00  0.00     0.003 A 
ENDROOT
TORSDOF 0
ENDMDL
