MODEL 1
REMARK minimizedAffinity -2.81501317
REMARK minimizedRMSD -1
REMARK  0 active torsions:
REMARK  status: ('A' for Active; 'I' for Inactive)
ROOT
ATOM      1  C4' PXY d   1      -1.501   1.482   3.026  0.00  0.00     0.077 C 
ATOM      2  C1' PXY d   1       1.295  -1.234  -1.242  0.00  0.00     0.077 C 
ATOM      3  C1  PXY d   1       0.558  -0.512  -0.131  0.00  0.00    -0.082 A 
ATOM      4  C2  PXY d   1       0.881  -0.751   1.130  0.00  0.00     0.003 A 
ATOM      5  C3  PXY d   1       0.203  -0.130   2.148  0.00  0.00     0.003 A 
ATOM      6  C4  PXY d   1      -0.778   0.783   1.871  0.00  0.00    -0.082 A 
ATOM      7  C5  PXY d   1      -1.105   1.040   0.587  0.00  0.00     0.003 A 
ATOM      8  C6  PXY d   1      -0.434   0.369  -0.431  0.00  0.00     0.003 A 
ENDROOT
TORSDOF 0
ENDMDL
