MODEL 1
REMARK minimizedAffinity 12.195302
REMARK minimizedRMSD -1
REMARK  1 active torsions:
REMARK  status: ('A' for Active; 'I' for Inactive)
REMARK    1  A    between atoms: C1_2  and  C2_3 
ROOT
ATOM      1  C2  UNL d   1       2.218   1.876   2.025  0.00  0.00    -0.076 A 
ATOM      2  C3  UNL d   1       2.761   0.653   2.455  0.00  0.00     0.004 A 
ATOM      3  C4  UNL d   1       3.007  -0.380   1.552  0.00  0.00    -0.003 A 
ATOM      4  C5  UNL d   1       2.716  -0.206   0.204  0.00  0.00     0.000 A 
ATOM      5  C6  UNL d   1       2.194   1.007  -0.243  0.00  0.00     0.000 A 
ATOM      6  C7  UNL d   1       1.954   2.065   0.651  0.00  0.00    -0.073 A 
ATOM      7  C8  UNL d   1       1.385   3.349   0.115  0.00  0.00     0.078 C 
ENDROOT
BRANCH   1   8
ATOM      8  C1  UNL d   1       1.947   2.950   3.054  0.00  0.00     0.053 C 
ATOM      9  C   UNL d   1       1.056   2.462   4.185  0.00  0.00     0.018 C 
ENDBRANCH   1   8
TORSDOF 1
ENDMDL
