MODEL 1
REMARK minimizedAffinity 4.76305628
REMARK minimizedRMSD -1
REMARK  1 active torsions:
REMARK  status: ('A' for Active; 'I' for Inactive)
REMARK    1  A    between atoms: C1_2  and  C2_3 
ROOT
ATOM      1  C2  UNL d   1       0.554   1.004   2.759  0.00  0.00    -0.076 A 
ATOM      2  C3  UNL d   1      -0.599   1.808   2.802  0.00  0.00     0.004 A 
ATOM      3  C4  UNL d   1      -0.950   2.617   1.723  0.00  0.00    -0.003 A 
ATOM      4  C5  UNL d   1      -0.155   2.636   0.583  0.00  0.00     0.000 A 
ATOM      5  C6  UNL d   1       0.983   1.832   0.516  0.00  0.00     0.000 A 
ATOM      6  C7  UNL d   1       1.342   0.998   1.588  0.00  0.00    -0.073 A 
ATOM      7  C8  UNL d   1       2.583   0.157   1.464  0.00  0.00     0.078 C 
ENDROOT
BRANCH   1   8
ATOM      8  C1  UNL d   1       0.900   0.168   3.970  0.00  0.00     0.053 C 
ATOM      9  C   UNL d   1       0.733  -1.322   3.716  0.00  0.00     0.018 C 
ENDBRANCH   1   8
TORSDOF 1
ENDMDL
