MODEL 1
REMARK minimizedAffinity 11.9106922
REMARK minimizedRMSD -1
REMARK  1 active torsions:
REMARK  status: ('A' for Active; 'I' for Inactive)
REMARK    1  A    between atoms: C1_2  and  C2_3 
ROOT
ATOM      1  C2  UNL d   1       1.120   0.341  -0.705  0.00  0.00    -0.076 A 
ATOM      2  C3  UNL d   1       1.886   0.773   0.392  0.00  0.00     0.004 A 
ATOM      3  C4  UNL d   1       1.839   2.098   0.823  0.00  0.00    -0.003 A 
ATOM      4  C5  UNL d   1       1.024   3.012   0.164  0.00  0.00     0.000 A 
ATOM      5  C6  UNL d   1       0.244   2.597  -0.915  0.00  0.00     0.000 A 
ATOM      6  C7  UNL d   1       0.268   1.262  -1.352  0.00  0.00    -0.073 A 
ATOM      7  C8  UNL d   1      -0.589   0.871  -2.525  0.00  0.00     0.078 C 
ENDROOT
BRANCH   1   8
ATOM      8  C1  UNL d   1       1.233  -1.101  -1.144  0.00  0.00     0.053 C 
ATOM      9  C   UNL d   1       2.353  -1.842  -0.431  0.00  0.00     0.018 C 
ENDBRANCH   1   8
TORSDOF 1
ENDMDL
