MODEL 1
REMARK minimizedAffinity 0.728607953
REMARK minimizedRMSD -1
REMARK  1 active torsions:
REMARK  status: ('A' for Active; 'I' for Inactive)
REMARK    1  A    between atoms: C1_2  and  C2_3 
ROOT
ATOM      1  C2  UNL d   1      -3.866   1.706  -3.134  0.00  0.00    -0.076 A 
ATOM      2  C3  UNL d   1      -4.806   2.066  -4.115  0.00  0.00     0.004 A 
ATOM      3  C4  UNL d   1      -4.540   1.874  -5.469  0.00  0.00    -0.003 A 
ATOM      4  C5  UNL d   1      -3.329   1.318  -5.866  0.00  0.00     0.000 A 
ATOM      5  C6  UNL d   1      -2.391   0.939  -4.906  0.00  0.00     0.000 A 
ATOM      6  C7  UNL d   1      -2.651   1.110  -3.535  0.00  0.00    -0.073 A 
ATOM      7  C8  UNL d   1      -1.601   0.688  -2.544  0.00  0.00     0.078 C 
ENDROOT
BRANCH   1   8
ATOM      8  C1  UNL d   1      -4.199   1.962  -1.682  0.00  0.00     0.053 C 
ATOM      9  C   UNL d   1      -5.638   2.412  -1.485  0.00  0.00     0.018 C 
ENDBRANCH   1   8
TORSDOF 1
ENDMDL
