MODEL 1
REMARK minimizedAffinity 2.07213616
REMARK minimizedRMSD -1
REMARK  1 active torsions:
REMARK  status: ('A' for Active; 'I' for Inactive)
REMARK    1  A    between atoms: C1_2  and  C2_3 
ROOT
ATOM      1  C2  UNL d   1       1.497   0.798  -0.044  0.00  0.00    -0.076 A 
ATOM      2  C3  UNL d   1       2.611   1.376   0.590  0.00  0.00     0.004 A 
ATOM      3  C4  UNL d   1       2.659   2.744   0.849  0.00  0.00    -0.003 A 
ATOM      4  C5  UNL d   1       1.593   3.558   0.480  0.00  0.00     0.000 A 
ATOM      5  C6  UNL d   1       0.472   2.998  -0.134  0.00  0.00     0.000 A 
ATOM      6  C7  UNL d   1       0.401   1.618  -0.388  0.00  0.00    -0.073 A 
ATOM      7  C8  UNL d   1      -0.829   1.070  -1.057  0.00  0.00     0.078 C 
ENDROOT
BRANCH   1   8
ATOM      8  C1  UNL d   1       1.513  -0.688  -0.324  0.00  0.00     0.053 C 
ATOM      9  C   UNL d   1       2.780  -1.362   0.181  0.00  0.00     0.018 C 
ENDBRANCH   1   8
TORSDOF 1
ENDMDL
