MODEL 1
REMARK minimizedAffinity 4.78134584
REMARK minimizedRMSD -1
REMARK  1 active torsions:
REMARK  status: ('A' for Active; 'I' for Inactive)
REMARK    1  A    between atoms: C1_2  and  C2_3 
ROOT
ATOM      1  C2  UNL d   1      -0.766   1.580  -0.437  0.00  0.00    -0.076 A 
ATOM      2  C3  UNL d   1      -0.882   1.308  -1.811  0.00  0.00     0.004 A 
ATOM      3  C4  UNL d   1      -2.044   0.746  -2.336  0.00  0.00    -0.003 A 
ATOM      4  C5  UNL d   1      -3.111   0.448  -1.495  0.00  0.00     0.000 A 
ATOM      5  C6  UNL d   1      -3.020   0.727  -0.132  0.00  0.00     0.000 A 
ATOM      6  C7  UNL d   1      -1.862   1.308   0.411  0.00  0.00    -0.073 A 
ATOM      7  C8  UNL d   1      -1.816   1.583   1.889  0.00  0.00     0.078 C 
ENDROOT
BRANCH   1   8
ATOM      8  C1  UNL d   1       0.529   2.165   0.079  0.00  0.00     0.053 C 
ATOM      9  C   UNL d   1       1.659   1.147   0.104  0.00  0.00     0.018 C 
ENDBRANCH   1   8
TORSDOF 1
ENDMDL
