MODEL 1
REMARK minimizedAffinity 13.1127195
REMARK minimizedRMSD -1
REMARK  1 active torsions:
REMARK  status: ('A' for Active; 'I' for Inactive)
REMARK    1  A    between atoms: C1_2  and  C2_3 
ROOT
ATOM      1  C2  UNL d   1       1.365  -1.809  -1.079  0.00  0.00    -0.076 A 
ATOM      2  C3  UNL d   1       2.011  -0.561  -1.038  0.00  0.00     0.004 A 
ATOM      3  C4  UNL d   1       3.028  -0.310  -0.119  0.00  0.00    -0.003 A 
ATOM      4  C5  UNL d   1       3.417  -1.302   0.773  0.00  0.00     0.000 A 
ATOM      5  C6  UNL d   1       2.799  -2.552   0.735  0.00  0.00     0.000 A 
ATOM      6  C7  UNL d   1       1.783  -2.827  -0.195  0.00  0.00    -0.073 A 
ATOM      7  C8  UNL d   1       1.147  -4.190  -0.188  0.00  0.00     0.078 C 
ENDROOT
BRANCH   1   8
ATOM      8  C1  UNL d   1       0.249  -2.015  -2.078  0.00  0.00     0.053 C 
ATOM      9  C   UNL d   1      -0.601  -0.768  -2.268  0.00  0.00     0.018 C 
ENDBRANCH   1   8
TORSDOF 1
ENDMDL
