MODEL 1
REMARK minimizedAffinity 6.18930197
REMARK minimizedRMSD -1
REMARK  1 active torsions:
REMARK  status: ('A' for Active; 'I' for Inactive)
REMARK    1  A    between atoms: C1_2  and  C2_3 
ROOT
ATOM      1  C2  UNL d   1       1.880   0.213   0.414  0.00  0.00    -0.076 A 
ATOM      2  C3  UNL d   1       2.365   0.563   1.686  0.00  0.00     0.004 A 
ATOM      3  C4  UNL d   1       3.220  -0.286   2.387  0.00  0.00    -0.003 A 
ATOM      4  C5  UNL d   1       3.604  -1.499   1.826  0.00  0.00     0.000 A 
ATOM      5  C6  UNL d   1       3.147  -1.854   0.557  0.00  0.00     0.000 A 
ATOM      6  C7  UNL d   1       2.298  -1.002  -0.169  0.00  0.00    -0.073 A 
ATOM      7  C8  UNL d   1       1.830  -1.438  -1.531  0.00  0.00     0.078 C 
ENDROOT
BRANCH   1   8
ATOM      8  C1  UNL d   1       0.934   1.162  -0.286  0.00  0.00     0.053 C 
ATOM      9  C   UNL d   1       1.193   2.617   0.076  0.00  0.00     0.018 C 
ENDBRANCH   1   8
TORSDOF 1
ENDMDL
