MODEL 1
REMARK minimizedAffinity 6.30861712
REMARK minimizedRMSD -1
REMARK  1 active torsions:
REMARK  status: ('A' for Active; 'I' for Inactive)
REMARK    1  A    between atoms: C1_2  and  C2_3 
ROOT
ATOM      1  C2  UNL d   1      -3.568   0.259   3.478  0.00  0.00    -0.077 A 
ATOM      2  C3  UNL d   1      -2.182   0.408   3.333  0.00  0.00     0.002 A 
ATOM      3  C4  UNL d   1      -1.613   0.516   2.063  0.00  0.00     0.002 A 
ATOM      4  C5  UNL d   1      -2.422   0.480   0.929  0.00  0.00    -0.004 A 
ATOM      5  C6  UNL d   1      -3.802   0.330   1.063  0.00  0.00     0.002 A 
ATOM      6  C7  UNL d   1      -4.372   0.221   2.332  0.00  0.00     0.002 A 
ENDROOT
BRANCH   1   7
ATOM      7  C1  UNL d   1      -4.190   0.193   4.849  0.00  0.00     0.055 C 
ATOM      8  C   UNL d   1      -5.139   1.359   5.084  0.00  0.00     0.019 C 
ENDBRANCH   1   7
TORSDOF 1
ENDMDL
