MODEL 1
REMARK minimizedAffinity 0.95419395
REMARK minimizedRMSD -1
REMARK  1 active torsions:
REMARK  status: ('A' for Active; 'I' for Inactive)
REMARK    1  A    between atoms: C1_2  and  C2_3 
ROOT
ATOM      1  C2  UNL d   1      -4.002   4.945   3.769  0.00  0.00    -0.077 A 
ATOM      2  C3  UNL d   1      -3.688   5.860   4.783  0.00  0.00     0.002 A 
ATOM      3  C4  UNL d   1      -4.524   6.000   5.892  0.00  0.00     0.002 A 
ATOM      4  C5  UNL d   1      -5.677   5.225   6.000  0.00  0.00    -0.004 A 
ATOM      5  C6  UNL d   1      -5.999   4.313   4.996  0.00  0.00     0.002 A 
ATOM      6  C7  UNL d   1      -5.165   4.173   3.886  0.00  0.00     0.002 A 
ENDROOT
BRANCH   1   7
ATOM      7  C1  UNL d   1      -3.076   4.757   2.596  0.00  0.00     0.055 C 
ATOM      8  C   UNL d   1      -2.931   3.286   2.235  0.00  0.00     0.019 C 
ENDBRANCH   1   7
TORSDOF 1
ENDMDL
