MODEL 1
REMARK minimizedAffinity 11.7462664
REMARK minimizedRMSD -1
REMARK  1 active torsions:
REMARK  status: ('A' for Active; 'I' for Inactive)
REMARK    1  A    between atoms: C1_2  and  C2_3 
ROOT
ATOM      1  C2  UNL d   1      -2.764  -1.998  -5.964  0.00  0.00    -0.077 A 
ATOM      2  C3  UNL d   1      -2.753  -3.400  -5.983  0.00  0.00     0.002 A 
ATOM      3  C4  UNL d   1      -3.952  -4.115  -5.999  0.00  0.00     0.002 A 
ATOM      4  C5  UNL d   1      -5.169  -3.438  -5.998  0.00  0.00    -0.004 A 
ATOM      5  C6  UNL d   1      -5.191  -2.044  -5.977  0.00  0.00     0.002 A 
ATOM      6  C7  UNL d   1      -3.993  -1.327  -5.960  0.00  0.00     0.002 A 
ENDROOT
BRANCH   1   7
ATOM      7  C1  UNL d   1      -1.472  -1.224  -5.997  0.00  0.00     0.055 C 
ATOM      8  C   UNL d   1      -1.725   0.277  -5.975  0.00  0.00     0.019 C 
ENDBRANCH   1   7
TORSDOF 1
ENDMDL
