MODEL 1
REMARK minimizedAffinity 11.5233364
REMARK minimizedRMSD -1
REMARK  1 active torsions:
REMARK  status: ('A' for Active; 'I' for Inactive)
REMARK    1  A    between atoms: C1_2  and  C2_3 
ROOT
ATOM      1  C2  UNL d   1      -5.676   2.185   5.235  0.00  0.00    -0.077 A 
ATOM      2  C3  UNL d   1      -5.004   1.222   6.000  0.00  0.00     0.002 A 
ATOM      3  C4  UNL d   1      -4.664  -0.012   5.442  0.00  0.00     0.002 A 
ATOM      4  C5  UNL d   1      -4.988  -0.292   4.116  0.00  0.00    -0.004 A 
ATOM      5  C6  UNL d   1      -5.658   0.659   3.347  0.00  0.00     0.002 A 
ATOM      6  C7  UNL d   1      -6.000   1.892   3.904  0.00  0.00     0.002 A 
ENDROOT
BRANCH   1   7
ATOM      7  C1  UNL d   1      -6.000   3.535   5.821  0.00  0.00     0.055 C 
ATOM      8  C   UNL d   1      -5.244   4.645   5.104  0.00  0.00     0.019 C 
ENDBRANCH   1   7
TORSDOF 1
ENDMDL
