MODEL 1
REMARK minimizedAffinity 2.14020252
REMARK minimizedRMSD -1
REMARK  1 active torsions:
REMARK  status: ('A' for Active; 'I' for Inactive)
REMARK    1  A    between atoms: C1_2  and  C2_3 
ROOT
ATOM      1  C2  UNL d   1       3.286  -4.797   1.848  0.00  0.00    -0.077 A 
ATOM      2  C3  UNL d   1       3.934  -5.998   2.168  0.00  0.00     0.002 A 
ATOM      3  C4  UNL d   1       5.286  -6.000   2.517  0.00  0.00     0.002 A 
ATOM      4  C5  UNL d   1       6.000  -4.804   2.553  0.00  0.00    -0.004 A 
ATOM      5  C6  UNL d   1       5.364  -3.604   2.235  0.00  0.00     0.002 A 
ATOM      6  C7  UNL d   1       4.013  -3.601   1.885  0.00  0.00     0.002 A 
ENDROOT
BRANCH   1   7
ATOM      7  C1  UNL d   1       1.816  -4.788   1.520  0.00  0.00     0.055 C 
ATOM      8  C   UNL d   1       1.014  -4.065   2.593  0.00  0.00     0.019 C 
ENDBRANCH   1   7
TORSDOF 1
ENDMDL
