MODEL 1
REMARK minimizedAffinity 8.87579918
REMARK minimizedRMSD -1
REMARK  1 active torsions:
REMARK  status: ('A' for Active; 'I' for Inactive)
REMARK    1  A    between atoms: C1_2  and  C2_3 
ROOT
ATOM      1  C2  UNL d   1      -2.333  -0.429   1.244  0.00  0.00    -0.077 A 
ATOM      2  C3  UNL d   1      -1.515  -1.562   1.132  0.00  0.00     0.002 A 
ATOM      3  C4  UNL d   1      -2.038  -2.767   0.659  0.00  0.00     0.002 A 
ATOM      4  C5  UNL d   1      -3.379  -2.850   0.292  0.00  0.00    -0.004 A 
ATOM      5  C6  UNL d   1      -4.202  -1.729   0.402  0.00  0.00     0.002 A 
ATOM      6  C7  UNL d   1      -3.681  -0.524   0.875  0.00  0.00     0.002 A 
ENDROOT
BRANCH   1   7
ATOM      7  C1  UNL d   1      -1.759   0.885   1.706  0.00  0.00     0.055 C 
ATOM      8  C   UNL d   1      -0.439   0.685   2.437  0.00  0.00     0.019 C 
ENDBRANCH   1   7
TORSDOF 1
ENDMDL
