MODEL 1
REMARK minimizedAffinity 2.33925557
REMARK minimizedRMSD -1
REMARK  1 active torsions:
REMARK  status: ('A' for Active; 'I' for Inactive)
REMARK    1  A    between atoms: C1_2  and  C2_3 
ROOT
ATOM      1  C2  UNL d   1       3.371  -0.022  -5.108  0.00  0.00    -0.077 A 
ATOM      2  C3  UNL d   1       3.378   0.304  -3.745  0.00  0.00     0.002 A 
ATOM      3  C4  UNL d   1       2.341  -0.119  -2.912  0.00  0.00     0.002 A 
ATOM      4  C5  UNL d   1       1.291  -0.873  -3.432  0.00  0.00    -0.004 A 
ATOM      5  C6  UNL d   1       1.273  -1.201  -4.787  0.00  0.00     0.002 A 
ATOM      6  C7  UNL d   1       2.309  -0.778  -5.621  0.00  0.00     0.002 A 
ENDROOT
BRANCH   1   7
ATOM      7  C1  UNL d   1       4.514   0.391  -5.999  0.00  0.00     0.055 C 
ATOM      8  C   UNL d   1       4.700   1.902  -5.995  0.00  0.00     0.019 C 
ENDBRANCH   1   7
TORSDOF 1
ENDMDL
