MODEL 1
REMARK minimizedAffinity 8.42499924
REMARK minimizedRMSD -1
REMARK  1 active torsions:
REMARK  status: ('A' for Active; 'I' for Inactive)
REMARK    1  A    between atoms: C1_2  and  C2_3 
ROOT
ATOM      1  C2  UNL d   1      -0.456   1.987   2.256  0.00  0.00    -0.077 A 
ATOM      2  C3  UNL d   1      -1.571   2.623   1.694  0.00  0.00     0.002 A 
ATOM      3  C4  UNL d   1      -2.821   2.002   1.709  0.00  0.00     0.002 A 
ATOM      4  C5  UNL d   1      -2.968   0.744   2.290  0.00  0.00    -0.004 A 
ATOM      5  C6  UNL d   1      -1.865   0.102   2.850  0.00  0.00     0.002 A 
ATOM      6  C7  UNL d   1      -0.614   0.721   2.834  0.00  0.00     0.002 A 
ENDROOT
BRANCH   1   7
ATOM      7  C1  UNL d   1       0.883   2.678   2.284  0.00  0.00     0.055 C 
ATOM      8  C   UNL d   1       1.546   2.545   3.648  0.00  0.00     0.019 C 
ENDBRANCH   1   7
TORSDOF 1
ENDMDL
