MODEL 1
REMARK minimizedAffinity 8.60910034
REMARK minimizedRMSD -1
REMARK  1 active torsions:
REMARK  status: ('A' for Active; 'I' for Inactive)
REMARK    1  A    between atoms: C1_2  and  C2_3 
ROOT
ATOM      1  C2  UNL d   1       0.199  -0.875  -5.059  0.00  0.00    -0.077 A 
ATOM      2  C3  UNL d   1      -0.903  -0.007  -5.064  0.00  0.00     0.002 A 
ATOM      3  C4  UNL d   1      -2.143  -0.444  -5.535  0.00  0.00     0.002 A 
ATOM      4  C5  UNL d   1      -2.294  -1.749  -5.999  0.00  0.00    -0.004 A 
ATOM      5  C6  UNL d   1      -1.204  -2.618  -6.000  0.00  0.00     0.002 A 
ATOM      6  C7  UNL d   1       0.037  -2.183  -5.531  0.00  0.00     0.002 A 
ENDROOT
BRANCH   1   7
ATOM      7  C1  UNL d   1       1.525  -0.421  -4.506  0.00  0.00     0.055 C 
ATOM      8  C   UNL d   1       1.588  -0.607  -2.997  0.00  0.00     0.019 C 
ENDBRANCH   1   7
TORSDOF 1
ENDMDL
