MODEL 1
REMARK minimizedAffinity 2.34285259
REMARK minimizedRMSD -1
REMARK  1 active torsions:
REMARK  status: ('A' for Active; 'I' for Inactive)
REMARK    1  A    between atoms: C1_2  and  C2_3 
ROOT
ATOM      1  C2  UNL d   1       0.894   0.879   2.888  0.00  0.00    -0.077 A 
ATOM      2  C3  UNL d   1      -0.456   0.879   2.508  0.00  0.00     0.002 A 
ATOM      3  C4  UNL d   1      -1.348   1.796   3.069  0.00  0.00     0.002 A 
ATOM      4  C5  UNL d   1      -0.899   2.720   4.010  0.00  0.00    -0.004 A 
ATOM      5  C6  UNL d   1       0.441   2.727   4.396  0.00  0.00     0.002 A 
ATOM      6  C7  UNL d   1       1.333   1.811   3.837  0.00  0.00     0.002 A 
ENDROOT
BRANCH   1   7
ATOM      7  C1  UNL d   1       1.867  -0.076   2.247  0.00  0.00     0.055 C 
ATOM      8  C   UNL d   1       2.777   0.641   1.260  0.00  0.00     0.019 C 
ENDBRANCH   1   7
TORSDOF 1
ENDMDL
