MODEL 1
REMARK minimizedAffinity 16.4469185
REMARK minimizedRMSD -1
REMARK  1 active torsions:
REMARK  status: ('A' for Active; 'I' for Inactive)
REMARK    1  A    between atoms: C1_2  and  C2_3 
ROOT
ATOM      1  C2  UNL d   1      -3.569  -5.646  -5.208  0.00  0.00    -0.081 A 
ATOM      2  C3  UNL d   1      -3.612  -4.978  -3.978  0.00  0.00     0.006 A 
ATOM      3  C4  UNL d   1      -2.431  -4.658  -3.304  0.00  0.00     0.002 A 
ATOM      4  C5  UNL d   1      -1.188  -4.993  -3.852  0.00  0.00    -0.080 A 
ATOM      5  C6  UNL d   1       0.088  -4.628  -3.153  0.00  0.00     0.076 C 
ATOM      6  C7  UNL d   1      -1.145  -5.676  -5.072  0.00  0.00     0.002 A 
ATOM      7  C8  UNL d   1      -2.326  -5.996  -5.746  0.00  0.00     0.006 A 
ENDROOT
BRANCH   1   8
ATOM      8  C1  UNL d   1      -4.838  -5.935  -5.968  0.00  0.00     0.054 C 
ATOM      9  C   UNL d   1      -5.758  -4.722  -5.990  0.00  0.00     0.018 C 
ENDBRANCH   1   8
TORSDOF 1
ENDMDL
