MODEL 1
REMARK minimizedAffinity 14.9091377
REMARK minimizedRMSD -1
REMARK  1 active torsions:
REMARK  status: ('A' for Active; 'I' for Inactive)
REMARK    1  A    between atoms: C1_2  and  C2_3 
ROOT
ATOM      1  C2  UNL d   1      -1.419   2.680  -0.523  0.00  0.00    -0.081 A 
ATOM      2  C3  UNL d   1      -1.842   3.976  -0.207  0.00  0.00     0.006 A 
ATOM      3  C4  UNL d   1      -2.604   4.714  -1.117  0.00  0.00     0.002 A 
ATOM      4  C5  UNL d   1      -2.961   4.165  -2.353  0.00  0.00    -0.080 A 
ATOM      5  C6  UNL d   1      -3.804   4.934  -3.326  0.00  0.00     0.076 C 
ATOM      6  C7  UNL d   1      -2.523   2.876  -2.676  0.00  0.00     0.002 A 
ATOM      7  C8  UNL d   1      -1.761   2.138  -1.767  0.00  0.00     0.006 A 
ENDROOT
BRANCH   1   8
ATOM      8  C1  UNL d   1      -0.652   1.858   0.482  0.00  0.00     0.054 C 
ATOM      9  C   UNL d   1       0.737   1.509  -0.033  0.00  0.00     0.018 C 
ENDBRANCH   1   8
TORSDOF 1
ENDMDL
