MODEL 1
REMARK minimizedAffinity 9.94851494
REMARK minimizedRMSD -1
REMARK  1 active torsions:
REMARK  status: ('A' for Active; 'I' for Inactive)
REMARK    1  A    between atoms: C1_2  and  C2_3 
ROOT
ATOM      1  C2  UNL d   1      -1.483   4.481   0.808  0.00  0.00    -0.081 A 
ATOM      2  C3  UNL d   1      -1.464   3.505   1.812  0.00  0.00     0.006 A 
ATOM      3  C4  UNL d   1      -0.778   2.303   1.618  0.00  0.00     0.002 A 
ATOM      4  C5  UNL d   1      -0.093   2.062   0.422  0.00  0.00    -0.080 A 
ATOM      5  C6  UNL d   1       0.673   0.790   0.213  0.00  0.00     0.076 C 
ATOM      6  C7  UNL d   1      -0.126   3.030  -0.587  0.00  0.00     0.002 A 
ATOM      7  C8  UNL d   1      -0.813   4.231  -0.394  0.00  0.00     0.006 A 
ENDROOT
BRANCH   1   8
ATOM      8  C1  UNL d   1      -2.168   5.804   1.039  0.00  0.00     0.054 C 
ATOM      9  C   UNL d   1      -2.933   5.809   2.355  0.00  0.00     0.018 C 
ENDBRANCH   1   8
TORSDOF 1
ENDMDL
