MODEL 1
REMARK minimizedAffinity 17.8320599
REMARK minimizedRMSD -1
REMARK  1 active torsions:
REMARK  status: ('A' for Active; 'I' for Inactive)
REMARK    1  A    between atoms: C1_2  and  C2_3 
ROOT
ATOM      1  C2  UNL d   1      -2.224   5.157  -1.021  0.00  0.00    -0.081 A 
ATOM      2  C3  UNL d   1      -2.042   5.645   0.279  0.00  0.00     0.006 A 
ATOM      3  C4  UNL d   1      -3.144   5.930   1.088  0.00  0.00     0.002 A 
ATOM      4  C5  UNL d   1      -4.445   5.726   0.615  0.00  0.00    -0.080 A 
ATOM      5  C6  UNL d   1      -5.636   6.000   1.484  0.00  0.00     0.076 C 
ATOM      6  C7  UNL d   1      -4.626   5.255  -0.690  0.00  0.00     0.002 A 
ATOM      7  C8  UNL d   1      -3.525   4.970  -1.500  0.00  0.00     0.006 A 
ENDROOT
BRANCH   1   8
ATOM      8  C1  UNL d   1      -1.037   4.787  -1.873  0.00  0.00     0.054 C 
ATOM      9  C   UNL d   1      -0.600   3.351  -1.620  0.00  0.00     0.018 C 
ENDBRANCH   1   8
TORSDOF 1
ENDMDL
