MODEL 1
REMARK minimizedAffinity 11.5657711
REMARK minimizedRMSD -1
REMARK  1 active torsions:
REMARK  status: ('A' for Active; 'I' for Inactive)
REMARK    1  A    between atoms: C1_2  and  C2_3 
ROOT
ATOM      1  C2  UNL d   1       0.231   2.528   0.518  0.00  0.00    -0.081 A 
ATOM      2  C3  UNL d   1       1.465   3.166   0.343  0.00  0.00     0.006 A 
ATOM      3  C4  UNL d   1       1.671   4.026  -0.738  0.00  0.00     0.002 A 
ATOM      4  C5  UNL d   1       0.645   4.269  -1.657  0.00  0.00    -0.080 A 
ATOM      5  C6  UNL d   1       0.842   5.214  -2.805  0.00  0.00     0.076 C 
ATOM      6  C7  UNL d   1      -0.583   3.618  -1.492  0.00  0.00     0.002 A 
ATOM      7  C8  UNL d   1      -0.789   2.757  -0.412  0.00  0.00     0.006 A 
ENDROOT
BRANCH   1   8
ATOM      8  C1  UNL d   1      -0.014   1.650   1.718  0.00  0.00     0.054 C 
ATOM      9  C   UNL d   1       1.256   1.463   2.536  0.00  0.00     0.018 C 
ENDBRANCH   1   8
TORSDOF 1
ENDMDL
