MODEL 1
REMARK minimizedAffinity 9.08309078
REMARK minimizedRMSD -1
REMARK  1 active torsions:
REMARK  status: ('A' for Active; 'I' for Inactive)
REMARK    1  A    between atoms: C1_2  and  C2_3 
ROOT
ATOM      1  C2  UNL d   1       0.335   2.998  -0.685  0.00  0.00    -0.081 A 
ATOM      2  C3  UNL d   1      -0.981   3.437  -0.493  0.00  0.00     0.006 A 
ATOM      3  C4  UNL d   1      -1.723   2.993   0.605  0.00  0.00     0.002 A 
ATOM      4  C5  UNL d   1      -1.159   2.111   1.532  0.00  0.00    -0.080 A 
ATOM      5  C6  UNL d   1      -1.934   1.651   2.731  0.00  0.00     0.076 C 
ATOM      6  C7  UNL d   1       0.150   1.659   1.332  0.00  0.00     0.002 A 
ATOM      7  C8  UNL d   1       0.892   2.102   0.234  0.00  0.00     0.006 A 
ENDROOT
BRANCH   1   8
ATOM      8  C1  UNL d   1       1.159   3.525  -1.832  0.00  0.00     0.054 C 
ATOM      9  C   UNL d   1       1.713   4.909  -1.525  0.00  0.00     0.018 C 
ENDBRANCH   1   8
TORSDOF 1
ENDMDL
