MODEL 1
REMARK minimizedAffinity 20.2732906
REMARK minimizedRMSD -1
REMARK  1 active torsions:
REMARK  status: ('A' for Active; 'I' for Inactive)
REMARK    1  A    between atoms: C1_2  and  C2_3 
ROOT
ATOM      1  C2  UNL d   1       4.019  -5.498  -2.670  0.00  0.00    -0.081 A 
ATOM      2  C3  UNL d   1       3.492  -4.913  -3.828  0.00  0.00     0.006 A 
ATOM      3  C4  UNL d   1       2.178  -4.441  -3.848  0.00  0.00     0.002 A 
ATOM      4  C5  UNL d   1       1.371  -4.538  -2.709  0.00  0.00    -0.080 A 
ATOM      5  C6  UNL d   1      -0.032  -4.007  -2.708  0.00  0.00     0.076 C 
ATOM      6  C7  UNL d   1       1.892  -5.138  -1.557  0.00  0.00     0.002 A 
ATOM      7  C8  UNL d   1       3.205  -5.611  -1.537  0.00  0.00     0.006 A 
ENDROOT
BRANCH   1   8
ATOM      8  C1  UNL d   1       5.456  -5.950  -2.625  0.00  0.00     0.054 C 
ATOM      9  C   UNL d   1       5.999  -5.927  -1.204  0.00  0.00     0.018 C 
ENDBRANCH   1   8
TORSDOF 1
ENDMDL
