MODEL 1
REMARK minimizedAffinity 8.35105801
REMARK minimizedRMSD -1
REMARK  1 active torsions:
REMARK  status: ('A' for Active; 'I' for Inactive)
REMARK    1  A    between atoms: C1_2  and  C2_3 
ROOT
ATOM      1  C2  UNL d   1      -2.246   2.909  -0.450  0.00  0.00    -0.081 A 
ATOM      2  C3  UNL d   1      -0.968   2.607  -0.935  0.00  0.00     0.006 A 
ATOM      3  C4  UNL d   1       0.067   2.287  -0.054  0.00  0.00     0.002 A 
ATOM      4  C5  UNL d   1      -0.160   2.257   1.327  0.00  0.00    -0.080 A 
ATOM      5  C6  UNL d   1       0.935   1.887   2.282  0.00  0.00     0.076 C 
ATOM      6  C7  UNL d   1      -1.432   2.576   1.813  0.00  0.00     0.002 A 
ATOM      7  C8  UNL d   1      -2.468   2.896   0.931  0.00  0.00     0.006 A 
ENDROOT
BRANCH   1   8
ATOM      8  C1  UNL d   1      -3.381   3.190  -1.402  0.00  0.00     0.054 C 
ATOM      9  C   UNL d   1      -2.872   3.409  -2.820  0.00  0.00     0.018 C 
ENDBRANCH   1   8
TORSDOF 1
ENDMDL
