MODEL 1
REMARK minimizedAffinity -0.0699822158
REMARK minimizedRMSD -1
REMARK  0 active torsions:
REMARK  status: ('A' for Active; 'I' for Inactive)
ROOT
ATOM      1  C1  BNZ d   1       0.398   2.978   1.437  0.00  0.00     0.000 A 
ATOM      2  C2  BNZ d   1       0.419   1.871   2.243  0.00  0.00     0.000 A 
ATOM      3  C3  BNZ d   1       0.421   0.615   1.706  0.00  0.00     0.000 A 
ATOM      4  C4  BNZ d   1       0.360   0.466   0.367  0.00  0.00     0.000 A 
ATOM      5  C5  BNZ d   1       0.328   1.572  -0.459  0.00  0.00     0.000 A 
ATOM      6  C6  BNZ d   1       0.367   2.836   0.084  0.00  0.00     0.000 A 
ENDROOT
TORSDOF 0
ENDMDL
