MODEL 1
REMARK minimizedAffinity -0.371781945
REMARK minimizedRMSD -1
REMARK  0 active torsions:
REMARK  status: ('A' for Active; 'I' for Inactive)
ROOT
ATOM      1  C1  BNZ d   1      -5.837  -2.440   5.544  0.00  0.00     0.000 A 
ATOM      2  C2  BNZ d   1      -5.738  -1.102   5.270  0.00  0.00     0.000 A 
ATOM      3  C3  BNZ d   1      -5.795  -0.645   3.983  0.00  0.00     0.000 A 
ATOM      4  C4  BNZ d   1      -5.909  -1.528   2.971  0.00  0.00     0.000 A 
ATOM      5  C5  BNZ d   1      -6.000  -2.881   3.230  0.00  0.00     0.000 A 
ATOM      6  C6  BNZ d   1      -5.982  -3.335   4.529  0.00  0.00     0.000 A 
ENDROOT
TORSDOF 0
ENDMDL
