MODEL 1
REMARK minimizedAffinity 0.57932359
REMARK minimizedRMSD -1
REMARK  0 active torsions:
REMARK  status: ('A' for Active; 'I' for Inactive)
ROOT
ATOM      1  C1  BNZ d   1      -6.000  -2.454   3.681  0.00  0.00     0.000 A 
ATOM      2  C2  BNZ d   1      -5.566  -1.155   3.704  0.00  0.00     0.000 A 
ATOM      3  C3  BNZ d   1      -5.103  -0.593   4.861  0.00  0.00     0.000 A 
ATOM      4  C4  BNZ d   1      -5.112  -1.315   6.000  0.00  0.00     0.000 A 
ATOM      5  C5  BNZ d   1      -5.555  -2.623   5.995  0.00  0.00     0.000 A 
ATOM      6  C6  BNZ d   1      -5.984  -3.198   4.820  0.00  0.00     0.000 A 
ENDROOT
TORSDOF 0
ENDMDL
