MODEL 1
REMARK minimizedAffinity 1.82827675
REMARK minimizedRMSD -1
REMARK  0 active torsions:
REMARK  status: ('A' for Active; 'I' for Inactive)
ROOT
ATOM      1  C1  BNZ d   1       0.388   3.681  -1.654  0.00  0.00     0.000 A 
ATOM      2  C2  BNZ d   1       0.818   3.695  -0.354  0.00  0.00     0.000 A 
ATOM      3  C3  BNZ d   1       0.793   4.848   0.379  0.00  0.00     0.000 A 
ATOM      4  C4  BNZ d   1       0.377   5.993  -0.200  0.00  0.00     0.000 A 
ATOM      5  C5  BNZ d   1      -0.051   5.997  -1.513  0.00  0.00     0.000 A 
ATOM      6  C6  BNZ d   1      -0.061   4.826  -2.236  0.00  0.00     0.000 A 
ENDROOT
TORSDOF 0
ENDMDL
