MODEL 1
REMARK minimizedAffinity -3.49497652
REMARK minimizedRMSD -1
REMARK  0 active torsions:
REMARK  status: ('A' for Active; 'I' for Inactive)
ROOT
ATOM      1  C1  BNZ d   1      -5.656  -1.610   5.998  0.00  0.00     0.000 A 
ATOM      2  C2  BNZ d   1      -5.678  -0.241   5.998  0.00  0.00     0.000 A 
ATOM      3  C3  BNZ d   1      -5.827   0.457   4.832  0.00  0.00     0.000 A 
ATOM      4  C4  BNZ d   1      -5.913  -0.213   3.665  0.00  0.00     0.000 A 
ATOM      5  C5  BNZ d   1      -5.883  -1.593   3.647  0.00  0.00     0.000 A 
ATOM      6  C6  BNZ d   1      -5.772  -2.293   4.827  0.00  0.00     0.000 A 
ENDROOT
TORSDOF 0
ENDMDL
