MODEL 1
REMARK minimizedAffinity 0.0656527281
REMARK minimizedRMSD -1
REMARK  0 active torsions:
REMARK  status: ('A' for Active; 'I' for Inactive)
ROOT
ATOM      1  C1  BNZ d   1       0.188   4.865  -2.682  0.00  0.00     0.000 A 
ATOM      2  C2  BNZ d   1       0.046   3.756  -1.891  0.00  0.00     0.000 A 
ATOM      3  C3  BNZ d   1       0.454   3.769  -0.586  0.00  0.00     0.000 A 
ATOM      4  C4  BNZ d   1       1.039   4.877  -0.086  0.00  0.00     0.000 A 
ATOM      5  C5  BNZ d   1       1.198   6.000  -0.873  0.00  0.00     0.000 A 
ATOM      6  C6  BNZ d   1       0.750   5.996  -2.175  0.00  0.00     0.000 A 
ENDROOT
TORSDOF 0
ENDMDL
