MODEL 1
REMARK minimizedAffinity 17.3404827
REMARK minimizedRMSD -1
REMARK  0 active torsions:
REMARK  status: ('A' for Active; 'I' for Inactive)
ROOT
ATOM      1  C   UNL d   1       5.883   4.157  -0.832  0.00  0.00    -0.002 A 
ATOM      2  C1  UNL d   1       5.852   3.412  -2.002  0.00  0.00     0.010 A 
ATOM      3  C2  UNL d   1       5.868   2.016  -1.956  0.00  0.00     0.041 A 
ATOM      4  C3  UNL d   1       5.915   1.376  -0.702  0.00  0.00    -0.075 A 
ATOM      5  S   UNL d   1       5.941  -0.321  -0.402  0.00  0.00     0.015 SA
ATOM      6  C4  UNL d   1       5.995  -0.097   1.287  0.00  0.00     0.022 A 
ATOM      7  C5  UNL d   1       5.993   1.234   1.631  0.00  0.00     0.026 A 
ATOM      8  C6  UNL d   1       5.947   2.105   0.490  0.00  0.00    -0.082 A 
ATOM      9  C7  UNL d   1       5.930   3.519   0.410  0.00  0.00     0.045 A 
ENDROOT
TORSDOF 0
ENDMDL
