MODEL 1
REMARK minimizedAffinity 8.46913338
REMARK minimizedRMSD -1
REMARK  0 active torsions:
REMARK  status: ('A' for Active; 'I' for Inactive)
ROOT
ATOM      1  C   UNL d   1       2.593  -1.933   1.191  0.00  0.00    -0.002 A 
ATOM      2  C1  UNL d   1       2.414  -3.158   0.564  0.00  0.00     0.010 A 
ATOM      3  C2  UNL d   1       1.156  -3.761   0.529  0.00  0.00     0.041 A 
ATOM      4  C3  UNL d   1       0.068  -3.105   1.139  0.00  0.00    -0.075 A 
ATOM      5  S   UNL d   1      -1.564  -3.654   1.220  0.00  0.00     0.015 SA
ATOM      6  C4  UNL d   1      -2.063  -2.274   2.088  0.00  0.00     0.022 A 
ATOM      7  C5  UNL d   1      -1.022  -1.406   2.319  0.00  0.00     0.026 A 
ATOM      8  C6  UNL d   1       0.223  -1.871   1.776  0.00  0.00    -0.082 A 
ATOM      9  C7  UNL d   1       1.512  -1.285   1.795  0.00  0.00     0.045 A 
ENDROOT
TORSDOF 0
ENDMDL
