MODEL 1
REMARK minimizedAffinity 6.9311533
REMARK minimizedRMSD -1
REMARK  0 active torsions:
REMARK  status: ('A' for Active; 'I' for Inactive)
ROOT
ATOM      1  C   UNL d   1       5.508   4.128  -5.138  0.00  0.00    -0.002 A 
ATOM      2  C1  UNL d   1       5.462   5.353  -5.790  0.00  0.00     0.010 A 
ATOM      3  C2  UNL d   1       4.242   6.000  -6.000  0.00  0.00     0.041 A 
ATOM      4  C3  UNL d   1       3.059   5.391  -5.537  0.00  0.00    -0.075 A 
ATOM      5  S   UNL d   1       1.452   6.000  -5.681  0.00  0.00     0.015 SA
ATOM      6  C4  UNL d   1       0.790   4.650  -4.879  0.00  0.00     0.022 A 
ATOM      7  C5  UNL d   1       1.756   3.747  -4.505  0.00  0.00     0.026 A 
ATOM      8  C6  UNL d   1       3.080   4.159  -4.877  0.00  0.00    -0.082 A 
ATOM      9  C7  UNL d   1       4.332   3.528  -4.681  0.00  0.00     0.045 A 
ENDROOT
TORSDOF 0
ENDMDL
