MODEL 1
REMARK minimizedAffinity 12.1884775
REMARK minimizedRMSD -1
REMARK  0 active torsions:
REMARK  status: ('A' for Active; 'I' for Inactive)
ROOT
ATOM      1  C   UNL d   1       5.991   4.298   1.475  0.00  0.00    -0.002 A 
ATOM      2  C1  UNL d   1       5.988   4.533   0.107  0.00  0.00     0.010 A 
ATOM      3  C2  UNL d   1       5.990   3.468  -0.796  0.00  0.00     0.041 A 
ATOM      4  C3  UNL d   1       5.993   2.151  -0.297  0.00  0.00    -0.075 A 
ATOM      5  S   UNL d   1       5.996   0.691  -1.215  0.00  0.00     0.015 SA
ATOM      6  C4  UNL d   1       6.000  -0.278   0.187  0.00  0.00     0.022 A 
ATOM      7  C5  UNL d   1       6.000   0.477   1.336  0.00  0.00     0.026 A 
ATOM      8  C6  UNL d   1       5.996   1.889   1.076  0.00  0.00    -0.082 A 
ATOM      9  C7  UNL d   1       5.995   2.990   1.966  0.00  0.00     0.045 A 
ENDROOT
TORSDOF 0
ENDMDL
