MODEL 1
REMARK minimizedAffinity -2.97343254
REMARK minimizedRMSD -1
REMARK  1 active torsions:
REMARK  status: ('A' for Active; 'I' for Inactive)
REMARK    1  A    between atoms: C1_2  and  C2_3 
ROOT
ATOM      1  C2  UNL d   1       0.301   0.436  -0.491  0.00  0.00    -0.073 A 
ATOM      2  C3  UNL d   1       0.078   1.134  -1.683  0.00  0.00    -0.002 A 
ATOM      3  C4  UNL d   1      -1.104   0.946  -2.401  0.00  0.00     0.004 A 
ATOM      4  C5  UNL d   1      -2.077   0.064  -1.931  0.00  0.00    -0.004 A 
ATOM      5  C6  UNL d   1      -1.879  -0.634  -0.735  0.00  0.00    -0.075 A 
ATOM      6  C7  UNL d   1      -2.915  -1.588  -0.218  0.00  0.00     0.076 C 
ATOM      7  C8  UNL d   1      -0.688  -0.441  -0.022  0.00  0.00     0.001 A 
ENDROOT
BRANCH   1   8
ATOM      8  C1  UNL d   1       1.573   0.641   0.290  0.00  0.00     0.053 C 
ATOM      9  C   UNL d   1       1.604   1.993   0.985  0.00  0.00     0.018 C 
ENDBRANCH   1   8
TORSDOF 1
ENDMDL
