MODEL 1
REMARK minimizedAffinity 0.190103143
REMARK minimizedRMSD -1
REMARK  1 active torsions:
REMARK  status: ('A' for Active; 'I' for Inactive)
REMARK    1  A    between atoms: C1_2  and  C2_3 
ROOT
ATOM      1  C2  UNL d   1       0.114  -0.297  -0.190  0.00  0.00    -0.073 A 
ATOM      2  C3  UNL d   1       0.126   0.349  -1.432  0.00  0.00    -0.002 A 
ATOM      3  C4  UNL d   1      -0.983   0.275  -2.275  0.00  0.00     0.004 A 
ATOM      4  C5  UNL d   1      -2.116  -0.437  -1.884  0.00  0.00    -0.004 A 
ATOM      5  C6  UNL d   1      -2.152  -1.079  -0.642  0.00  0.00    -0.075 A 
ATOM      6  C7  UNL d   1      -3.363  -1.851  -0.207  0.00  0.00     0.076 C 
ATOM      7  C8  UNL d   1      -1.033  -1.003   0.198  0.00  0.00     0.001 A 
ENDROOT
BRANCH   1   8
ATOM      8  C1  UNL d   1       1.308  -0.215   0.726  0.00  0.00     0.053 C 
ATOM      9  C   UNL d   1       2.247   0.916   0.339  0.00  0.00     0.018 C 
ENDBRANCH   1   8
TORSDOF 1
ENDMDL
