MODEL 1
REMARK minimizedAffinity -2.17650366
REMARK minimizedRMSD -1
REMARK  1 active torsions:
REMARK  status: ('A' for Active; 'I' for Inactive)
REMARK    1  A    between atoms: C1_2  and  C2_3 
ROOT
ATOM      1  C2  UNL d   1       0.764   0.469   0.366  0.00  0.00    -0.073 A 
ATOM      2  C3  UNL d   1       1.760   0.332  -0.608  0.00  0.00    -0.002 A 
ATOM      3  C4  UNL d   1       2.857   1.195  -0.620  0.00  0.00     0.004 A 
ATOM      4  C5  UNL d   1       2.974   2.195   0.345  0.00  0.00    -0.004 A 
ATOM      5  C6  UNL d   1       1.995   2.340   1.333  0.00  0.00    -0.075 A 
ATOM      6  C7  UNL d   1       2.105   3.413   2.377  0.00  0.00     0.076 C 
ATOM      7  C8  UNL d   1       0.895   1.472   1.337  0.00  0.00     0.001 A 
ENDROOT
BRANCH   1   8
ATOM      8  C1  UNL d   1      -0.419  -0.464   0.387  0.00  0.00     0.053 C 
ATOM      9  C   UNL d   1      -0.223  -1.612   1.364  0.00  0.00     0.018 C 
ENDBRANCH   1   8
TORSDOF 1
ENDMDL
