MODEL 1
REMARK minimizedAffinity -1.62544513
REMARK minimizedRMSD -1
REMARK  1 active torsions:
REMARK  status: ('A' for Active; 'I' for Inactive)
REMARK    1  A    between atoms: C1_2  and  C2_3 
ROOT
ATOM      1  C2  UNL d   1       0.456   0.244  -0.228  0.00  0.00    -0.073 A 
ATOM      2  C3  UNL d   1       0.347   0.828  -1.495  0.00  0.00    -0.002 A 
ATOM      3  C4  UNL d   1      -0.775   0.584  -2.288  0.00  0.00     0.004 A 
ATOM      4  C5  UNL d   1      -1.800  -0.238  -1.821  0.00  0.00    -0.004 A 
ATOM      5  C6  UNL d   1      -1.715  -0.821  -0.553  0.00  0.00    -0.075 A 
ATOM      6  C7  UNL d   1      -2.808  -1.710  -0.037  0.00  0.00     0.076 C 
ATOM      7  C8  UNL d   1      -0.584  -0.574   0.237  0.00  0.00     0.001 A 
ENDROOT
BRANCH   1   8
ATOM      8  C1  UNL d   1       1.662   0.510   0.636  0.00  0.00     0.053 C 
ATOM      9  C   UNL d   1       2.308   1.849   0.317  0.00  0.00     0.018 C 
ENDBRANCH   1   8
TORSDOF 1
ENDMDL
