MODEL 1
REMARK minimizedAffinity -2.37043095
REMARK minimizedRMSD -1
REMARK  1 active torsions:
REMARK  status: ('A' for Active; 'I' for Inactive)
REMARK    1  A    between atoms: C1_2  and  C2_3 
ROOT
ATOM      1  C2  UNL d   1       1.079   0.660   0.089  0.00  0.00    -0.073 A 
ATOM      2  C3  UNL d   1       0.108   0.933  -0.882  0.00  0.00    -0.002 A 
ATOM      3  C4  UNL d   1      -0.994   0.090  -1.033  0.00  0.00     0.004 A 
ATOM      4  C5  UNL d   1      -1.140  -1.028  -0.212  0.00  0.00    -0.004 A 
ATOM      5  C6  UNL d   1      -0.187  -1.311   0.772  0.00  0.00    -0.075 A 
ATOM      6  C7  UNL d   1      -0.328  -2.511   1.661  0.00  0.00     0.076 C 
ATOM      7  C8  UNL d   1       0.918  -0.461   0.915  0.00  0.00     0.001 A 
ENDROOT
BRANCH   1   8
ATOM      8  C1  UNL d   1       2.267   1.571   0.260  0.00  0.00     0.053 C 
ATOM      9  C   UNL d   1       2.091   2.524   1.431  0.00  0.00     0.018 C 
ENDBRANCH   1   8
TORSDOF 1
ENDMDL
