MODEL 1
REMARK minimizedAffinity -3.47690034
REMARK minimizedRMSD -1
REMARK  1 active torsions:
REMARK  status: ('A' for Active; 'I' for Inactive)
REMARK    1  A    between atoms: C1_2  and  C2_3 
ROOT
ATOM      1  C2  UNL d   1       1.337   0.522   0.833  0.00  0.00    -0.073 A 
ATOM      2  C3  UNL d   1       1.718   1.688   0.160  0.00  0.00    -0.002 A 
ATOM      3  C4  UNL d   1       2.538   2.628   0.785  0.00  0.00     0.004 A 
ATOM      4  C5  UNL d   1       2.991   2.409   2.086  0.00  0.00    -0.004 A 
ATOM      5  C6  UNL d   1       2.631   1.244   2.772  0.00  0.00    -0.075 A 
ATOM      6  C7  UNL d   1       3.107   0.995   4.173  0.00  0.00     0.076 C 
ATOM      7  C8  UNL d   1       1.805   0.307   2.138  0.00  0.00     0.001 A 
ENDROOT
BRANCH   1   8
ATOM      8  C1  UNL d   1       0.457  -0.498   0.160  0.00  0.00     0.053 C 
ATOM      9  C   UNL d   1      -0.462   0.135  -0.873  0.00  0.00     0.018 C 
ENDBRANCH   1   8
TORSDOF 1
ENDMDL
