MODEL 1
REMARK minimizedAffinity -2.37057877
REMARK minimizedRMSD -1
REMARK  1 active torsions:
REMARK  status: ('A' for Active; 'I' for Inactive)
REMARK    1  A    between atoms: C1_2  and  C2_3 
ROOT
ATOM      1  C2  UNL d   1       1.884   0.475   0.511  0.00  0.00    -0.073 A 
ATOM      2  C3  UNL d   1       2.338  -0.521   1.384  0.00  0.00    -0.002 A 
ATOM      3  C4  UNL d   1       1.507  -1.587   1.730  0.00  0.00     0.004 A 
ATOM      4  C5  UNL d   1       0.219  -1.673   1.202  0.00  0.00    -0.004 A 
ATOM      5  C6  UNL d   1      -0.249  -0.695   0.319  0.00  0.00    -0.075 A 
ATOM      6  C7  UNL d   1      -1.633  -0.772  -0.255  0.00  0.00     0.076 C 
ATOM      7  C8  UNL d   1       0.591   0.375  -0.021  0.00  0.00     0.001 A 
ENDROOT
BRANCH   1   8
ATOM      8  C1  UNL d   1       2.780   1.625   0.130  0.00  0.00     0.053 C 
ATOM      9  C   UNL d   1       2.811   2.703   1.202  0.00  0.00     0.018 C 
ENDBRANCH   1   8
TORSDOF 1
ENDMDL
