MODEL 1
REMARK minimizedAffinity -5.08163595
REMARK minimizedRMSD -1
REMARK  1 active torsions:
REMARK  status: ('A' for Active; 'I' for Inactive)
REMARK    1  A    between atoms: C1_2  and  C2_3 
ROOT
ATOM      1  C2  UNL d   1      -0.355  -0.123  -0.417  0.00  0.00    -0.073 A 
ATOM      2  C3  UNL d   1      -0.239  -1.307   0.322  0.00  0.00    -0.002 A 
ATOM      3  C4  UNL d   1       0.875  -1.526   1.132  0.00  0.00     0.004 A 
ATOM      4  C5  UNL d   1       1.881  -0.563   1.218  0.00  0.00    -0.004 A 
ATOM      5  C6  UNL d   1       1.778   0.631   0.497  0.00  0.00    -0.075 A 
ATOM      6  C7  UNL d   1       2.852   1.676   0.577  0.00  0.00     0.076 C 
ATOM      7  C8  UNL d   1       0.657   0.843  -0.317  0.00  0.00     0.001 A 
ENDROOT
BRANCH   1   8
ATOM      8  C1  UNL d   1      -1.560   0.120  -1.288  0.00  0.00     0.053 C 
ATOM      9  C   UNL d   1      -2.375  -1.145  -1.501  0.00  0.00     0.018 C 
ENDBRANCH   1   8
TORSDOF 1
ENDMDL
