MODEL 1
REMARK minimizedAffinity -3.56768751
REMARK minimizedRMSD -1
REMARK  1 active torsions:
REMARK  status: ('A' for Active; 'I' for Inactive)
REMARK    1  A    between atoms: C1_2  and  C2_3 
ROOT
ATOM      1  C2  UNL d   1       1.565   0.740   0.118  0.00  0.00    -0.073 A 
ATOM      2  C3  UNL d   1       1.403   1.540   1.254  0.00  0.00    -0.002 A 
ATOM      3  C4  UNL d   1       2.150   2.709   1.405  0.00  0.00     0.004 A 
ATOM      4  C5  UNL d   1       3.059   3.093   0.420  0.00  0.00    -0.004 A 
ATOM      5  C6  UNL d   1       3.226   2.313  -0.729  0.00  0.00    -0.075 A 
ATOM      6  C7  UNL d   1       4.202   2.711  -1.797  0.00  0.00     0.076 C 
ATOM      7  C8  UNL d   1       2.475   1.139  -0.872  0.00  0.00     0.001 A 
ENDROOT
BRANCH   1   8
ATOM      8  C1  UNL d   1       0.756  -0.520  -0.053  0.00  0.00     0.053 C 
ATOM      9  C   UNL d   1      -0.530  -0.272  -0.826  0.00  0.00     0.018 C 
ENDBRANCH   1   8
TORSDOF 1
ENDMDL
