MODEL 1
REMARK minimizedAffinity -4.0308156
REMARK minimizedRMSD -1
REMARK  1 active torsions:
REMARK  status: ('A' for Active; 'I' for Inactive)
REMARK    1  A    between atoms: C1_2  and  C2_3 
ROOT
ATOM      1  C2  UNL d   1       0.919   1.107   0.629  0.00  0.00    -0.073 A 
ATOM      2  C3  UNL d   1       0.819   1.865   1.801  0.00  0.00    -0.002 A 
ATOM      3  C4  UNL d   1       1.709   2.912   2.041  0.00  0.00     0.004 A 
ATOM      4  C5  UNL d   1       2.702   3.217   1.111  0.00  0.00    -0.004 A 
ATOM      5  C6  UNL d   1       2.811   2.478  -0.072  0.00  0.00    -0.075 A 
ATOM      6  C7  UNL d   1       3.876   2.792  -1.082  0.00  0.00     0.076 C 
ATOM      7  C8  UNL d   1       1.915   1.426  -0.305  0.00  0.00     0.001 A 
ENDROOT
BRANCH   1   8
ATOM      8  C1  UNL d   1      -0.044  -0.021   0.362  0.00  0.00     0.053 C 
ATOM      9  C   UNL d   1      -0.933   0.261  -0.839  0.00  0.00     0.018 C 
ENDBRANCH   1   8
TORSDOF 1
ENDMDL
