MODEL 1
REMARK minimizedAffinity 0.675398409
REMARK minimizedRMSD -1
REMARK  1 active torsions:
REMARK  status: ('A' for Active; 'I' for Inactive)
REMARK    1  A    between atoms: C1_2  and  C2_3 
ROOT
ATOM      1  C2  UNL d   1       0.716   0.229   0.045  0.00  0.00    -0.073 A 
ATOM      2  C3  UNL d   1       1.068  -0.596   1.119  0.00  0.00    -0.002 A 
ATOM      3  C4  UNL d   1       0.187  -1.580   1.571  0.00  0.00     0.004 A 
ATOM      4  C5  UNL d   1      -1.050  -1.753   0.950  0.00  0.00    -0.004 A 
ATOM      5  C6  UNL d   1      -1.415  -0.946  -0.133  0.00  0.00    -0.075 A 
ATOM      6  C7  UNL d   1      -2.743  -1.119  -0.810  0.00  0.00     0.076 C 
ATOM      7  C8  UNL d   1      -0.526   0.041  -0.578  0.00  0.00     0.001 A 
ENDROOT
BRANCH   1   8
ATOM      8  C1  UNL d   1       1.666   1.288  -0.450  0.00  0.00     0.053 C 
ATOM      9  C   UNL d   1       2.005   2.301   0.632  0.00  0.00     0.018 C 
ENDBRANCH   1   8
TORSDOF 1
ENDMDL
