MODEL 1
REMARK minimizedAffinity -3.79070854
REMARK minimizedRMSD -1
REMARK  1 active torsions:
REMARK  status: ('A' for Active; 'I' for Inactive)
REMARK    1  A    between atoms: C1_2  and  C2_3 
ROOT
ATOM      1  C2  UNL d   1       0.031   0.085  -0.297  0.00  0.00    -0.073 A 
ATOM      2  C3  UNL d   1      -0.361   1.069  -1.212  0.00  0.00    -0.002 A 
ATOM      3  C4  UNL d   1      -1.596   0.982  -1.854  0.00  0.00     0.004 A 
ATOM      4  C5  UNL d   1      -2.454  -0.084  -1.584  0.00  0.00    -0.004 A 
ATOM      5  C6  UNL d   1      -2.086  -1.071  -0.665  0.00  0.00    -0.075 A 
ATOM      6  C7  UNL d   1      -2.996  -2.226  -0.365  0.00  0.00     0.076 C 
ATOM      7  C8  UNL d   1      -0.842  -0.978  -0.025  0.00  0.00     0.001 A 
ENDROOT
BRANCH   1   8
ATOM      8  C1  UNL d   1       1.362   0.178   0.404  0.00  0.00     0.053 C 
ATOM      9  C   UNL d   1       1.897   1.601   0.425  0.00  0.00     0.018 C 
ENDBRANCH   1   8
TORSDOF 1
ENDMDL
