MODEL 1
REMARK minimizedAffinity -3.37604451
REMARK minimizedRMSD -1
REMARK  0 active torsions:
REMARK  status: ('A' for Active; 'I' for Inactive)
ROOT
ATOM      1  C1  DEN d   1      -0.907  -0.029  -0.704  0.00  0.00     0.130 A 
ATOM      2  C2  DEN d   1       0.220  -0.939  -0.892  0.00  0.00    -0.031 A 
ATOM      3  C3  DEN d   1       1.189  -0.696   0.195  0.00  0.00     0.027 A 
ATOM      4  C4  DEN d   1       1.054   0.989   2.143  0.00  0.00     0.027 A 
ATOM      5  C5  DEN d   1       0.294   1.985   2.715  0.00  0.00    -0.003 A 
ATOM      6  C6  DEN d   1      -0.894   2.400   2.173  0.00  0.00     0.001 A 
ATOM      7  C7  DEN d   1      -1.378   1.784   1.049  0.00  0.00     0.017 A 
ATOM      8  C8  DEN d   1      -0.614   0.785   0.463  0.00  0.00    -0.094 A 
ATOM      9  C9  DEN d   1       0.578   0.371   1.033  0.00  0.00    -0.072 A 
ENDROOT
TORSDOF 0
ENDMDL
