MODEL 1
REMARK minimizedAffinity -3.62795162
REMARK minimizedRMSD -1
REMARK  0 active torsions:
REMARK  status: ('A' for Active; 'I' for Inactive)
ROOT
ATOM      1  C1  DEN d   1      -0.463  -0.006  -0.751  0.00  0.00     0.130 A 
ATOM      2  C2  DEN d   1       0.597  -1.002  -0.886  0.00  0.00    -0.031 A 
ATOM      3  C3  DEN d   1       1.420  -0.962   0.339  0.00  0.00     0.027 A 
ATOM      4  C4  DEN d   1       1.156   0.534   2.424  0.00  0.00     0.027 A 
ATOM      5  C5  DEN d   1       0.411   1.542   2.995  0.00  0.00    -0.003 A 
ATOM      6  C6  DEN d   1      -0.648   2.124   2.348  0.00  0.00     0.001 A 
ATOM      7  C7  DEN d   1      -1.019   1.670   1.110  0.00  0.00     0.017 A 
ATOM      8  C8  DEN d   1      -0.269   0.659   0.525  0.00  0.00    -0.094 A 
ATOM      9  C9  DEN d   1       0.790   0.076   1.200  0.00  0.00    -0.072 A 
ENDROOT
TORSDOF 0
ENDMDL
