MODEL 1
REMARK minimizedAffinity -2.18236089
REMARK minimizedRMSD -1
REMARK  0 active torsions:
REMARK  status: ('A' for Active; 'I' for Inactive)
ROOT
ATOM      1  C1  DEN d   1      -0.970  -0.733   1.124  0.00  0.00     0.130 A 
ATOM      2  C2  DEN d   1       0.223  -0.001   1.537  0.00  0.00    -0.031 A 
ATOM      3  C3  DEN d   1       1.307  -0.320   0.586  0.00  0.00     0.027 A 
ATOM      4  C4  DEN d   1       1.251  -1.867  -1.478  0.00  0.00     0.027 A 
ATOM      5  C5  DEN d   1       0.463  -2.716  -2.223  0.00  0.00    -0.003 A 
ATOM      6  C6  DEN d   1      -0.837  -2.987  -1.889  0.00  0.00     0.001 A 
ATOM      7  C7  DEN d   1      -1.402  -2.369  -0.805  0.00  0.00     0.017 A 
ATOM      8  C8  DEN d   1      -0.612  -1.518  -0.044  0.00  0.00    -0.094 A 
ATOM      9  C9  DEN d   1       0.697  -1.247  -0.405  0.00  0.00    -0.072 A 
ENDROOT
TORSDOF 0
ENDMDL
