MODEL 1
REMARK minimizedAffinity -5.63915157
REMARK minimizedRMSD -1
REMARK  0 active torsions:
REMARK  status: ('A' for Active; 'I' for Inactive)
ROOT
ATOM      1  C1  DEN d   1      -0.997  -0.097  -1.120  0.00  0.00     0.130 A 
ATOM      2  C2  DEN d   1       0.085  -1.070  -1.242  0.00  0.00    -0.031 A 
ATOM      3  C3  DEN d   1       0.912  -0.989  -0.021  0.00  0.00     0.027 A 
ATOM      4  C4  DEN d   1       0.620   0.538   2.038  0.00  0.00     0.027 A 
ATOM      5  C5  DEN d   1      -0.147   1.538   2.594  0.00  0.00    -0.003 A 
ATOM      6  C6  DEN d   1      -1.221   2.082   1.942  0.00  0.00     0.001 A 
ATOM      7  C7  DEN d   1      -1.587   1.598   0.714  0.00  0.00     0.017 A 
ATOM      8  C8  DEN d   1      -0.814   0.595   0.143  0.00  0.00    -0.094 A 
ATOM      9  C9  DEN d   1       0.261   0.049   0.824  0.00  0.00    -0.072 A 
ENDROOT
TORSDOF 0
ENDMDL
