MODEL 1
REMARK minimizedAffinity -0.883577585
REMARK minimizedRMSD -1
REMARK  0 active torsions:
REMARK  status: ('A' for Active; 'I' for Inactive)
ROOT
ATOM      1  C1  DEN d   1       0.391  -1.635   0.489  0.00  0.00     0.130 A 
ATOM      2  C2  DEN d   1       0.606  -1.289  -0.914  0.00  0.00    -0.031 A 
ATOM      3  C3  DEN d   1       0.621   0.184  -1.023  0.00  0.00     0.027 A 
ATOM      4  C4  DEN d   1       0.338   1.952   0.833  0.00  0.00     0.027 A 
ATOM      5  C5  DEN d   1       0.119   2.140   2.180  0.00  0.00    -0.003 A 
ATOM      6  C6  DEN d   1      -0.056   1.093   3.045  0.00  0.00     0.001 A 
ATOM      7  C7  DEN d   1       0.029  -0.193   2.580  0.00  0.00     0.017 A 
ATOM      8  C8  DEN d   1       0.241  -0.391   1.222  0.00  0.00    -0.094 A 
ATOM      9  C9  DEN d   1       0.428   0.681   0.366  0.00  0.00    -0.072 A 
ENDROOT
TORSDOF 0
ENDMDL
