MODEL 1
REMARK minimizedAffinity -0.544585943
REMARK minimizedRMSD -1
REMARK  0 active torsions:
REMARK  status: ('A' for Active; 'I' for Inactive)
ROOT
ATOM      1  C1  DEN d   1       1.007   0.191   2.567  0.00  0.00     0.130 A 
ATOM      2  C2  DEN d   1       0.694   1.594   2.827  0.00  0.00    -0.031 A 
ATOM      3  C3  DEN d   1       0.111   2.167   1.597  0.00  0.00     0.027 A 
ATOM      4  C4  DEN d   1      -0.341   1.022  -0.670  0.00  0.00     0.027 A 
ATOM      5  C5  DEN d   1      -0.232  -0.157  -1.374  0.00  0.00    -0.003 A 
ATOM      6  C6  DEN d   1       0.324  -1.283  -0.829  0.00  0.00     0.001 A 
ATOM      7  C7  DEN d   1       0.752  -1.268   0.472  0.00  0.00     0.017 A 
ATOM      8  C8  DEN d   1       0.652  -0.081   1.186  0.00  0.00    -0.094 A 
ATOM      9  C9  DEN d   1       0.075   1.044   0.621  0.00  0.00    -0.072 A 
ENDROOT
TORSDOF 0
ENDMDL
