MODEL 1
REMARK minimizedAffinity -5.98708439
REMARK minimizedRMSD -1
REMARK  0 active torsions:
REMARK  status: ('A' for Active; 'I' for Inactive)
ROOT
ATOM      1  C1  DEN d   1      -0.247   0.336  -2.056  0.00  0.00     0.130 A 
ATOM      2  C2  DEN d   1       0.478  -0.927  -1.947  0.00  0.00    -0.031 A 
ATOM      3  C3  DEN d   1       0.662  -1.225  -0.512  0.00  0.00     0.027 A 
ATOM      4  C4  DEN d   1      -0.107   0.137   1.539  0.00  0.00     0.027 A 
ATOM      5  C5  DEN d   1      -0.750   1.284   1.948  0.00  0.00    -0.003 A 
ATOM      6  C6  DEN d   1      -1.236   2.205   1.059  0.00  0.00     0.001 A 
ATOM      7  C7  DEN d   1      -1.127   1.972  -0.287  0.00  0.00     0.017 A 
ATOM      8  C8  DEN d   1      -0.474   0.821  -0.707  0.00  0.00    -0.094 A 
ATOM      9  C9  DEN d   1      -0.000  -0.104   0.208  0.00  0.00    -0.072 A 
ENDROOT
TORSDOF 0
ENDMDL
