MODEL 1
REMARK minimizedAffinity 7.04345655
REMARK minimizedRMSD -1
REMARK  0 active torsions:
REMARK  status: ('A' for Active; 'I' for Inactive)
ROOT
ATOM      1  C1  DEN d   1       4.484  -3.618  -1.763  0.00  0.00     0.130 A 
ATOM      2  C2  DEN d   1       5.666  -2.850  -2.145  0.00  0.00    -0.031 A 
ATOM      3  C3  DEN d   1       5.406  -1.429  -1.835  0.00  0.00     0.027 A 
ATOM      4  C4  DEN d   1       3.302  -0.353  -0.802  0.00  0.00     0.027 A 
ATOM      5  C5  DEN d   1       2.035  -0.600  -0.323  0.00  0.00    -0.003 A 
ATOM      6  C6  DEN d   1       1.487  -1.855  -0.321  0.00  0.00     0.001 A 
ATOM      7  C7  DEN d   1       2.226  -2.919  -0.767  0.00  0.00     0.017 A 
ATOM      8  C8  DEN d   1       3.501  -2.676  -1.259  0.00  0.00    -0.094 A 
ATOM      9  C9  DEN d   1       4.042  -1.402  -1.241  0.00  0.00    -0.072 A 
ENDROOT
TORSDOF 0
ENDMDL
