MODEL 1
REMARK minimizedAffinity 3.91445947
REMARK minimizedRMSD -1
REMARK  0 active torsions:
REMARK  status: ('A' for Active; 'I' for Inactive)
ROOT
ATOM      1  C1  DEN d   1       1.555  -0.097   3.355  0.00  0.00     0.130 A 
ATOM      2  C2  DEN d   1       0.783  -1.135   4.033  0.00  0.00    -0.031 A 
ATOM      3  C3  DEN d   1      -0.631  -0.709   4.058  0.00  0.00     0.027 A 
ATOM      4  C4  DEN d   1      -1.694   1.443   3.115  0.00  0.00     0.027 A 
ATOM      5  C5  DEN d   1      -1.438   2.629   2.463  0.00  0.00    -0.003 A 
ATOM      6  C6  DEN d   1      -0.173   3.002   2.096  0.00  0.00     0.001 A 
ATOM      7  C7  DEN d   1       0.880   2.160   2.339  0.00  0.00     0.017 A 
ATOM      8  C8  DEN d   1       0.631   0.966   3.002  0.00  0.00    -0.094 A 
ATOM      9  C9  DEN d   1      -0.657   0.601   3.354  0.00  0.00    -0.072 A 
ENDROOT
TORSDOF 0
ENDMDL
