MODEL 1
REMARK minimizedAffinity 6.98973083
REMARK minimizedRMSD -1
REMARK  0 active torsions:
REMARK  status: ('A' for Active; 'I' for Inactive)
ROOT
ATOM      1  C1  DEN d   1      -3.398  -1.017   3.367  0.00  0.00     0.130 A 
ATOM      2  C2  DEN d   1      -4.546  -0.350   2.760  0.00  0.00    -0.031 A 
ATOM      3  C3  DEN d   1      -5.771  -0.906   3.369  0.00  0.00     0.027 A 
ATOM      4  C4  DEN d   1      -6.000  -2.721   5.187  0.00  0.00     0.027 A 
ATOM      5  C5  DEN d   1      -5.305  -3.590   6.000  0.00  0.00    -0.003 A 
ATOM      6  C6  DEN d   1      -3.939  -3.685   5.968  0.00  0.00     0.001 A 
ATOM      7  C7  DEN d   1      -3.221  -2.866   5.138  0.00  0.00     0.017 A 
ATOM      8  C8  DEN d   1      -3.914  -1.993   4.310  0.00  0.00    -0.094 A 
ATOM      9  C9  DEN d   1      -5.295  -1.903   4.366  0.00  0.00    -0.072 A 
ENDROOT
TORSDOF 0
ENDMDL
