MODEL 1
REMARK minimizedAffinity 6.85162497
REMARK minimizedRMSD -1
REMARK  0 active torsions:
REMARK  status: ('A' for Active; 'I' for Inactive)
ROOT
ATOM      1  C1  DEN d   1      -1.139   2.665  -0.006  0.00  0.00     0.130 A 
ATOM      2  C2  DEN d   1       0.034   2.322   0.793  0.00  0.00    -0.031 A 
ATOM      3  C3  DEN d   1       1.095   3.302   0.491  0.00  0.00     0.027 A 
ATOM      4  C4  DEN d   1       1.035   5.312  -1.126  0.00  0.00     0.027 A 
ATOM      5  C5  DEN d   1       0.260   5.999  -2.034  0.00  0.00    -0.003 A 
ATOM      6  C6  DEN d   1      -1.013   5.606  -2.352  0.00  0.00     0.001 A 
ATOM      7  C7  DEN d   1      -1.566   4.522  -1.724  0.00  0.00     0.017 A 
ATOM      8  C8  DEN d   1      -0.788   3.820  -0.813  0.00  0.00    -0.094 A 
ATOM      9  C9  DEN d   1       0.492   4.240  -0.495  0.00  0.00    -0.072 A 
ENDROOT
TORSDOF 0
ENDMDL
