MODEL 1
REMARK minimizedAffinity 19.8879871
REMARK minimizedRMSD -1
REMARK  0 active torsions:
REMARK  status: ('A' for Active; 'I' for Inactive)
ROOT
ATOM      1  C1  DEN d   1      -4.910  -5.995  -5.757  0.00  0.00     0.130 A 
ATOM      2  C2  DEN d   1      -5.884  -4.913  -5.880  0.00  0.00    -0.031 A 
ATOM      3  C3  DEN d   1      -5.142  -3.642  -5.994  0.00  0.00     0.027 A 
ATOM      4  C4  DEN d   1      -2.593  -3.245  -6.000  0.00  0.00     0.027 A 
ATOM      5  C5  DEN d   1      -1.362  -3.855  -5.909  0.00  0.00    -0.003 A 
ATOM      6  C6  DEN d   1      -1.228  -5.206  -5.729  0.00  0.00     0.001 A 
ATOM      7  C7  DEN d   1      -2.345  -5.998  -5.679  0.00  0.00     0.017 A 
ATOM      8  C8  DEN d   1      -3.590  -5.389  -5.762  0.00  0.00    -0.094 A 
ATOM      9  C9  DEN d   1      -3.704  -4.023  -5.956  0.00  0.00    -0.072 A 
ENDROOT
TORSDOF 0
ENDMDL
