MODEL 1
REMARK minimizedAffinity 11.7693319
REMARK minimizedRMSD -1
REMARK  0 active torsions:
REMARK  status: ('A' for Active; 'I' for Inactive)
ROOT
ATOM      1  C1  DEN d   1      -3.030   6.000   1.237  0.00  0.00     0.130 A 
ATOM      2  C2  DEN d   1      -4.486   6.000   1.126  0.00  0.00    -0.031 A 
ATOM      3  C3  DEN d   1      -4.837   5.655  -0.267  0.00  0.00     0.027 A 
ATOM      4  C4  DEN d   1      -3.276   5.118  -2.248  0.00  0.00     0.027 A 
ATOM      5  C5  DEN d   1      -1.961   5.004  -2.642  0.00  0.00    -0.003 A 
ATOM      6  C6  DEN d   1      -0.919   5.245  -1.787  0.00  0.00     0.001 A 
ATOM      7  C7  DEN d   1      -1.174   5.569  -0.481  0.00  0.00     0.017 A 
ATOM      8  C8  DEN d   1      -2.497   5.693  -0.078  0.00  0.00    -0.094 A 
ATOM      9  C9  DEN d   1      -3.536   5.433  -0.954  0.00  0.00    -0.072 A 
ENDROOT
TORSDOF 0
ENDMDL
