MODEL 1
REMARK minimizedAffinity 9.75744152
REMARK minimizedRMSD -1
REMARK  0 active torsions:
REMARK  status: ('A' for Active; 'I' for Inactive)
ROOT
ATOM      1  C1  DEN d   1      -0.739   1.990  -1.492  0.00  0.00     0.130 A 
ATOM      2  C2  DEN d   1      -0.578   1.493  -0.129  0.00  0.00    -0.031 A 
ATOM      3  C3  DEN d   1      -0.763   2.629   0.796  0.00  0.00     0.027 A 
ATOM      4  C4  DEN d   1      -1.286   5.095   0.253  0.00  0.00     0.027 A 
ATOM      5  C5  DEN d   1      -1.502   5.999  -0.764  0.00  0.00    -0.003 A 
ATOM      6  C6  DEN d   1      -1.446   5.641  -2.084  0.00  0.00     0.001 A 
ATOM      7  C7  DEN d   1      -1.211   4.334  -2.423  0.00  0.00     0.017 A 
ATOM      8  C8  DEN d   1      -0.985   3.418  -1.404  0.00  0.00    -0.094 A 
ATOM      9  C9  DEN d   1      -1.059   3.798  -0.075  0.00  0.00    -0.072 A 
ENDROOT
TORSDOF 0
ENDMDL
