MODEL 1
REMARK minimizedAffinity 12.9568949
REMARK minimizedRMSD -1
REMARK  0 active torsions:
REMARK  status: ('A' for Active; 'I' for Inactive)
ROOT
ATOM      1  C1  DEN d   1       0.717   4.598  -1.301  0.00  0.00     0.130 A 
ATOM      2  C2  DEN d   1      -0.653   4.313  -1.719  0.00  0.00    -0.031 A 
ATOM      3  C3  DEN d   1      -1.251   3.396  -0.728  0.00  0.00     0.027 A 
ATOM      4  C4  DEN d   1      -0.195   2.398   1.403  0.00  0.00     0.027 A 
ATOM      5  C5  DEN d   1       0.948   2.341   2.168  0.00  0.00    -0.003 A 
ATOM      6  C6  DEN d   1       2.097   2.999   1.816  0.00  0.00     0.001 A 
ATOM      7  C7  DEN d   1       2.113   3.781   0.691  0.00  0.00     0.017 A 
ATOM      8  C8  DEN d   1       0.965   3.837  -0.090  0.00  0.00    -0.094 A 
ATOM      9  C9  DEN d   1      -0.189   3.174   0.290  0.00  0.00    -0.072 A 
ENDROOT
TORSDOF 0
ENDMDL
