MODEL 1
REMARK minimizedAffinity 20.7587357
REMARK minimizedRMSD -1
REMARK  0 active torsions:
REMARK  status: ('A' for Active; 'I' for Inactive)
ROOT
ATOM      1  C1  DEN d   1      -0.291  -0.960   5.254  0.00  0.00     0.130 A 
ATOM      2  C2  DEN d   1       0.571  -2.132   5.388  0.00  0.00    -0.031 A 
ATOM      3  C3  DEN d   1       1.705  -1.974   4.456  0.00  0.00     0.027 A 
ATOM      4  C4  DEN d   1       2.212  -0.036   2.831  0.00  0.00     0.027 A 
ATOM      5  C5  DEN d   1       1.763   1.176   2.354  0.00  0.00    -0.003 A 
ATOM      6  C6  DEN d   1       0.590   1.740   2.782  0.00  0.00     0.001 A 
ATOM      7  C7  DEN d   1      -0.151   1.112   3.748  0.00  0.00     0.017 A 
ATOM      8  C8  DEN d   1       0.291  -0.113   4.228  0.00  0.00    -0.094 A 
ATOM      9  C9  DEN d   1       1.485  -0.661   3.792  0.00  0.00    -0.072 A 
ENDROOT
TORSDOF 0
ENDMDL
