MODEL 1
REMARK minimizedAffinity -4.14955759
REMARK minimizedRMSD -1
REMARK  0 active torsions:
REMARK  status: ('A' for Active; 'I' for Inactive)
ROOT
ATOM      1  C1  BNZ d   1      -2.041   2.406   1.348  0.00  0.00     0.000 A 
ATOM      2  C2  BNZ d   1      -1.547   2.717   0.109  0.00  0.00     0.000 A 
ATOM      3  C3  BNZ d   1      -0.615   1.918  -0.494  0.00  0.00     0.000 A 
ATOM      4  C4  BNZ d   1      -0.151   0.833   0.158  0.00  0.00     0.000 A 
ATOM      5  C5  BNZ d   1      -0.632   0.512   1.412  0.00  0.00     0.000 A 
ATOM      6  C6  BNZ d   1      -1.598   1.296   1.999  0.00  0.00     0.000 A 
ENDROOT
TORSDOF 0
ENDMDL
