MODEL 1
REMARK minimizedAffinity -3.60889697
REMARK minimizedRMSD -1
REMARK  0 active torsions:
REMARK  status: ('A' for Active; 'I' for Inactive)
ROOT
ATOM      1  C1  BNZ d   1      -2.250   0.683   2.394  0.00  0.00     0.000 A 
ATOM      2  C2  BNZ d   1      -1.497  -0.372   1.954  0.00  0.00     0.000 A 
ATOM      3  C3  BNZ d   1      -0.349  -0.163   1.240  0.00  0.00     0.000 A 
ATOM      4  C4  BNZ d   1       0.021   1.098   0.935  0.00  0.00     0.000 A 
ATOM      5  C5  BNZ d   1      -0.734   2.171   1.364  0.00  0.00     0.000 A 
ATOM      6  C6  BNZ d   1      -1.867   1.959   2.115  0.00  0.00     0.000 A 
ENDROOT
TORSDOF 0
ENDMDL
