MODEL 1
REMARK minimizedAffinity -5.06774712
REMARK minimizedRMSD -1
REMARK  0 active torsions:
REMARK  status: ('A' for Active; 'I' for Inactive)
ROOT
ATOM      1  C1  BNZ d   1      -0.323   1.553  -0.350  0.00  0.00     0.000 A 
ATOM      2  C2  BNZ d   1      -0.669   2.791  -0.820  0.00  0.00     0.000 A 
ATOM      3  C3  BNZ d   1      -1.458   3.626  -0.078  0.00  0.00     0.000 A 
ATOM      4  C4  BNZ d   1      -1.931   3.206   1.113  0.00  0.00     0.000 A 
ATOM      5  C5  BNZ d   1      -1.599   1.956   1.596  0.00  0.00     0.000 A 
ATOM      6  C6  BNZ d   1      -0.773   1.134   0.864  0.00  0.00     0.000 A 
ENDROOT
TORSDOF 0
ENDMDL
