MODEL 1
REMARK minimizedAffinity -4.64212418
REMARK minimizedRMSD -1
REMARK  0 active torsions:
REMARK  status: ('A' for Active; 'I' for Inactive)
ROOT
ATOM      1  C1  BNZ d   1      -0.354  -0.310   1.453  0.00  0.00     0.000 A 
ATOM      2  C2  BNZ d   1      -1.241   0.716   1.645  0.00  0.00     0.000 A 
ATOM      3  C3  BNZ d   1      -1.519   1.598   0.639  0.00  0.00     0.000 A 
ATOM      4  C4  BNZ d   1      -0.882   1.477  -0.544  0.00  0.00     0.000 A 
ATOM      5  C5  BNZ d   1       0.022   0.454  -0.750  0.00  0.00     0.000 A 
ATOM      6  C6  BNZ d   1       0.271  -0.455   0.253  0.00  0.00     0.000 A 
ENDROOT
TORSDOF 0
ENDMDL
