MODEL 1
REMARK minimizedAffinity -2.94504619
REMARK minimizedRMSD -1
REMARK  0 active torsions:
REMARK  status: ('A' for Active; 'I' for Inactive)
ROOT
ATOM      1  C1  BNZ d   1      -0.629   2.422   0.175  0.00  0.00     0.000 A 
ATOM      2  C2  BNZ d   1      -0.123   1.242  -0.301  0.00  0.00     0.000 A 
ATOM      3  C3  BNZ d   1      -0.325   0.071   0.374  0.00  0.00     0.000 A 
ATOM      4  C4  BNZ d   1      -0.997   0.087   1.543  0.00  0.00     0.000 A 
ATOM      5  C5  BNZ d   1      -1.505   1.270   2.041  0.00  0.00     0.000 A 
ATOM      6  C6  BNZ d   1      -1.333   2.441   1.339  0.00  0.00     0.000 A 
ENDROOT
TORSDOF 0
ENDMDL
