MODEL 1
REMARK minimizedAffinity -3.12052631
REMARK minimizedRMSD -1
REMARK  0 active torsions:
REMARK  status: ('A' for Active; 'I' for Inactive)
ROOT
ATOM      1  C1  BNZ d   1       0.899  -2.683  -2.851  0.00  0.00     0.000 A 
ATOM      2  C2  BNZ d   1       0.795  -1.356  -3.170  0.00  0.00     0.000 A 
ATOM      3  C3  BNZ d   1       1.052  -0.390  -2.238  0.00  0.00     0.000 A 
ATOM      4  C4  BNZ d   1       1.373  -0.752  -0.979  0.00  0.00     0.000 A 
ATOM      5  C5  BNZ d   1       1.473  -2.086  -0.639  0.00  0.00     0.000 A 
ATOM      6  C6  BNZ d   1       1.251  -3.056  -1.590  0.00  0.00     0.000 A 
ENDROOT
TORSDOF 0
ENDMDL
