MODEL 1
REMARK minimizedAffinity -0.974289179
REMARK minimizedRMSD -1
REMARK  0 active torsions:
REMARK  status: ('A' for Active; 'I' for Inactive)
ROOT
ATOM      1  C1  BNZ d   1       0.821  -3.768  -1.880  0.00  0.00     0.000 A 
ATOM      2  C2  BNZ d   1       1.311  -2.980  -0.874  0.00  0.00     0.000 A 
ATOM      3  C3  BNZ d   1       1.180  -1.620  -0.924  0.00  0.00     0.000 A 
ATOM      4  C4  BNZ d   1       0.597  -1.049  -1.997  0.00  0.00     0.000 A 
ATOM      5  C5  BNZ d   1       0.106  -1.830  -3.024  0.00  0.00     0.000 A 
ATOM      6  C6  BNZ d   1       0.205  -3.200  -2.953  0.00  0.00     0.000 A 
ENDROOT
TORSDOF 0
ENDMDL
