MODEL 1
REMARK minimizedAffinity -4.88301897
REMARK minimizedRMSD -1
REMARK  0 active torsions:
REMARK  status: ('A' for Active; 'I' for Inactive)
ROOT
ATOM      1  C1  BNZ d   1      -1.661   1.701   1.780  0.00  0.00     0.000 A 
ATOM      2  C2  BNZ d   1      -1.670   2.936   1.188  0.00  0.00     0.000 A 
ATOM      3  C3  BNZ d   1      -0.945   3.174   0.053  0.00  0.00     0.000 A 
ATOM      4  C4  BNZ d   1      -0.181   2.189  -0.464  0.00  0.00     0.000 A 
ATOM      5  C5  BNZ d   1      -0.154   0.942   0.127  0.00  0.00     0.000 A 
ATOM      6  C6  BNZ d   1      -0.916   0.695   1.246  0.00  0.00     0.000 A 
ENDROOT
TORSDOF 0
ENDMDL
