MODEL 1
REMARK minimizedAffinity -4.64328671
REMARK minimizedRMSD -1
REMARK  0 active torsions:
REMARK  status: ('A' for Active; 'I' for Inactive)
ROOT
ATOM      1  C1  BNZ d   1      -2.066   1.963   0.784  0.00  0.00     0.000 A 
ATOM      2  C2  BNZ d   1      -1.257   1.048   0.164  0.00  0.00     0.000 A 
ATOM      3  C3  BNZ d   1      -0.347   1.442  -0.777  0.00  0.00     0.000 A 
ATOM      4  C4  BNZ d   1      -0.275   2.742  -1.126  0.00  0.00     0.000 A 
ATOM      5  C5  BNZ d   1      -1.090   3.676  -0.518  0.00  0.00     0.000 A 
ATOM      6  C6  BNZ d   1      -1.978   3.281   0.457  0.00  0.00     0.000 A 
ENDROOT
TORSDOF 0
ENDMDL
