MODEL 1
REMARK minimizedAffinity -3.79735231
REMARK minimizedRMSD -1
REMARK  0 active torsions:
REMARK  status: ('A' for Active; 'I' for Inactive)
ROOT
ATOM      1  C1  BNZ d   1      -2.474   0.862   0.549  0.00  0.00     0.000 A 
ATOM      2  C2  BNZ d   1      -1.650  -0.227   0.453  0.00  0.00     0.000 A 
ATOM      3  C3  BNZ d   1      -0.525  -0.324   1.223  0.00  0.00     0.000 A 
ATOM      4  C4  BNZ d   1      -0.204   0.685   2.058  0.00  0.00     0.000 A 
ATOM      5  C5  BNZ d   1      -1.020   1.794   2.160  0.00  0.00     0.000 A 
ATOM      6  C6  BNZ d   1      -2.172   1.871   1.411  0.00  0.00     0.000 A 
ENDROOT
TORSDOF 0
ENDMDL
