MODEL 1
REMARK minimizedAffinity -3.32035565
REMARK minimizedRMSD -1
REMARK  0 active torsions:
REMARK  status: ('A' for Active; 'I' for Inactive)
ROOT
ATOM      1  C1  BNZ d   1       1.426  -2.617  -1.225  0.00  0.00     0.000 A 
ATOM      2  C2  BNZ d   1       1.104  -1.447  -0.590  0.00  0.00     0.000 A 
ATOM      3  C3  BNZ d   1       0.051  -0.687  -1.015  0.00  0.00     0.000 A 
ATOM      4  C4  BNZ d   1      -0.653  -1.075  -2.097  0.00  0.00     0.000 A 
ATOM      5  C5  BNZ d   1      -0.336  -2.247  -2.755  0.00  0.00     0.000 A 
ATOM      6  C6  BNZ d   1       0.701  -3.030  -2.300  0.00  0.00     0.000 A 
ENDROOT
TORSDOF 0
ENDMDL
