MODEL 1
REMARK minimizedAffinity -4.64471817
REMARK minimizedRMSD -1
REMARK  0 active torsions:
REMARK  status: ('A' for Active; 'I' for Inactive)
ROOT
ATOM      1  C1  BNZ d   1      -1.525   1.487   0.053  0.00  0.00     0.000 A 
ATOM      2  C2  BNZ d   1      -1.875   1.497   1.376  0.00  0.00     0.000 A 
ATOM      3  C3  BNZ d   1      -1.194   0.738   2.286  0.00  0.00     0.000 A 
ATOM      4  C4  BNZ d   1      -0.191  -0.059   1.866  0.00  0.00     0.000 A 
ATOM      5  C5  BNZ d   1       0.168  -0.088   0.533  0.00  0.00     0.000 A 
ATOM      6  C6  BNZ d   1      -0.495   0.707  -0.374  0.00  0.00     0.000 A 
ENDROOT
TORSDOF 0
ENDMDL
