MODEL 1
REMARK minimizedAffinity -4.83298969
REMARK minimizedRMSD -1
REMARK  0 active torsions:
REMARK  status: ('A' for Active; 'I' for Inactive)
ROOT
ATOM      1  C1  BNZ d   1      -0.401   1.194  -0.370  0.00  0.00     0.000 A 
ATOM      2  C2  BNZ d   1      -0.125   2.480  -0.754  0.00  0.00     0.000 A 
ATOM      3  C3  BNZ d   1      -0.670   3.542  -0.087  0.00  0.00     0.000 A 
ATOM      4  C4  BNZ d   1      -1.520   3.317   0.935  0.00  0.00     0.000 A 
ATOM      5  C5  BNZ d   1      -1.815   2.027   1.329  0.00  0.00     0.000 A 
ATOM      6  C6  BNZ d   1      -1.235   0.961   0.680  0.00  0.00     0.000 A 
ENDROOT
TORSDOF 0
ENDMDL
