MODEL 1
REMARK minimizedAffinity -4.53861904
REMARK minimizedRMSD -1
REMARK  0 active torsions:
REMARK  status: ('A' for Active; 'I' for Inactive)
ROOT
ATOM      1  C1  BNZ d   1      -2.005   1.741   1.526  0.00  0.00     0.000 A 
ATOM      2  C2  BNZ d   1      -1.973   3.004   0.999  0.00  0.00     0.000 A 
ATOM      3  C3  BNZ d   1      -1.047   3.345   0.053  0.00  0.00     0.000 A 
ATOM      4  C4  BNZ d   1      -0.130   2.435  -0.335  0.00  0.00     0.000 A 
ATOM      5  C5  BNZ d   1      -0.143   1.160   0.194  0.00  0.00     0.000 A 
ATOM      6  C6  BNZ d   1      -1.101   0.809   1.117  0.00  0.00     0.000 A 
ENDROOT
TORSDOF 0
ENDMDL
