MODEL 1
REMARK minimizedAffinity -4.69121552
REMARK minimizedRMSD -1
REMARK  0 active torsions:
REMARK  status: ('A' for Active; 'I' for Inactive)
ROOT
ATOM      1  C1  BNZ d   1      -0.185  -0.308   1.227  0.00  0.00     0.000 A 
ATOM      2  C2  BNZ d   1      -1.213   0.260   1.932  0.00  0.00     0.000 A 
ATOM      3  C3  BNZ d   1      -1.966   1.262   1.386  0.00  0.00     0.000 A 
ATOM      4  C4  BNZ d   1      -1.665   1.722   0.155  0.00  0.00     0.000 A 
ATOM      5  C5  BNZ d   1      -0.625   1.167  -0.564  0.00  0.00     0.000 A 
ATOM      6  C6  BNZ d   1       0.106   0.132  -0.028  0.00  0.00     0.000 A 
ENDROOT
TORSDOF 0
ENDMDL
