MODEL 1
REMARK minimizedAffinity -4.7002306
REMARK minimizedRMSD -1
REMARK  0 active torsions:
REMARK  status: ('A' for Active; 'I' for Inactive)
ROOT
ATOM      1  C1  BNZ d   1      -1.657   2.615   1.023  0.00  0.00     0.000 A 
ATOM      2  C2  BNZ d   1      -1.713   1.359   1.567  0.00  0.00     0.000 A 
ATOM      3  C3  BNZ d   1      -1.001   0.328   1.020  0.00  0.00     0.000 A 
ATOM      4  C4  BNZ d   1      -0.269   0.543  -0.091  0.00  0.00     0.000 A 
ATOM      5  C5  BNZ d   1      -0.210   1.802  -0.657  0.00  0.00     0.000 A 
ATOM      6  C6  BNZ d   1      -0.896   2.846  -0.081  0.00  0.00     0.000 A 
ENDROOT
TORSDOF 0
ENDMDL
