MODEL 1
REMARK minimizedAffinity -0.213436484
REMARK minimizedRMSD -1
REMARK  1 active torsions:
REMARK  status: ('A' for Active; 'I' for Inactive)
REMARK    1  A    between atoms: C3_4  and  O_7 
ROOT
ATOM      1  C   UNL d   1      -0.452   2.820  -1.174  0.00  0.00    -0.033 A 
ATOM      2  C1  UNL d   1      -0.503   2.757  -2.567  0.00  0.00     0.039 A 
ATOM      3  C2  UNL d   1      -1.482   1.987  -3.198  0.00  0.00    -0.080 A 
ATOM      4  C3  UNL d   1      -2.404   1.286  -2.424  0.00  0.00     0.150 A 
ATOM      5  C4  UNL d   1      -2.361   1.348  -1.035  0.00  0.00    -0.007 A 
ATOM      6  C5  UNL d   1      -1.382   2.117  -0.407  0.00  0.00     0.039 A 
ENDROOT
BRANCH   4   7
ATOM      7  O   UNL d   1      -3.375   0.518  -2.994  0.00  0.00    -0.526 OA
ATOM      8  H5  UNL d   1      -3.264   0.548  -3.959  0.00  0.00     0.418 HD
ENDBRANCH   4   7
TORSDOF 1
ENDMDL
