MODEL 1
REMARK minimizedAffinity -1.16196108
REMARK minimizedRMSD -1
REMARK  1 active torsions:
REMARK  status: ('A' for Active; 'I' for Inactive)
REMARK    1  A    between atoms: C3_4  and  O_7 
ROOT
ATOM      1  C   UNL d   1      -0.948  -1.877   0.693  0.00  0.00    -0.033 A 
ATOM      2  C1  UNL d   1      -0.320  -0.834   1.376  0.00  0.00     0.039 A 
ATOM      3  C2  UNL d   1       1.030  -0.560   1.146  0.00  0.00    -0.080 A 
ATOM      4  C3  UNL d   1       1.738  -1.335   0.231  0.00  0.00     0.150 A 
ATOM      5  C4  UNL d   1       1.117  -2.373  -0.455  0.00  0.00    -0.007 A 
ATOM      6  C5  UNL d   1      -0.230  -2.646  -0.223  0.00  0.00     0.039 A 
ENDROOT
BRANCH   4   7
ATOM      7  O   UNL d   1       3.058  -1.109  -0.023  0.00  0.00    -0.526 OA
ATOM      8  H5  UNL d   1       3.360  -0.380   0.544  0.00  0.00     0.418 HD
ENDBRANCH   4   7
TORSDOF 1
ENDMDL
