MODEL 1
REMARK minimizedAffinity -4.2197566
REMARK minimizedRMSD -1
REMARK  1 active torsions:
REMARK  status: ('A' for Active; 'I' for Inactive)
REMARK    1  A    between atoms: C3_4  and  O_7 
ROOT
ATOM      1  C   UNL d   1      -5.123  -4.221   5.739  0.00  0.00    -0.033 A 
ATOM      2  C1  UNL d   1      -5.114  -5.484   5.144  0.00  0.00     0.039 A 
ATOM      3  C2  UNL d   1      -5.124  -5.603   3.753  0.00  0.00    -0.080 A 
ATOM      4  C3  UNL d   1      -5.142  -4.453   2.969  0.00  0.00     0.150 A 
ATOM      5  C4  UNL d   1      -5.146  -3.191   3.554  0.00  0.00    -0.007 A 
ATOM      6  C5  UNL d   1      -5.137  -3.074   4.944  0.00  0.00     0.039 A 
ENDROOT
BRANCH   4   7
ATOM      7  O   UNL d   1      -5.156  -4.520   1.608  0.00  0.00    -0.526 OA
ATOM      8  H5  UNL d   1      -5.180  -5.455   1.345  0.00  0.00     0.418 HD
ENDBRANCH   4   7
TORSDOF 1
ENDMDL
