MODEL 1
REMARK minimizedAffinity -1.89789939
REMARK minimizedRMSD -1
REMARK  1 active torsions:
REMARK  status: ('A' for Active; 'I' for Inactive)
REMARK    1  A    between atoms: C3_4  and  O_7 
ROOT
ATOM      1  C   UNL d   1       2.061  -1.519   0.686  0.00  0.00    -0.033 A 
ATOM      2  C1  UNL d   1       0.673  -1.486   0.837  0.00  0.00     0.039 A 
ATOM      3  C2  UNL d   1      -0.114  -2.508   0.301  0.00  0.00    -0.080 A 
ATOM      4  C3  UNL d   1       0.499  -3.555  -0.381  0.00  0.00     0.150 A 
ATOM      5  C4  UNL d   1       1.881  -3.597  -0.532  0.00  0.00    -0.007 A 
ATOM      6  C5  UNL d   1       2.665  -2.575   0.003  0.00  0.00     0.039 A 
ENDROOT
BRANCH   4   7
ATOM      7  O   UNL d   1      -0.228  -4.572  -0.925  0.00  0.00    -0.526 OA
ATOM      8  H5  UNL d   1      -1.171  -4.396  -0.768  0.00  0.00     0.418 HD
ENDBRANCH   4   7
TORSDOF 1
ENDMDL
