MODEL 1
REMARK minimizedAffinity -0.655486763
REMARK minimizedRMSD -1
REMARK  1 active torsions:
REMARK  status: ('A' for Active; 'I' for Inactive)
REMARK    1  A    between atoms: C3_4  and  O_7 
ROOT
ATOM      1  C   UNL d   1      -0.254  -1.771  -0.346  0.00  0.00    -0.033 A 
ATOM      2  C1  UNL d   1      -0.849  -1.100   0.724  0.00  0.00     0.039 A 
ATOM      3  C2  UNL d   1      -0.055  -0.497   1.701  0.00  0.00    -0.080 A 
ATOM      4  C3  UNL d   1       1.332  -0.571   1.596  0.00  0.00     0.150 A 
ATOM      5  C4  UNL d   1       1.931  -1.234   0.531  0.00  0.00    -0.007 A 
ATOM      6  C5  UNL d   1       1.137  -1.837  -0.444  0.00  0.00     0.039 A 
ENDROOT
BRANCH   4   7
ATOM      7  O   UNL d   1       2.148  -0.002   2.528  0.00  0.00    -0.526 OA
ATOM      8  H5  UNL d   1       1.594   0.396   3.220  0.00  0.00     0.418 HD
ENDBRANCH   4   7
TORSDOF 1
ENDMDL
