MODEL 1
REMARK minimizedAffinity 3.15182567
REMARK minimizedRMSD -1
REMARK  1 active torsions:
REMARK  status: ('A' for Active; 'I' for Inactive)
REMARK    1  A    between atoms: C3_4  and  O_7 
ROOT
ATOM      1  C   UNL d   1      -0.113  -1.120   0.149  0.00  0.00    -0.033 A 
ATOM      2  C1  UNL d   1       1.183  -1.002  -0.357  0.00  0.00     0.039 A 
ATOM      3  C2  UNL d   1       2.219  -0.558   0.468  0.00  0.00    -0.080 A 
ATOM      4  C3  UNL d   1       1.946  -0.236   1.794  0.00  0.00     0.150 A 
ATOM      5  C4  UNL d   1       0.657  -0.354   2.306  0.00  0.00    -0.007 A 
ATOM      6  C5  UNL d   1      -0.376  -0.797   1.481  0.00  0.00     0.039 A 
ENDROOT
BRANCH   4   7
ATOM      7  O   UNL d   1       2.923   0.207   2.636  0.00  0.00    -0.526 OA
ATOM      8  H5  UNL d   1       3.755   0.266   2.137  0.00  0.00     0.418 HD
ENDBRANCH   4   7
TORSDOF 1
ENDMDL
