MODEL 1
REMARK minimizedAffinity 1.17135179
REMARK minimizedRMSD -1
REMARK  1 active torsions:
REMARK  status: ('A' for Active; 'I' for Inactive)
REMARK    1  A    between atoms: C3_4  and  O_7 
ROOT
ATOM      1  C   UNL d   1      -0.751   0.150   1.418  0.00  0.00    -0.033 A 
ATOM      2  C1  UNL d   1       0.590  -0.169   1.641  0.00  0.00     0.039 A 
ATOM      3  C2  UNL d   1       1.106  -1.383   1.184  0.00  0.00    -0.080 A 
ATOM      4  C3  UNL d   1       0.272  -2.267   0.504  0.00  0.00     0.150 A 
ATOM      5  C4  UNL d   1      -1.063  -1.954   0.274  0.00  0.00    -0.007 A 
ATOM      6  C5  UNL d   1      -1.577  -0.741   0.733  0.00  0.00     0.039 A 
ENDROOT
BRANCH   4   7
ATOM      7  O   UNL d   1       0.729  -3.466   0.043  0.00  0.00    -0.526 OA
ATOM      8  H5  UNL d   1       1.662  -3.559   0.299  0.00  0.00     0.418 HD
ENDBRANCH   4   7
TORSDOF 1
ENDMDL
