MODEL 1
REMARK minimizedAffinity 0.171407789
REMARK minimizedRMSD -1
REMARK  1 active torsions:
REMARK  status: ('A' for Active; 'I' for Inactive)
REMARK    1  A    between atoms: C3_4  and  O_7 
ROOT
ATOM      1  C   UNL d   1      -0.040  -1.144   0.122  0.00  0.00    -0.033 A 
ATOM      2  C1  UNL d   1      -0.331  -0.514   1.333  0.00  0.00     0.039 A 
ATOM      3  C2  UNL d   1       0.695   0.056   2.090  0.00  0.00    -0.080 A 
ATOM      4  C3  UNL d   1       2.005  -0.009   1.623  0.00  0.00     0.150 A 
ATOM      5  C4  UNL d   1       2.301  -0.632   0.415  0.00  0.00    -0.007 A 
ATOM      6  C5  UNL d   1       1.276  -1.202  -0.338  0.00  0.00     0.039 A 
ENDROOT
BRANCH   4   7
ATOM      7  O   UNL d   1       3.040   0.528   2.329  0.00  0.00    -0.526 OA
ATOM      8  H5  UNL d   1       2.690   0.899   3.155  0.00  0.00     0.418 HD
ENDBRANCH   4   7
TORSDOF 1
ENDMDL
