MODEL 1
REMARK minimizedAffinity -1.30905962
REMARK minimizedRMSD -1
REMARK  1 active torsions:
REMARK  status: ('A' for Active; 'I' for Inactive)
REMARK    1  A    between atoms: C3_4  and  O_7 
ROOT
ATOM      1  C   UNL d   1       2.130  -2.719  -0.687  0.00  0.00    -0.033 A 
ATOM      2  C1  UNL d   1       2.344  -1.395  -0.301  0.00  0.00     0.039 A 
ATOM      3  C2  UNL d   1       1.315  -0.665   0.298  0.00  0.00    -0.080 A 
ATOM      4  C3  UNL d   1       0.079  -1.272   0.506  0.00  0.00     0.150 A 
ATOM      5  C4  UNL d   1      -0.140  -2.592   0.127  0.00  0.00    -0.007 A 
ATOM      6  C5  UNL d   1       0.888  -3.318  -0.472  0.00  0.00     0.039 A 
ENDROOT
BRANCH   4   7
ATOM      7  O   UNL d   1      -0.957  -0.599   1.083  0.00  0.00    -0.526 OA
ATOM      8  H5  UNL d   1      -0.669   0.311   1.266  0.00  0.00     0.418 HD
ENDBRANCH   4   7
TORSDOF 1
ENDMDL
