MODEL 1
REMARK minimizedAffinity -4.61612844
REMARK minimizedRMSD -1
REMARK  1 active torsions:
REMARK  status: ('A' for Active; 'I' for Inactive)
REMARK    1  A    between atoms: C3_4  and  O_7 
ROOT
ATOM      1  C   UNL d   1       0.010  -0.605   0.693  0.00  0.00    -0.033 A 
ATOM      2  C1  UNL d   1       1.365  -0.412   0.421  0.00  0.00     0.039 A 
ATOM      3  C2  UNL d   1       2.167  -1.495   0.056  0.00  0.00    -0.080 A 
ATOM      4  C3  UNL d   1       1.602  -2.764  -0.034  0.00  0.00     0.150 A 
ATOM      5  C4  UNL d   1       0.251  -2.963   0.232  0.00  0.00    -0.007 A 
ATOM      6  C5  UNL d   1      -0.548  -1.880   0.597  0.00  0.00     0.039 A 
ENDROOT
BRANCH   4   7
ATOM      7  O   UNL d   1       2.345  -3.852  -0.383  0.00  0.00    -0.526 OA
ATOM      8  H5  UNL d   1       3.266  -3.568  -0.509  0.00  0.00     0.418 HD
ENDBRANCH   4   7
TORSDOF 1
ENDMDL
