MODEL 1
REMARK minimizedAffinity -2.69253707
REMARK minimizedRMSD -1
REMARK  1 active torsions:
REMARK  status: ('A' for Active; 'I' for Inactive)
REMARK    1  A    between atoms: C3_4  and  O_7 
ROOT
ATOM      1  C   UNL d   1       0.010   0.006   0.610  0.00  0.00    -0.033 A 
ATOM      2  C1  UNL d   1       1.352  -0.378   0.663  0.00  0.00     0.039 A 
ATOM      3  C2  UNL d   1       1.698  -1.728   0.581  0.00  0.00    -0.080 A 
ATOM      4  C3  UNL d   1       0.695  -2.683   0.444  0.00  0.00     0.150 A 
ATOM      5  C4  UNL d   1      -0.643  -2.308   0.386  0.00  0.00    -0.007 A 
ATOM      6  C5  UNL d   1      -0.987  -0.960   0.469  0.00  0.00     0.039 A 
ENDROOT
BRANCH   4   7
ATOM      7  O   UNL d   1       0.984  -4.013   0.364  0.00  0.00    -0.526 OA
ATOM      8  H5  UNL d   1       1.945  -4.125   0.447  0.00  0.00     0.418 HD
ENDBRANCH   4   7
TORSDOF 1
ENDMDL
