MODEL 1
REMARK minimizedAffinity -2.94869876
REMARK minimizedRMSD -1
REMARK  1 active torsions:
REMARK  status: ('A' for Active; 'I' for Inactive)
REMARK    1  A    between atoms: C3_4  and  O_7 
ROOT
ATOM      1  C   UNL d   1       1.477  -2.475  -0.100  0.00  0.00    -0.033 A 
ATOM      2  C1  UNL d   1       1.920  -1.244   0.391  0.00  0.00     0.039 A 
ATOM      3  C2  UNL d   1       1.015  -0.361   0.983  0.00  0.00    -0.080 A 
ATOM      4  C3  UNL d   1      -0.326  -0.719   1.079  0.00  0.00     0.150 A 
ATOM      5  C4  UNL d   1      -0.773  -1.944   0.596  0.00  0.00    -0.007 A 
ATOM      6  C5  UNL d   1       0.131  -2.825   0.004  0.00  0.00     0.039 A 
ENDROOT
BRANCH   4   7
ATOM      7  O   UNL d   1      -1.247   0.113   1.644  0.00  0.00    -0.526 OA
ATOM      8  H5  UNL d   1      -0.800   0.934   1.907  0.00  0.00     0.418 HD
ENDBRANCH   4   7
TORSDOF 1
ENDMDL
