MODEL 1
REMARK minimizedAffinity -4.11067295
REMARK minimizedRMSD -1
REMARK  1 active torsions:
REMARK  status: ('A' for Active; 'I' for Inactive)
REMARK    1  A    between atoms: C3_4  and  O_7 
ROOT
ATOM      1  C   UNL d   1      -0.090  -0.476   1.021  0.00  0.00    -0.033 A 
ATOM      2  C1  UNL d   1      -0.678  -1.732   0.855  0.00  0.00     0.039 A 
ATOM      3  C2  UNL d   1       0.050  -2.775   0.279  0.00  0.00    -0.080 A 
ATOM      4  C3  UNL d   1       1.363  -2.549  -0.127  0.00  0.00     0.150 A 
ATOM      5  C4  UNL d   1       1.956  -1.302   0.039  0.00  0.00    -0.007 A 
ATOM      6  C5  UNL d   1       1.227  -0.262   0.614  0.00  0.00     0.039 A 
ENDROOT
BRANCH   4   7
ATOM      7  O   UNL d   1       2.111  -3.535  -0.699  0.00  0.00    -0.526 OA
ATOM      8  H5  UNL d   1       1.562  -4.333  -0.776  0.00  0.00     0.418 HD
ENDBRANCH   4   7
TORSDOF 1
ENDMDL
