MODEL 1
REMARK minimizedAffinity -0.472802222
REMARK minimizedRMSD -1
REMARK  1 active torsions:
REMARK  status: ('A' for Active; 'I' for Inactive)
REMARK    1  A    between atoms: C3_4  and  O_7 
ROOT
ATOM      1  C   UNL d   1       0.996  -0.029   0.617  0.00  0.00    -0.033 A 
ATOM      2  C1  UNL d   1       1.809  -0.806  -0.211  0.00  0.00     0.039 A 
ATOM      3  C2  UNL d   1       1.459  -2.128  -0.492  0.00  0.00    -0.080 A 
ATOM      4  C3  UNL d   1       0.297  -2.660   0.059  0.00  0.00     0.150 A 
ATOM      5  C4  UNL d   1      -0.519  -1.890   0.881  0.00  0.00    -0.007 A 
ATOM      6  C5  UNL d   1      -0.168  -0.570   1.162  0.00  0.00     0.039 A 
ENDROOT
BRANCH   4   7
ATOM      7  O   UNL d   1      -0.083  -3.947  -0.183  0.00  0.00    -0.526 OA
ATOM      8  H5  UNL d   1       0.591  -4.366  -0.744  0.00  0.00     0.418 HD
ENDBRANCH   4   7
TORSDOF 1
ENDMDL
