MODEL 1
REMARK minimizedAffinity -1.2527324
REMARK minimizedRMSD -1
REMARK  1 active torsions:
REMARK  status: ('A' for Active; 'I' for Inactive)
REMARK    1  A    between atoms: C3_4  and  O_7 
ROOT
ATOM      1  C   UNL d   1       0.440  -0.213   0.916  0.00  0.00    -0.033 A 
ATOM      2  C1  UNL d   1      -0.488  -1.235   1.124  0.00  0.00     0.039 A 
ATOM      3  C2  UNL d   1      -0.150  -2.558   0.833  0.00  0.00    -0.080 A 
ATOM      4  C3  UNL d   1       1.118  -2.845   0.335  0.00  0.00     0.150 A 
ATOM      5  C4  UNL d   1       2.049  -1.832   0.129  0.00  0.00    -0.007 A 
ATOM      6  C5  UNL d   1       1.709  -0.512   0.419  0.00  0.00     0.039 A 
ENDROOT
BRANCH   4   7
ATOM      7  O   UNL d   1       1.493  -4.120   0.032  0.00  0.00    -0.526 OA
ATOM      8  H5  UNL d   1       0.738  -4.710   0.198  0.00  0.00     0.418 HD
ENDBRANCH   4   7
TORSDOF 1
ENDMDL
