MODEL 1
REMARK minimizedAffinity -4.48073149
REMARK minimizedRMSD -1
REMARK  0 active torsions:
REMARK  status: ('A' for Active; 'I' for Inactive)
ROOT
ATOM      1  C1  BNZ d   1      -0.250  -2.859   0.319  0.00  0.00     0.000 A 
ATOM      2  C2  BNZ d   1      -0.152  -3.501  -0.886  0.00  0.00     0.000 A 
ATOM      3  C3  BNZ d   1       0.399  -2.876  -1.969  0.00  0.00     0.000 A 
ATOM      4  C4  BNZ d   1       0.814  -1.598  -1.856  0.00  0.00     0.000 A 
ATOM      5  C5  BNZ d   1       0.713  -0.934  -0.650  0.00  0.00     0.000 A 
ATOM      6  C6  BNZ d   1       0.194  -1.580   0.448  0.00  0.00     0.000 A 
ENDROOT
TORSDOF 0
ENDMDL
