MODEL 1
REMARK minimizedAffinity -4.64193249
REMARK minimizedRMSD -1
REMARK  0 active torsions:
REMARK  status: ('A' for Active; 'I' for Inactive)
ROOT
ATOM      1  C1  BNZ d   1      -0.133  -1.473  -1.646  0.00  0.00     0.000 A 
ATOM      2  C2  BNZ d   1       0.197  -2.785  -1.856  0.00  0.00     0.000 A 
ATOM      3  C3  BNZ d   1       0.310  -3.654  -0.807  0.00  0.00     0.000 A 
ATOM      4  C4  BNZ d   1       0.133  -3.202   0.451  0.00  0.00     0.000 A 
ATOM      5  C5  BNZ d   1      -0.191  -1.880   0.680  0.00  0.00     0.000 A 
ATOM      6  C6  BNZ d   1      -0.342  -1.016  -0.381  0.00  0.00     0.000 A 
ENDROOT
TORSDOF 0
ENDMDL
