MODEL 1
REMARK minimizedAffinity -5.07676172
REMARK minimizedRMSD -1
REMARK  0 active torsions:
REMARK  status: ('A' for Active; 'I' for Inactive)
ROOT
ATOM      1  C1  BNZ d   1       0.404  -1.137  -0.846  0.00  0.00     0.000 A 
ATOM      2  C2  BNZ d   1       0.056  -1.828   0.284  0.00  0.00     0.000 A 
ATOM      3  C3  BNZ d   1      -0.046  -3.191   0.267  0.00  0.00     0.000 A 
ATOM      4  C4  BNZ d   1       0.160  -3.858  -0.887  0.00  0.00     0.000 A 
ATOM      5  C5  BNZ d   1       0.503  -3.174  -2.037  0.00  0.00     0.000 A 
ATOM      6  C6  BNZ d   1       0.643  -1.806  -2.007  0.00  0.00     0.000 A 
ENDROOT
TORSDOF 0
ENDMDL
