MODEL 1
REMARK minimizedAffinity -3.77118802
REMARK minimizedRMSD -1
REMARK  0 active torsions:
REMARK  status: ('A' for Active; 'I' for Inactive)
ROOT
ATOM      1  C1  BNZ d   1       0.019  -3.034   0.496  0.00  0.00     0.000 A 
ATOM      2  C2  BNZ d   1       0.241  -4.104  -0.330  0.00  0.00     0.000 A 
ATOM      3  C3  BNZ d   1       0.504  -3.920  -1.658  0.00  0.00     0.000 A 
ATOM      4  C4  BNZ d   1       0.505  -2.671  -2.167  0.00  0.00     0.000 A 
ATOM      5  C5  BNZ d   1       0.274  -1.583  -1.349  0.00  0.00     0.000 A 
ATOM      6  C6  BNZ d   1       0.048  -1.769  -0.005  0.00  0.00     0.000 A 
ENDROOT
TORSDOF 0
ENDMDL
