MODEL 1
REMARK minimizedAffinity -4.22831535
REMARK minimizedRMSD -1
REMARK  0 active torsions:
REMARK  status: ('A' for Active; 'I' for Inactive)
ROOT
ATOM      1  C1  BNZ d   1       0.227  -4.031  -0.959  0.00  0.00     0.000 A 
ATOM      2  C2  BNZ d   1      -0.024  -3.771   0.362  0.00  0.00     0.000 A 
ATOM      3  C3  BNZ d   1      -0.166  -2.487   0.807  0.00  0.00     0.000 A 
ATOM      4  C4  BNZ d   1      -0.017  -1.464  -0.059  0.00  0.00     0.000 A 
ATOM      5  C5  BNZ d   1       0.245  -1.710  -1.392  0.00  0.00     0.000 A 
ATOM      6  C6  BNZ d   1       0.348  -3.005  -1.845  0.00  0.00     0.000 A 
ENDROOT
TORSDOF 0
ENDMDL
