MODEL 1
REMARK minimizedAffinity -3.73643517
REMARK minimizedRMSD -1
REMARK  0 active torsions:
REMARK  status: ('A' for Active; 'I' for Inactive)
ROOT
ATOM      1  C1  BNZ d   1       0.166  -2.224   0.020  0.00  0.00     0.000 A 
ATOM      2  C2  BNZ d   1       0.633  -0.942   0.134  0.00  0.00     0.000 A 
ATOM      3  C3  BNZ d   1      -0.169   0.055   0.615  0.00  0.00     0.000 A 
ATOM      4  C4  BNZ d   1      -1.448  -0.223   0.943  0.00  0.00     0.000 A 
ATOM      5  C5  BNZ d   1      -1.936  -1.508   0.825  0.00  0.00     0.000 A 
ATOM      6  C6  BNZ d   1      -1.114  -2.517   0.377  0.00  0.00     0.000 A 
ENDROOT
TORSDOF 0
ENDMDL
