MODEL 1
REMARK minimizedAffinity -4.05193567
REMARK minimizedRMSD -1
REMARK  0 active torsions:
REMARK  status: ('A' for Active; 'I' for Inactive)
ROOT
ATOM      1  C1  BNZ d   1      -0.035  -3.248   0.093  0.00  0.00     0.000 A 
ATOM      2  C2  BNZ d   1      -0.738  -2.663   1.112  0.00  0.00     0.000 A 
ATOM      3  C3  BNZ d   1      -0.893  -1.306   1.167  0.00  0.00     0.000 A 
ATOM      4  C4  BNZ d   1      -0.313  -0.534   0.227  0.00  0.00     0.000 A 
ATOM      5  C5  BNZ d   1       0.407  -1.107  -0.802  0.00  0.00     0.000 A 
ATOM      6  C6  BNZ d   1       0.528  -2.476  -0.876  0.00  0.00     0.000 A 
ENDROOT
TORSDOF 0
ENDMDL
