MODEL 1
REMARK minimizedAffinity -4.14278412
REMARK minimizedRMSD -1
REMARK  0 active torsions:
REMARK  status: ('A' for Active; 'I' for Inactive)
ROOT
ATOM      1  C1  BNZ d   1       0.358  -0.857  -1.299  0.00  0.00     0.000 A 
ATOM      2  C2  BNZ d   1       0.342  -1.657  -2.411  0.00  0.00     0.000 A 
ATOM      3  C3  BNZ d   1      -0.201  -2.910  -2.363  0.00  0.00     0.000 A 
ATOM      4  C4  BNZ d   1      -0.690  -3.377  -1.196  0.00  0.00     0.000 A 
ATOM      5  C5  BNZ d   1      -0.672  -2.587  -0.065  0.00  0.00     0.000 A 
ATOM      6  C6  BNZ d   1      -0.160  -1.311  -0.126  0.00  0.00     0.000 A 
ENDROOT
TORSDOF 0
ENDMDL
