MODEL 1
REMARK minimizedAffinity -3.32877374
REMARK minimizedRMSD -1
REMARK  0 active torsions:
REMARK  status: ('A' for Active; 'I' for Inactive)
ROOT
ATOM      1  C1  BNZ d   1      -0.496   0.734   0.847  0.00  0.00     0.000 A 
ATOM      2  C2  BNZ d   1      -0.884  -0.095   1.866  0.00  0.00     0.000 A 
ATOM      3  C3  BNZ d   1      -1.078  -1.430   1.647  0.00  0.00     0.000 A 
ATOM      4  C4  BNZ d   1      -0.925  -1.927   0.402  0.00  0.00     0.000 A 
ATOM      5  C5  BNZ d   1      -0.544  -1.102  -0.638  0.00  0.00     0.000 A 
ATOM      6  C6  BNZ d   1      -0.311   0.234  -0.405  0.00  0.00     0.000 A 
ENDROOT
TORSDOF 0
ENDMDL
