MODEL 1
REMARK minimizedAffinity -3.7873404
REMARK minimizedRMSD -1
REMARK  0 active torsions:
REMARK  status: ('A' for Active; 'I' for Inactive)
ROOT
ATOM      1  C1  BNZ d   1      -0.155  -2.716  -2.056  0.00  0.00     0.000 A 
ATOM      2  C2  BNZ d   1      -0.534  -3.434  -0.953  0.00  0.00     0.000 A 
ATOM      3  C3  BNZ d   1      -0.634  -2.836   0.272  0.00  0.00     0.000 A 
ATOM      4  C4  BNZ d   1      -0.316  -1.531   0.400  0.00  0.00     0.000 A 
ATOM      5  C5  BNZ d   1       0.077  -0.796  -0.700  0.00  0.00     0.000 A 
ATOM      6  C6  BNZ d   1       0.139  -1.392  -1.939  0.00  0.00     0.000 A 
ENDROOT
TORSDOF 0
ENDMDL
