MODEL 1
REMARK minimizedAffinity -4.25797987
REMARK minimizedRMSD -1
REMARK  0 active torsions:
REMARK  status: ('A' for Active; 'I' for Inactive)
ROOT
ATOM      1  C1  BNZ d   1      -0.198  -3.423  -0.037  0.00  0.00     0.000 A 
ATOM      2  C2  BNZ d   1      -0.424  -2.691   1.098  0.00  0.00     0.000 A 
ATOM      3  C3  BNZ d   1      -0.263  -1.333   1.098  0.00  0.00     0.000 A 
ATOM      4  C4  BNZ d   1       0.162  -0.716  -0.023  0.00  0.00     0.000 A 
ATOM      5  C5  BNZ d   1       0.404  -1.442  -1.172  0.00  0.00     0.000 A 
ATOM      6  C6  BNZ d   1       0.203  -2.803  -1.180  0.00  0.00     0.000 A 
ENDROOT
TORSDOF 0
ENDMDL
