MODEL 1
REMARK minimizedAffinity -4.91048002
REMARK minimizedRMSD -1
REMARK  0 active torsions:
REMARK  status: ('A' for Active; 'I' for Inactive)
ROOT
ATOM      1  C1  BNZ d   1      -0.145  -3.856  -0.158  0.00  0.00     0.000 A 
ATOM      2  C2  BNZ d   1      -0.190  -2.992   0.903  0.00  0.00     0.000 A 
ATOM      3  C3  BNZ d   1      -0.072  -1.644   0.714  0.00  0.00     0.000 A 
ATOM      4  C4  BNZ d   1       0.131  -1.165  -0.531  0.00  0.00     0.000 A 
ATOM      5  C5  BNZ d   1       0.188  -2.024  -1.610  0.00  0.00     0.000 A 
ATOM      6  C6  BNZ d   1       0.030  -3.377  -1.420  0.00  0.00     0.000 A 
ENDROOT
TORSDOF 0
ENDMDL
