MODEL 1
REMARK minimizedAffinity -2.84410667
REMARK minimizedRMSD -1
REMARK  0 active torsions:
REMARK  status: ('A' for Active; 'I' for Inactive)
ROOT
ATOM      1  C1  BNZ d   1       1.984   1.045  -0.261  0.00  0.00     0.000 A 
ATOM      2  C2  BNZ d   1       2.569   2.230   0.098  0.00  0.00     0.000 A 
ATOM      3  C3  BNZ d   1       1.809   3.338   0.347  0.00  0.00     0.000 A 
ATOM      4  C4  BNZ d   1       0.471   3.272   0.199  0.00  0.00     0.000 A 
ATOM      5  C5  BNZ d   1      -0.134   2.086  -0.170  0.00  0.00     0.000 A 
ATOM      6  C6  BNZ d   1       0.631   0.962  -0.383  0.00  0.00     0.000 A 
ENDROOT
TORSDOF 0
ENDMDL
