MODEL 1
REMARK minimizedAffinity -4.49717093
REMARK minimizedRMSD -1
REMARK  0 active torsions:
REMARK  status: ('A' for Active; 'I' for Inactive)
ROOT
ATOM      1  C1  BNZ d   1      -0.063  -2.779   0.213  0.00  0.00     0.000 A 
ATOM      2  C2  BNZ d   1      -0.777  -2.176   1.214  0.00  0.00     0.000 A 
ATOM      3  C3  BNZ d   1      -0.843  -0.814   1.303  0.00  0.00     0.000 A 
ATOM      4  C4  BNZ d   1      -0.164  -0.057   0.417  0.00  0.00     0.000 A 
ATOM      5  C5  BNZ d   1       0.568  -0.651  -0.592  0.00  0.00     0.000 A 
ATOM      6  C6  BNZ d   1       0.601  -2.022  -0.702  0.00  0.00     0.000 A 
ENDROOT
TORSDOF 0
ENDMDL
