MODEL 1
REMARK minimizedAffinity -4.50431061
REMARK minimizedRMSD -1
REMARK  0 active torsions:
REMARK  status: ('A' for Active; 'I' for Inactive)
ROOT
ATOM      1  C1  BNZ d   1      -0.539  -1.664   0.327  0.00  0.00     0.000 A 
ATOM      2  C2  BNZ d   1      -0.448  -2.320  -0.872  0.00  0.00     0.000 A 
ATOM      3  C3  BNZ d   1      -0.307  -1.626  -2.041  0.00  0.00     0.000 A 
ATOM      4  C4  BNZ d   1      -0.298  -0.278  -2.014  0.00  0.00     0.000 A 
ATOM      5  C5  BNZ d   1      -0.398   0.398  -0.815  0.00  0.00     0.000 A 
ATOM      6  C6  BNZ d   1      -0.501  -0.305   0.364  0.00  0.00     0.000 A 
ENDROOT
TORSDOF 0
ENDMDL
