MODEL 1
REMARK minimizedAffinity -4.11390114
REMARK minimizedRMSD -1
REMARK  0 active torsions:
REMARK  status: ('A' for Active; 'I' for Inactive)
ROOT
ATOM      1  C1  BNZ d   1      -1.096   0.037   1.493  0.00  0.00     0.000 A 
ATOM      2  C2  BNZ d   1      -0.878  -1.314   1.539  0.00  0.00     0.000 A 
ATOM      3  C3  BNZ d   1      -0.421  -1.987   0.441  0.00  0.00     0.000 A 
ATOM      4  C4  BNZ d   1      -0.221  -1.316  -0.712  0.00  0.00     0.000 A 
ATOM      5  C5  BNZ d   1      -0.446   0.045  -0.777  0.00  0.00     0.000 A 
ATOM      6  C6  BNZ d   1      -0.869   0.725   0.341  0.00  0.00     0.000 A 
ENDROOT
TORSDOF 0
ENDMDL
