MODEL 1
REMARK minimizedAffinity -2.73554015
REMARK minimizedRMSD -1
REMARK  0 active torsions:
REMARK  status: ('A' for Active; 'I' for Inactive)
ROOT
ATOM      1  C1  BNZ d   1      -0.455   0.021   0.030  0.00  0.00     0.000 A 
ATOM      2  C2  BNZ d   1       0.195  -0.138  -1.165  0.00  0.00     0.000 A 
ATOM      3  C3  BNZ d   1       0.463  -1.386  -1.655  0.00  0.00     0.000 A 
ATOM      4  C4  BNZ d   1       0.117  -2.471  -0.931  0.00  0.00     0.000 A 
ATOM      5  C5  BNZ d   1      -0.530  -2.326   0.280  0.00  0.00     0.000 A 
ATOM      6  C6  BNZ d   1      -0.833  -1.069   0.751  0.00  0.00     0.000 A 
ENDROOT
TORSDOF 0
ENDMDL
