MODEL 1
REMARK minimizedAffinity -4.48214245
REMARK minimizedRMSD -1
REMARK  0 active torsions:
REMARK  status: ('A' for Active; 'I' for Inactive)
ROOT
ATOM      1  C   UNL d   1      -1.031   0.167  -2.032  0.00  0.00     0.077 C 
ATOM      2  C1  UNL d   1      -0.249   0.163  -0.752  0.00  0.00    -0.074 A 
ATOM      3  C2  UNL d   1       0.880   0.974  -0.598  0.00  0.00    -0.005 A 
ATOM      4  C3  UNL d   1       1.592   0.967   0.602  0.00  0.00     0.006 A 
ATOM      5  C4  UNL d   1       1.184   0.150   1.657  0.00  0.00    -0.005 A 
ATOM      6  C5  UNL d   1       0.057  -0.667   1.521  0.00  0.00    -0.074 A 
ATOM      7  C6  UNL d   1      -0.402  -1.543   2.648  0.00  0.00     0.077 C 
ATOM      8  C7  UNL d   1      -0.658  -0.649   0.315  0.00  0.00    -0.001 A 
ENDROOT
TORSDOF 0
ENDMDL
