MODEL 1
REMARK minimizedAffinity 4.73258686
REMARK minimizedRMSD -1
REMARK  0 active torsions:
REMARK  status: ('A' for Active; 'I' for Inactive)
ROOT
ATOM      1  C   UNL d   1       6.000  -3.753  -0.776  0.00  0.00     0.077 C 
ATOM      2  C1  UNL d   1       4.754  -4.016   0.017  0.00  0.00    -0.074 A 
ATOM      3  C2  UNL d   1       4.780  -4.850   1.140  0.00  0.00    -0.005 A 
ATOM      4  C3  UNL d   1       3.616  -5.078   1.873  0.00  0.00     0.006 A 
ATOM      5  C4  UNL d   1       2.416  -4.476   1.492  0.00  0.00    -0.005 A 
ATOM      6  C5  UNL d   1       2.371  -3.638   0.374  0.00  0.00    -0.074 A 
ATOM      7  C6  UNL d   1       1.092  -2.975  -0.043  0.00  0.00     0.077 C 
ATOM      8  C7  UNL d   1       3.547  -3.408  -0.354  0.00  0.00    -0.001 A 
ENDROOT
TORSDOF 0
ENDMDL
