MODEL 1
REMARK minimizedAffinity 2.22533107
REMARK minimizedRMSD -1
REMARK  0 active torsions:
REMARK  status: ('A' for Active; 'I' for Inactive)
ROOT
ATOM      1  C   UNL d   1       0.324  -0.535  -3.149  0.00  0.00     0.077 C 
ATOM      2  C1  UNL d   1      -0.756   0.169  -2.382  0.00  0.00    -0.074 A 
ATOM      3  C2  UNL d   1      -0.993   1.535  -2.564  0.00  0.00    -0.005 A 
ATOM      4  C3  UNL d   1      -2.007   2.174  -1.850  0.00  0.00     0.006 A 
ATOM      5  C4  UNL d   1      -2.793   1.454  -0.950  0.00  0.00    -0.005 A 
ATOM      6  C5  UNL d   1      -2.572   0.087  -0.756  0.00  0.00    -0.074 A 
ATOM      7  C6  UNL d   1      -3.414  -0.703   0.201  0.00  0.00     0.077 C 
ATOM      8  C7  UNL d   1      -1.555  -0.549  -1.482  0.00  0.00    -0.001 A 
ENDROOT
TORSDOF 0
ENDMDL
