MODEL 1
REMARK minimizedAffinity -5.56691122
REMARK minimizedRMSD -1
REMARK  0 active torsions:
REMARK  status: ('A' for Active; 'I' for Inactive)
ROOT
ATOM      1  C   UNL d   1      -4.775  -0.302  -5.946  0.00  0.00     0.077 C 
ATOM      2  C1  UNL d   1      -3.756  -0.283  -4.846  0.00  0.00    -0.074 A 
ATOM      3  C2  UNL d   1      -2.902  -1.371  -4.639  0.00  0.00    -0.005 A 
ATOM      4  C3  UNL d   1      -1.953  -1.336  -3.618  0.00  0.00     0.006 A 
ATOM      5  C4  UNL d   1      -1.847  -0.214  -2.795  0.00  0.00    -0.005 A 
ATOM      6  C5  UNL d   1      -2.692   0.884  -2.988  0.00  0.00    -0.074 A 
ATOM      7  C6  UNL d   1      -2.585   2.101  -2.119  0.00  0.00     0.077 C 
ATOM      8  C7  UNL d   1      -3.639   0.843  -4.020  0.00  0.00    -0.001 A 
ENDROOT
TORSDOF 0
ENDMDL
