MODEL 1
REMARK minimizedAffinity -0.247173354
REMARK minimizedRMSD -1
REMARK  0 active torsions:
REMARK  status: ('A' for Active; 'I' for Inactive)
ROOT
ATOM      1  C   UNL d   1       5.336  -6.000   5.753  0.00  0.00     0.077 C 
ATOM      2  C1  UNL d   1       4.858  -4.724   5.126  0.00  0.00    -0.074 A 
ATOM      3  C2  UNL d   1       5.056  -3.493   5.761  0.00  0.00    -0.005 A 
ATOM      4  C3  UNL d   1       4.615  -2.314   5.161  0.00  0.00     0.006 A 
ATOM      5  C4  UNL d   1       3.973  -2.353   3.923  0.00  0.00    -0.005 A 
ATOM      6  C5  UNL d   1       3.767  -3.573   3.273  0.00  0.00    -0.074 A 
ATOM      7  C6  UNL d   1       3.087  -3.632   1.937  0.00  0.00     0.077 C 
ATOM      8  C7  UNL d   1       4.219  -4.754   3.879  0.00  0.00    -0.001 A 
ENDROOT
TORSDOF 0
ENDMDL
