MODEL 1
REMARK minimizedAffinity -1.4534198
REMARK minimizedRMSD -1
REMARK  0 active torsions:
REMARK  status: ('A' for Active; 'I' for Inactive)
ROOT
ATOM      1  C   UNL d   1       3.212  -3.776   0.494  0.00  0.00     0.077 C 
ATOM      2  C1  UNL d   1       2.925  -2.366   0.075  0.00  0.00    -0.074 A 
ATOM      3  C2  UNL d   1       1.979  -1.592   0.754  0.00  0.00    -0.005 A 
ATOM      4  C3  UNL d   1       1.729  -0.278   0.358  0.00  0.00     0.006 A 
ATOM      5  C4  UNL d   1       2.422   0.275  -0.720  0.00  0.00    -0.005 A 
ATOM      6  C5  UNL d   1       3.372  -0.484  -1.411  0.00  0.00    -0.074 A 
ATOM      7  C6  UNL d   1       4.133   0.098  -2.565  0.00  0.00     0.077 C 
ATOM      8  C7  UNL d   1       3.622  -1.801  -1.002  0.00  0.00    -0.001 A 
ENDROOT
TORSDOF 0
ENDMDL
