MODEL 1
REMARK minimizedAffinity 4.39695024
REMARK minimizedRMSD -1
REMARK  0 active torsions:
REMARK  status: ('A' for Active; 'I' for Inactive)
ROOT
ATOM      1  C   UNL d   1      -1.692  -1.853  -4.129  0.00  0.00     0.077 C 
ATOM      2  C1  UNL d   1      -3.013  -1.144  -4.168  0.00  0.00    -0.074 A 
ATOM      3  C2  UNL d   1      -4.073  -1.553  -3.354  0.00  0.00    -0.005 A 
ATOM      4  C3  UNL d   1      -5.293  -0.877  -3.394  0.00  0.00     0.006 A 
ATOM      5  C4  UNL d   1      -5.464   0.213  -4.248  0.00  0.00    -0.005 A 
ATOM      6  C5  UNL d   1      -4.415   0.637  -5.069  0.00  0.00    -0.074 A 
ATOM      7  C6  UNL d   1      -4.579   1.814  -5.985  0.00  0.00     0.077 C 
ATOM      8  C7  UNL d   1      -3.190  -0.042  -5.018  0.00  0.00    -0.001 A 
ENDROOT
TORSDOF 0
ENDMDL
