MODEL 1
REMARK minimizedAffinity -1.05279469
REMARK minimizedRMSD -1
REMARK  0 active torsions:
REMARK  status: ('A' for Active; 'I' for Inactive)
ROOT
ATOM      1  C   UNL d   1       5.649   5.991   5.795  0.00  0.00     0.077 C 
ATOM      2  C1  UNL d   1       4.347   5.998   5.050  0.00  0.00    -0.074 A 
ATOM      3  C2  UNL d   1       4.320   5.999   3.651  0.00  0.00    -0.005 A 
ATOM      4  C3  UNL d   1       3.101   5.995   2.972  0.00  0.00     0.006 A 
ATOM      5  C4  UNL d   1       1.901   5.990   3.683  0.00  0.00    -0.005 A 
ATOM      6  C5  UNL d   1       1.909   5.988   5.081  0.00  0.00    -0.074 A 
ATOM      7  C6  UNL d   1       0.627   5.973   5.861  0.00  0.00     0.077 C 
ATOM      8  C7  UNL d   1       3.137   5.985   5.757  0.00  0.00    -0.001 A 
ENDROOT
TORSDOF 0
ENDMDL
