MODEL 1
REMARK minimizedAffinity 7.46974993
REMARK minimizedRMSD -1
REMARK  1 active torsions:
REMARK  status: ('A' for Active; 'I' for Inactive)
REMARK    1  A    between atoms: C1_2  and  C2_3 
ROOT
ATOM      1  C2  UNL d   1      -1.198  -2.452   1.217  0.00  0.00    -0.076 A 
ATOM      2  C3  UNL d   1      -0.686  -2.132   2.486  0.00  0.00     0.004 A 
ATOM      3  C4  UNL d   1       0.009  -0.944   2.701  0.00  0.00    -0.003 A 
ATOM      4  C5  UNL d   1       0.204  -0.055   1.650  0.00  0.00     0.000 A 
ATOM      5  C6  UNL d   1      -0.312  -0.347   0.388  0.00  0.00     0.000 A 
ATOM      6  C7  UNL d   1      -1.029  -1.534   0.158  0.00  0.00    -0.073 A 
ATOM      7  C8  UNL d   1      -1.558  -1.802  -1.224  0.00  0.00     0.078 C 
ENDROOT
BRANCH   1   8
ATOM      8  C1  UNL d   1      -1.920  -3.768   1.037  0.00  0.00     0.053 C 
ATOM      9  C   UNL d   1      -1.193  -4.927   1.702  0.00  0.00     0.018 C 
ENDBRANCH   1   8
TORSDOF 1
ENDMDL
