MODEL 1
REMARK minimizedAffinity 11.1372643
REMARK minimizedRMSD -1
REMARK  1 active torsions:
REMARK  status: ('A' for Active; 'I' for Inactive)
REMARK    1  A    between atoms: C1_2  and  C2_3 
ROOT
ATOM      1  C2  UNL d   1       3.296   0.750   0.627  0.00  0.00    -0.076 A 
ATOM      2  C3  UNL d   1       3.640  -0.191   1.613  0.00  0.00     0.004 A 
ATOM      3  C4  UNL d   1       4.820  -0.927   1.522  0.00  0.00    -0.003 A 
ATOM      4  C5  UNL d   1       5.676  -0.733   0.444  0.00  0.00     0.000 A 
ATOM      5  C6  UNL d   1       5.359   0.209  -0.535  0.00  0.00     0.000 A 
ATOM      6  C7  UNL d   1       4.181   0.970  -0.449  0.00  0.00    -0.073 A 
ATOM      7  C8  UNL d   1       3.886   1.968  -1.536  0.00  0.00     0.078 C 
ENDROOT
BRANCH   1   8
ATOM      8  C1  UNL d   1       1.990   1.499   0.765  0.00  0.00     0.053 C 
ATOM      9  C   UNL d   1       1.119   0.950   1.885  0.00  0.00     0.018 C 
ENDBRANCH   1   8
TORSDOF 1
ENDMDL
