MODEL 1
REMARK minimizedAffinity 7.00187969
REMARK minimizedRMSD -1
REMARK  1 active torsions:
REMARK  status: ('A' for Active; 'I' for Inactive)
REMARK    1  A    between atoms: C1_2  and  C2_3 
ROOT
ATOM      1  C2  UNL d   1       4.632  -0.890   2.016  0.00  0.00    -0.076 A 
ATOM      2  C3  UNL d   1       5.827  -1.273   1.382  0.00  0.00     0.004 A 
ATOM      3  C4  UNL d   1       5.996  -1.106   0.009  0.00  0.00    -0.003 A 
ATOM      4  C5  UNL d   1       4.974  -0.551  -0.753  0.00  0.00     0.000 A 
ATOM      5  C6  UNL d   1       3.789  -0.148  -0.138  0.00  0.00     0.000 A 
ATOM      6  C7  UNL d   1       3.608  -0.295   1.248  0.00  0.00    -0.073 A 
ATOM      7  C8  UNL d   1       2.307   0.151   1.857  0.00  0.00     0.078 C 
ENDROOT
BRANCH   1   8
ATOM      8  C1  UNL d   1       4.495  -1.121   3.504  0.00  0.00     0.053 C 
ATOM      9  C   UNL d   1       5.841  -1.221   4.204  0.00  0.00     0.018 C 
ENDBRANCH   1   8
TORSDOF 1
ENDMDL
