MODEL 1
REMARK minimizedAffinity 10.4430723
REMARK minimizedRMSD -1
REMARK  1 active torsions:
REMARK  status: ('A' for Active; 'I' for Inactive)
REMARK    1  A    between atoms: C1_2  and  C2_3 
ROOT
ATOM      1  C2  UNL d   1      -4.832   3.444   3.068  0.00  0.00    -0.076 A 
ATOM      2  C3  UNL d   1      -5.347   3.980   1.875  0.00  0.00     0.004 A 
ATOM      3  C4  UNL d   1      -5.926   5.247   1.849  0.00  0.00    -0.003 A 
ATOM      4  C5  UNL d   1      -5.999   6.000   3.016  0.00  0.00     0.000 A 
ATOM      5  C6  UNL d   1      -5.477   5.491   4.205  0.00  0.00     0.000 A 
ATOM      6  C7  UNL d   1      -4.876   4.222   4.245  0.00  0.00    -0.073 A 
ATOM      7  C8  UNL d   1      -4.335   3.720   5.556  0.00  0.00     0.078 C 
ENDROOT
BRANCH   1   8
ATOM      8  C1  UNL d   1      -4.240   2.053   3.041  0.00  0.00     0.053 C 
ATOM      9  C   UNL d   1      -5.257   0.980   3.398  0.00  0.00     0.018 C 
ENDBRANCH   1   8
TORSDOF 1
ENDMDL
