MODEL 1
REMARK minimizedAffinity 11.0606174
REMARK minimizedRMSD -1
REMARK  1 active torsions:
REMARK  status: ('A' for Active; 'I' for Inactive)
REMARK    1  A    between atoms: C1_2  and  C2_3 
ROOT
ATOM      1  C2  UNL d   1       3.246   1.690   0.247  0.00  0.00    -0.076 A 
ATOM      2  C3  UNL d   1       2.022   2.355   0.433  0.00  0.00     0.004 A 
ATOM      3  C4  UNL d   1       1.061   1.857   1.312  0.00  0.00    -0.003 A 
ATOM      4  C5  UNL d   1       1.310   0.687   2.020  0.00  0.00     0.000 A 
ATOM      5  C6  UNL d   1       2.526   0.023   1.861  0.00  0.00     0.000 A 
ATOM      6  C7  UNL d   1       3.512   0.520   0.991  0.00  0.00    -0.073 A 
ATOM      7  C8  UNL d   1       4.803  -0.239   0.854  0.00  0.00     0.078 C 
ENDROOT
BRANCH   1   8
ATOM      8  C1  UNL d   1       4.239   2.262  -0.739  0.00  0.00     0.053 C 
ATOM      9  C   UNL d   1       3.577   2.735  -2.024  0.00  0.00     0.018 C 
ENDBRANCH   1   8
TORSDOF 1
ENDMDL
