MODEL 1
REMARK minimizedAffinity 4.58780909
REMARK minimizedRMSD -1
REMARK  1 active torsions:
REMARK  status: ('A' for Active; 'I' for Inactive)
REMARK    1  A    between atoms: C1_2  and  C2_3 
ROOT
ATOM      1  C2  UNL d   1      -5.686   2.190   4.743  0.00  0.00    -0.076 A 
ATOM      2  C3  UNL d   1      -5.447   2.863   3.532  0.00  0.00     0.004 A 
ATOM      3  C4  UNL d   1      -5.228   2.157   2.350  0.00  0.00    -0.003 A 
ATOM      4  C5  UNL d   1      -5.245   0.767   2.360  0.00  0.00     0.000 A 
ATOM      5  C6  UNL d   1      -5.498   0.083   3.548  0.00  0.00     0.000 A 
ATOM      6  C7  UNL d   1      -5.737   0.780   4.746  0.00  0.00    -0.073 A 
ATOM      7  C8  UNL d   1      -5.999  -0.009   6.000  0.00  0.00     0.078 C 
ENDROOT
BRANCH   1   8
ATOM      8  C1  UNL d   1      -5.890   3.008   5.998  0.00  0.00     0.053 C 
ATOM      9  C   UNL d   1      -5.071   4.290   5.997  0.00  0.00     0.018 C 
ENDBRANCH   1   8
TORSDOF 1
ENDMDL
