MODEL 1
REMARK minimizedAffinity 12.4507446
REMARK minimizedRMSD -1
REMARK  1 active torsions:
REMARK  status: ('A' for Active; 'I' for Inactive)
REMARK    1  A    between atoms: C1_2  and  C2_3 
ROOT
ATOM      1  C2  UNL d   1       1.671   0.157   2.366  0.00  0.00    -0.076 A 
ATOM      2  C3  UNL d   1       1.265  -0.608   3.474  0.00  0.00     0.004 A 
ATOM      3  C4  UNL d   1       0.414  -0.074   4.440  0.00  0.00    -0.003 A 
ATOM      4  C5  UNL d   1      -0.047   1.231   4.313  0.00  0.00     0.000 A 
ATOM      5  C6  UNL d   1       0.331   1.998   3.212  0.00  0.00     0.000 A 
ATOM      6  C7  UNL d   1       1.176   1.470   2.220  0.00  0.00    -0.073 A 
ATOM      7  C8  UNL d   1       1.557   2.344   1.056  0.00  0.00     0.078 C 
ENDROOT
BRANCH   1   8
ATOM      8  C1  UNL d   1       2.618  -0.466   1.365  0.00  0.00     0.053 C 
ATOM      9  C   UNL d   1       4.011  -0.682   1.936  0.00  0.00     0.018 C 
ENDBRANCH   1   8
TORSDOF 1
ENDMDL
