MODEL 1
REMARK minimizedAffinity 16.634573
REMARK minimizedRMSD -1
REMARK  1 active torsions:
REMARK  status: ('A' for Active; 'I' for Inactive)
REMARK    1  A    between atoms: C1_2  and  C2_3 
ROOT
ATOM      1  C2  UNL d   1      -3.564  -3.893  -2.593  0.00  0.00    -0.076 A 
ATOM      2  C3  UNL d   1      -3.081  -4.935  -1.783  0.00  0.00     0.004 A 
ATOM      3  C4  UNL d   1      -3.914  -5.980  -1.386  0.00  0.00    -0.003 A 
ATOM      4  C5  UNL d   1      -5.243  -6.000  -1.794  0.00  0.00     0.000 A 
ATOM      5  C6  UNL d   1      -5.734  -4.984  -2.613  0.00  0.00     0.000 A 
ATOM      6  C7  UNL d   1      -4.903  -3.932  -3.035  0.00  0.00    -0.073 A 
ATOM      7  C8  UNL d   1      -5.487  -2.859  -3.913  0.00  0.00     0.078 C 
ENDROOT
BRANCH   1   8
ATOM      8  C1  UNL d   1      -2.621  -2.772  -2.970  0.00  0.00     0.053 C 
ATOM      9  C   UNL d   1      -1.893  -2.194  -1.766  0.00  0.00     0.018 C 
ENDBRANCH   1   8
TORSDOF 1
ENDMDL
