MODEL 1
REMARK minimizedAffinity 18.608326
REMARK minimizedRMSD -1
REMARK  1 active torsions:
REMARK  status: ('A' for Active; 'I' for Inactive)
REMARK    1  A    between atoms: C1_2  and  C2_3 
ROOT
ATOM      1  C2  UNL d   1      -3.294  -3.852  -2.987  0.00  0.00    -0.076 A 
ATOM      2  C3  UNL d   1      -2.293  -3.167  -3.698  0.00  0.00     0.004 A 
ATOM      3  C4  UNL d   1      -1.088  -3.790  -4.019  0.00  0.00    -0.003 A 
ATOM      4  C5  UNL d   1      -0.864  -5.107  -3.634  0.00  0.00     0.000 A 
ATOM      5  C6  UNL d   1      -1.853  -5.807  -2.943  0.00  0.00     0.000 A 
ATOM      6  C7  UNL d   1      -3.080  -5.199  -2.626  0.00  0.00    -0.073 A 
ATOM      7  C8  UNL d   1      -4.109  -5.999  -1.875  0.00  0.00     0.078 C 
ENDROOT
BRANCH   1   8
ATOM      8  C1  UNL d   1      -4.570  -3.116  -2.644  0.00  0.00     0.053 C 
ATOM      9  C   UNL d   1      -5.685  -3.386  -3.643  0.00  0.00     0.018 C 
ENDBRANCH   1   8
TORSDOF 1
ENDMDL
