MODEL 1
REMARK minimizedAffinity 14.5837269
REMARK minimizedRMSD -1
REMARK  1 active torsions:
REMARK  status: ('A' for Active; 'I' for Inactive)
REMARK    1  A    between atoms: C1_2  and  C2_3 
ROOT
ATOM      1  C2  UNL d   1      -3.033  -4.839   1.092  0.00  0.00    -0.076 A 
ATOM      2  C3  UNL d   1      -3.135  -3.725   0.239  0.00  0.00     0.004 A 
ATOM      3  C4  UNL d   1      -2.305  -2.618   0.404  0.00  0.00    -0.003 A 
ATOM      4  C5  UNL d   1      -1.359  -2.606   1.423  0.00  0.00     0.000 A 
ATOM      5  C6  UNL d   1      -1.232  -3.709   2.266  0.00  0.00     0.000 A 
ATOM      6  C7  UNL d   1      -2.050  -4.841   2.104  0.00  0.00    -0.073 A 
ATOM      7  C8  UNL d   1      -1.874  -6.000   3.046  0.00  0.00     0.078 C 
ENDROOT
BRANCH   1   8
ATOM      8  C1  UNL d   1      -3.979  -6.000   0.882  0.00  0.00     0.053 C 
ATOM      9  C   UNL d   1      -5.135  -5.995   1.871  0.00  0.00     0.018 C 
ENDBRANCH   1   8
TORSDOF 1
ENDMDL
