MODEL 1
REMARK minimizedAffinity 13.5473881
REMARK minimizedRMSD -1
REMARK  1 active torsions:
REMARK  status: ('A' for Active; 'I' for Inactive)
REMARK    1  A    between atoms: C1_2  and  C2_3 
ROOT
ATOM      1  C2  UNL d   1       4.348   4.127   2.606  0.00  0.00    -0.076 A 
ATOM      2  C3  UNL d   1       5.441   3.578   3.297  0.00  0.00     0.004 A 
ATOM      3  C4  UNL d   1       5.999   4.232   4.395  0.00  0.00    -0.003 A 
ATOM      4  C5  UNL d   1       5.471   5.446   4.819  0.00  0.00     0.000 A 
ATOM      5  C6  UNL d   1       4.375   5.997   4.156  0.00  0.00     0.000 A 
ATOM      6  C7  UNL d   1       3.791   5.343   3.058  0.00  0.00    -0.073 A 
ATOM      7  C8  UNL d   1       2.614   5.986   2.376  0.00  0.00     0.078 C 
ENDROOT
BRANCH   1   8
ATOM      8  C1  UNL d   1       3.803   3.386   1.406  0.00  0.00     0.053 C 
ATOM      9  C   UNL d   1       2.754   2.352   1.787  0.00  0.00     0.018 C 
ENDBRANCH   1   8
TORSDOF 1
ENDMDL
