MODEL 1
REMARK minimizedAffinity 16.8229942
REMARK minimizedRMSD -1
REMARK  1 active torsions:
REMARK  status: ('A' for Active; 'I' for Inactive)
REMARK    1  A    between atoms: C1_2  and  C2_3 
ROOT
ATOM      1  C2  UNL d   1      -4.498   2.584   4.960  0.00  0.00    -0.076 A 
ATOM      2  C3  UNL d   1      -3.594   3.007   3.970  0.00  0.00     0.004 A 
ATOM      3  C4  UNL d   1      -3.123   2.121   3.003  0.00  0.00    -0.003 A 
ATOM      4  C5  UNL d   1      -3.550   0.797   3.009  0.00  0.00     0.000 A 
ATOM      5  C6  UNL d   1      -4.460   0.365   3.972  0.00  0.00     0.000 A 
ATOM      6  C7  UNL d   1      -4.957   1.249   4.945  0.00  0.00    -0.073 A 
ATOM      7  C8  UNL d   1      -5.933   0.728   5.964  0.00  0.00     0.078 C 
ENDROOT
BRANCH   1   8
ATOM      8  C1  UNL d   1      -4.953   3.583   6.000  0.00  0.00     0.053 C 
ATOM      9  C   UNL d   1      -5.299   4.935   5.396  0.00  0.00     0.018 C 
ENDBRANCH   1   8
TORSDOF 1
ENDMDL
