MODEL 1
REMARK minimizedAffinity 16.1579227
REMARK minimizedRMSD -1
REMARK  1 active torsions:
REMARK  status: ('A' for Active; 'I' for Inactive)
REMARK    1  A    between atoms: C1_2  and  C2_3 
ROOT
ATOM      1  C2  UNL d   1      -4.497  -3.789  -3.006  0.00  0.00    -0.076 A 
ATOM      2  C3  UNL d   1      -3.292  -3.067  -2.982  0.00  0.00     0.004 A 
ATOM      3  C4  UNL d   1      -2.097  -3.677  -2.603  0.00  0.00    -0.003 A 
ATOM      4  C5  UNL d   1      -2.089  -5.020  -2.242  0.00  0.00     0.000 A 
ATOM      5  C6  UNL d   1      -3.273  -5.756  -2.277  0.00  0.00     0.000 A 
ATOM      6  C7  UNL d   1      -4.483  -5.160  -2.672  0.00  0.00    -0.073 A 
ATOM      7  C8  UNL d   1      -5.731  -6.000  -2.686  0.00  0.00     0.078 C 
ENDROOT
BRANCH   1   8
ATOM      8  C1  UNL d   1      -5.766  -3.067  -3.400  0.00  0.00     0.053 C 
ATOM      9  C   UNL d   1      -5.927  -2.950  -4.907  0.00  0.00     0.018 C 
ENDBRANCH   1   8
TORSDOF 1
ENDMDL
