MODEL 1
REMARK minimizedAffinity 15.5018225
REMARK minimizedRMSD -1
REMARK  1 active torsions:
REMARK  status: ('A' for Active; 'I' for Inactive)
REMARK    1  A    between atoms: C1_2  and  C2_3 
ROOT
ATOM      1  C2  UNL d   1       5.211   4.943   4.586  0.00  0.00    -0.076 A 
ATOM      2  C3  UNL d   1       5.787   4.688   3.330  0.00  0.00     0.004 A 
ATOM      3  C4  UNL d   1       5.132   5.049   2.153  0.00  0.00    -0.003 A 
ATOM      4  C5  UNL d   1       3.891   5.673   2.215  0.00  0.00     0.000 A 
ATOM      5  C6  UNL d   1       3.313   5.950   3.453  0.00  0.00     0.000 A 
ATOM      6  C7  UNL d   1       3.967   5.607   4.649  0.00  0.00    -0.073 A 
ATOM      7  C8  UNL d   1       3.295   5.924   5.957  0.00  0.00     0.078 C 
ENDROOT
BRANCH   1   8
ATOM      8  C1  UNL d   1       5.956   4.504   5.827  0.00  0.00     0.053 C 
ATOM      9  C   UNL d   1       5.988   2.991   5.982  0.00  0.00     0.018 C 
ENDBRANCH   1   8
TORSDOF 1
ENDMDL
