MODEL 1
REMARK minimizedAffinity 2.72958326
REMARK minimizedRMSD -1
REMARK  2 active torsions:
REMARK  status: ('A' for Active; 'I' for Inactive)
REMARK    1  A    between atoms: C1_2  and  C2_3 
REMARK    2  A    between atoms: C2_3  and  C3_4 
ROOT
ATOM      1  C3  UNL d   1       2.452  -0.371  -0.112  0.00  0.00    -0.075 A 
ATOM      2  C4  UNL d   1       3.321  -1.467  -0.218  0.00  0.00     0.002 A 
ATOM      3  C5  UNL d   1       2.817  -2.756  -0.396  0.00  0.00     0.002 A 
ATOM      4  C6  UNL d   1       1.441  -2.967  -0.459  0.00  0.00    -0.004 A 
ATOM      5  C7  UNL d   1       0.568  -1.888  -0.337  0.00  0.00     0.002 A 
ATOM      6  C8  UNL d   1       1.070  -0.596  -0.164  0.00  0.00     0.002 A 
ENDROOT
BRANCH   1   7
ATOM      7  C2  UNL d   1       2.992   1.029   0.051  0.00  0.00     0.056 C 
BRANCH   7   8
ATOM      8  C1  UNL d   1       4.510   1.138  -0.130  0.00  0.00     0.007 C 
ATOM      9  C   UNL d   1       4.916   1.595  -1.525  0.00  0.00     0.009 C 
ENDBRANCH   7   8
ENDBRANCH   1   7
TORSDOF 2
ENDMDL
