MODEL 1
REMARK minimizedAffinity -0.062497206
REMARK minimizedRMSD -1
REMARK  2 active torsions:
REMARK  status: ('A' for Active; 'I' for Inactive)
REMARK    1  A    between atoms: C1_2  and  C2_3 
REMARK    2  A    between atoms: C2_3  and  C3_4 
ROOT
ATOM      1  C3  UNL d   1      -3.737   5.882   3.222  0.00  0.00    -0.075 A 
ATOM      2  C4  UNL d   1      -5.126   5.864   3.029  0.00  0.00     0.002 A 
ATOM      3  C5  UNL d   1      -5.993   5.927   4.121  0.00  0.00     0.002 A 
ATOM      4  C6  UNL d   1      -5.484   5.998   5.415  0.00  0.00    -0.004 A 
ATOM      5  C7  UNL d   1      -4.105   6.000   5.619  0.00  0.00     0.002 A 
ATOM      6  C8  UNL d   1      -3.236   5.942   4.529  0.00  0.00     0.002 A 
ENDROOT
BRANCH   1   7
ATOM      7  C2  UNL d   1      -2.793   5.845   2.043  0.00  0.00     0.056 C 
BRANCH   7   8
ATOM      8  C1  UNL d   1      -3.368   5.146   0.806  0.00  0.00     0.007 C 
ATOM      9  C   UNL d   1      -4.377   6.000   0.049  0.00  0.00     0.009 C 
ENDBRANCH   7   8
ENDBRANCH   1   7
TORSDOF 2
ENDMDL
