MODEL 1
REMARK minimizedAffinity -1.56868196
REMARK minimizedRMSD -1
REMARK  2 active torsions:
REMARK  status: ('A' for Active; 'I' for Inactive)
REMARK    1  A    between atoms: C1_2  and  C2_3 
REMARK    2  A    between atoms: C2_3  and  C3_4 
ROOT
ATOM      1  C3  UNL d   1      -4.112   0.674  -0.076  0.00  0.00    -0.075 A 
ATOM      2  C4  UNL d   1      -5.010   1.266   0.824  0.00  0.00     0.002 A 
ATOM      3  C5  UNL d   1      -5.940   0.486   1.512  0.00  0.00     0.002 A 
ATOM      4  C6  UNL d   1      -5.991  -0.890   1.302  0.00  0.00    -0.004 A 
ATOM      5  C7  UNL d   1      -5.115  -1.486   0.398  0.00  0.00     0.002 A 
ATOM      6  C8  UNL d   1      -4.180  -0.709  -0.289  0.00  0.00     0.002 A 
ENDROOT
BRANCH   1   7
ATOM      7  C2  UNL d   1      -3.083   1.508  -0.801  0.00  0.00     0.056 C 
BRANCH   7   8
ATOM      8  C1  UNL d   1      -1.778   0.764  -1.104  0.00  0.00     0.007 C 
ATOM      9  C   UNL d   1      -0.799   1.583  -1.934  0.00  0.00     0.009 C 
ENDBRANCH   7   8
ENDBRANCH   1   7
TORSDOF 2
ENDMDL
