MODEL 1
REMARK minimizedAffinity -5.28648853
REMARK minimizedRMSD -1
REMARK  2 active torsions:
REMARK  status: ('A' for Active; 'I' for Inactive)
REMARK    1  A    between atoms: C1_2  and  C2_3 
REMARK    2  A    between atoms: C2_3  and  C3_4 
ROOT
ATOM      1  C3  UNL d   1       0.771  -0.807  -1.293  0.00  0.00    -0.075 A 
ATOM      2  C4  UNL d   1       1.365  -2.068  -1.139  0.00  0.00     0.002 A 
ATOM      3  C5  UNL d   1       2.750  -2.188  -1.019  0.00  0.00     0.002 A 
ATOM      4  C6  UNL d   1       3.557  -1.054  -1.061  0.00  0.00    -0.004 A 
ATOM      5  C7  UNL d   1       2.979   0.203  -1.229  0.00  0.00     0.002 A 
ATOM      6  C8  UNL d   1       1.593   0.326  -1.346  0.00  0.00     0.002 A 
ENDROOT
BRANCH   1   7
ATOM      7  C2  UNL d   1      -0.730  -0.667  -1.394  0.00  0.00     0.056 C 
BRANCH   7   8
ATOM      8  C1  UNL d   1      -1.189   0.535  -2.226  0.00  0.00     0.007 C 
ATOM      9  C   UNL d   1      -2.679   0.822  -2.094  0.00  0.00     0.009 C 
ENDBRANCH   7   8
ENDBRANCH   1   7
TORSDOF 2
ENDMDL
