MODEL 1
REMARK minimizedAffinity -1.33087683
REMARK minimizedRMSD -1
REMARK  0 active torsions:
REMARK  status: ('A' for Active; 'I' for Inactive)
ROOT
ATOM      1  C4' PXY d   1       0.676  -5.956  -5.979  0.00  0.00     0.077 C 
ATOM      2  C1' PXY d   1      -3.400  -6.000  -1.880  0.00  0.00     0.077 C 
ATOM      3  C1  PXY d   1      -2.323  -5.983  -2.946  0.00  0.00    -0.082 A 
ATOM      4  C2  PXY d   1      -2.667  -5.981  -4.224  0.00  0.00     0.003 A 
ATOM      5  C3  PXY d   1      -1.706  -5.999  -5.201  0.00  0.00     0.003 A 
ATOM      6  C4  PXY d   1      -0.378  -5.964  -4.868  0.00  0.00    -0.082 A 
ATOM      7  C5  PXY d   1      -0.019  -5.955  -3.567  0.00  0.00     0.003 A 
ATOM      8  C6  PXY d   1      -1.009  -5.979  -2.589  0.00  0.00     0.003 A 
ENDROOT
TORSDOF 0
ENDMDL
