MODEL 1
REMARK minimizedAffinity 0.126427516
REMARK minimizedRMSD -1
REMARK  0 active torsions:
REMARK  status: ('A' for Active; 'I' for Inactive)
ROOT
ATOM      1  C4' PXY d   1       1.522  -5.960  -5.991  0.00  0.00     0.077 C 
ATOM      2  C1' PXY d   1      -2.573  -6.000  -1.911  0.00  0.00     0.077 C 
ATOM      3  C1  PXY d   1      -1.507  -5.995  -2.990  0.00  0.00    -0.082 A 
ATOM      4  C2  PXY d   1      -0.230  -5.987  -2.647  0.00  0.00     0.003 A 
ATOM      5  C3  PXY d   1       0.747  -5.950  -3.609  0.00  0.00     0.003 A 
ATOM      6  C4  PXY d   1       0.412  -5.975  -4.936  0.00  0.00    -0.082 A 
ATOM      7  C5  PXY d   1      -0.889  -5.993  -5.295  0.00  0.00     0.003 A 
ATOM      8  C6  PXY d   1      -1.865  -5.989  -4.303  0.00  0.00     0.003 A 
ENDROOT
TORSDOF 0
ENDMDL
