MODEL 1
REMARK minimizedAffinity -2.07162118
REMARK minimizedRMSD -1
REMARK  0 active torsions:
REMARK  status: ('A' for Active; 'I' for Inactive)
ROOT
ATOM      1  C4' PXY d   1       1.858  -5.972  -5.950  0.00  0.00     0.077 C 
ATOM      2  C1' PXY d   1      -3.161  -5.998  -3.083  0.00  0.00     0.077 C 
ATOM      3  C1  PXY d   1      -1.851  -5.997  -3.845  0.00  0.00    -0.082 A 
ATOM      4  C2  PXY d   1      -0.707  -6.000  -3.180  0.00  0.00     0.003 A 
ATOM      5  C3  PXY d   1       0.487  -5.966  -3.853  0.00  0.00     0.003 A 
ATOM      6  C4  PXY d   1       0.511  -5.983  -5.222  0.00  0.00    -0.082 A 
ATOM      7  C5  PXY d   1      -0.651  -5.991  -5.908  0.00  0.00     0.003 A 
ATOM      8  C6  PXY d   1      -1.853  -5.983  -5.206  0.00  0.00     0.003 A 
ENDROOT
TORSDOF 0
ENDMDL
