MODEL 1
REMARK minimizedAffinity 7.68510294
REMARK minimizedRMSD -1
REMARK  0 active torsions:
REMARK  status: ('A' for Active; 'I' for Inactive)
ROOT
ATOM      1  C4' PXY d   1       1.952  -5.976  -5.878  0.00  0.00     0.077 C 
ATOM      2  C1' PXY d   1      -2.375  -5.995  -2.045  0.00  0.00     0.077 C 
ATOM      3  C1  PXY d   1      -1.248  -5.996  -3.059  0.00  0.00    -0.082 A 
ATOM      4  C2  PXY d   1       0.008  -5.997  -2.642  0.00  0.00     0.003 A 
ATOM      5  C3  PXY d   1       1.039  -5.965  -3.545  0.00  0.00     0.003 A 
ATOM      6  C4  PXY d   1       0.782  -5.985  -4.890  0.00  0.00    -0.082 A 
ATOM      7  C5  PXY d   1      -0.496  -5.995  -5.324  0.00  0.00     0.003 A 
ATOM      8  C6  PXY d   1      -1.529  -5.986  -4.391  0.00  0.00     0.003 A 
ENDROOT
TORSDOF 0
ENDMDL
