MODEL 1
REMARK minimizedAffinity 2.70948982
REMARK minimizedRMSD -1
REMARK  0 active torsions:
REMARK  status: ('A' for Active; 'I' for Inactive)
ROOT
ATOM      1  C4' PXY d   1       0.364  -3.410   1.456  0.00  0.00     0.077 C 
ATOM      2  C1' PXY d   1       2.290   1.699  -0.443  0.00  0.00     0.077 C 
ATOM      3  C1  PXY d   1       1.797   0.355   0.055  0.00  0.00    -0.082 A 
ATOM      4  C2  PXY d   1       0.555  -0.022  -0.201  0.00  0.00     0.003 A 
ATOM      5  C3  PXY d   1       0.083  -1.221   0.270  0.00  0.00     0.003 A 
ATOM      6  C4  PXY d   1       0.907  -2.065   0.964  0.00  0.00    -0.082 A 
ATOM      7  C5  PXY d   1       2.179  -1.692   1.221  0.00  0.00     0.003 A 
ATOM      8  C6  PXY d   1       2.626  -0.454   0.769  0.00  0.00     0.003 A 
ENDROOT
TORSDOF 0
ENDMDL
