MODEL 1
REMARK minimizedAffinity 1.55719054
REMARK minimizedRMSD -1
REMARK  0 active torsions:
REMARK  status: ('A' for Active; 'I' for Inactive)
ROOT
ATOM      1  C4' PXY d   1      -1.414  -5.979  -4.507  0.00  0.00     0.077 C 
ATOM      2  C1' PXY d   1      -4.098  -5.999   0.613  0.00  0.00     0.077 C 
ATOM      3  C1  PXY d   1      -3.383  -5.988  -0.724  0.00  0.00    -0.082 A 
ATOM      4  C2  PXY d   1      -4.090  -5.977  -1.843  0.00  0.00     0.003 A 
ATOM      5  C3  PXY d   1      -3.460  -6.000  -3.061  0.00  0.00     0.003 A 
ATOM      6  C4  PXY d   1      -2.093  -5.980  -3.134  0.00  0.00    -0.082 A 
ATOM      7  C5  PXY d   1      -1.365  -5.981  -1.997  0.00  0.00     0.003 A 
ATOM      8  C6  PXY d   1      -2.024  -6.000  -0.771  0.00  0.00     0.003 A 
ENDROOT
TORSDOF 0
ENDMDL
