MODEL 1
REMARK minimizedAffinity 1.70203078
REMARK minimizedRMSD -1
REMARK  0 active torsions:
REMARK  status: ('A' for Active; 'I' for Inactive)
ROOT
ATOM      1  C4' PXY d   1      -1.155  -6.000  -4.079  0.00  0.00     0.077 C 
ATOM      2  C1' PXY d   1      -5.251  -5.980  -0.000  0.00  0.00     0.077 C 
ATOM      3  C1  PXY d   1      -4.185  -5.990  -1.079  0.00  0.00    -0.082 A 
ATOM      4  C2  PXY d   1      -2.908  -6.000  -0.735  0.00  0.00     0.003 A 
ATOM      5  C3  PXY d   1      -1.931  -5.977  -1.697  0.00  0.00     0.003 A 
ATOM      6  C4  PXY d   1      -2.265  -5.999  -3.025  0.00  0.00    -0.082 A 
ATOM      7  C5  PXY d   1      -3.567  -6.000  -3.383  0.00  0.00     0.003 A 
ATOM      8  C6  PXY d   1      -4.543  -5.981  -2.391  0.00  0.00     0.003 A 
ENDROOT
TORSDOF 0
ENDMDL
