MODEL 1
REMARK minimizedAffinity 7.23694134
REMARK minimizedRMSD -1
REMARK  0 active torsions:
REMARK  status: ('A' for Active; 'I' for Inactive)
ROOT
ATOM      1  C4' PXY d   1      -0.003  -2.683   1.160  0.00  0.00     0.077 C 
ATOM      2  C1' PXY d   1       4.072   1.090  -0.443  0.00  0.00     0.077 C 
ATOM      3  C1  PXY d   1       2.995   0.110  -0.022  0.00  0.00    -0.082 A 
ATOM      4  C2  PXY d   1       3.332  -0.999   0.615  0.00  0.00     0.003 A 
ATOM      5  C3  PXY d   1       2.373  -1.912   0.973  0.00  0.00     0.003 A 
ATOM      6  C4  PXY d   1       1.050  -1.661   0.725  0.00  0.00    -0.082 A 
ATOM      7  C5  PXY d   1       0.697  -0.526   0.085  0.00  0.00     0.003 A 
ATOM      8  C6  PXY d   1       1.689   0.368  -0.307  0.00  0.00     0.003 A 
ENDROOT
TORSDOF 0
ENDMDL
