MODEL 1
REMARK minimizedAffinity 0.42147553
REMARK minimizedRMSD -1
REMARK  0 active torsions:
REMARK  status: ('A' for Active; 'I' for Inactive)
ROOT
ATOM      1  C4' PXY d   1      -1.837  -2.013   0.836  0.00  0.00     0.077 C 
ATOM      2  C1' PXY d   1       3.246   0.515  -0.252  0.00  0.00     0.077 C 
ATOM      3  C1  PXY d   1       1.918  -0.160   0.029  0.00  0.00    -0.082 A 
ATOM      4  C2  PXY d   1       0.810   0.563   0.052  0.00  0.00     0.003 A 
ATOM      5  C3  PXY d   1      -0.396  -0.025   0.337  0.00  0.00     0.003 A 
ATOM      6  C4  PXY d   1      -0.475  -1.376   0.547  0.00  0.00    -0.082 A 
ATOM      7  C5  PXY d   1       0.649  -2.122   0.515  0.00  0.00     0.003 A 
ATOM      8  C6  PXY d   1       1.869  -1.499   0.265  0.00  0.00     0.003 A 
ENDROOT
TORSDOF 0
ENDMDL
