MODEL 1
REMARK minimizedAffinity 4.18979454
REMARK minimizedRMSD -1
REMARK  0 active torsions:
REMARK  status: ('A' for Active; 'I' for Inactive)
ROOT
ATOM      1  C4' PXY d   1      -0.416  -2.109   1.573  0.00  0.00     0.077 C 
ATOM      2  C1' PXY d   1       3.668   0.779  -1.323  0.00  0.00     0.077 C 
ATOM      3  C1  PXY d   1       2.606   0.011  -0.562  0.00  0.00    -0.082 A 
ATOM      4  C2  PXY d   1       1.327   0.247  -0.806  0.00  0.00     0.003 A 
ATOM      5  C3  PXY d   1       0.353  -0.414  -0.104  0.00  0.00     0.003 A 
ATOM      6  C4  PXY d   1       0.691  -1.366   0.821  0.00  0.00    -0.082 A 
ATOM      7  C5  PXY d   1       1.993  -1.619   1.069  0.00  0.00     0.003 A 
ATOM      8  C6  PXY d   1       2.967  -0.907   0.375  0.00  0.00     0.003 A 
ENDROOT
TORSDOF 0
ENDMDL
