MODEL 1
REMARK minimizedAffinity -0.412231207
REMARK minimizedRMSD -1
REMARK  0 active torsions:
REMARK  status: ('A' for Active; 'I' for Inactive)
ROOT
ATOM      1  C4' PXY d   1       1.847  -5.911  -5.781  0.00  0.00     0.077 C 
ATOM      2  C1' PXY d   1      -3.448  -5.996  -3.463  0.00  0.00     0.077 C 
ATOM      3  C1  PXY d   1      -2.054  -5.968  -4.060  0.00  0.00    -0.082 A 
ATOM      4  C2  PXY d   1      -1.906  -5.930  -5.374  0.00  0.00     0.003 A 
ATOM      5  C3  PXY d   1      -0.654  -5.937  -5.931  0.00  0.00     0.003 A 
ATOM      6  C4  PXY d   1       0.460  -5.930  -5.134  0.00  0.00    -0.082 A 
ATOM      7  C5  PXY d   1       0.317  -5.958  -3.792  0.00  0.00     0.003 A 
ATOM      8  C6  PXY d   1      -0.963  -5.992  -3.247  0.00  0.00     0.003 A 
ENDROOT
TORSDOF 0
ENDMDL
