MODEL 1
REMARK minimizedAffinity -1.34320617
REMARK minimizedRMSD -1
REMARK  0 active torsions:
REMARK  status: ('A' for Active; 'I' for Inactive)
ROOT
ATOM      1  C4' PXY d   1       0.654  -3.620   1.632  0.00  0.00     0.077 C 
ATOM      2  C1' PXY d   1       1.975   1.732  -0.109  0.00  0.00     0.077 C 
ATOM      3  C1  PXY d   1       1.641   0.325   0.346  0.00  0.00    -0.082 A 
ATOM      4  C2  PXY d   1       0.401  -0.122   0.233  0.00  0.00     0.003 A 
ATOM      5  C3  PXY d   1       0.074  -1.381   0.669  0.00  0.00     0.003 A 
ATOM      6  C4  PXY d   1       1.039  -2.210   1.177  0.00  0.00    -0.082 A 
ATOM      7  C5  PXY d   1       2.308  -1.765   1.286  0.00  0.00     0.003 A 
ATOM      8  C6  PXY d   1       2.610  -0.469   0.876  0.00  0.00     0.003 A 
ENDROOT
TORSDOF 0
ENDMDL
