MODEL 1
REMARK minimizedAffinity 1.50204337
REMARK minimizedRMSD -1
REMARK  0 active torsions:
REMARK  status: ('A' for Active; 'I' for Inactive)
ROOT
ATOM      1  C4' PXY d   1       0.456   1.266  -0.255  0.00  0.00     0.077 C 
ATOM      2  C1' PXY d   1       0.468  -4.172   1.706  0.00  0.00     0.077 C 
ATOM      3  C1  PXY d   1       0.458  -2.750   1.182  0.00  0.00    -0.082 A 
ATOM      4  C2  PXY d   1       1.388  -1.898   1.583  0.00  0.00     0.003 A 
ATOM      5  C3  PXY d   1       1.375  -0.600   1.143  0.00  0.00     0.003 A 
ATOM      6  C4  PXY d   1       0.433  -0.183   0.242  0.00  0.00    -0.082 A 
ATOM      7  C5  PXY d   1      -0.513  -1.048  -0.181  0.00  0.00     0.003 A 
ATOM      8  C6  PXY d   1      -0.507  -2.351   0.310  0.00  0.00     0.003 A 
ENDROOT
TORSDOF 0
ENDMDL
