MODEL 1
REMARK minimizedAffinity -0.345386326
REMARK minimizedRMSD -1
REMARK  0 active torsions:
REMARK  status: ('A' for Active; 'I' for Inactive)
ROOT
ATOM      1  C4' PXY d   1      -3.734  -5.952  -2.930  0.00  0.00     0.077 C 
ATOM      2  C1' PXY d   1       1.240  -5.996  -5.875  0.00  0.00     0.077 C 
ATOM      3  C1  PXY d   1      -0.058  -5.990  -5.092  0.00  0.00    -0.082 A 
ATOM      4  C2  PXY d   1      -1.212  -5.977  -5.740  0.00  0.00     0.003 A 
ATOM      5  C3  PXY d   1      -2.395  -5.938  -5.048  0.00  0.00     0.003 A 
ATOM      6  C4  PXY d   1      -2.398  -5.968  -3.679  0.00  0.00    -0.082 A 
ATOM      7  C5  PXY d   1      -1.225  -5.993  -3.011  0.00  0.00     0.003 A 
ATOM      8  C6  PXY d   1      -0.035  -5.989  -3.732  0.00  0.00     0.003 A 
ENDROOT
TORSDOF 0
ENDMDL
