MODEL 1
REMARK minimizedAffinity 1.09364188
REMARK minimizedRMSD -1
REMARK  0 active torsions:
REMARK  status: ('A' for Active; 'I' for Inactive)
ROOT
ATOM      1  C4' PXY d   1      -3.088  -6.000  -2.893  0.00  0.00     0.077 C 
ATOM      2  C1' PXY d   1       1.771  -5.621  -6.000  0.00  0.00     0.077 C 
ATOM      3  C1  PXY d   1       0.504  -5.724  -5.174  0.00  0.00    -0.082 A 
ATOM      4  C2  PXY d   1      -0.654  -5.936  -5.778  0.00  0.00     0.003 A 
ATOM      5  C3  PXY d   1      -1.815  -5.999  -5.050  0.00  0.00     0.003 A 
ATOM      6  C4  PXY d   1      -1.782  -5.898  -3.685  0.00  0.00    -0.082 A 
ATOM      7  C5  PXY d   1      -0.603  -5.693  -3.061  0.00  0.00     0.003 A 
ATOM      8  C6  PXY d   1       0.558  -5.590  -3.821  0.00  0.00     0.003 A 
ENDROOT
TORSDOF 0
ENDMDL
