MODEL 1
REMARK minimizedAffinity -2.74295688
REMARK minimizedRMSD -1
REMARK  0 active torsions:
REMARK  status: ('A' for Active; 'I' for Inactive)
ROOT
ATOM      1  C4' PXY d   1      -3.419  -6.000  -1.642  0.00  0.00     0.077 C 
ATOM      2  C1' PXY d   1       0.414  -5.960  -5.969  0.00  0.00     0.077 C 
ATOM      3  C1  PXY d   1      -0.583  -5.976  -4.826  0.00  0.00    -0.082 A 
ATOM      4  C2  PXY d   1      -1.879  -5.992  -5.089  0.00  0.00     0.003 A 
ATOM      5  C3  PXY d   1      -2.794  -5.974  -4.068  0.00  0.00     0.003 A 
ATOM      6  C4  PXY d   1      -2.378  -5.993  -2.764  0.00  0.00    -0.082 A 
ATOM      7  C5  PXY d   1      -1.056  -5.987  -2.488  0.00  0.00     0.003 A 
ATOM      8  C6  PXY d   1      -0.144  -5.964  -3.539  0.00  0.00     0.003 A 
ENDROOT
TORSDOF 0
ENDMDL
