MODEL 1
REMARK minimizedAffinity 1.26116776
REMARK minimizedRMSD -1
REMARK  0 active torsions:
REMARK  status: ('A' for Active; 'I' for Inactive)
ROOT
ATOM      1  C4' PXY d   1      -3.215  -5.999  -2.811  0.00  0.00     0.077 C 
ATOM      2  C1' PXY d   1       1.717  -5.975  -5.826  0.00  0.00     0.077 C 
ATOM      3  C1  PXY d   1       0.417  -5.976  -5.046  0.00  0.00    -0.082 A 
ATOM      4  C2  PXY d   1       0.448  -5.965  -3.723  0.00  0.00     0.003 A 
ATOM      5  C3  PXY d   1      -0.717  -5.999  -3.001  0.00  0.00     0.003 A 
ATOM      6  C4  PXY d   1      -1.928  -5.989  -3.640  0.00  0.00    -0.082 A 
ATOM      7  C5  PXY d   1      -1.968  -5.989  -4.990  0.00  0.00     0.003 A 
ATOM      8  C6  PXY d   1      -0.774  -5.997  -5.704  0.00  0.00     0.003 A 
ENDROOT
TORSDOF 0
ENDMDL
