MODEL 1
REMARK minimizedAffinity 3.01967239
REMARK minimizedRMSD -1
REMARK  0 active torsions:
REMARK  status: ('A' for Active; 'I' for Inactive)
ROOT
ATOM      1  C4' PXY d   1       0.118   2.101  -0.606  0.00  0.00     0.077 C 
ATOM      2  C1' PXY d   1       0.123  -3.019   2.077  0.00  0.00     0.077 C 
ATOM      3  C1  PXY d   1       0.109  -1.678   1.371  0.00  0.00    -0.082 A 
ATOM      4  C2  PXY d   1       1.234  -1.187   0.877  0.00  0.00     0.003 A 
ATOM      5  C3  PXY d   1       1.245   0.039   0.263  0.00  0.00     0.003 A 
ATOM      6  C4  PXY d   1       0.083   0.747   0.107  0.00  0.00    -0.082 A 
ATOM      7  C5  PXY d   1      -1.070   0.248   0.599  0.00  0.00     0.003 A 
ATOM      8  C6  PXY d   1      -1.053  -0.980   1.255  0.00  0.00     0.003 A 
ENDROOT
TORSDOF 0
ENDMDL
