MODEL 1
REMARK minimizedAffinity 5.1969471
REMARK minimizedRMSD -1
REMARK  0 active torsions:
REMARK  status: ('A' for Active; 'I' for Inactive)
ROOT
ATOM      1  C4' PXY d   1      -2.484  -5.978  -2.254  0.00  0.00     0.077 C 
ATOM      2  C1' PXY d   1       2.068  -5.998  -5.816  0.00  0.00     0.077 C 
ATOM      3  C1  PXY d   1       0.881  -5.998  -4.873  0.00  0.00    -0.082 A 
ATOM      4  C2  PXY d   1      -0.346  -6.000  -5.366  0.00  0.00     0.003 A 
ATOM      5  C3  PXY d   1      -1.431  -5.968  -4.527  0.00  0.00     0.003 A 
ATOM      6  C4  PXY d   1      -1.257  -5.987  -3.169  0.00  0.00    -0.082 A 
ATOM      7  C5  PXY d   1      -0.007  -5.996  -2.658  0.00  0.00     0.003 A 
ATOM      8  C6  PXY d   1       1.080  -5.987  -3.527  0.00  0.00     0.003 A 
ENDROOT
TORSDOF 0
ENDMDL
