MODEL 1
REMARK minimizedAffinity -1.45028281
REMARK minimizedRMSD -1
REMARK  0 active torsions:
REMARK  status: ('A' for Active; 'I' for Inactive)
ROOT
ATOM      1  C4' PXY d   1       0.684  -6.000  -5.977  0.00  0.00     0.077 C 
ATOM      2  C1' PXY d   1       0.091  -4.797  -0.354  0.00  0.00     0.077 C 
ATOM      3  C1  PXY d   1       0.237  -5.122  -1.828  0.00  0.00    -0.082 A 
ATOM      4  C2  PXY d   1       1.377  -4.860  -2.446  0.00  0.00     0.003 A 
ATOM      5  C3  PXY d   1       1.516  -5.117  -3.785  0.00  0.00     0.003 A 
ATOM      6  C4  PXY d   1       0.494  -5.698  -4.488  0.00  0.00    -0.082 A 
ATOM      7  C5  PXY d   1      -0.669  -5.978  -3.863  0.00  0.00     0.003 A 
ATOM      8  C6  PXY d   1      -0.803  -5.671  -2.512  0.00  0.00     0.003 A 
ENDROOT
TORSDOF 0
ENDMDL
