MODEL 1
REMARK minimizedAffinity 14.5591011
REMARK minimizedRMSD -1
REMARK  1 active torsions:
REMARK  status: ('A' for Active; 'I' for Inactive)
REMARK    1  A    between atoms: C1_2  and  C2_3 
ROOT
ATOM      1  C2  UNL d   1      -0.332   3.691  -3.457  0.00  0.00    -0.081 A 
ATOM      2  C3  UNL d   1      -1.532   3.032  -3.162  0.00  0.00     0.006 A 
ATOM      3  C4  UNL d   1      -1.730   2.450  -1.908  0.00  0.00     0.002 A 
ATOM      4  C5  UNL d   1      -0.736   2.523  -0.927  0.00  0.00    -0.080 A 
ATOM      5  C6  UNL d   1      -0.948   1.928   0.434  0.00  0.00     0.076 C 
ATOM      6  C7  UNL d   1       0.470   3.165  -1.227  0.00  0.00     0.002 A 
ATOM      7  C8  UNL d   1       0.669   3.747  -2.481  0.00  0.00     0.006 A 
ENDROOT
BRANCH   1   8
ATOM      8  C1  UNL d   1      -0.140   4.376  -4.786  0.00  0.00     0.054 C 
ATOM      9  C   UNL d   1       0.711   5.630  -4.645  0.00  0.00     0.018 C 
ENDBRANCH   1   8
TORSDOF 1
ENDMDL
