MODEL 1
REMARK minimizedAffinity 26.2854614
REMARK minimizedRMSD -1
REMARK  1 active torsions:
REMARK  status: ('A' for Active; 'I' for Inactive)
REMARK    1  A    between atoms: C1_2  and  C2_3 
ROOT
ATOM      1  C2  UNL d   1      -0.202   4.094  -3.844  0.00  0.00    -0.081 A 
ATOM      2  C3  UNL d   1      -0.091   5.161  -4.743  0.00  0.00     0.006 A 
ATOM      3  C4  UNL d   1       1.141   5.789  -4.947  0.00  0.00     0.002 A 
ATOM      4  C5  UNL d   1       2.281   5.355  -4.263  0.00  0.00    -0.080 A 
ATOM      5  C6  UNL d   1       3.615   6.000  -4.497  0.00  0.00     0.076 C 
ATOM      6  C7  UNL d   1       2.166   4.299  -3.352  0.00  0.00     0.002 A 
ATOM      7  C8  UNL d   1       0.935   3.672  -3.147  0.00  0.00     0.006 A 
ENDROOT
BRANCH   1   8
ATOM      8  C1  UNL d   1      -1.515   3.373  -3.669  0.00  0.00     0.054 C 
ATOM      9  C   UNL d   1      -2.218   3.807  -2.391  0.00  0.00     0.018 C 
ENDBRANCH   1   8
TORSDOF 1
ENDMDL
