MODEL 1
REMARK minimizedAffinity 23.6012363
REMARK minimizedRMSD -1
REMARK  1 active torsions:
REMARK  status: ('A' for Active; 'I' for Inactive)
REMARK    1  A    between atoms: C1_2  and  C2_3 
ROOT
ATOM      1  C2  UNL d   1       0.005   4.139  -3.013  0.00  0.00    -0.081 A 
ATOM      2  C3  UNL d   1      -1.178   3.423  -2.789  0.00  0.00     0.006 A 
ATOM      3  C4  UNL d   1      -1.295   2.578  -1.683  0.00  0.00     0.002 A 
ATOM      4  C5  UNL d   1      -0.236   2.441  -0.779  0.00  0.00    -0.080 A 
ATOM      5  C6  UNL d   1      -0.360   1.560   0.429  0.00  0.00     0.076 C 
ATOM      6  C7  UNL d   1       0.952   3.142  -1.013  0.00  0.00     0.002 A 
ATOM      7  C8  UNL d   1       1.070   3.986  -2.119  0.00  0.00     0.006 A 
ENDROOT
BRANCH   1   8
ATOM      8  C1  UNL d   1       0.111   5.100  -4.169  0.00  0.00     0.054 C 
ATOM      9  C   UNL d   1       1.331   6.000  -4.030  0.00  0.00     0.018 C 
ENDBRANCH   1   8
TORSDOF 1
ENDMDL
