MODEL 1
REMARK minimizedAffinity 14.8837776
REMARK minimizedRMSD -1
REMARK  1 active torsions:
REMARK  status: ('A' for Active; 'I' for Inactive)
REMARK    1  A    between atoms: C1_2  and  C2_3 
ROOT
ATOM      1  C2  UNL d   1      -0.361   4.115  -3.019  0.00  0.00    -0.081 A 
ATOM      2  C3  UNL d   1      -1.528   3.400  -2.726  0.00  0.00     0.006 A 
ATOM      3  C4  UNL d   1      -1.611   2.621  -1.570  0.00  0.00     0.002 A 
ATOM      4  C5  UNL d   1      -0.531   2.551  -0.683  0.00  0.00    -0.080 A 
ATOM      5  C6  UNL d   1      -0.617   1.743   0.578  0.00  0.00     0.076 C 
ATOM      6  C7  UNL d   1       0.642   3.252  -0.984  0.00  0.00     0.002 A 
ATOM      7  C8  UNL d   1       0.725   4.030  -2.141  0.00  0.00     0.006 A 
ENDROOT
BRANCH   1   8
ATOM      8  C1  UNL d   1      -0.292   5.007  -4.232  0.00  0.00     0.054 C 
ATOM      9  C   UNL d   1       0.865   5.991  -4.131  0.00  0.00     0.018 C 
ENDBRANCH   1   8
TORSDOF 1
ENDMDL
