MODEL 1
REMARK minimizedAffinity 10.527668
REMARK minimizedRMSD -1
REMARK  1 active torsions:
REMARK  status: ('A' for Active; 'I' for Inactive)
REMARK    1  A    between atoms: C1_2  and  C2_3 
ROOT
ATOM      1  C2  UNL d   1      -4.699  -3.863   4.452  0.00  0.00    -0.081 A 
ATOM      2  C3  UNL d   1      -3.484  -4.255   3.878  0.00  0.00     0.006 A 
ATOM      3  C4  UNL d   1      -2.275  -3.751   4.364  0.00  0.00     0.002 A 
ATOM      4  C5  UNL d   1      -2.261  -2.853   5.437  0.00  0.00    -0.080 A 
ATOM      5  C6  UNL d   1      -0.969  -2.328   5.988  0.00  0.00     0.076 C 
ATOM      6  C7  UNL d   1      -3.476  -2.448   6.000  0.00  0.00     0.002 A 
ATOM      7  C8  UNL d   1      -4.685  -2.952   5.513  0.00  0.00     0.006 A 
ENDROOT
BRANCH   1   8
ATOM      8  C1  UNL d   1      -6.000  -4.455   3.972  0.00  0.00     0.054 C 
ATOM      9  C   UNL d   1      -5.995  -5.972   4.092  0.00  0.00     0.018 C 
ENDBRANCH   1   8
TORSDOF 1
ENDMDL
