MODEL 1
REMARK minimizedAffinity 22.3758869
REMARK minimizedRMSD -1
REMARK  1 active torsions:
REMARK  status: ('A' for Active; 'I' for Inactive)
REMARK    1  A    between atoms: C1_2  and  C2_3 
ROOT
ATOM      1  C2  UNL d   1       1.472  -3.433  -0.851  0.00  0.00    -0.081 A 
ATOM      2  C3  UNL d   1       1.167  -3.979   0.401  0.00  0.00     0.006 A 
ATOM      3  C4  UNL d   1       1.386  -3.242   1.568  0.00  0.00     0.002 A 
ATOM      4  C5  UNL d   1       1.906  -1.945   1.500  0.00  0.00    -0.080 A 
ATOM      5  C6  UNL d   1       2.119  -1.132   2.743  0.00  0.00     0.076 C 
ATOM      6  C7  UNL d   1       2.228  -1.406   0.250  0.00  0.00     0.002 A 
ATOM      7  C8  UNL d   1       2.009  -2.143  -0.916  0.00  0.00     0.006 A 
ENDROOT
BRANCH   1   8
ATOM      8  C1  UNL d   1       1.175  -4.200  -2.115  0.00  0.00     0.054 C 
ATOM      9  C   UNL d   1       1.950  -5.510  -2.161  0.00  0.00     0.018 C 
ENDBRANCH   1   8
TORSDOF 1
ENDMDL
