MODEL 1
REMARK minimizedAffinity 16.2173424
REMARK minimizedRMSD -1
REMARK  1 active torsions:
REMARK  status: ('A' for Active; 'I' for Inactive)
REMARK    1  A    between atoms: C1_2  and  C2_3 
ROOT
ATOM      1  C2  UNL d   1       0.973   5.066  -3.688  0.00  0.00    -0.081 A 
ATOM      2  C3  UNL d   1      -0.283   4.483  -3.894  0.00  0.00     0.006 A 
ATOM      3  C4  UNL d   1      -0.865   3.686  -2.905  0.00  0.00     0.002 A 
ATOM      4  C5  UNL d   1      -0.205   3.465  -1.692  0.00  0.00    -0.080 A 
ATOM      5  C6  UNL d   1      -0.832   2.637  -0.610  0.00  0.00     0.076 C 
ATOM      6  C7  UNL d   1       1.057   4.034  -1.492  0.00  0.00     0.002 A 
ATOM      7  C8  UNL d   1       1.640   4.830  -2.480  0.00  0.00     0.006 A 
ENDROOT
BRANCH   1   8
ATOM      8  C1  UNL d   1       1.574   5.979  -4.726  0.00  0.00     0.054 C 
ATOM      9  C   UNL d   1       0.736   5.999  -5.996  0.00  0.00     0.018 C 
ENDBRANCH   1   8
TORSDOF 1
ENDMDL
