MODEL 1
REMARK minimizedAffinity 16.181366
REMARK minimizedRMSD -1
REMARK  1 active torsions:
REMARK  status: ('A' for Active; 'I' for Inactive)
REMARK    1  A    between atoms: C1_2  and  C2_3 
ROOT
ATOM      1  C2  UNL d   1      -4.984   5.821   1.681  0.00  0.00    -0.081 A 
ATOM      2  C3  UNL d   1      -3.688   5.530   1.238  0.00  0.00     0.006 A 
ATOM      3  C4  UNL d   1      -3.412   5.431  -0.128  0.00  0.00     0.002 A 
ATOM      4  C5  UNL d   1      -4.425   5.628  -1.073  0.00  0.00    -0.080 A 
ATOM      5  C6  UNL d   1      -4.136   5.554  -2.543  0.00  0.00     0.076 C 
ATOM      6  C7  UNL d   1      -5.723   5.901  -0.630  0.00  0.00     0.002 A 
ATOM      7  C8  UNL d   1      -6.000   6.000   0.736  0.00  0.00     0.006 A 
ENDROOT
BRANCH   1   8
ATOM      8  C1  UNL d   1      -5.271   5.993   3.151  0.00  0.00     0.054 C 
ATOM      9  C   UNL d   1      -3.987   5.999   3.968  0.00  0.00     0.018 C 
ENDBRANCH   1   8
TORSDOF 1
ENDMDL
