MODEL 1
REMARK minimizedAffinity 13.2808895
REMARK minimizedRMSD -1
REMARK  1 active torsions:
REMARK  status: ('A' for Active; 'I' for Inactive)
REMARK    1  A    between atoms: C1_2  and  C2_3 
ROOT
ATOM      1  C2  UNL d   1      -4.688   5.981   2.644  0.00  0.00    -0.081 A 
ATOM      2  C3  UNL d   1      -5.929   5.977   1.995  0.00  0.00     0.006 A 
ATOM      3  C4  UNL d   1      -5.998   5.916   0.601  0.00  0.00     0.002 A 
ATOM      4  C5  UNL d   1      -4.830   5.850  -0.166  0.00  0.00    -0.080 A 
ATOM      5  C6  UNL d   1      -4.891   5.753  -1.661  0.00  0.00     0.076 C 
ATOM      6  C7  UNL d   1      -3.590   5.871   0.482  0.00  0.00     0.002 A 
ATOM      7  C8  UNL d   1      -3.520   5.933   1.876  0.00  0.00     0.006 A 
ENDROOT
BRANCH   1   8
ATOM      8  C1  UNL d   1      -4.611   5.982   4.150  0.00  0.00     0.054 C 
ATOM      9  C   UNL d   1      -5.999   5.998   4.775  0.00  0.00     0.018 C 
ENDBRANCH   1   8
TORSDOF 1
ENDMDL
