MODEL 1
REMARK minimizedAffinity 18.0542374
REMARK minimizedRMSD -1
REMARK  1 active torsions:
REMARK  status: ('A' for Active; 'I' for Inactive)
REMARK    1  A    between atoms: C1_2  and  C2_3 
ROOT
ATOM      1  C2  UNL d   1      -2.668   2.948   0.393  0.00  0.00    -0.081 A 
ATOM      2  C3  UNL d   1      -3.743   2.626   1.230  0.00  0.00     0.006 A 
ATOM      3  C4  UNL d   1      -4.643   3.613   1.640  0.00  0.00     0.002 A 
ATOM      4  C5  UNL d   1      -4.488   4.936   1.213  0.00  0.00    -0.080 A 
ATOM      5  C6  UNL d   1      -5.464   5.999   1.620  0.00  0.00     0.076 C 
ATOM      6  C7  UNL d   1      -3.404   5.262   0.391  0.00  0.00     0.002 A 
ATOM      7  C8  UNL d   1      -2.504   4.275  -0.019  0.00  0.00     0.006 A 
ENDROOT
BRANCH   1   8
ATOM      8  C1  UNL d   1      -1.734   1.874  -0.103  0.00  0.00     0.054 C 
ATOM      9  C   UNL d   1      -0.703   1.506   0.955  0.00  0.00     0.018 C 
ENDBRANCH   1   8
TORSDOF 1
ENDMDL
