MODEL 1
REMARK minimizedAffinity 21.4592514
REMARK minimizedRMSD -1
REMARK  1 active torsions:
REMARK  status: ('A' for Active; 'I' for Inactive)
REMARK    1  A    between atoms: C1_2  and  C2_3 
ROOT
ATOM      1  C2  UNL d   1      -5.204   5.753   0.413  0.00  0.00    -0.081 A 
ATOM      2  C3  UNL d   1      -5.973   5.800  -0.757  0.00  0.00     0.006 A 
ATOM      3  C4  UNL d   1      -5.395   5.516  -1.996  0.00  0.00     0.002 A 
ATOM      4  C5  UNL d   1      -4.042   5.172  -2.087  0.00  0.00    -0.080 A 
ATOM      5  C6  UNL d   1      -3.417   4.835  -3.408  0.00  0.00     0.076 C 
ATOM      6  C7  UNL d   1      -3.269   5.142  -0.921  0.00  0.00     0.002 A 
ATOM      7  C8  UNL d   1      -3.846   5.426   0.319  0.00  0.00     0.006 A 
ENDROOT
BRANCH   1   8
ATOM      8  C1  UNL d   1      -5.839   5.995   1.758  0.00  0.00     0.054 C 
ATOM      9  C   UNL d   1      -5.051   5.320   2.871  0.00  0.00     0.018 C 
ENDBRANCH   1   8
TORSDOF 1
ENDMDL
