MODEL 1
REMARK minimizedAffinity 7.99079227
REMARK minimizedRMSD -1
REMARK  1 active torsions:
REMARK  status: ('A' for Active; 'I' for Inactive)
REMARK    1  A    between atoms: C1_2  and  C2_3 
ROOT
ATOM      1  C2  UNL d   1      -1.316   3.347  -2.620  0.00  0.00    -0.081 A 
ATOM      2  C3  UNL d   1      -1.557   4.726  -2.646  0.00  0.00     0.006 A 
ATOM      3  C4  UNL d   1      -1.011   5.560  -1.667  0.00  0.00     0.002 A 
ATOM      4  C5  UNL d   1      -0.210   5.030  -0.651  0.00  0.00    -0.080 A 
ATOM      5  C6  UNL d   1       0.407   5.918   0.389  0.00  0.00     0.076 C 
ATOM      6  C7  UNL d   1       0.017   3.650  -0.614  0.00  0.00     0.002 A 
ATOM      7  C8  UNL d   1      -0.528   2.816  -1.592  0.00  0.00     0.006 A 
ENDROOT
BRANCH   1   8
ATOM      8  C1  UNL d   1      -1.849   2.454  -3.711  0.00  0.00     0.054 C 
ATOM      9  C   UNL d   1      -3.188   1.845  -3.322  0.00  0.00     0.018 C 
ENDBRANCH   1   8
TORSDOF 1
ENDMDL
