MODEL 1
REMARK minimizedAffinity 11.1233749
REMARK minimizedRMSD -1
REMARK  1 active torsions:
REMARK  status: ('A' for Active; 'I' for Inactive)
REMARK    1  A    between atoms: C1_2  and  C2_3 
ROOT
ATOM      1  C2  UNL d   1      -3.129   0.542   1.634  0.00  0.00    -0.081 A 
ATOM      2  C3  UNL d   1      -3.267   1.320   2.790  0.00  0.00     0.006 A 
ATOM      3  C4  UNL d   1      -2.139   1.740   3.500  0.00  0.00     0.002 A 
ATOM      4  C5  UNL d   1      -0.856   1.395   3.062  0.00  0.00    -0.080 A 
ATOM      5  C6  UNL d   1       0.364   1.864   3.797  0.00  0.00     0.076 C 
ATOM      6  C7  UNL d   1      -0.719   0.603   1.917  0.00  0.00     0.002 A 
ATOM      7  C8  UNL d   1      -1.846   0.183   1.207  0.00  0.00     0.006 A 
ENDROOT
BRANCH   1   8
ATOM      8  C1  UNL d   1      -4.340   0.142   0.830  0.00  0.00     0.054 C 
ATOM      9  C   UNL d   1      -4.038   0.141  -0.661  0.00  0.00     0.018 C 
ENDBRANCH   1   8
TORSDOF 1
ENDMDL
