MODEL 1
REMARK minimizedAffinity -1.70502055
REMARK minimizedRMSD -1
REMARK  1 active torsions:
REMARK  status: ('A' for Active; 'I' for Inactive)
REMARK    1  A    between atoms: N_2  and  C1_3 
ROOT
ATOM      1  C1  UNL d   1       0.021  -0.191   0.744  0.00  0.00     0.143 A 
ATOM      2  C2  UNL d   1      -0.185   0.563   1.904  0.00  0.00    -0.057 A 
ATOM      3  C3  UNL d   1      -1.444   1.093   2.211  0.00  0.00     0.033 A 
ATOM      4  C4  UNL d   1      -2.516   0.903   1.345  0.00  0.00    -0.042 A 
ATOM      5  C5  UNL d   1      -2.328   0.177   0.174  0.00  0.00     0.033 A 
ATOM      6  C6  UNL d   1      -1.070  -0.355  -0.124  0.00  0.00    -0.057 A 
ENDROOT
BRANCH   1   7
ATOM      7  N   UNL d   1       1.271  -0.661   0.333  0.00  0.00    -0.732 N 
ATOM      8  C   UNL d   1       2.364  -0.767   1.276  0.00  0.00     0.284 C 
ATOM      9  H3  UNL d   1       1.199  -1.447  -0.309  0.00  0.00     0.395 HD
ENDBRANCH   1   7
TORSDOF 1
ENDMDL
