MODEL 1
REMARK minimizedAffinity -0.456494451
REMARK minimizedRMSD -1
REMARK  1 active torsions:
REMARK  status: ('A' for Active; 'I' for Inactive)
REMARK    1  A    between atoms: N_2  and  C1_3 
ROOT
ATOM      1  C1  UNL d   1      -1.212  -1.461  -0.941  0.00  0.00     0.143 A 
ATOM      2  C2  UNL d   1      -1.335  -2.736  -1.503  0.00  0.00    -0.057 A 
ATOM      3  C3  UNL d   1      -2.487  -3.508  -1.308  0.00  0.00     0.033 A 
ATOM      4  C4  UNL d   1      -3.528  -3.027  -0.521  0.00  0.00    -0.042 A 
ATOM      5  C5  UNL d   1      -3.418  -1.773   0.068  0.00  0.00     0.033 A 
ATOM      6  C6  UNL d   1      -2.268  -1.004  -0.136  0.00  0.00    -0.057 A 
ENDROOT
BRANCH   1   7
ATOM      7  N   UNL d   1      -0.052  -0.686  -1.017  0.00  0.00    -0.732 N 
ATOM      8  C   UNL d   1       0.144   0.436  -0.123  0.00  0.00     0.284 C 
ATOM      9  H3  UNL d   1       0.782  -1.249  -1.167  0.00  0.00     0.395 HD
ENDBRANCH   1   7
TORSDOF 1
ENDMDL
