MODEL 1
REMARK minimizedAffinity -3.71760893
REMARK minimizedRMSD -1
REMARK  1 active torsions:
REMARK  status: ('A' for Active; 'I' for Inactive)
REMARK    1  A    between atoms: N_2  and  C1_3 
ROOT
ATOM      1  C1  UNL d   1      -1.098  -1.627  -0.438  0.00  0.00     0.143 A 
ATOM      2  C2  UNL d   1      -1.981  -0.791   0.254  0.00  0.00    -0.057 A 
ATOM      3  C3  UNL d   1      -1.516   0.296   1.003  0.00  0.00     0.033 A 
ATOM      4  C4  UNL d   1      -0.151   0.551   1.096  0.00  0.00    -0.042 A 
ATOM      5  C5  UNL d   1       0.746  -0.282   0.438  0.00  0.00     0.033 A 
ATOM      6  C6  UNL d   1       0.275  -1.362  -0.314  0.00  0.00    -0.057 A 
ENDROOT
BRANCH   1   7
ATOM      7  N   UNL d   1      -1.492  -2.782  -1.119  0.00  0.00    -0.732 N 
ATOM      8  C   UNL d   1      -2.751  -3.425  -0.812  0.00  0.00     0.284 C 
ATOM      9  H3  UNL d   1      -1.278  -2.739  -2.112  0.00  0.00     0.395 HD
ENDBRANCH   1   7
TORSDOF 1
ENDMDL
