MODEL 1
REMARK minimizedAffinity -2.954422
REMARK minimizedRMSD -1
REMARK  1 active torsions:
REMARK  status: ('A' for Active; 'I' for Inactive)
REMARK    1  A    between atoms: N_2  and  C1_3 
ROOT
ATOM      1  C1  UNL d   1       0.704  -0.116  -3.201  0.00  0.00     0.143 A 
ATOM      2  C2  UNL d   1       1.334   0.958  -3.840  0.00  0.00    -0.057 A 
ATOM      3  C3  UNL d   1       1.154   1.197  -5.207  0.00  0.00     0.033 A 
ATOM      4  C4  UNL d   1       0.361   0.345  -5.970  0.00  0.00    -0.042 A 
ATOM      5  C5  UNL d   1      -0.255  -0.743  -5.361  0.00  0.00     0.033 A 
ATOM      6  C6  UNL d   1      -0.077  -0.972  -3.994  0.00  0.00    -0.057 A 
ENDROOT
BRANCH   1   7
ATOM      7  N   UNL d   1       0.921  -0.463  -1.866  0.00  0.00    -0.732 N 
ATOM      8  C   UNL d   1       0.080   0.074  -0.818  0.00  0.00     0.284 C 
ATOM      9  H3  UNL d   1       1.148  -1.448  -1.753  0.00  0.00     0.395 HD
ENDBRANCH   1   7
TORSDOF 1
ENDMDL
