MODEL 1
REMARK minimizedAffinity -1.33937514
REMARK minimizedRMSD -1
REMARK  1 active torsions:
REMARK  status: ('A' for Active; 'I' for Inactive)
REMARK    1  A    between atoms: N_2  and  C1_3 
ROOT
ATOM      1  C1  UNL d   1      -0.269  -0.898  -0.247  0.00  0.00     0.143 A 
ATOM      2  C2  UNL d   1       1.020  -1.051   0.276  0.00  0.00    -0.057 A 
ATOM      3  C3  UNL d   1       1.525  -0.165   1.235  0.00  0.00     0.033 A 
ATOM      4  C4  UNL d   1       0.758   0.912   1.668  0.00  0.00    -0.042 A 
ATOM      5  C5  UNL d   1      -0.517   1.098   1.144  0.00  0.00     0.033 A 
ATOM      6  C6  UNL d   1      -1.018   0.205   0.191  0.00  0.00    -0.057 A 
ENDROOT
BRANCH   1   7
ATOM      7  N   UNL d   1      -0.790  -1.688  -1.274  0.00  0.00    -0.732 N 
ATOM      8  C   UNL d   1      -2.039  -2.398  -1.097  0.00  0.00     0.284 C 
ATOM      9  H3  UNL d   1      -0.684  -1.256  -2.189  0.00  0.00     0.395 HD
ENDBRANCH   1   7
TORSDOF 1
ENDMDL
