MODEL 1
REMARK minimizedAffinity 0.790777326
REMARK minimizedRMSD -1
REMARK  0 active torsions:
REMARK  status: ('A' for Active; 'I' for Inactive)
ROOT
ATOM      1  C4' PXY d   1      -2.191   6.000   6.000  0.00  0.00     0.077 C 
ATOM      2  C1' PXY d   1      -5.786   5.974   1.473  0.00  0.00     0.077 C 
ATOM      3  C1  PXY d   1      -4.834   5.975   2.653  0.00  0.00    -0.082 A 
ATOM      4  C2  PXY d   1      -5.318   5.961   3.884  0.00  0.00     0.003 A 
ATOM      5  C3  PXY d   1      -4.472   5.995   4.962  0.00  0.00     0.003 A 
ATOM      6  C4  PXY d   1      -3.115   5.989   4.779  0.00  0.00    -0.082 A 
ATOM      7  C5  PXY d   1      -2.613   5.992   3.526  0.00  0.00     0.003 A 
ATOM      8  C6  PXY d   1      -3.490   6.000   2.444  0.00  0.00     0.003 A 
ENDROOT
TORSDOF 0
ENDMDL
