MODEL 1
REMARK minimizedAffinity 8.46901131
REMARK minimizedRMSD -1
REMARK  0 active torsions:
REMARK  status: ('A' for Active; 'I' for Inactive)
ROOT
ATOM      1  C4' PXY d   1      -2.705   4.538   0.673  0.00  0.00     0.077 C 
ATOM      2  C1' PXY d   1      -4.513   5.877   5.998  0.00  0.00     0.077 C 
ATOM      3  C1  PXY d   1      -4.047   5.516   4.601  0.00  0.00    -0.082 A 
ATOM      4  C2  PXY d   1      -2.859   5.922   4.183  0.00  0.00     0.003 A 
ATOM      5  C3  PXY d   1      -2.435   5.631   2.911  0.00  0.00     0.003 A 
ATOM      6  C4  PXY d   1      -3.213   4.871   2.079  0.00  0.00    -0.082 A 
ATOM      7  C5  PXY d   1      -4.421   4.444   2.502  0.00  0.00     0.003 A 
ATOM      8  C6  PXY d   1      -4.850   4.785   3.782  0.00  0.00     0.003 A 
ENDROOT
TORSDOF 0
ENDMDL
