MODEL 1
REMARK minimizedAffinity 1.15084159
REMARK minimizedRMSD -1
REMARK  0 active torsions:
REMARK  status: ('A' for Active; 'I' for Inactive)
ROOT
ATOM      1  C4' PXY d   1      -2.376   5.888   0.656  0.00  0.00     0.077 C 
ATOM      2  C1' PXY d   1      -4.576   5.999   6.000  0.00  0.00     0.077 C 
ATOM      3  C1  PXY d   1      -4.010   5.964   4.594  0.00  0.00    -0.082 A 
ATOM      4  C2  PXY d   1      -2.699   5.991   4.416  0.00  0.00     0.003 A 
ATOM      5  C3  PXY d   1      -2.171   5.993   3.150  0.00  0.00     0.003 A 
ATOM      6  C4  PXY d   1      -2.991   5.912   2.057  0.00  0.00    -0.082 A 
ATOM      7  C5  PXY d   1      -4.329   5.873   2.231  0.00  0.00     0.003 A 
ATOM      8  C6  PXY d   1      -4.847   5.914   3.523  0.00  0.00     0.003 A 
ENDROOT
TORSDOF 0
ENDMDL
