MODEL 1
REMARK minimizedAffinity 6.29498148
REMARK minimizedRMSD -1
REMARK  0 active torsions:
REMARK  status: ('A' for Active; 'I' for Inactive)
ROOT
ATOM      1  C4' PXY d   1      -2.393   2.285   3.607  0.00  0.00     0.077 C 
ATOM      2  C1' PXY d   1      -3.034  -2.444   0.346  0.00  0.00     0.077 C 
ATOM      3  C1  PXY d   1      -2.878  -1.206   1.207  0.00  0.00    -0.082 A 
ATOM      4  C2  PXY d   1      -2.068  -0.235   0.815  0.00  0.00     0.003 A 
ATOM      5  C3  PXY d   1      -1.890   0.877   1.597  0.00  0.00     0.003 A 
ATOM      6  C4  PXY d   1      -2.589   1.021   2.765  0.00  0.00    -0.082 A 
ATOM      7  C5  PXY d   1      -3.425   0.040   3.166  0.00  0.00     0.003 A 
ATOM      8  C6  PXY d   1      -3.560  -1.099   2.379  0.00  0.00     0.003 A 
ENDROOT
TORSDOF 0
ENDMDL
