MODEL 1
REMARK minimizedAffinity 5.12703133
REMARK minimizedRMSD -1
REMARK  0 active torsions:
REMARK  status: ('A' for Active; 'I' for Inactive)
ROOT
ATOM      1  C4' PXY d   1      -2.653   5.924   5.858  0.00  0.00     0.077 C 
ATOM      2  C1' PXY d   1      -5.999   5.999   1.144  0.00  0.00     0.077 C 
ATOM      3  C1  PXY d   1      -5.131   5.985   2.387  0.00  0.00    -0.082 A 
ATOM      4  C2  PXY d   1      -3.814   5.979   2.265  0.00  0.00     0.003 A 
ATOM      5  C3  PXY d   1      -3.014   5.934   3.378  0.00  0.00     0.003 A 
ATOM      6  C4  PXY d   1      -3.569   5.948   4.630  0.00  0.00    -0.082 A 
ATOM      7  C5  PXY d   1      -4.912   5.964   4.763  0.00  0.00     0.003 A 
ATOM      8  C6  PXY d   1      -5.706   5.968   3.620  0.00  0.00     0.003 A 
ENDROOT
TORSDOF 0
ENDMDL
