MODEL 1
REMARK minimizedAffinity 3.50287986
REMARK minimizedRMSD -1
REMARK  0 active torsions:
REMARK  status: ('A' for Active; 'I' for Inactive)
ROOT
ATOM      1  C4' PXY d   1      -4.369   6.000   5.942  0.00  0.00     0.077 C 
ATOM      2  C1' PXY d   1      -2.937   5.977   0.342  0.00  0.00     0.077 C 
ATOM      3  C1  PXY d   1      -3.324   5.988   1.808  0.00  0.00    -0.082 A 
ATOM      4  C2  PXY d   1      -2.379   5.997   2.734  0.00  0.00     0.003 A 
ATOM      5  C3  PXY d   1      -2.712   5.975   4.064  0.00  0.00     0.003 A 
ATOM      6  C4  PXY d   1      -4.025   5.998   4.451  0.00  0.00    -0.082 A 
ATOM      7  C5  PXY d   1      -4.995   5.999   3.512  0.00  0.00     0.003 A 
ATOM      8  C6  PXY d   1      -4.637   5.979   2.167  0.00  0.00     0.003 A 
ENDROOT
TORSDOF 0
ENDMDL
