MODEL 1
REMARK minimizedAffinity -0.677004457
REMARK minimizedRMSD -1
REMARK  0 active torsions:
REMARK  status: ('A' for Active; 'I' for Inactive)
ROOT
ATOM      1  C4' PXY d   1      -5.024   5.997   5.967  0.00  0.00     0.077 C 
ATOM      2  C1' PXY d   1      -2.658   5.981   0.693  0.00  0.00     0.077 C 
ATOM      3  C1  PXY d   1      -3.290   5.990   2.072  0.00  0.00    -0.082 A 
ATOM      4  C2  PXY d   1      -2.516   5.998   3.145  0.00  0.00     0.003 A 
ATOM      5  C3  PXY d   1      -3.071   5.975   4.399  0.00  0.00     0.003 A 
ATOM      6  C4  PXY d   1      -4.431   5.997   4.556  0.00  0.00    -0.082 A 
ATOM      7  C5  PXY d   1      -5.226   5.999   3.466  0.00  0.00     0.003 A 
ATOM      8  C6  PXY d   1      -4.644   5.982   2.201  0.00  0.00     0.003 A 
ENDROOT
TORSDOF 0
ENDMDL
