MODEL 1
REMARK minimizedAffinity 7.03036833
REMARK minimizedRMSD -1
REMARK  0 active torsions:
REMARK  status: ('A' for Active; 'I' for Inactive)
ROOT
ATOM      1  C4' PXY d   1      -4.308  -0.523   4.769  0.00  0.00     0.077 C 
ATOM      2  C1' PXY d   1      -1.570  -1.040  -0.295  0.00  0.00     0.077 C 
ATOM      3  C1  PXY d   1      -2.280  -0.895   1.036  0.00  0.00    -0.082 A 
ATOM      4  C2  PXY d   1      -2.964  -1.916   1.528  0.00  0.00     0.003 A 
ATOM      5  C3  PXY d   1      -3.638  -1.792   2.715  0.00  0.00     0.003 A 
ATOM      6  C4  PXY d   1      -3.568  -0.628   3.433  0.00  0.00    -0.082 A 
ATOM      7  C5  PXY d   1      -2.864   0.415   2.943  0.00  0.00     0.003 A 
ATOM      8  C6  PXY d   1      -2.220   0.282   1.716  0.00  0.00     0.003 A 
ENDROOT
TORSDOF 0
ENDMDL
