MODEL 1
REMARK minimizedAffinity 5.48406887
REMARK minimizedRMSD -1
REMARK  0 active torsions:
REMARK  status: ('A' for Active; 'I' for Inactive)
ROOT
ATOM      1  C4' PXY d   1      -5.730   5.984   1.709  0.00  0.00     0.077 C 
ATOM      2  C1' PXY d   1      -1.852   5.992   5.995  0.00  0.00     0.077 C 
ATOM      3  C1  PXY d   1      -2.860   5.995   4.863  0.00  0.00    -0.082 A 
ATOM      4  C2  PXY d   1      -4.154   5.997   5.139  0.00  0.00     0.003 A 
ATOM      5  C3  PXY d   1      -5.079   5.968   4.128  0.00  0.00     0.003 A 
ATOM      6  C4  PXY d   1      -4.676   5.990   2.820  0.00  0.00    -0.082 A 
ATOM      7  C5  PXY d   1      -3.358   5.998   2.529  0.00  0.00     0.003 A 
ATOM      8  C6  PXY d   1      -2.434   5.986   3.571  0.00  0.00     0.003 A 
ENDROOT
TORSDOF 0
ENDMDL
