MODEL 1
REMARK minimizedAffinity 9.60102844
REMARK minimizedRMSD -1
REMARK  0 active torsions:
REMARK  status: ('A' for Active; 'I' for Inactive)
ROOT
ATOM      1  C4' PXY d   1      -2.923   5.770   5.996  0.00  0.00     0.077 C 
ATOM      2  C1' PXY d   1      -2.848   5.955   0.219  0.00  0.00     0.077 C 
ATOM      3  C1  PXY d   1      -2.880   5.911   1.734  0.00  0.00    -0.082 A 
ATOM      4  C2  PXY d   1      -1.747   5.982   2.415  0.00  0.00     0.003 A 
ATOM      5  C3  PXY d   1      -1.755   5.911   3.784  0.00  0.00     0.003 A 
ATOM      6  C4  PXY d   1      -2.939   5.820   4.466  0.00  0.00    -0.082 A 
ATOM      7  C5  PXY d   1      -4.099   5.758   3.780  0.00  0.00     0.003 A 
ATOM      8  C6  PXY d   1      -4.067   5.790   2.388  0.00  0.00     0.003 A 
ENDROOT
TORSDOF 0
ENDMDL
