MODEL 1
REMARK minimizedAffinity 10.7408466
REMARK minimizedRMSD -1
REMARK  0 active torsions:
REMARK  status: ('A' for Active; 'I' for Inactive)
ROOT
ATOM      1  C4' PXY d   1      -3.704   5.984   5.999  0.00  0.00     0.077 C 
ATOM      2  C1' PXY d   1      -2.863   5.982   0.280  0.00  0.00     0.077 C 
ATOM      3  C1  PXY d   1      -3.095   5.988   1.778  0.00  0.00    -0.082 A 
ATOM      4  C2  PXY d   1      -2.059   5.989   2.600  0.00  0.00     0.003 A 
ATOM      5  C3  PXY d   1      -2.251   5.962   3.958  0.00  0.00     0.003 A 
ATOM      6  C4  PXY d   1      -3.517   5.988   4.479  0.00  0.00    -0.082 A 
ATOM      7  C5  PXY d   1      -4.579   5.998   3.646  0.00  0.00     0.003 A 
ATOM      8  C6  PXY d   1      -4.363   5.984   2.271  0.00  0.00     0.003 A 
ENDROOT
TORSDOF 0
ENDMDL
