MODEL 1
REMARK minimizedAffinity 1.91802382
REMARK minimizedRMSD -1
REMARK  0 active torsions:
REMARK  status: ('A' for Active; 'I' for Inactive)
ROOT
ATOM      1  C4' PXY d   1      -5.802   5.996   1.501  0.00  0.00     0.077 C 
ATOM      2  C1' PXY d   1      -1.922   5.967   5.786  0.00  0.00     0.077 C 
ATOM      3  C1  PXY d   1      -2.931   5.979   4.654  0.00  0.00    -0.082 A 
ATOM      4  C2  PXY d   1      -4.224   6.000   4.931  0.00  0.00     0.003 A 
ATOM      5  C3  PXY d   1      -5.150   5.979   3.920  0.00  0.00     0.003 A 
ATOM      6  C4  PXY d   1      -4.748   5.992   2.611  0.00  0.00    -0.082 A 
ATOM      7  C5  PXY d   1      -3.429   5.982   2.321  0.00  0.00     0.003 A 
ATOM      8  C6  PXY d   1      -2.506   5.961   3.362  0.00  0.00     0.003 A 
ENDROOT
TORSDOF 0
ENDMDL
