MODEL 1
REMARK minimizedAffinity 6.24587727
REMARK minimizedRMSD -1
REMARK  0 active torsions:
REMARK  status: ('A' for Active; 'I' for Inactive)
ROOT
ATOM      1  C4' PXY d   1      -5.623   5.955   1.268  0.00  0.00     0.077 C 
ATOM      2  C1' PXY d   1      -2.184   5.996   5.914  0.00  0.00     0.077 C 
ATOM      3  C1  PXY d   1      -3.095   5.980   4.703  0.00  0.00    -0.082 A 
ATOM      4  C2  PXY d   1      -2.570   5.961   3.489  0.00  0.00     0.003 A 
ATOM      5  C3  PXY d   1      -3.379   5.979   2.382  0.00  0.00     0.003 A 
ATOM      6  C4  PXY d   1      -4.741   5.962   2.520  0.00  0.00    -0.082 A 
ATOM      7  C5  PXY d   1      -5.285   5.971   3.755  0.00  0.00     0.003 A 
ATOM      8  C6  PXY d   1      -4.446   5.994   4.865  0.00  0.00     0.003 A 
ENDROOT
TORSDOF 0
ENDMDL
