MODEL 1
REMARK minimizedAffinity 1.11070585
REMARK minimizedRMSD -1
REMARK  0 active torsions:
REMARK  status: ('A' for Active; 'I' for Inactive)
ROOT
ATOM      1  C4' PXY d   1      -5.969   5.979   1.468  0.00  0.00     0.077 C 
ATOM      2  C1' PXY d   1      -1.490   5.995   5.122  0.00  0.00     0.077 C 
ATOM      3  C1  PXY d   1      -2.672   5.985   4.173  0.00  0.00    -0.082 A 
ATOM      4  C2  PXY d   1      -2.462   5.971   2.867  0.00  0.00     0.003 A 
ATOM      5  C3  PXY d   1      -3.520   5.995   1.994  0.00  0.00     0.003 A 
ATOM      6  C4  PXY d   1      -4.806   5.979   2.464  0.00  0.00    -0.082 A 
ATOM      7  C5  PXY d   1      -5.028   5.982   3.795  0.00  0.00     0.003 A 
ATOM      8  C6  PXY d   1      -3.941   6.000   4.664  0.00  0.00     0.003 A 
ENDROOT
TORSDOF 0
ENDMDL
