MODEL 1
REMARK minimizedAffinity 5.02860785
REMARK minimizedRMSD -1
REMARK  0 active torsions:
REMARK  status: ('A' for Active; 'I' for Inactive)
ROOT
ATOM      1  C4' PXY d   1      -5.279   5.987   5.973  0.00  0.00     0.077 C 
ATOM      2  C1' PXY d   1      -2.276   5.943   1.033  0.00  0.00     0.077 C 
ATOM      3  C1  PXY d   1      -3.074   5.960   2.322  0.00  0.00    -0.082 A 
ATOM      4  C2  PXY d   1      -2.440   5.995   3.483  0.00  0.00     0.003 A 
ATOM      5  C3  PXY d   1      -3.145   5.978   4.659  0.00  0.00     0.003 A 
ATOM      6  C4  PXY d   1      -4.514   5.979   4.646  0.00  0.00    -0.082 A 
ATOM      7  C5  PXY d   1      -5.168   5.954   3.465  0.00  0.00     0.003 A 
ATOM      8  C6  PXY d   1      -4.434   5.930   2.283  0.00  0.00     0.003 A 
ENDROOT
TORSDOF 0
ENDMDL
