MODEL 1
REMARK minimizedAffinity 1.10630226
REMARK minimizedRMSD -1
REMARK  0 active torsions:
REMARK  status: ('A' for Active; 'I' for Inactive)
ROOT
ATOM      1  C4' PXY d   1      -2.147   5.930   5.931  0.00  0.00     0.077 C 
ATOM      2  C1' PXY d   1      -6.000   5.995   1.622  0.00  0.00     0.077 C 
ATOM      3  C1  PXY d   1      -4.998   5.984   2.760  0.00  0.00    -0.082 A 
ATOM      4  C2  PXY d   1      -3.703   5.953   2.491  0.00  0.00     0.003 A 
ATOM      5  C3  PXY d   1      -2.785   5.910   3.508  0.00  0.00     0.003 A 
ATOM      6  C4  PXY d   1      -3.194   5.952   4.814  0.00  0.00    -0.082 A 
ATOM      7  C5  PXY d   1      -4.514   5.995   5.096  0.00  0.00     0.003 A 
ATOM      8  C6  PXY d   1      -5.431   5.996   4.050  0.00  0.00     0.003 A 
ENDROOT
TORSDOF 0
ENDMDL
