MODEL 1
REMARK minimizedAffinity 4.66675472
REMARK minimizedRMSD -1
REMARK  0 active torsions:
REMARK  status: ('A' for Active; 'I' for Inactive)
ROOT
ATOM      1  C4' PXY d   1      -3.009   6.000   6.000  0.00  0.00     0.077 C 
ATOM      2  C1' PXY d   1      -3.705   3.616   0.780  0.00  0.00     0.077 C 
ATOM      3  C1  PXY d   1      -3.520   4.229   2.154  0.00  0.00    -0.082 A 
ATOM      4  C2  PXY d   1      -4.095   5.387   2.436  0.00  0.00     0.003 A 
ATOM      5  C3  PXY d   1      -3.912   5.972   3.663  0.00  0.00     0.003 A 
ATOM      6  C4  PXY d   1      -3.176   5.339   4.629  0.00  0.00    -0.082 A 
ATOM      7  C5  PXY d   1      -2.595   4.152   4.352  0.00  0.00     0.003 A 
ATOM      8  C6  PXY d   1      -2.759   3.596   3.087  0.00  0.00     0.003 A 
ENDROOT
TORSDOF 0
ENDMDL
