MODEL 1
REMARK minimizedAffinity 2.57108688
REMARK minimizedRMSD -1
REMARK  0 active torsions:
REMARK  status: ('A' for Active; 'I' for Inactive)
ROOT
ATOM      1  C4' PXY d   1      -1.822   5.828   1.706  0.00  0.00     0.077 C 
ATOM      2  C1' PXY d   1      -5.694   6.000   5.995  0.00  0.00     0.077 C 
ATOM      3  C1  PXY d   1      -4.687   5.948   4.863  0.00  0.00    -0.082 A 
ATOM      4  C2  PXY d   1      -3.393   5.998   5.135  0.00  0.00     0.003 A 
ATOM      5  C3  PXY d   1      -2.470   5.985   4.121  0.00  0.00     0.003 A 
ATOM      6  C4  PXY d   1      -2.874   5.867   2.818  0.00  0.00    -0.082 A 
ATOM      7  C5  PXY d   1      -4.192   5.805   2.533  0.00  0.00     0.003 A 
ATOM      8  C6  PXY d   1      -5.114   5.861   3.574  0.00  0.00     0.003 A 
ENDROOT
TORSDOF 0
ENDMDL
