MODEL 1
REMARK minimizedAffinity -3.32707953
REMARK minimizedRMSD -1
REMARK  1 active torsions:
REMARK  status: ('A' for Active; 'I' for Inactive)
REMARK    1  A    between atoms: N_2  and  C1_3 
ROOT
ATOM      1  C1  UNL d   1       0.915  -1.360   0.016  0.00  0.00     0.143 A 
ATOM      2  C2  UNL d   1       2.073  -1.207   0.787  0.00  0.00    -0.057 A 
ATOM      3  C3  UNL d   1       2.334  -0.017   1.477  0.00  0.00     0.033 A 
ATOM      4  C4  UNL d   1       1.452   1.055   1.385  0.00  0.00    -0.042 A 
ATOM      5  C5  UNL d   1       0.308   0.934   0.605  0.00  0.00     0.033 A 
ATOM      6  C6  UNL d   1       0.050  -0.259  -0.076  0.00  0.00    -0.057 A 
ENDROOT
BRANCH   1   7
ATOM      7  N   UNL d   1       0.648  -2.482  -0.773  0.00  0.00    -0.732 N 
ATOM      8  C   UNL d   1      -0.367  -2.434  -1.802  0.00  0.00     0.284 C 
ATOM      9  H3  UNL d   1       1.496  -2.974  -1.047  0.00  0.00     0.395 HD
ENDBRANCH   1   7
TORSDOF 1
ENDMDL
