MODEL 1
REMARK minimizedAffinity -4.78752756
REMARK minimizedRMSD -1
REMARK  1 active torsions:
REMARK  status: ('A' for Active; 'I' for Inactive)
REMARK    1  A    between atoms: N_2  and  C1_3 
ROOT
ATOM      1  C1  UNL d   1       0.369   0.011  -0.227  0.00  0.00     0.143 A 
ATOM      2  C2  UNL d   1       1.141   0.475   0.844  0.00  0.00    -0.057 A 
ATOM      3  C3  UNL d   1       2.273  -0.225   1.280  0.00  0.00     0.033 A 
ATOM      4  C4  UNL d   1       2.636  -1.421   0.669  0.00  0.00    -0.042 A 
ATOM      5  C5  UNL d   1       1.869  -1.914  -0.380  0.00  0.00     0.033 A 
ATOM      6  C6  UNL d   1       0.744  -1.207  -0.815  0.00  0.00    -0.057 A 
ENDROOT
BRANCH   1   7
ATOM      7  N   UNL d   1      -0.823   0.609  -0.643  0.00  0.00    -0.732 N 
ATOM      8  C   UNL d   1      -2.054   0.382   0.082  0.00  0.00     0.284 C 
ATOM      9  H3  UNL d   1      -0.689   1.572  -0.944  0.00  0.00     0.395 HD
ENDBRANCH   1   7
TORSDOF 1
ENDMDL
