MODEL 1
REMARK minimizedAffinity -1.92861092
REMARK minimizedRMSD -1
REMARK  0 active torsions:
REMARK  status: ('A' for Active; 'I' for Inactive)
ROOT
ATOM      1  C   UNL d   1      -1.069   1.394   1.052  0.00  0.00     0.077 C 
ATOM      2  C1  UNL d   1      -0.161   0.868  -0.019  0.00  0.00    -0.074 A 
ATOM      3  C2  UNL d   1       0.567   1.739  -0.836  0.00  0.00    -0.005 A 
ATOM      4  C3  UNL d   1       1.415   1.235  -1.822  0.00  0.00     0.006 A 
ATOM      5  C4  UNL d   1       1.545  -0.143  -2.000  0.00  0.00    -0.005 A 
ATOM      6  C5  UNL d   1       0.826  -1.030  -1.192  0.00  0.00    -0.074 A 
ATOM      7  C6  UNL d   1       0.961  -2.513  -1.364  0.00  0.00     0.077 C 
ATOM      8  C7  UNL d   1      -0.019  -0.515  -0.199  0.00  0.00    -0.001 A 
ENDROOT
TORSDOF 0
ENDMDL
