MODEL 1
REMARK minimizedAffinity -3.32901978
REMARK minimizedRMSD -1
REMARK  0 active torsions:
REMARK  status: ('A' for Active; 'I' for Inactive)
ROOT
ATOM      1  C   UNL d   1       0.272  -1.015   1.685  0.00  0.00     0.077 C 
ATOM      2  C1  UNL d   1      -0.500   0.226   1.348  0.00  0.00    -0.074 A 
ATOM      3  C2  UNL d   1      -1.115   0.984   2.349  0.00  0.00    -0.005 A 
ATOM      4  C3  UNL d   1      -1.821   2.142   2.021  0.00  0.00     0.006 A 
ATOM      5  C4  UNL d   1      -1.919   2.552   0.691  0.00  0.00    -0.005 A 
ATOM      6  C5  UNL d   1      -1.310   1.807  -0.323  0.00  0.00    -0.074 A 
ATOM      7  C6  UNL d   1      -1.397   2.240  -1.757  0.00  0.00     0.077 C 
ATOM      8  C7  UNL d   1      -0.596   0.649   0.015  0.00  0.00    -0.001 A 
ENDROOT
TORSDOF 0
ENDMDL
