MODEL 1
REMARK minimizedAffinity -1.9387548
REMARK minimizedRMSD -1
REMARK  0 active torsions:
REMARK  status: ('A' for Active; 'I' for Inactive)
ROOT
ATOM      1  C   UNL d   1       0.953  -0.750  -1.383  0.00  0.00     0.077 C 
ATOM      2  C1  UNL d   1       0.236  -0.430  -0.105  0.00  0.00    -0.074 A 
ATOM      3  C2  UNL d   1       0.432  -1.205   1.042  0.00  0.00    -0.005 A 
ATOM      4  C3  UNL d   1      -0.234  -0.889   2.226  0.00  0.00     0.006 A 
ATOM      5  C4  UNL d   1      -1.101   0.203   2.275  0.00  0.00    -0.005 A 
ATOM      6  C5  UNL d   1      -1.309   0.990   1.137  0.00  0.00    -0.074 A 
ATOM      7  C6  UNL d   1      -2.230   2.174   1.175  0.00  0.00     0.077 C 
ATOM      8  C7  UNL d   1      -0.630   0.671  -0.047  0.00  0.00    -0.001 A 
ENDROOT
TORSDOF 0
ENDMDL
