MODEL 1
REMARK minimizedAffinity -5.64165306
REMARK minimizedRMSD -1
REMARK  0 active torsions:
REMARK  status: ('A' for Active; 'I' for Inactive)
ROOT
ATOM      1  C   UNL d   1      -1.190   3.925  -0.793  0.00  0.00     0.077 C 
ATOM      2  C1  UNL d   1      -1.009   2.605  -0.102  0.00  0.00    -0.074 A 
ATOM      3  C2  UNL d   1      -1.426   2.423   1.220  0.00  0.00    -0.005 A 
ATOM      4  C3  UNL d   1      -1.260   1.188   1.846  0.00  0.00     0.006 A 
ATOM      5  C4  UNL d   1      -0.676   0.124   1.157  0.00  0.00    -0.005 A 
ATOM      6  C5  UNL d   1      -0.253   0.287  -0.166  0.00  0.00    -0.074 A 
ATOM      7  C6  UNL d   1       0.367  -0.848  -0.924  0.00  0.00     0.077 C 
ATOM      8  C7  UNL d   1      -0.430   1.530  -0.790  0.00  0.00    -0.001 A 
ENDROOT
TORSDOF 0
ENDMDL
