MODEL 1
REMARK minimizedAffinity -4.41061449
REMARK minimizedRMSD -1
REMARK  0 active torsions:
REMARK  status: ('A' for Active; 'I' for Inactive)
ROOT
ATOM      1  C   UNL d   1      -2.240   2.209   0.969  0.00  0.00     0.077 C 
ATOM      2  C1  UNL d   1      -1.107   1.763   0.093  0.00  0.00    -0.074 A 
ATOM      3  C2  UNL d   1      -0.487   2.654  -0.790  0.00  0.00    -0.005 A 
ATOM      4  C3  UNL d   1       0.572   2.228  -1.591  0.00  0.00     0.006 A 
ATOM      5  C4  UNL d   1       1.021   0.909  -1.518  0.00  0.00    -0.005 A 
ATOM      6  C5  UNL d   1       0.415   0.004  -0.641  0.00  0.00    -0.074 A 
ATOM      7  C6  UNL d   1       0.893  -1.414  -0.543  0.00  0.00     0.077 C 
ATOM      8  C7  UNL d   1      -0.644   0.442   0.166  0.00  0.00    -0.001 A 
ENDROOT
TORSDOF 0
ENDMDL
