MODEL 1
REMARK minimizedAffinity -4.4569459
REMARK minimizedRMSD -1
REMARK  0 active torsions:
REMARK  status: ('A' for Active; 'I' for Inactive)
ROOT
ATOM      1  C   UNL d   1      -2.378   3.034   0.947  0.00  0.00     0.077 C 
ATOM      2  C1  UNL d   1      -1.342   2.086   0.421  0.00  0.00    -0.074 A 
ATOM      3  C2  UNL d   1      -0.704   2.324  -0.801  0.00  0.00    -0.005 A 
ATOM      4  C3  UNL d   1       0.264   1.438  -1.273  0.00  0.00     0.006 A 
ATOM      5  C4  UNL d   1       0.604   0.307  -0.529  0.00  0.00    -0.005 A 
ATOM      6  C5  UNL d   1      -0.022   0.053   0.695  0.00  0.00    -0.074 A 
ATOM      7  C6  UNL d   1       0.339  -1.152   1.512  0.00  0.00     0.077 C 
ATOM      8  C7  UNL d   1      -0.989   0.952   1.166  0.00  0.00    -0.001 A 
ENDROOT
TORSDOF 0
ENDMDL
