MODEL 1
REMARK minimizedAffinity -3.57169771
REMARK minimizedRMSD -1
REMARK  0 active torsions:
REMARK  status: ('A' for Active; 'I' for Inactive)
ROOT
ATOM      1  C   UNL d   1       0.225  -2.043   2.309  0.00  0.00     0.077 C 
ATOM      2  C1  UNL d   1      -0.032  -0.884   1.392  0.00  0.00    -0.074 A 
ATOM      3  C2  UNL d   1       0.613  -0.789   0.155  0.00  0.00    -0.005 A 
ATOM      4  C3  UNL d   1       0.356   0.290  -0.691  0.00  0.00     0.006 A 
ATOM      5  C4  UNL d   1      -0.546   1.283  -0.309  0.00  0.00    -0.005 A 
ATOM      6  C5  UNL d   1      -1.200   1.205   0.924  0.00  0.00    -0.074 A 
ATOM      7  C6  UNL d   1      -2.180   2.260   1.346  0.00  0.00     0.077 C 
ATOM      8  C7  UNL d   1      -0.943   0.115   1.766  0.00  0.00    -0.001 A 
ENDROOT
TORSDOF 0
ENDMDL
