MODEL 1
REMARK minimizedAffinity -5.70037651
REMARK minimizedRMSD -1
REMARK  0 active torsions:
REMARK  status: ('A' for Active; 'I' for Inactive)
ROOT
ATOM      1  C   UNL d   1      -1.895   2.270   1.187  0.00  0.00     0.077 C 
ATOM      2  C1  UNL d   1      -1.058   1.032   1.063  0.00  0.00    -0.074 A 
ATOM      3  C2  UNL d   1      -0.548   0.392   2.198  0.00  0.00    -0.005 A 
ATOM      4  C3  UNL d   1       0.221  -0.764   2.067  0.00  0.00     0.006 A 
ATOM      5  C4  UNL d   1       0.489  -1.291   0.804  0.00  0.00    -0.005 A 
ATOM      6  C5  UNL d   1      -0.013  -0.666  -0.342  0.00  0.00    -0.074 A 
ATOM      7  C6  UNL d   1       0.257  -1.225  -1.708  0.00  0.00     0.077 C 
ATOM      8  C7  UNL d   1      -0.791   0.492  -0.203  0.00  0.00    -0.001 A 
ENDROOT
TORSDOF 0
ENDMDL
