MODEL 1
REMARK minimizedAffinity -2.36301541
REMARK minimizedRMSD -1
REMARK  0 active torsions:
REMARK  status: ('A' for Active; 'I' for Inactive)
ROOT
ATOM      1  C   UNL d   1       1.644   1.537  -2.113  0.00  0.00     0.077 C 
ATOM      2  C1  UNL d   1       0.864   1.123  -0.901  0.00  0.00    -0.074 A 
ATOM      3  C2  UNL d   1       0.964  -0.176  -0.391  0.00  0.00    -0.005 A 
ATOM      4  C3  UNL d   1       0.240  -0.544   0.743  0.00  0.00     0.006 A 
ATOM      5  C4  UNL d   1      -0.590   0.381   1.377  0.00  0.00    -0.005 A 
ATOM      6  C5  UNL d   1      -0.702   1.684   0.883  0.00  0.00    -0.074 A 
ATOM      7  C6  UNL d   1      -1.583   2.694   1.558  0.00  0.00     0.077 C 
ATOM      8  C7  UNL d   1       0.034   2.049  -0.253  0.00  0.00    -0.001 A 
ENDROOT
TORSDOF 0
ENDMDL
