MODEL 1
REMARK minimizedAffinity -4.56182003
REMARK minimizedRMSD -1
REMARK  0 active torsions:
REMARK  status: ('A' for Active; 'I' for Inactive)
ROOT
ATOM      1  C   UNL d   1      -1.810   3.417   1.135  0.00  0.00     0.077 C 
ATOM      2  C1  UNL d   1      -0.918   2.417   0.460  0.00  0.00    -0.074 A 
ATOM      3  C2  UNL d   1      -0.278   2.722  -0.745  0.00  0.00    -0.005 A 
ATOM      4  C3  UNL d   1       0.556   1.786  -1.356  0.00  0.00     0.006 A 
ATOM      5  C4  UNL d   1       0.758   0.536  -0.768  0.00  0.00    -0.005 A 
ATOM      6  C5  UNL d   1       0.127   0.213   0.437  0.00  0.00    -0.074 A 
ATOM      7  C6  UNL d   1       0.341  -1.122   1.087  0.00  0.00     0.077 C 
ATOM      8  C7  UNL d   1      -0.704   1.162   1.048  0.00  0.00    -0.001 A 
ENDROOT
TORSDOF 0
ENDMDL
