MODEL 1
REMARK minimizedAffinity -5.61642122
REMARK minimizedRMSD -1
REMARK  0 active torsions:
REMARK  status: ('A' for Active; 'I' for Inactive)
ROOT
ATOM      1  C   UNL d   1       0.294  -0.964   1.507  0.00  0.00     0.077 C 
ATOM      2  C1  UNL d   1      -0.269   0.382   1.158  0.00  0.00    -0.074 A 
ATOM      3  C2  UNL d   1      -1.192   1.015   1.997  0.00  0.00    -0.005 A 
ATOM      4  C3  UNL d   1      -1.699   2.271   1.663  0.00  0.00     0.006 A 
ATOM      5  C4  UNL d   1      -1.291   2.905   0.489  0.00  0.00    -0.005 A 
ATOM      6  C5  UNL d   1      -0.369   2.287  -0.362  0.00  0.00    -0.074 A 
ATOM      7  C6  UNL d   1       0.088   2.959  -1.622  0.00  0.00     0.077 C 
ATOM      8  C7  UNL d   1       0.142   1.029  -0.016  0.00  0.00    -0.001 A 
ENDROOT
TORSDOF 0
ENDMDL
