MODEL 1
REMARK minimizedAffinity -5.11688757
REMARK minimizedRMSD -1
REMARK  0 active torsions:
REMARK  status: ('A' for Active; 'I' for Inactive)
ROOT
ATOM      1  C   UNL d   1       1.047  -1.143  -0.955  0.00  0.00     0.077 C 
ATOM      2  C1  UNL d   1       0.203  -0.299  -0.047  0.00  0.00    -0.074 A 
ATOM      3  C2  UNL d   1      -0.293  -0.812   1.156  0.00  0.00    -0.005 A 
ATOM      4  C3  UNL d   1      -1.068  -0.011   1.995  0.00  0.00     0.006 A 
ATOM      5  C4  UNL d   1      -1.355   1.307   1.641  0.00  0.00    -0.005 A 
ATOM      6  C5  UNL d   1      -0.867   1.838   0.442  0.00  0.00    -0.074 A 
ATOM      7  C6  UNL d   1      -1.158   3.256   0.051  0.00  0.00     0.077 C 
ATOM      8  C7  UNL d   1      -0.083   1.030  -0.393  0.00  0.00    -0.001 A 
ENDROOT
TORSDOF 0
ENDMDL
