MODEL 1
REMARK minimizedAffinity -3.31451368
REMARK minimizedRMSD -1
REMARK  0 active torsions:
REMARK  status: ('A' for Active; 'I' for Inactive)
ROOT
ATOM      1  C   UNL d   1       1.373  -0.057  -1.170  0.00  0.00     0.077 C 
ATOM      2  C1  UNL d   1       0.242   0.366  -0.280  0.00  0.00    -0.074 A 
ATOM      3  C2  UNL d   1      -0.746   1.243  -0.739  0.00  0.00    -0.005 A 
ATOM      4  C3  UNL d   1      -1.797   1.619   0.097  0.00  0.00     0.006 A 
ATOM      5  C4  UNL d   1      -1.871   1.124   1.399  0.00  0.00    -0.005 A 
ATOM      6  C5  UNL d   1      -0.893   0.245   1.876  0.00  0.00    -0.074 A 
ATOM      7  C6  UNL d   1      -0.963  -0.305   3.270  0.00  0.00     0.077 C 
ATOM      8  C7  UNL d   1       0.156  -0.134   1.027  0.00  0.00    -0.001 A 
ENDROOT
TORSDOF 0
ENDMDL
