MODEL 1
REMARK minimizedAffinity -5.07868862
REMARK minimizedRMSD -1
REMARK  0 active torsions:
REMARK  status: ('A' for Active; 'I' for Inactive)
ROOT
ATOM      1  C   UNL d   1       1.089  -0.829  -0.852  0.00  0.00     0.077 C 
ATOM      2  C1  UNL d   1       0.430   0.502  -0.642  0.00  0.00    -0.074 A 
ATOM      3  C2  UNL d   1       0.823   1.622  -1.381  0.00  0.00    -0.005 A 
ATOM      4  C3  UNL d   1       0.194   2.851  -1.182  0.00  0.00     0.006 A 
ATOM      5  C4  UNL d   1      -0.832   2.972  -0.244  0.00  0.00    -0.005 A 
ATOM      6  C5  UNL d   1      -1.238   1.862   0.503  0.00  0.00    -0.074 A 
ATOM      7  C6  UNL d   1      -2.346   1.973   1.509  0.00  0.00     0.077 C 
ATOM      8  C7  UNL d   1      -0.607   0.629   0.293  0.00  0.00    -0.001 A 
ENDROOT
TORSDOF 0
ENDMDL
