MODEL 1
REMARK minimizedAffinity -4.55737972
REMARK minimizedRMSD -1
REMARK  0 active torsions:
REMARK  status: ('A' for Active; 'I' for Inactive)
ROOT
ATOM      1  C   UNL d   1       1.011  -1.344  -0.196  0.00  0.00     0.077 C 
ATOM      2  C1  UNL d   1       0.191  -0.208   0.339  0.00  0.00    -0.074 A 
ATOM      3  C2  UNL d   1      -0.496  -0.327   1.552  0.00  0.00    -0.005 A 
ATOM      4  C3  UNL d   1      -1.247   0.742   2.042  0.00  0.00     0.006 A 
ATOM      5  C4  UNL d   1      -1.319   1.937   1.326  0.00  0.00    -0.005 A 
ATOM      6  C5  UNL d   1      -0.638   2.074   0.112  0.00  0.00    -0.074 A 
ATOM      7  C6  UNL d   1      -0.697   3.356  -0.665  0.00  0.00     0.077 C 
ATOM      8  C7  UNL d   1       0.120   0.999  -0.370  0.00  0.00    -0.001 A 
ENDROOT
TORSDOF 0
ENDMDL
