MODEL 1
REMARK minimizedAffinity -5.75872183
REMARK minimizedRMSD -1
REMARK  0 active torsions:
REMARK  status: ('A' for Active; 'I' for Inactive)
ROOT
ATOM      1  C   UNL d   1      -2.272   1.997   2.021  0.00  0.00     0.077 C 
ATOM      2  C1  UNL d   1      -1.283   1.883   0.898  0.00  0.00    -0.074 A 
ATOM      3  C2  UNL d   1      -0.854   3.017   0.201  0.00  0.00    -0.005 A 
ATOM      4  C3  UNL d   1       0.073   2.896  -0.834  0.00  0.00     0.006 A 
ATOM      5  C4  UNL d   1       0.580   1.643  -1.182  0.00  0.00    -0.005 A 
ATOM      6  C5  UNL d   1       0.163   0.499  -0.494  0.00  0.00    -0.074 A 
ATOM      7  C6  UNL d   1       0.706  -0.854  -0.848  0.00  0.00     0.077 C 
ATOM      8  C7  UNL d   1      -0.763   0.629   0.549  0.00  0.00    -0.001 A 
ENDROOT
TORSDOF 0
ENDMDL
