MODEL 1
REMARK minimizedAffinity -3.08892584
REMARK minimizedRMSD -1
REMARK  0 active torsions:
REMARK  status: ('A' for Active; 'I' for Inactive)
ROOT
ATOM      1  C1  DEN d   1      -1.352   0.395   0.770  0.00  0.00     0.130 A 
ATOM      2  C2  DEN d   1      -0.320   1.404   0.542  0.00  0.00    -0.031 A 
ATOM      3  C3  DEN d   1       0.923   0.706   0.155  0.00  0.00     0.027 A 
ATOM      4  C4  DEN d   1       1.346  -1.824  -0.117  0.00  0.00     0.027 A 
ATOM      5  C5  DEN d   1       0.776  -3.074  -0.020  0.00  0.00    -0.003 A 
ATOM      6  C6  DEN d   1      -0.522  -3.256   0.376  0.00  0.00     0.001 A 
ATOM      7  C7  DEN d   1      -1.308  -2.167   0.647  0.00  0.00     0.017 A 
ATOM      8  C8  DEN d   1      -0.739  -0.904   0.559  0.00  0.00    -0.094 A 
ATOM      9  C9  DEN d   1       0.572  -0.740   0.145  0.00  0.00    -0.072 A 
ENDROOT
TORSDOF 0
ENDMDL
