MODEL 1
REMARK minimizedAffinity -4.90753365
REMARK minimizedRMSD -1
REMARK  0 active torsions:
REMARK  status: ('A' for Active; 'I' for Inactive)
ROOT
ATOM      1  C1  DEN d   1       0.083  -2.689   0.930  0.00  0.00     0.130 A 
ATOM      2  C2  DEN d   1       0.693  -3.276  -0.260  0.00  0.00    -0.031 A 
ATOM      3  C3  DEN d   1       0.965  -2.187  -1.218  0.00  0.00     0.027 A 
ATOM      4  C4  DEN d   1       0.508   0.340  -0.976  0.00  0.00     0.027 A 
ATOM      5  C5  DEN d   1      -0.008   1.313  -0.148  0.00  0.00    -0.003 A 
ATOM      6  C6  DEN d   1      -0.555   1.019   1.072  0.00  0.00     0.001 A 
ATOM      7  C7  DEN d   1      -0.560  -0.276   1.520  0.00  0.00     0.017 A 
ATOM      8  C8  DEN d   1      -0.048  -1.264   0.688  0.00  0.00    -0.094 A 
ATOM      9  C9  DEN d   1       0.512  -0.944  -0.537  0.00  0.00    -0.072 A 
ENDROOT
TORSDOF 0
ENDMDL
