MODEL 1
REMARK minimizedAffinity -3.81330895
REMARK minimizedRMSD -1
REMARK  0 active torsions:
REMARK  status: ('A' for Active; 'I' for Inactive)
ROOT
ATOM      1  C1  DEN d   1       1.086  -2.337  -0.452  0.00  0.00     0.130 A 
ATOM      2  C2  DEN d   1      -0.029  -3.250  -0.221  0.00  0.00    -0.031 A 
ATOM      3  C3  DEN d   1      -1.178  -2.455   0.257  0.00  0.00     0.027 A 
ATOM      4  C4  DEN d   1      -1.338   0.089   0.654  0.00  0.00     0.027 A 
ATOM      5  C5  DEN d   1      -0.645   1.278   0.607  0.00  0.00    -0.003 A 
ATOM      6  C6  DEN d   1       0.673   1.341   0.240  0.00  0.00     0.001 A 
ATOM      7  C7  DEN d   1       1.327   0.198  -0.139  0.00  0.00     0.017 A 
ATOM      8  C8  DEN d   1       0.637  -1.006  -0.088  0.00  0.00    -0.094 A 
ATOM      9  C9  DEN d   1      -0.699  -1.047   0.275  0.00  0.00    -0.072 A 
ENDROOT
TORSDOF 0
ENDMDL
