MODEL 1
REMARK minimizedAffinity -4.90523386
REMARK minimizedRMSD -1
REMARK  0 active torsions:
REMARK  status: ('A' for Active; 'I' for Inactive)
ROOT
ATOM      1  C1  DEN d   1       1.543   1.027  -0.041  0.00  0.00     0.130 A 
ATOM      2  C2  DEN d   1       0.658   2.159   0.220  0.00  0.00    -0.031 A 
ATOM      3  C3  DEN d   1      -0.661   1.627   0.617  0.00  0.00     0.027 A 
ATOM      4  C4  DEN d   1      -1.414  -0.828   0.856  0.00  0.00     0.027 A 
ATOM      5  C5  DEN d   1      -1.017  -2.141   0.731  0.00  0.00    -0.003 A 
ATOM      6  C6  DEN d   1       0.240  -2.488   0.311  0.00  0.00     0.001 A 
ATOM      7  C7  DEN d   1       1.160  -1.509   0.043  0.00  0.00     0.017 A 
ATOM      8  C8  DEN d   1       0.765  -0.182   0.160  0.00  0.00    -0.094 A 
ATOM      9  C9  DEN d   1      -0.506   0.147   0.599  0.00  0.00    -0.072 A 
ENDROOT
TORSDOF 0
ENDMDL
