MODEL 1
REMARK minimizedAffinity -0.168100119
REMARK minimizedRMSD -1
REMARK  0 active torsions:
REMARK  status: ('A' for Active; 'I' for Inactive)
ROOT
ATOM      1  C1  DEN d   1      -0.119   1.349   1.209  0.00  0.00     0.130 A 
ATOM      2  C2  DEN d   1       0.417   2.337   0.277  0.00  0.00    -0.031 A 
ATOM      3  C3  DEN d   1       0.926   1.618  -0.908  0.00  0.00     0.027 A 
ATOM      4  C4  DEN d   1       0.930  -0.916  -1.391  0.00  0.00     0.027 A 
ATOM      5  C5  DEN d   1       0.592  -2.154  -0.891  0.00  0.00    -0.003 A 
ATOM      6  C6  DEN d   1       0.029  -2.313   0.347  0.00  0.00     0.001 A 
ATOM      7  C7  DEN d   1      -0.255  -1.212   1.110  0.00  0.00     0.017 A 
ATOM      8  C8  DEN d   1       0.090   0.040   0.617  0.00  0.00    -0.094 A 
ATOM      9  C9  DEN d   1       0.647   0.181  -0.643  0.00  0.00    -0.072 A 
ENDROOT
TORSDOF 0
ENDMDL
