MODEL 1
REMARK minimizedAffinity -3.45743012
REMARK minimizedRMSD -1
REMARK  0 active torsions:
REMARK  status: ('A' for Active; 'I' for Inactive)
ROOT
ATOM      1  C1  DEN d   1      -1.465   0.105   0.405  0.00  0.00     0.130 A 
ATOM      2  C2  DEN d   1      -0.586   1.232   0.106  0.00  0.00    -0.031 A 
ATOM      3  C3  DEN d   1       0.768   0.700  -0.147  0.00  0.00     0.027 A 
ATOM      4  C4  DEN d   1       1.584  -1.747  -0.109  0.00  0.00     0.027 A 
ATOM      5  C5  DEN d   1       1.204  -3.053   0.107  0.00  0.00    -0.003 A 
ATOM      6  C6  DEN d   1      -0.073  -3.393   0.468  0.00  0.00     0.001 A 
ATOM      7  C7  DEN d   1      -1.028  -2.418   0.580  0.00  0.00     0.017 A 
ATOM      8  C8  DEN d   1      -0.652  -1.097   0.371  0.00  0.00    -0.094 A 
ATOM      9  C9  DEN d   1       0.641  -0.776  -0.005  0.00  0.00    -0.072 A 
ENDROOT
TORSDOF 0
ENDMDL
