MODEL 1
REMARK minimizedAffinity -4.82460928
REMARK minimizedRMSD -1
REMARK  0 active torsions:
REMARK  status: ('A' for Active; 'I' for Inactive)
ROOT
ATOM      1  C1  DEN d   1       0.037   0.546  -0.765  0.00  0.00     0.130 A 
ATOM      2  C2  DEN d   1      -0.535   0.524   0.579  0.00  0.00    -0.031 A 
ATOM      3  C3  DEN d   1      -0.736  -0.887   0.966  0.00  0.00     0.027 A 
ATOM      4  C4  DEN d   1      -0.215  -3.028  -0.374  0.00  0.00     0.027 A 
ATOM      5  C5  DEN d   1       0.269  -3.514  -1.569  0.00  0.00    -0.003 A 
ATOM      6  C6  DEN d   1       0.674  -2.688  -2.583  0.00  0.00     0.001 A 
ATOM      7  C7  DEN d   1       0.645  -1.330  -2.406  0.00  0.00     0.017 A 
ATOM      8  C8  DEN d   1       0.152  -0.832  -1.207  0.00  0.00    -0.094 A 
ATOM      9  C9  DEN d   1      -0.242  -1.684  -0.189  0.00  0.00    -0.072 A 
ENDROOT
TORSDOF 0
ENDMDL
