MODEL 1
REMARK minimizedAffinity -1.51178336
REMARK minimizedRMSD -1
REMARK  0 active torsions:
REMARK  status: ('A' for Active; 'I' for Inactive)
ROOT
ATOM      1  C1  DEN d   1       1.287   1.052  -1.509  0.00  0.00     0.130 A 
ATOM      2  C2  DEN d   1       0.019   0.538  -0.998  0.00  0.00    -0.031 A 
ATOM      3  C3  DEN d   1      -0.493   1.498   0.001  0.00  0.00     0.027 A 
ATOM      4  C4  DEN d   1       0.546   3.719   0.798  0.00  0.00     0.027 A 
ATOM      5  C5  DEN d   1       1.622   4.569   0.661  0.00  0.00    -0.003 A 
ATOM      6  C6  DEN d   1       2.669   4.291  -0.177  0.00  0.00     0.001 A 
ATOM      7  C7  DEN d   1       2.642   3.156  -0.945  0.00  0.00     0.017 A 
ATOM      8  C8  DEN d   1       1.564   2.292  -0.806  0.00  0.00    -0.094 A 
ATOM      9  C9  DEN d   1       0.509   2.596   0.037  0.00  0.00    -0.072 A 
ENDROOT
TORSDOF 0
ENDMDL
