MODEL 1
REMARK minimizedAffinity -3.36697745
REMARK minimizedRMSD -1
REMARK  0 active torsions:
REMARK  status: ('A' for Active; 'I' for Inactive)
ROOT
ATOM      1  C1  DEN d   1       1.599   0.602   0.168  0.00  0.00     0.130 A 
ATOM      2  C2  DEN d   1       0.723   1.728  -0.144  0.00  0.00    -0.031 A 
ATOM      3  C3  DEN d   1      -0.673   1.251  -0.084  0.00  0.00     0.027 A 
ATOM      4  C4  DEN d   1      -1.559  -1.109   0.464  0.00  0.00     0.027 A 
ATOM      5  C5  DEN d   1      -1.195  -2.398   0.784  0.00  0.00    -0.003 A 
ATOM      6  C6  DEN d   1       0.116  -2.783   0.887  0.00  0.00     0.001 A 
ATOM      7  C7  DEN d   1       1.111  -1.857   0.712  0.00  0.00     0.017 A 
ATOM      8  C8  DEN d   1       0.751  -0.557   0.382  0.00  0.00    -0.094 A 
ATOM      9  C9  DEN d   1      -0.579  -0.185   0.295  0.00  0.00    -0.072 A 
ENDROOT
TORSDOF 0
ENDMDL
