MODEL 1
REMARK minimizedAffinity -2.87497187
REMARK minimizedRMSD -1
REMARK  0 active torsions:
REMARK  status: ('A' for Active; 'I' for Inactive)
ROOT
ATOM      1  C1  DEN d   1       1.791   0.743   0.220  0.00  0.00     0.130 A 
ATOM      2  C2  DEN d   1       1.033   1.746  -0.524  0.00  0.00    -0.031 A 
ATOM      3  C3  DEN d   1      -0.319   1.206  -0.771  0.00  0.00     0.027 A 
ATOM      4  C4  DEN d   1      -1.309  -1.071  -0.072  0.00  0.00     0.027 A 
ATOM      5  C5  DEN d   1      -1.043  -2.263   0.566  0.00  0.00    -0.003 A 
ATOM      6  C6  DEN d   1       0.186  -2.547   1.099  0.00  0.00     0.001 A 
ATOM      7  C7  DEN d   1       1.183  -1.610   1.043  0.00  0.00     0.017 A 
ATOM      8  C8  DEN d   1       0.925  -0.409   0.395  0.00  0.00    -0.094 A 
ATOM      9  C9  DEN d   1      -0.328  -0.135  -0.126  0.00  0.00    -0.072 A 
ENDROOT
TORSDOF 0
ENDMDL
