MODEL 1
REMARK minimizedAffinity -4.32504845
REMARK minimizedRMSD -1
REMARK  0 active torsions:
REMARK  status: ('A' for Active; 'I' for Inactive)
ROOT
ATOM      1  C1  DEN d   1      -0.284  -1.642   1.288  0.00  0.00     0.130 A 
ATOM      2  C2  DEN d   1       0.047  -3.004   0.878  0.00  0.00    -0.031 A 
ATOM      3  C3  DEN d   1       0.410  -2.975  -0.553  0.00  0.00     0.027 A 
ATOM      4  C4  DEN d   1       0.498  -0.964  -2.164  0.00  0.00     0.027 A 
ATOM      5  C5  DEN d   1       0.292   0.393  -2.278  0.00  0.00    -0.003 A 
ATOM      6  C6  DEN d   1      -0.150   1.155  -1.229  0.00  0.00     0.001 A 
ATOM      7  C7  DEN d   1      -0.357   0.572  -0.007  0.00  0.00     0.017 A 
ATOM      8  C8  DEN d   1      -0.158  -0.797   0.114  0.00  0.00    -0.094 A 
ATOM      9  C9  DEN d   1       0.300  -1.547  -0.955  0.00  0.00    -0.072 A 
ENDROOT
TORSDOF 0
ENDMDL
