MODEL 1
REMARK minimizedAffinity -1.52108455
REMARK minimizedRMSD -1
REMARK  0 active torsions:
REMARK  status: ('A' for Active; 'I' for Inactive)
ROOT
ATOM      1  C1  DEN d   1      -0.421   0.516   0.106  0.00  0.00     0.130 A 
ATOM      2  C2  DEN d   1       0.993   0.819  -0.097  0.00  0.00    -0.031 A 
ATOM      3  C3  DEN d   1       1.738  -0.456  -0.092  0.00  0.00     0.027 A 
ATOM      4  C4  DEN d   1       0.843  -2.857   0.204  0.00  0.00     0.027 A 
ATOM      5  C5  DEN d   1      -0.286  -3.616   0.417  0.00  0.00    -0.003 A 
ATOM      6  C6  DEN d   1      -1.525  -3.053   0.574  0.00  0.00     0.001 A 
ATOM      7  C7  DEN d   1      -1.671  -1.694   0.475  0.00  0.00     0.017 A 
ATOM      8  C8  DEN d   1      -0.535  -0.922   0.268  0.00  0.00    -0.094 A 
ATOM      9  C9  DEN d   1       0.707  -1.511   0.099  0.00  0.00    -0.072 A 
ENDROOT
TORSDOF 0
ENDMDL
