MODEL 1
REMARK minimizedAffinity -2.41700649
REMARK minimizedRMSD -1
REMARK  0 active torsions:
REMARK  status: ('A' for Active; 'I' for Inactive)
ROOT
ATOM      1  C1  DEN d   1       1.179  -2.667  -0.016  0.00  0.00     0.130 A 
ATOM      2  C2  DEN d   1       0.067  -3.503   0.429  0.00  0.00    -0.031 A 
ATOM      3  C3  DEN d   1      -1.090  -2.624   0.690  0.00  0.00     0.027 A 
ATOM      4  C4  DEN d   1      -1.268  -0.062   0.444  0.00  0.00     0.027 A 
ATOM      5  C5  DEN d   1      -0.582   1.084   0.108  0.00  0.00    -0.003 A 
ATOM      6  C6  DEN d   1       0.738   1.064  -0.257  0.00  0.00     0.001 A 
ATOM      7  C7  DEN d   1       1.402  -0.132  -0.338  0.00  0.00     0.017 A 
ATOM      8  C8  DEN d   1       0.719  -1.291   0.006  0.00  0.00    -0.094 A 
ATOM      9  C9  DEN d   1      -0.619  -1.251   0.361  0.00  0.00    -0.072 A 
ENDROOT
TORSDOF 0
ENDMDL
