MODEL 1
REMARK minimizedAffinity -5.18900204
REMARK minimizedRMSD -1
REMARK  0 active torsions:
REMARK  status: ('A' for Active; 'I' for Inactive)
ROOT
ATOM      1  C1  DEN d   1      -0.734   1.756   0.890  0.00  0.00     0.130 A 
ATOM      2  C2  DEN d   1       0.175   2.307  -0.112  0.00  0.00    -0.031 A 
ATOM      3  C3  DEN d   1       0.813   1.178  -0.819  0.00  0.00     0.027 A 
ATOM      4  C4  DEN d   1       0.481  -1.355  -0.464  0.00  0.00     0.027 A 
ATOM      5  C5  DEN d   1      -0.180  -2.307   0.281  0.00  0.00    -0.003 A 
ATOM      6  C6  DEN d   1      -1.038  -1.975   1.295  0.00  0.00     0.001 A 
ATOM      7  C7  DEN d   1      -1.294  -0.656   1.563  0.00  0.00     0.017 A 
ATOM      8  C8  DEN d   1      -0.626   0.310   0.821  0.00  0.00    -0.094 A 
ATOM      9  C9  DEN d   1       0.229  -0.046  -0.208  0.00  0.00    -0.072 A 
ENDROOT
TORSDOF 0
ENDMDL
