MODEL 1
REMARK minimizedAffinity 7.00646544
REMARK minimizedRMSD -1
REMARK  0 active torsions:
REMARK  status: ('A' for Active; 'I' for Inactive)
ROOT
ATOM      1  C   UNL d   1      -0.033  -0.827  -6.000  0.00  0.00     0.077 C 
ATOM      2  C1  UNL d   1       1.414  -1.223  -5.973  0.00  0.00    -0.074 A 
ATOM      3  C2  UNL d   1       1.791  -2.569  -5.963  0.00  0.00    -0.005 A 
ATOM      4  C3  UNL d   1       3.140  -2.922  -5.948  0.00  0.00     0.006 A 
ATOM      5  C4  UNL d   1       4.125  -1.933  -5.943  0.00  0.00    -0.005 A 
ATOM      6  C5  UNL d   1       3.767  -0.581  -5.954  0.00  0.00    -0.074 A 
ATOM      7  C6  UNL d   1       4.813   0.494  -5.959  0.00  0.00     0.077 C 
ATOM      8  C7  UNL d   1       2.409  -0.235  -5.976  0.00  0.00    -0.001 A 
ENDROOT
TORSDOF 0
ENDMDL
