MODEL 1
REMARK minimizedAffinity 16.7267113
REMARK minimizedRMSD -1
REMARK  0 active torsions:
REMARK  status: ('A' for Active; 'I' for Inactive)
ROOT
ATOM      1  C   UNL d   1       5.127  -5.999   5.991  0.00  0.00     0.077 C 
ATOM      2  C1  UNL d   1       4.881  -4.535   5.775  0.00  0.00    -0.074 A 
ATOM      3  C2  UNL d   1       5.894  -3.596   5.998  0.00  0.00    -0.005 A 
ATOM      4  C3  UNL d   1       5.653  -2.238   5.784  0.00  0.00     0.006 A 
ATOM      5  C4  UNL d   1       4.401  -1.807   5.346  0.00  0.00    -0.005 A 
ATOM      6  C5  UNL d   1       3.377  -2.732   5.117  0.00  0.00    -0.074 A 
ATOM      7  C6  UNL d   1       2.027  -2.286   4.637  0.00  0.00     0.077 C 
ATOM      8  C7  UNL d   1       3.628  -4.094   5.328  0.00  0.00    -0.001 A 
ENDROOT
TORSDOF 0
ENDMDL
