MODEL 1
REMARK minimizedAffinity 11.2168627
REMARK minimizedRMSD -1
REMARK  0 active torsions:
REMARK  status: ('A' for Active; 'I' for Inactive)
ROOT
ATOM      1  C   UNL d   1       2.837  -3.708  -5.236  0.00  0.00     0.077 C 
ATOM      2  C1  UNL d   1       2.448  -2.264  -5.349  0.00  0.00    -0.074 A 
ATOM      3  C2  UNL d   1       1.103  -1.879  -5.329  0.00  0.00    -0.005 A 
ATOM      4  C3  UNL d   1       0.757  -0.531  -5.426  0.00  0.00     0.006 A 
ATOM      5  C4  UNL d   1       1.749   0.443  -5.542  0.00  0.00    -0.005 A 
ATOM      6  C5  UNL d   1       3.099   0.076  -5.563  0.00  0.00    -0.074 A 
ATOM      7  C6  UNL d   1       4.178   1.111  -5.677  0.00  0.00     0.077 C 
ATOM      8  C7  UNL d   1       3.439  -1.279  -5.458  0.00  0.00    -0.001 A 
ENDROOT
TORSDOF 0
ENDMDL
