MODEL 1
REMARK minimizedAffinity 10.7936697
REMARK minimizedRMSD -1
REMARK  0 active torsions:
REMARK  status: ('A' for Active; 'I' for Inactive)
ROOT
ATOM      1  C   UNL d   1      -1.502  -2.089  -2.065  0.00  0.00     0.077 C 
ATOM      2  C1  UNL d   1      -1.161  -2.585  -3.439  0.00  0.00    -0.074 A 
ATOM      3  C2  UNL d   1      -0.065  -2.070  -4.138  0.00  0.00    -0.005 A 
ATOM      4  C3  UNL d   1       0.245  -2.548  -5.411  0.00  0.00     0.006 A 
ATOM      5  C4  UNL d   1      -0.537  -3.544  -5.997  0.00  0.00    -0.005 A 
ATOM      6  C5  UNL d   1      -1.637  -4.072  -5.313  0.00  0.00    -0.074 A 
ATOM      7  C6  UNL d   1      -2.482  -5.150  -5.924  0.00  0.00     0.077 C 
ATOM      8  C7  UNL d   1      -1.938  -3.591  -4.031  0.00  0.00    -0.001 A 
ENDROOT
TORSDOF 0
ENDMDL
