MODEL 1
REMARK minimizedAffinity 8.35354233
REMARK minimizedRMSD -1
REMARK  0 active torsions:
REMARK  status: ('A' for Active; 'I' for Inactive)
ROOT
ATOM      1  C   UNL d   1       1.035  -0.565   3.291  0.00  0.00     0.077 C 
ATOM      2  C1  UNL d   1      -0.374  -0.093   3.084  0.00  0.00    -0.074 A 
ATOM      3  C2  UNL d   1      -0.641   1.217   2.674  0.00  0.00    -0.005 A 
ATOM      4  C3  UNL d   1      -1.956   1.638   2.477  0.00  0.00     0.006 A 
ATOM      5  C4  UNL d   1      -3.015   0.755   2.687  0.00  0.00    -0.005 A 
ATOM      6  C5  UNL d   1      -2.768  -0.559   3.096  0.00  0.00    -0.074 A 
ATOM      7  C6  UNL d   1      -3.895  -1.524   3.318  0.00  0.00     0.077 C 
ATOM      8  C7  UNL d   1      -1.444  -0.977   3.286  0.00  0.00    -0.001 A 
ENDROOT
TORSDOF 0
ENDMDL
