MODEL 1
REMARK minimizedAffinity 8.6796217
REMARK minimizedRMSD -1
REMARK  0 active torsions:
REMARK  status: ('A' for Active; 'I' for Inactive)
ROOT
ATOM      1  C   UNL d   1       5.812   5.999   2.805  0.00  0.00     0.077 C 
ATOM      2  C1  UNL d   1       5.176   4.644   2.899  0.00  0.00    -0.074 A 
ATOM      3  C2  UNL d   1       5.483   3.777   3.952  0.00  0.00    -0.005 A 
ATOM      4  C3  UNL d   1       4.876   2.524   4.031  0.00  0.00     0.006 A 
ATOM      5  C4  UNL d   1       3.957   2.126   3.060  0.00  0.00    -0.005 A 
ATOM      6  C5  UNL d   1       3.636   2.980   2.000  0.00  0.00    -0.074 A 
ATOM      7  C6  UNL d   1       2.643   2.572   0.953  0.00  0.00     0.077 C 
ATOM      8  C7  UNL d   1       4.245   4.241   1.931  0.00  0.00    -0.001 A 
ENDROOT
TORSDOF 0
ENDMDL
