MODEL 1
REMARK minimizedAffinity 14.9875288
REMARK minimizedRMSD -1
REMARK  0 active torsions:
REMARK  status: ('A' for Active; 'I' for Inactive)
ROOT
ATOM      1  C   UNL d   1       1.057  -2.616   4.667  0.00  0.00     0.077 C 
ATOM      2  C1  UNL d   1       0.925  -1.403   3.795  0.00  0.00    -0.074 A 
ATOM      3  C2  UNL d   1       2.050  -0.811   3.212  0.00  0.00    -0.005 A 
ATOM      4  C3  UNL d   1       1.910   0.311   2.395  0.00  0.00     0.006 A 
ATOM      5  C4  UNL d   1       0.647   0.852   2.154  0.00  0.00    -0.005 A 
ATOM      6  C5  UNL d   1      -0.490   0.273   2.728  0.00  0.00    -0.074 A 
ATOM      7  C6  UNL d   1      -1.856   0.836   2.471  0.00  0.00     0.077 C 
ATOM      8  C7  UNL d   1      -0.342  -0.859   3.542  0.00  0.00    -0.001 A 
ENDROOT
TORSDOF 0
ENDMDL
