MODEL 1
REMARK minimizedAffinity 10.8614502
REMARK minimizedRMSD -1
REMARK  0 active torsions:
REMARK  status: ('A' for Active; 'I' for Inactive)
ROOT
ATOM      1  C   UNL d   1       3.379   1.177   3.849  0.00  0.00     0.077 C 
ATOM      2  C1  UNL d   1       2.140   0.349   3.677  0.00  0.00    -0.074 A 
ATOM      3  C2  UNL d   1       2.134  -1.011   4.003  0.00  0.00    -0.005 A 
ATOM      4  C3  UNL d   1       0.971  -1.766   3.847  0.00  0.00     0.006 A 
ATOM      5  C4  UNL d   1      -0.194  -1.169   3.364  0.00  0.00    -0.005 A 
ATOM      6  C5  UNL d   1      -0.207   0.190   3.034  0.00  0.00    -0.074 A 
ATOM      7  C6  UNL d   1      -1.453   0.848   2.523  0.00  0.00     0.077 C 
ATOM      8  C7  UNL d   1       0.963   0.943   3.200  0.00  0.00    -0.001 A 
ENDROOT
TORSDOF 0
ENDMDL
