MODEL 1
REMARK minimizedAffinity -3.29377317
REMARK minimizedRMSD -1
REMARK  2 active torsions:
REMARK  status: ('A' for Active; 'I' for Inactive)
REMARK    1  A    between atoms: C1_2  and  C2_3 
REMARK    2  A    between atoms: C2_3  and  C3_4 
ROOT
ATOM      1  C3  UNL d   1      -0.612  -0.607  -0.641  0.00  0.00    -0.075 A 
ATOM      2  C4  UNL d   1       0.053  -1.231  -1.706  0.00  0.00     0.002 A 
ATOM      3  C5  UNL d   1      -0.483  -2.372  -2.305  0.00  0.00     0.002 A 
ATOM      4  C6  UNL d   1      -1.683  -2.907  -1.842  0.00  0.00    -0.004 A 
ATOM      5  C7  UNL d   1      -2.344  -2.304  -0.774  0.00  0.00     0.002 A 
ATOM      6  C8  UNL d   1      -1.812  -1.160  -0.176  0.00  0.00     0.002 A 
ENDROOT
BRANCH   1   7
ATOM      7  C2  UNL d   1      -0.052   0.645  -0.008  0.00  0.00     0.056 C 
BRANCH   7   8
ATOM      8  C1  UNL d   1       0.344   0.476   1.462  0.00  0.00     0.007 C 
ATOM      9  C   UNL d   1      -0.535   1.274   2.416  0.00  0.00     0.009 C 
ENDBRANCH   7   8
ENDBRANCH   1   7
TORSDOF 2
ENDMDL
