MODEL 1
REMARK minimizedAffinity -2.15451455
REMARK minimizedRMSD -1
REMARK  2 active torsions:
REMARK  status: ('A' for Active; 'I' for Inactive)
REMARK    1  A    between atoms: C1_2  and  C2_3 
REMARK    2  A    between atoms: C2_3  and  C3_4 
ROOT
ATOM      1  C3  UNL d   1       1.066  -0.029  -2.166  0.00  0.00    -0.075 A 
ATOM      2  C4  UNL d   1       2.435   0.218  -2.343  0.00  0.00     0.002 A 
ATOM      3  C5  UNL d   1       2.912   0.731  -3.549  0.00  0.00     0.002 A 
ATOM      4  C6  UNL d   1       2.031   0.992  -4.596  0.00  0.00    -0.004 A 
ATOM      5  C7  UNL d   1       0.671   0.735  -4.437  0.00  0.00     0.002 A 
ATOM      6  C8  UNL d   1       0.190   0.226  -3.229  0.00  0.00     0.002 A 
ENDROOT
BRANCH   1   7
ATOM      7  C2  UNL d   1       0.539  -0.556  -0.853  0.00  0.00     0.056 C 
BRANCH   7   8
ATOM      8  C1  UNL d   1      -0.358   0.432  -0.099  0.00  0.00     0.007 C 
ATOM      9  C   UNL d   1       0.283   0.977   1.170  0.00  0.00     0.009 C 
ENDBRANCH   7   8
ENDBRANCH   1   7
TORSDOF 2
ENDMDL
