MODEL 1
REMARK minimizedAffinity -3.68903685
REMARK minimizedRMSD -1
REMARK  2 active torsions:
REMARK  status: ('A' for Active; 'I' for Inactive)
REMARK    1  A    between atoms: C1_2  and  C2_3 
REMARK    2  A    between atoms: C2_3  and  C3_4 
ROOT
ATOM      1  C3  UNL d   1      -1.311  -0.765   0.021  0.00  0.00    -0.075 A 
ATOM      2  C4  UNL d   1      -0.127  -0.035   0.204  0.00  0.00     0.002 A 
ATOM      3  C5  UNL d   1      -0.009   0.872   1.257  0.00  0.00     0.002 A 
ATOM      4  C6  UNL d   1      -1.074   1.068   2.134  0.00  0.00    -0.004 A 
ATOM      5  C7  UNL d   1      -2.261   0.361   1.952  0.00  0.00     0.002 A 
ATOM      6  C8  UNL d   1      -2.380  -0.550   0.901  0.00  0.00     0.002 A 
ENDROOT
BRANCH   1   7
ATOM      7  C2  UNL d   1      -1.435  -1.770  -1.099  0.00  0.00     0.056 C 
BRANCH   7   8
ATOM      8  C1  UNL d   1      -2.266  -3.006  -0.740  0.00  0.00     0.007 C 
ATOM      9  C   UNL d   1      -3.624  -3.037  -1.428  0.00  0.00     0.009 C 
ENDBRANCH   7   8
ENDBRANCH   1   7
TORSDOF 2
ENDMDL
