MODEL 1
REMARK minimizedAffinity -2.17815518
REMARK minimizedRMSD -1
REMARK  2 active torsions:
REMARK  status: ('A' for Active; 'I' for Inactive)
REMARK    1  A    between atoms: C1_2  and  C2_3 
REMARK    2  A    between atoms: C2_3  and  C3_4 
ROOT
ATOM      1  C3  UNL d   1       0.092  -0.829  -0.671  0.00  0.00    -0.075 A 
ATOM      2  C4  UNL d   1       0.664  -0.771  -1.951  0.00  0.00     0.002 A 
ATOM      3  C5  UNL d   1       0.116  -1.500  -3.006  0.00  0.00     0.002 A 
ATOM      4  C6  UNL d   1      -1.003  -2.303  -2.794  0.00  0.00    -0.004 A 
ATOM      5  C7  UNL d   1      -1.570  -2.382  -1.524  0.00  0.00     0.002 A 
ATOM      6  C8  UNL d   1      -1.026  -1.649  -0.467  0.00  0.00     0.002 A 
ENDROOT
BRANCH   1   7
ATOM      7  C2  UNL d   1       0.663  -0.019   0.468  0.00  0.00     0.056 C 
BRANCH   7   8
ATOM      8  C1  UNL d   1       0.173  -0.458   1.852  0.00  0.00     0.007 C 
ATOM      9  C   UNL d   1      -0.020   0.704   2.817  0.00  0.00     0.009 C 
ENDBRANCH   7   8
ENDBRANCH   1   7
TORSDOF 2
ENDMDL
