MODEL 1
REMARK minimizedAffinity -0.994341552
REMARK minimizedRMSD -1
REMARK  2 active torsions:
REMARK  status: ('A' for Active; 'I' for Inactive)
REMARK    1  A    between atoms: C1_2  and  C2_3 
REMARK    2  A    between atoms: C2_3  and  C3_4 
ROOT
ATOM      1  C3  UNL d   1      -0.196  -0.496  -0.193  0.00  0.00    -0.075 A 
ATOM      2  C4  UNL d   1       0.302  -0.725   1.098  0.00  0.00     0.002 A 
ATOM      3  C5  UNL d   1       0.727   0.340   1.893  0.00  0.00     0.002 A 
ATOM      4  C6  UNL d   1       0.669   1.644   1.405  0.00  0.00    -0.004 A 
ATOM      5  C7  UNL d   1       0.192   1.881   0.118  0.00  0.00     0.002 A 
ATOM      6  C8  UNL d   1      -0.238   0.818  -0.678  0.00  0.00     0.002 A 
ENDROOT
BRANCH   1   7
ATOM      7  C2  UNL d   1      -0.684  -1.641  -1.047  0.00  0.00     0.056 C 
BRANCH   7   8
ATOM      8  C1  UNL d   1      -2.209  -1.788  -1.081  0.00  0.00     0.007 C 
ATOM      9  C   UNL d   1      -2.672  -3.237  -1.140  0.00  0.00     0.009 C 
ENDBRANCH   7   8
ENDBRANCH   1   7
TORSDOF 2
ENDMDL
