MODEL 1
REMARK minimizedAffinity -0.66221571
REMARK minimizedRMSD -1
REMARK  1 active torsions:
REMARK  status: ('A' for Active; 'I' for Inactive)
REMARK    1  A    between atoms: C1_2  and  C2_3 
ROOT
ATOM      1  C2  UNL d   1       2.546  -0.372   1.278  0.00  0.00    -0.081 A 
ATOM      2  C3  UNL d   1       1.301  -0.967   1.038  0.00  0.00     0.006 A 
ATOM      3  C4  UNL d   1       0.967  -2.180   1.644  0.00  0.00     0.002 A 
ATOM      4  C5  UNL d   1       1.867  -2.814   2.507  0.00  0.00    -0.080 A 
ATOM      5  C6  UNL d   1       1.508  -4.101   3.189  0.00  0.00     0.076 C 
ATOM      6  C7  UNL d   1       3.117  -2.228   2.734  0.00  0.00     0.002 A 
ATOM      7  C8  UNL d   1       3.452  -1.016   2.128  0.00  0.00     0.006 A 
ENDROOT
BRANCH   1   8
ATOM      8  C1  UNL d   1       2.884   0.968   0.677  0.00  0.00     0.054 C 
ATOM      9  C   UNL d   1       1.642   1.835   0.522  0.00  0.00     0.018 C 
ENDBRANCH   1   8
TORSDOF 1
ENDMDL
