MODEL 1
REMARK minimizedAffinity -3.37936425
REMARK minimizedRMSD -1
REMARK  1 active torsions:
REMARK  status: ('A' for Active; 'I' for Inactive)
REMARK    1  A    between atoms: C1_2  and  C2_3 
ROOT
ATOM      1  C2  UNL d   1       2.020  -1.876   2.024  0.00  0.00    -0.081 A 
ATOM      2  C3  UNL d   1       3.344  -2.115   2.413  0.00  0.00     0.006 A 
ATOM      3  C4  UNL d   1       3.635  -3.082   3.378  0.00  0.00     0.002 A 
ATOM      4  C5  UNL d   1       2.609  -3.831   3.964  0.00  0.00    -0.080 A 
ATOM      5  C6  UNL d   1       2.910  -4.894   4.979  0.00  0.00     0.076 C 
ATOM      6  C7  UNL d   1       1.285  -3.581   3.589  0.00  0.00     0.002 A 
ATOM      7  C8  UNL d   1       0.993  -2.613   2.625  0.00  0.00     0.006 A 
ENDROOT
BRANCH   1   8
ATOM      8  C1  UNL d   1       1.708  -0.879   0.937  0.00  0.00     0.054 C 
ATOM      9  C   UNL d   1       2.573   0.367   1.065  0.00  0.00     0.018 C 
ENDBRANCH   1   8
TORSDOF 1
ENDMDL
