MODEL 1
REMARK minimizedAffinity -2.41413903
REMARK minimizedRMSD -1
REMARK  1 active torsions:
REMARK  status: ('A' for Active; 'I' for Inactive)
REMARK    1  A    between atoms: C1_2  and  C2_3 
ROOT
ATOM      1  C2  UNL d   1       2.399  -0.573   2.670  0.00  0.00    -0.081 A 
ATOM      2  C3  UNL d   1       2.524   0.694   2.087  0.00  0.00     0.006 A 
ATOM      3  C4  UNL d   1       3.258   0.863   0.910  0.00  0.00     0.002 A 
ATOM      4  C5  UNL d   1       3.872  -0.232   0.293  0.00  0.00    -0.080 A 
ATOM      5  C6  UNL d   1       4.637  -0.070  -0.987  0.00  0.00     0.076 C 
ATOM      6  C7  UNL d   1       3.762  -1.495   0.885  0.00  0.00     0.002 A 
ATOM      7  C8  UNL d   1       3.029  -1.665   2.062  0.00  0.00     0.006 A 
ENDROOT
BRANCH   1   8
ATOM      8  C1  UNL d   1       1.555  -0.769   3.903  0.00  0.00     0.054 C 
ATOM      9  C   UNL d   1       1.573   0.468   4.788  0.00  0.00     0.018 C 
ENDBRANCH   1   8
TORSDOF 1
ENDMDL
