MODEL 1
REMARK minimizedAffinity -2.55303311
REMARK minimizedRMSD -1
REMARK  1 active torsions:
REMARK  status: ('A' for Active; 'I' for Inactive)
REMARK    1  A    between atoms: C1_2  and  C2_3 
ROOT
ATOM      1  C2  UNL d   1       0.881  -1.628   1.420  0.00  0.00    -0.081 A 
ATOM      2  C3  UNL d   1       1.701  -0.550   1.777  0.00  0.00     0.006 A 
ATOM      3  C4  UNL d   1       3.079  -0.727   1.924  0.00  0.00     0.002 A 
ATOM      4  C5  UNL d   1       3.661  -1.981   1.708  0.00  0.00    -0.080 A 
ATOM      5  C6  UNL d   1       5.142  -2.178   1.833  0.00  0.00     0.076 C 
ATOM      6  C7  UNL d   1       2.839  -3.062   1.369  0.00  0.00     0.002 A 
ATOM      7  C8  UNL d   1       1.462  -2.885   1.222  0.00  0.00     0.006 A 
ENDROOT
BRANCH   1   8
ATOM      8  C1  UNL d   1      -0.596  -1.426   1.197  0.00  0.00     0.054 C 
ATOM      9  C   UNL d   1      -1.400  -2.610   1.715  0.00  0.00     0.018 C 
ENDBRANCH   1   8
TORSDOF 1
ENDMDL
