MODEL 1
REMARK minimizedAffinity -1.08759487
REMARK minimizedRMSD -1
REMARK  0 active torsions:
REMARK  status: ('A' for Active; 'I' for Inactive)
ROOT
ATOM      1  C1  DEN d   1      -0.263  -3.817   3.239  0.00  0.00     0.130 A 
ATOM      2  C2  DEN d   1      -1.253  -2.827   2.824  0.00  0.00    -0.031 A 
ATOM      3  C3  DEN d   1      -0.747  -2.156   1.610  0.00  0.00     0.027 A 
ATOM      4  C4  DEN d   1       1.459  -2.556   0.335  0.00  0.00     0.027 A 
ATOM      5  C5  DEN d   1       2.627  -3.286   0.314  0.00  0.00    -0.003 A 
ATOM      6  C6  DEN d   1       2.926  -4.213   1.277  0.00  0.00     0.001 A 
ATOM      7  C7  DEN d   1       2.026  -4.466   2.278  0.00  0.00     0.017 A 
ATOM      8  C8  DEN d   1       0.850  -3.729   2.311  0.00  0.00    -0.094 A 
ATOM      9  C9  DEN d   1       0.560  -2.805   1.321  0.00  0.00    -0.072 A 
ENDROOT
TORSDOF 0
ENDMDL
