MODEL 1
REMARK minimizedAffinity 3.83344865
REMARK minimizedRMSD -1
REMARK  0 active torsions:
REMARK  status: ('A' for Active; 'I' for Inactive)
ROOT
ATOM      1  C1  DEN d   1       2.511  -3.334   0.009  0.00  0.00     0.130 A 
ATOM      2  C2  DEN d   1       2.210  -4.674   0.504  0.00  0.00    -0.031 A 
ATOM      3  C3  DEN d   1       1.004  -4.586   1.352  0.00  0.00     0.027 A 
ATOM      4  C4  DEN d   1      -0.419  -2.517   1.941  0.00  0.00     0.027 A 
ATOM      5  C5  DEN d   1      -0.549  -1.157   1.766  0.00  0.00    -0.003 A 
ATOM      6  C6  DEN d   1       0.345  -0.428   1.026  0.00  0.00     0.001 A 
ATOM      7  C7  DEN d   1       1.383  -1.062   0.397  0.00  0.00     0.017 A 
ATOM      8  C8  DEN d   1       1.524  -2.432   0.575  0.00  0.00    -0.094 A 
ATOM      9  C9  DEN d   1       0.604  -3.154   1.316  0.00  0.00    -0.072 A 
ENDROOT
TORSDOF 0
ENDMDL
