MODEL 1
REMARK minimizedAffinity -3.03320336
REMARK minimizedRMSD -1
REMARK  0 active torsions:
REMARK  status: ('A' for Active; 'I' for Inactive)
ROOT
ATOM      1  C1  DEN d   1       3.250  -3.209  -0.629  0.00  0.00     0.130 A 
ATOM      2  C2  DEN d   1       3.270  -4.491   0.072  0.00  0.00    -0.031 A 
ATOM      3  C3  DEN d   1       2.244  -4.446   1.133  0.00  0.00     0.027 A 
ATOM      4  C4  DEN d   1       0.633  -2.531   1.754  0.00  0.00     0.027 A 
ATOM      5  C5  DEN d   1       0.251  -1.243   1.451  0.00  0.00    -0.003 A 
ATOM      6  C6  DEN d   1       0.859  -0.514   0.464  0.00  0.00     0.001 A 
ATOM      7  C7  DEN d   1       1.854  -1.084  -0.286  0.00  0.00     0.017 A 
ATOM      8  C8  DEN d   1       2.249  -2.380   0.019  0.00  0.00    -0.094 A 
ATOM      9  C9  DEN d   1       1.613  -3.104   1.012  0.00  0.00    -0.072 A 
ENDROOT
TORSDOF 0
ENDMDL
