MODEL 1
REMARK minimizedAffinity 3.44217634
REMARK minimizedRMSD -1
REMARK  0 active torsions:
REMARK  status: ('A' for Active; 'I' for Inactive)
ROOT
ATOM      1  C1  DEN d   1      -0.810   4.393  -4.647  0.00  0.00     0.130 A 
ATOM      2  C2  DEN d   1      -0.311   3.311  -5.492  0.00  0.00    -0.031 A 
ATOM      3  C3  DEN d   1      -1.223   2.159  -5.345  0.00  0.00     0.027 A 
ATOM      4  C4  DEN d   1      -3.351   1.948  -3.904  0.00  0.00     0.027 A 
ATOM      5  C5  DEN d   1      -4.168   2.599  -3.006  0.00  0.00    -0.003 A 
ATOM      6  C6  DEN d   1      -3.907   3.871  -2.570  0.00  0.00     0.001 A 
ATOM      7  C7  DEN d   1      -2.825   4.550  -3.066  0.00  0.00     0.017 A 
ATOM      8  C8  DEN d   1      -1.992   3.897  -3.966  0.00  0.00    -0.094 A 
ATOM      9  C9  DEN d   1      -2.281   2.615  -4.403  0.00  0.00    -0.072 A 
ENDROOT
TORSDOF 0
ENDMDL
