MODEL 1
REMARK minimizedAffinity 5.91101694
REMARK minimizedRMSD -1
REMARK  0 active torsions:
REMARK  status: ('A' for Active; 'I' for Inactive)
ROOT
ATOM      1  C1  DEN d   1       1.426  -2.022   2.604  0.00  0.00     0.130 A 
ATOM      2  C2  DEN d   1       0.749  -1.646   1.367  0.00  0.00    -0.031 A 
ATOM      3  C3  DEN d   1       1.113  -2.632   0.329  0.00  0.00     0.027 A 
ATOM      4  C4  DEN d   1       2.649  -4.695   0.519  0.00  0.00     0.027 A 
ATOM      5  C5  DEN d   1       3.460  -5.416   1.367  0.00  0.00    -0.003 A 
ATOM      6  C6  DEN d   1       3.675  -5.041   2.666  0.00  0.00     0.001 A 
ATOM      7  C7  DEN d   1       3.036  -3.939   3.169  0.00  0.00     0.017 A 
ATOM      8  C8  DEN d   1       2.223  -3.202   2.318  0.00  0.00    -0.094 A 
ATOM      9  C9  DEN d   1       2.008  -3.605   1.011  0.00  0.00    -0.072 A 
ENDROOT
TORSDOF 0
ENDMDL
