MODEL 1
REMARK minimizedAffinity 2.16675687
REMARK minimizedRMSD -1
REMARK  0 active torsions:
REMARK  status: ('A' for Active; 'I' for Inactive)
ROOT
ATOM      1  C1  DEN d   1       2.936  -5.228   1.125  0.00  0.00     0.130 A 
ATOM      2  C2  DEN d   1       3.750  -5.255  -0.087  0.00  0.00    -0.031 A 
ATOM      3  C3  DEN d   1       3.529  -3.988  -0.813  0.00  0.00     0.027 A 
ATOM      4  C4  DEN d   1       2.018  -1.996  -0.178  0.00  0.00     0.027 A 
ATOM      5  C5  DEN d   1       1.125  -1.517   0.754  0.00  0.00    -0.003 A 
ATOM      6  C6  DEN d   1       0.750  -2.250   1.849  0.00  0.00     0.001 A 
ATOM      7  C7  DEN d   1       1.305  -3.484   2.063  0.00  0.00     0.017 A 
ATOM      8  C8  DEN d   1       2.201  -3.976   1.123  0.00  0.00    -0.094 A 
ATOM      9  C9  DEN d   1       2.577  -3.215   0.029  0.00  0.00    -0.072 A 
ENDROOT
TORSDOF 0
ENDMDL
