MODEL 1
REMARK minimizedAffinity -1.56704569
REMARK minimizedRMSD -1
REMARK  0 active torsions:
REMARK  status: ('A' for Active; 'I' for Inactive)
ROOT
ATOM      1  C1  DEN d   1       2.311  -3.635   0.052  0.00  0.00     0.130 A 
ATOM      2  C2  DEN d   1       2.469  -4.611   1.127  0.00  0.00    -0.031 A 
ATOM      3  C3  DEN d   1       1.615  -4.189   2.255  0.00  0.00     0.027 A 
ATOM      4  C4  DEN d   1       0.068  -2.133   2.439  0.00  0.00     0.027 A 
ATOM      5  C5  DEN d   1      -0.388  -1.010   1.786  0.00  0.00    -0.003 A 
ATOM      6  C6  DEN d   1       0.046  -0.666   0.533  0.00  0.00     0.001 A 
ATOM      7  C7  DEN d   1       0.930  -1.480  -0.125  0.00  0.00     0.017 A 
ATOM      8  C8  DEN d   1       1.400  -2.611   0.530  0.00  0.00    -0.094 A 
ATOM      9  C9  DEN d   1       0.939  -2.947   1.791  0.00  0.00    -0.072 A 
ENDROOT
TORSDOF 0
ENDMDL
