MODEL 1
REMARK minimizedAffinity 5.91440868
REMARK minimizedRMSD -1
REMARK  0 active torsions:
REMARK  status: ('A' for Active; 'I' for Inactive)
ROOT
ATOM      1  C1  DEN d   1       3.546  -3.171   0.483  0.00  0.00     0.130 A 
ATOM      2  C2  DEN d   1       3.060  -4.394   1.115  0.00  0.00    -0.031 A 
ATOM      3  C3  DEN d   1       1.767  -4.092   1.762  0.00  0.00     0.027 A 
ATOM      4  C4  DEN d   1       0.475  -1.861   1.842  0.00  0.00     0.027 A 
ATOM      5  C5  DEN d   1       0.495  -0.538   1.459  0.00  0.00    -0.003 A 
ATOM      6  C6  DEN d   1       1.540   0.004   0.759  0.00  0.00     0.001 A 
ATOM      7  C7  DEN d   1       2.589  -0.792   0.381  0.00  0.00     0.017 A 
ATOM      8  C8  DEN d   1       2.580  -2.125   0.770  0.00  0.00    -0.094 A 
ATOM      9  C9  DEN d   1       1.508  -2.657   1.467  0.00  0.00    -0.072 A 
ENDROOT
TORSDOF 0
ENDMDL
