MODEL 1
REMARK minimizedAffinity -2.27649856
REMARK minimizedRMSD -1
REMARK  0 active torsions:
REMARK  status: ('A' for Active; 'I' for Inactive)
ROOT
ATOM      1  C   UNL d   1       2.055  -0.625   0.785  0.00  0.00     0.124 A 
ATOM      2  C1  UNL d   1       1.129   0.282   1.282  0.00  0.00     0.062 A 
ATOM      3  C2  UNL d   1       0.130   0.787   0.455  0.00  0.00     0.162 A 
ATOM      4  C3  UNL d   1       0.051   0.385  -0.878  0.00  0.00    -0.034 A 
ATOM      5  C4  UNL d   1       0.986  -0.527  -1.371  0.00  0.00     0.162 A 
ATOM      6  C5  UNL d   1       1.983  -1.028  -0.541  0.00  0.00     0.062 A 
ATOM      7  F   UNL d   1       2.876  -1.904  -1.023  0.00  0.00    -0.097 F 
ATOM      8  F1  UNL d   1       0.939  -0.934  -2.648  0.00  0.00    -0.096 F 
ATOM      9  I   UNL d   1      -1.442   1.137  -2.118  0.00  0.00    -0.060 I 
ATOM     10  F2  UNL d   1      -0.751   1.661   0.963  0.00  0.00    -0.096 F 
ATOM     11  F3  UNL d   1       1.198   0.674   2.563  0.00  0.00    -0.097 F 
ATOM     12  F4  UNL d   1       3.016  -1.108   1.583  0.00  0.00    -0.092 F 
ENDROOT
TORSDOF 0
ENDMDL
