MODEL 1
REMARK minimizedAffinity -0.807974577
REMARK minimizedRMSD -1
REMARK  0 active torsions:
REMARK  status: ('A' for Active; 'I' for Inactive)
ROOT
ATOM      1  C   UNL d   1       0.753  -0.875   2.202  0.00  0.00     0.124 A 
ATOM      2  C1  UNL d   1       1.518  -0.488   1.110  0.00  0.00     0.062 A 
ATOM      3  C2  UNL d   1       0.902   0.012  -0.034  0.00  0.00     0.162 A 
ATOM      4  C3  UNL d   1      -0.487   0.127  -0.092  0.00  0.00    -0.034 A 
ATOM      5  C4  UNL d   1      -1.249  -0.265   1.010  0.00  0.00     0.162 A 
ATOM      6  C5  UNL d   1      -0.629  -0.763   2.151  0.00  0.00     0.062 A 
ATOM      7  F   UNL d   1      -1.369  -1.137   3.205  0.00  0.00    -0.097 F 
ATOM      8  F1  UNL d   1      -2.587  -0.167   0.988  0.00  0.00    -0.096 F 
ATOM      9  I   UNL d   1      -1.412   0.873  -1.801  0.00  0.00    -0.060 I 
ATOM     10  F2  UNL d   1       1.665   0.378  -1.074  0.00  0.00    -0.096 F 
ATOM     11  F3  UNL d   1       2.853  -0.595   1.156  0.00  0.00    -0.097 F 
ATOM     12  F4  UNL d   1       1.349  -1.355   3.301  0.00  0.00    -0.092 F 
ENDROOT
TORSDOF 0
ENDMDL
