MODEL 1
REMARK minimizedAffinity -0.14308311
REMARK minimizedRMSD -1
REMARK  0 active torsions:
REMARK  status: ('A' for Active; 'I' for Inactive)
ROOT
ATOM      1  C   UNL d   1      -0.291  -0.851   1.610  0.00  0.00     0.124 A 
ATOM      2  C1  UNL d   1      -1.096  -0.636   0.499  0.00  0.00     0.062 A 
ATOM      3  C2  UNL d   1      -0.551  -0.106  -0.667  0.00  0.00     0.162 A 
ATOM      4  C3  UNL d   1       0.805   0.212  -0.729  0.00  0.00    -0.034 A 
ATOM      5  C4  UNL d   1       1.608  -0.006   0.392  0.00  0.00     0.162 A 
ATOM      6  C5  UNL d   1       1.059  -0.536   1.555  0.00  0.00     0.062 A 
ATOM      7  F   UNL d   1       1.838  -0.743   2.627  0.00  0.00    -0.097 F 
ATOM      8  F1  UNL d   1       2.916   0.288   0.366  0.00  0.00    -0.096 F 
ATOM      9  I   UNL d   1       1.623   1.004  -2.472  0.00  0.00    -0.060 I 
ATOM     10  F2  UNL d   1      -1.352   0.091  -1.725  0.00  0.00    -0.096 F 
ATOM     11  F3  UNL d   1      -2.401  -0.938   0.550  0.00  0.00    -0.097 F 
ATOM     12  F4  UNL d   1      -0.818  -1.360   2.731  0.00  0.00    -0.092 F 
ENDROOT
TORSDOF 0
ENDMDL
