MODEL 1
REMARK minimizedAffinity 2.32388568
REMARK minimizedRMSD -1
REMARK  0 active torsions:
REMARK  status: ('A' for Active; 'I' for Inactive)
ROOT
ATOM      1  C   UNL d   1       1.107  -0.796   1.905  0.00  0.00     0.124 A 
ATOM      2  C1  UNL d   1      -0.277  -0.715   1.838  0.00  0.00     0.062 A 
ATOM      3  C2  UNL d   1      -0.908  -0.509   0.614  0.00  0.00     0.162 A 
ATOM      4  C3  UNL d   1      -0.155  -0.385  -0.553  0.00  0.00    -0.034 A 
ATOM      5  C4  UNL d   1       1.237  -0.467  -0.478  0.00  0.00     0.162 A 
ATOM      6  C5  UNL d   1       1.862  -0.672   0.747  0.00  0.00     0.062 A 
ATOM      7  F   UNL d   1       3.200  -0.751   0.810  0.00  0.00    -0.097 F 
ATOM      8  F1  UNL d   1       1.991  -0.351  -1.581  0.00  0.00    -0.096 F 
ATOM      9  I   UNL d   1      -1.094  -0.077  -2.385  0.00  0.00    -0.060 I 
ATOM     10  F2  UNL d   1      -2.246  -0.435   0.579  0.00  0.00    -0.096 F 
ATOM     11  F3  UNL d   1      -1.009  -0.833   2.955  0.00  0.00    -0.097 F 
ATOM     12  F4  UNL d   1       1.711  -0.993   3.084  0.00  0.00    -0.092 F 
ENDROOT
TORSDOF 0
ENDMDL
