MODEL 1
REMARK minimizedAffinity 1.82097673
REMARK minimizedRMSD -1
REMARK  0 active torsions:
REMARK  status: ('A' for Active; 'I' for Inactive)
ROOT
ATOM      1  C   UNL d   1      -0.202  -0.931   1.682  0.00  0.00     0.124 A 
ATOM      2  C1  UNL d   1       0.560   0.202   1.931  0.00  0.00     0.062 A 
ATOM      3  C2  UNL d   1       0.735   1.161   0.938  0.00  0.00     0.162 A 
ATOM      4  C3  UNL d   1       0.146   0.991  -0.315  0.00  0.00    -0.034 A 
ATOM      5  C4  UNL d   1      -0.618  -0.151  -0.559  0.00  0.00     0.162 A 
ATOM      6  C5  UNL d   1      -0.790  -1.106   0.437  0.00  0.00     0.062 A 
ATOM      7  F   UNL d   1      -1.527  -2.200   0.194  0.00  0.00    -0.097 F 
ATOM      8  F1  UNL d   1      -1.199  -0.345  -1.752  0.00  0.00    -0.096 F 
ATOM      9  I   UNL d   1       0.406   2.423  -1.804  0.00  0.00    -0.060 I 
ATOM     10  F2  UNL d   1       1.477   2.246   1.207  0.00  0.00    -0.096 F 
ATOM     11  F3  UNL d   1       1.130   0.374   3.133  0.00  0.00    -0.097 F 
ATOM     12  F4  UNL d   1      -0.368  -1.852   2.640  0.00  0.00    -0.092 F 
ENDROOT
TORSDOF 0
ENDMDL
