MODEL 1
REMARK minimizedAffinity -2.58564687
REMARK minimizedRMSD -1
REMARK  0 active torsions:
REMARK  status: ('A' for Active; 'I' for Inactive)
ROOT
ATOM      1  C   UNL d   1      -0.161  -1.037   1.502  0.00  0.00     0.124 A 
ATOM      2  C1  UNL d   1       0.842  -0.078   1.521  0.00  0.00     0.062 A 
ATOM      3  C2  UNL d   1       0.979   0.812   0.460  0.00  0.00     0.162 A 
ATOM      4  C3  UNL d   1       0.110   0.749  -0.629  0.00  0.00    -0.034 A 
ATOM      5  C4  UNL d   1      -0.897  -0.218  -0.641  0.00  0.00     0.162 A 
ATOM      6  C5  UNL d   1      -1.030  -1.106   0.422  0.00  0.00     0.062 A 
ATOM      7  F   UNL d   1      -2.000  -2.031   0.402  0.00  0.00    -0.097 F 
ATOM      8  F1  UNL d   1      -1.750  -0.307  -1.672  0.00  0.00    -0.096 F 
ATOM      9  I   UNL d   1       0.312   2.079  -2.217  0.00  0.00    -0.060 I 
ATOM     10  F2  UNL d   1       1.958   1.728   0.505  0.00  0.00    -0.096 F 
ATOM     11  F3  UNL d   1       1.683  -0.010   2.563  0.00  0.00    -0.097 F 
ATOM     12  F4  UNL d   1      -0.291  -1.893   2.524  0.00  0.00    -0.092 F 
ENDROOT
TORSDOF 0
ENDMDL
