MODEL 1
REMARK minimizedAffinity 0.489169747
REMARK minimizedRMSD -1
REMARK  0 active torsions:
REMARK  status: ('A' for Active; 'I' for Inactive)
ROOT
ATOM      1  C   UNL d   1       1.046  -1.250   1.878  0.00  0.00     0.124 A 
ATOM      2  C1  UNL d   1       1.693  -0.912   0.698  0.00  0.00     0.062 A 
ATOM      3  C2  UNL d   1       0.974  -0.377  -0.367  0.00  0.00     0.162 A 
ATOM      4  C3  UNL d   1      -0.402  -0.176  -0.256  0.00  0.00    -0.034 A 
ATOM      5  C4  UNL d   1      -1.047  -0.519   0.934  0.00  0.00     0.162 A 
ATOM      6  C5  UNL d   1      -0.323  -1.053   1.995  0.00  0.00     0.062 A 
ATOM      7  F   UNL d   1      -0.950  -1.379   3.135  0.00  0.00    -0.097 F 
ATOM      8  F1  UNL d   1      -2.368  -0.339   1.074  0.00  0.00    -0.096 F 
ATOM      9  I   UNL d   1      -1.482   0.623  -1.846  0.00  0.00    -0.060 I 
ATOM     10  F2  UNL d   1       1.625  -0.060  -1.495  0.00  0.00    -0.096 F 
ATOM     11  F3  UNL d   1       3.015  -1.102   0.582  0.00  0.00    -0.097 F 
ATOM     12  F4  UNL d   1       1.740  -1.765   2.901  0.00  0.00    -0.092 F 
ENDROOT
TORSDOF 0
ENDMDL
