MODEL 1
REMARK minimizedAffinity -3.53129482
REMARK minimizedRMSD -1
REMARK  0 active torsions:
REMARK  status: ('A' for Active; 'I' for Inactive)
ROOT
ATOM      1  C   UNL d   1      -0.017   0.061  -2.194  0.00  0.00     0.124 A 
ATOM      2  C1  UNL d   1      -0.599   0.818  -1.186  0.00  0.00     0.062 A 
ATOM      3  C2  UNL d   1      -0.232   0.618   0.141  0.00  0.00     0.162 A 
ATOM      4  C3  UNL d   1       0.723  -0.344   0.470  0.00  0.00    -0.034 A 
ATOM      5  C4  UNL d   1       1.303  -1.103  -0.548  0.00  0.00     0.162 A 
ATOM      6  C5  UNL d   1       0.933  -0.899  -1.874  0.00  0.00     0.062 A 
ATOM      7  F   UNL d   1       1.496  -1.632  -2.845  0.00  0.00    -0.097 F 
ATOM      8  F1  UNL d   1       2.225  -2.036  -0.268  0.00  0.00    -0.096 F 
ATOM      9  I   UNL d   1       1.274  -0.647   2.454  0.00  0.00    -0.060 I 
ATOM     10  F2  UNL d   1      -0.811   1.364   1.094  0.00  0.00    -0.096 F 
ATOM     11  F3  UNL d   1      -1.518   1.745  -1.493  0.00  0.00    -0.097 F 
ATOM     12  F4  UNL d   1      -0.373   0.255  -3.470  0.00  0.00    -0.092 F 
ENDROOT
TORSDOF 0
ENDMDL
