MODEL 1
REMARK minimizedAffinity 12.2571878
REMARK minimizedRMSD -1
REMARK  0 active torsions:
REMARK  status: ('A' for Active; 'I' for Inactive)
ROOT
ATOM      1  N1  IND d   1      -0.190  -5.994  -3.318  0.00  0.00    -0.196 N 
ATOM      2  C2  IND d   1       0.240  -5.985  -4.616  0.00  0.00     0.054 A 
ATOM      3  C3  IND d   1       1.591  -5.948  -4.664  0.00  0.00    -0.031 A 
ATOM      4  C4  IND d   1       3.298  -5.998  -2.737  0.00  0.00     0.051 A 
ATOM      5  C5  IND d   1       3.384  -5.971  -1.374  0.00  0.00    -0.031 A 
ATOM      6  C6  IND d   1       2.261  -5.952  -0.572  0.00  0.00     0.015 A 
ATOM      7  C7  IND d   1       1.004  -5.972  -1.107  0.00  0.00    -0.016 A 
ATOM      8  C8  IND d   1       0.912  -5.993  -2.492  0.00  0.00    -0.047 A 
ATOM      9  C9  IND d   1       2.048  -5.969  -3.311  0.00  0.00    -0.096 A 
ATOM     10  HN1 IND d   1      -1.010  -6.000  -3.062  0.00  0.00     0.298 HD
ENDROOT
TORSDOF 0
ENDMDL
