MODEL 1
REMARK minimizedAffinity 9.29057884
REMARK minimizedRMSD -1
REMARK  0 active torsions:
REMARK  status: ('A' for Active; 'I' for Inactive)
ROOT
ATOM      1  N1  IND d   1      -2.483  -0.286   0.048  0.00  0.00    -0.196 N 
ATOM      2  C2  IND d   1      -3.342   0.778   0.048  0.00  0.00     0.054 A 
ATOM      3  C3  IND d   1      -3.337   1.386  -1.159  0.00  0.00    -0.031 A 
ATOM      4  C4  IND d   1      -2.075   0.745  -3.309  0.00  0.00     0.051 A 
ATOM      5  C5  IND d   1      -1.141  -0.129  -3.790  0.00  0.00    -0.031 A 
ATOM      6  C6  IND d   1      -0.598  -1.123  -3.000  0.00  0.00     0.015 A 
ATOM      7  C7  IND d   1      -0.979  -1.286  -1.699  0.00  0.00    -0.016 A 
ATOM      8  C8  IND d   1      -1.921  -0.395  -1.205  0.00  0.00    -0.047 A 
ATOM      9  C9  IND d   1      -2.444   0.641  -1.989  0.00  0.00    -0.096 A 
ATOM     10  HN1 IND d   1      -2.321  -0.800   0.718  0.00  0.00     0.298 HD
ENDROOT
TORSDOF 0
ENDMDL
