MODEL 1
REMARK minimizedAffinity 8.98408222
REMARK minimizedRMSD -1
REMARK  0 active torsions:
REMARK  status: ('A' for Active; 'I' for Inactive)
ROOT
ATOM      1  N1  IND d   1      -0.982   3.880   2.894  0.00  0.00    -0.196 N 
ATOM      2  C2  IND d   1      -0.427   2.636   3.002  0.00  0.00     0.054 A 
ATOM      3  C3  IND d   1       0.365   2.380   1.936  0.00  0.00    -0.031 A 
ATOM      4  C4  IND d   1       0.975   3.901  -0.050  0.00  0.00     0.051 A 
ATOM      5  C5  IND d   1       0.686   5.116  -0.605  0.00  0.00    -0.031 A 
ATOM      6  C6  IND d   1      -0.189   6.000  -0.008  0.00  0.00     0.015 A 
ATOM      7  C7  IND d   1      -0.802   5.705   1.176  0.00  0.00    -0.016 A 
ATOM      8  C8  IND d   1      -0.517   4.470   1.739  0.00  0.00    -0.047 A 
ATOM      9  C9  IND d   1       0.338   3.551   1.117  0.00  0.00    -0.096 A 
ATOM     10  HN1 IND d   1      -1.529   4.235   3.454  0.00  0.00     0.298 HD
ENDROOT
TORSDOF 0
ENDMDL
