MODEL 1
REMARK minimizedAffinity 8.1099577
REMARK minimizedRMSD -1
REMARK  0 active torsions:
REMARK  status: ('A' for Active; 'I' for Inactive)
ROOT
ATOM      1  N1  IND d   1       1.403   3.238   0.758  0.00  0.00    -0.196 N 
ATOM      2  C2  IND d   1       0.472   3.803  -0.068  0.00  0.00     0.054 A 
ATOM      3  C3  IND d   1      -0.776   3.537   0.377  0.00  0.00    -0.031 A 
ATOM      4  C4  IND d   1      -1.523   2.280   2.496  0.00  0.00     0.051 A 
ATOM      5  C5  IND d   1      -1.035   1.552   3.545  0.00  0.00    -0.031 A 
ATOM      6  C6  IND d   1       0.318   1.347   3.723  0.00  0.00     0.015 A 
ATOM      7  C7  IND d   1       1.238   1.874   2.862  0.00  0.00    -0.016 A 
ATOM      8  C8  IND d   1       0.746   2.608   1.792  0.00  0.00    -0.047 A 
ATOM      9  C9  IND d   1      -0.628   2.784   1.582  0.00  0.00    -0.096 A 
ATOM     10  HN1 IND d   1       2.255   3.271   0.650  0.00  0.00     0.298 HD
ENDROOT
TORSDOF 0
ENDMDL
