MODEL 1
REMARK minimizedAffinity 14.3903427
REMARK minimizedRMSD -1
REMARK  0 active torsions:
REMARK  status: ('A' for Active; 'I' for Inactive)
ROOT
ATOM      1  N1  IND d   1       0.847   2.397   0.277  0.00  0.00    -0.196 N 
ATOM      2  C2  IND d   1       0.488   2.031   1.544  0.00  0.00     0.054 A 
ATOM      3  C3  IND d   1      -0.267   2.995   2.116  0.00  0.00    -0.031 A 
ATOM      4  C4  IND d   1      -1.121   5.210   1.120  0.00  0.00     0.051 A 
ATOM      5  C5  IND d   1      -1.025   5.999   0.008  0.00  0.00    -0.031 A 
ATOM      6  C6  IND d   1      -0.288   5.619  -1.094  0.00  0.00     0.015 A 
ATOM      7  C7  IND d   1       0.376   4.425  -1.130  0.00  0.00    -0.016 A 
ATOM      8  C8  IND d   1       0.286   3.624  -0.000  0.00  0.00    -0.047 A 
ATOM      9  C9  IND d   1      -0.426   4.024   1.138  0.00  0.00    -0.096 A 
ATOM     10  HN1 IND d   1       1.341   1.938  -0.257  0.00  0.00     0.298 HD
ENDROOT
TORSDOF 0
ENDMDL
