MODEL 1
REMARK minimizedAffinity 8.62432861
REMARK minimizedRMSD -1
REMARK  0 active torsions:
REMARK  status: ('A' for Active; 'I' for Inactive)
ROOT
ATOM      1  N1  IND d   1       2.193  -1.094  -0.827  0.00  0.00    -0.196 N 
ATOM      2  C2  IND d   1       2.170  -0.878   0.522  0.00  0.00     0.054 A 
ATOM      3  C3  IND d   1       3.354  -1.226   1.075  0.00  0.00    -0.031 A 
ATOM      4  C4  IND d   1       5.502  -2.075  -0.060  0.00  0.00     0.051 A 
ATOM      5  C5  IND d   1       5.998  -2.466  -1.273  0.00  0.00    -0.031 A 
ATOM      6  C6  IND d   1       5.236  -2.417  -2.422  0.00  0.00     0.015 A 
ATOM      7  C7  IND d   1       3.948  -1.961  -2.404  0.00  0.00    -0.016 A 
ATOM      8  C8  IND d   1       3.439  -1.570  -1.173  0.00  0.00    -0.047 A 
ATOM      9  C9  IND d   1       4.194  -1.658   0.004  0.00  0.00    -0.096 A 
ATOM     10  HN1 IND d   1       1.540  -0.957  -1.369  0.00  0.00     0.298 HD
ENDROOT
TORSDOF 0
ENDMDL
