MODEL 1
REMARK minimizedAffinity 4.93906784
REMARK minimizedRMSD -1
REMARK  0 active torsions:
REMARK  status: ('A' for Active; 'I' for Inactive)
ROOT
ATOM      1  N1  IND d   1       0.281   0.717   3.393  0.00  0.00    -0.196 N 
ATOM      2  C2  IND d   1       1.540   0.290   3.071  0.00  0.00     0.054 A 
ATOM      3  C3  IND d   1       1.997   0.952   1.984  0.00  0.00    -0.031 A 
ATOM      4  C4  IND d   1       0.891   2.846   0.637  0.00  0.00     0.051 A 
ATOM      5  C5  IND d   1      -0.274   3.553   0.529  0.00  0.00    -0.031 A 
ATOM      6  C6  IND d   1      -1.334   3.348   1.389  0.00  0.00     0.015 A 
ATOM      7  C7  IND d   1      -1.264   2.432   2.400  0.00  0.00    -0.016 A 
ATOM      8  C8  IND d   1      -0.085   1.708   2.509  0.00  0.00    -0.047 A 
ATOM      9  C9  IND d   1       0.978   1.882   1.613  0.00  0.00    -0.096 A 
ATOM     10  HN1 IND d   1      -0.200   0.416   4.038  0.00  0.00     0.298 HD
ENDROOT
TORSDOF 0
ENDMDL
