MODEL 1
REMARK minimizedAffinity 6.06651688
REMARK minimizedRMSD -1
REMARK  0 active torsions:
REMARK  status: ('A' for Active; 'I' for Inactive)
ROOT
ATOM      1  N1  IND d   1       0.723   5.592  -3.605  0.00  0.00    -0.196 N 
ATOM      2  C2  IND d   1      -0.339   6.000  -4.363  0.00  0.00     0.054 A 
ATOM      3  C3  IND d   1      -1.471   6.000  -3.626  0.00  0.00    -0.031 A 
ATOM      4  C4  IND d   1      -1.797   5.466  -1.128  0.00  0.00     0.051 A 
ATOM      5  C5  IND d   1      -1.127   5.010  -0.028  0.00  0.00    -0.031 A 
ATOM      6  C6  IND d   1       0.222   4.721  -0.064  0.00  0.00     0.015 A 
ATOM      7  C7  IND d   1       0.957   4.890  -1.203  0.00  0.00    -0.016 A 
ATOM      8  C8  IND d   1       0.278   5.346  -2.324  0.00  0.00    -0.047 A 
ATOM      9  C9  IND d   1      -1.100   5.599  -2.306  0.00  0.00    -0.096 A 
ATOM     10  HN1 IND d   1       1.532   5.503  -3.881  0.00  0.00     0.298 HD
ENDROOT
TORSDOF 0
ENDMDL
