MODEL 1
REMARK minimizedAffinity -6.05885744
REMARK minimizedRMSD -1
REMARK  0 active torsions:
REMARK  status: ('A' for Active; 'I' for Inactive)
ROOT
ATOM      1  C1  DEN d   1      -0.820   0.705   0.662  0.00  0.00     0.130 A 
ATOM      2  C2  DEN d   1      -0.678   0.964  -0.769  0.00  0.00    -0.031 A 
ATOM      3  C3  DEN d   1       0.468   0.176  -1.264  0.00  0.00     0.027 A 
ATOM      4  C4  DEN d   1       2.026  -1.416   0.037  0.00  0.00     0.027 A 
ATOM      5  C5  DEN d   1       2.305  -1.948   1.277  0.00  0.00    -0.003 A 
ATOM      6  C6  DEN d   1       1.590  -1.611   2.395  0.00  0.00     0.001 A 
ATOM      7  C7  DEN d   1       0.530  -0.749   2.288  0.00  0.00     0.017 A 
ATOM      8  C8  DEN d   1       0.247  -0.203   1.043  0.00  0.00    -0.094 A 
ATOM      9  C9  DEN d   1       0.974  -0.566  -0.077  0.00  0.00    -0.072 A 
ENDROOT
TORSDOF 0
ENDMDL
