MODEL 1
REMARK minimizedAffinity -1.58364713
REMARK minimizedRMSD -1
REMARK  0 active torsions:
REMARK  status: ('A' for Active; 'I' for Inactive)
ROOT
ATOM      1  C1  DEN d   1       2.200  -1.081   0.105  0.00  0.00     0.130 A 
ATOM      2  C2  DEN d   1       2.423  -1.149  -1.337  0.00  0.00    -0.031 A 
ATOM      3  C3  DEN d   1       1.152  -0.814  -2.012  0.00  0.00     0.027 A 
ATOM      4  C4  DEN d   1      -1.124  -0.195  -0.970  0.00  0.00     0.027 A 
ATOM      5  C5  DEN d   1      -1.806  -0.017   0.214  0.00  0.00    -0.003 A 
ATOM      6  C6  DEN d   1      -1.214  -0.212   1.434  0.00  0.00     0.001 A 
ATOM      7  C7  DEN d   1       0.111  -0.554   1.498  0.00  0.00     0.017 A 
ATOM      8  C8  DEN d   1       0.803  -0.743   0.309  0.00  0.00    -0.094 A 
ATOM      9  C9  DEN d   1       0.190  -0.528  -0.914  0.00  0.00    -0.072 A 
ENDROOT
TORSDOF 0
ENDMDL
