MODEL 1
REMARK minimizedAffinity -5.56351662
REMARK minimizedRMSD -1
REMARK  0 active torsions:
REMARK  status: ('A' for Active; 'I' for Inactive)
ROOT
ATOM      1  C1  DEN d   1       0.928   0.895  -0.607  0.00  0.00     0.130 A 
ATOM      2  C2  DEN d   1      -0.249   0.983  -1.467  0.00  0.00    -0.031 A 
ATOM      3  C3  DEN d   1      -1.377   0.340  -0.765  0.00  0.00     0.027 A 
ATOM      4  C4  DEN d   1      -1.418  -0.773   1.562  0.00  0.00     0.027 A 
ATOM      5  C5  DEN d   1      -0.657  -1.102   2.662  0.00  0.00    -0.003 A 
ATOM      6  C6  DEN d   1       0.681  -0.820   2.736  0.00  0.00     0.001 A 
ATOM      7  C7  DEN d   1       1.291  -0.151   1.707  0.00  0.00     0.017 A 
ATOM      8  C8  DEN d   1       0.533   0.177   0.591  0.00  0.00    -0.094 A 
ATOM      9  C9  DEN d   1      -0.822  -0.106   0.542  0.00  0.00    -0.072 A 
ENDROOT
TORSDOF 0
ENDMDL
