MODEL 1
REMARK minimizedAffinity -5.66790867
REMARK minimizedRMSD -1
REMARK  0 active torsions:
REMARK  status: ('A' for Active; 'I' for Inactive)
ROOT
ATOM      1  C1  DEN d   1       1.665  -0.536   2.350  0.00  0.00     0.130 A 
ATOM      2  C2  DEN d   1       0.900  -0.877   3.547  0.00  0.00    -0.031 A 
ATOM      3  C3  DEN d   1      -0.533  -0.871   3.189  0.00  0.00     0.027 A 
ATOM      4  C4  DEN d   1      -1.634  -0.375   0.910  0.00  0.00     0.027 A 
ATOM      5  C5  DEN d   1      -1.394  -0.025  -0.400  0.00  0.00    -0.003 A 
ATOM      6  C6  DEN d   1      -0.130   0.210  -0.873  0.00  0.00     0.001 A 
ATOM      7  C7  DEN d   1       0.946   0.054  -0.041  0.00  0.00     0.017 A 
ATOM      8  C8  DEN d   1       0.712  -0.291   1.284  0.00  0.00    -0.094 A 
ATOM      9  C9  DEN d   1      -0.572  -0.537   1.740  0.00  0.00    -0.072 A 
ENDROOT
TORSDOF 0
ENDMDL
