MODEL 1
REMARK minimizedAffinity -3.89404106
REMARK minimizedRMSD -1
REMARK  0 active torsions:
REMARK  status: ('A' for Active; 'I' for Inactive)
ROOT
ATOM      1  C1  DEN d   1      -1.981  -0.229   1.513  0.00  0.00     0.130 A 
ATOM      2  C2  DEN d   1      -2.010   0.177   0.110  0.00  0.00    -0.031 A 
ATOM      3  C3  DEN d   1      -0.619   0.199  -0.387  0.00  0.00     0.027 A 
ATOM      4  C4  DEN d   1       1.563  -0.356   0.871  0.00  0.00     0.027 A 
ATOM      5  C5  DEN d   1       2.093  -0.739   2.083  0.00  0.00    -0.003 A 
ATOM      6  C6  DEN d   1       1.313  -0.944   3.190  0.00  0.00     0.001 A 
ATOM      7  C7  DEN d   1      -0.047  -0.811   3.095  0.00  0.00     0.017 A 
ATOM      8  C8  DEN d   1      -0.589  -0.418   1.879  0.00  0.00    -0.094 A 
ATOM      9  C9  DEN d   1       0.216  -0.228   0.768  0.00  0.00    -0.072 A 
ENDROOT
TORSDOF 0
ENDMDL
