MODEL 1
REMARK minimizedAffinity -5.22555923
REMARK minimizedRMSD -1
REMARK  0 active torsions:
REMARK  status: ('A' for Active; 'I' for Inactive)
ROOT
ATOM      1  C1  DEN d   1      -0.649  -0.756  -0.240  0.00  0.00     0.130 A 
ATOM      2  C2  DEN d   1      -1.824  -0.071   0.292  0.00  0.00    -0.031 A 
ATOM      3  C3  DEN d   1      -2.018  -0.513   1.687  0.00  0.00     0.027 A 
ATOM      4  C4  DEN d   1      -0.617  -2.180   3.070  0.00  0.00     0.027 A 
ATOM      5  C5  DEN d   1       0.470  -3.026   3.044  0.00  0.00    -0.003 A 
ATOM      6  C6  DEN d   1       1.233  -3.198   1.920  0.00  0.00     0.001 A 
ATOM      7  C7  DEN d   1       0.947  -2.481   0.788  0.00  0.00     0.017 A 
ATOM      8  C8  DEN d   1      -0.151  -1.632   0.805  0.00  0.00    -0.094 A 
ATOM      9  C9  DEN d   1      -0.903  -1.462   1.955  0.00  0.00    -0.072 A 
ENDROOT
TORSDOF 0
ENDMDL
