MODEL 1
REMARK minimizedAffinity -3.1651535
REMARK minimizedRMSD -1
REMARK  0 active torsions:
REMARK  status: ('A' for Active; 'I' for Inactive)
ROOT
ATOM      1  C1  DEN d   1      -0.020  -0.113  -0.943  0.00  0.00     0.130 A 
ATOM      2  C2  DEN d   1      -1.440  -0.445  -1.017  0.00  0.00    -0.031 A 
ATOM      3  C3  DEN d   1      -1.893  -0.816   0.338  0.00  0.00     0.027 A 
ATOM      4  C4  DEN d   1      -0.542  -0.903   2.534  0.00  0.00     0.027 A 
ATOM      5  C5  DEN d   1       0.702  -0.719   3.094  0.00  0.00    -0.003 A 
ATOM      6  C6  DEN d   1       1.792  -0.356   2.348  0.00  0.00     0.001 A 
ATOM      7  C7  DEN d   1       1.649  -0.121   1.006  0.00  0.00     0.017 A 
ATOM      8  C8  DEN d   1       0.398  -0.312   0.433  0.00  0.00    -0.094 A 
ATOM      9  C9  DEN d   1      -0.694  -0.668   1.206  0.00  0.00    -0.072 A 
ENDROOT
TORSDOF 0
ENDMDL
