MODEL 1
REMARK minimizedAffinity -5.95388746
REMARK minimizedRMSD -1
REMARK  0 active torsions:
REMARK  status: ('A' for Active; 'I' for Inactive)
ROOT
ATOM      1  C1  DEN d   1      -1.274  -1.108   0.290  0.00  0.00     0.130 A 
ATOM      2  C2  DEN d   1      -0.754  -0.812  -1.042  0.00  0.00    -0.031 A 
ATOM      3  C3  DEN d   1       0.651  -0.383  -0.899  0.00  0.00     0.027 A 
ATOM      4  C4  DEN d   1       2.067  -0.152   1.245  0.00  0.00     0.027 A 
ATOM      5  C5  DEN d   1       2.056  -0.279   2.616  0.00  0.00    -0.003 A 
ATOM      6  C6  DEN d   1       0.934  -0.656   3.306  0.00  0.00     0.001 A 
ATOM      7  C7  DEN d   1      -0.212  -0.962   2.622  0.00  0.00     0.017 A 
ATOM      8  C8  DEN d   1      -0.211  -0.829   1.239  0.00  0.00    -0.094 A 
ATOM      9  C9  DEN d   1       0.937  -0.459   0.559  0.00  0.00    -0.072 A 
ENDROOT
TORSDOF 0
ENDMDL
