MODEL 1
REMARK minimizedAffinity 12.7640953
REMARK minimizedRMSD -1
REMARK  0 active torsions:
REMARK  status: ('A' for Active; 'I' for Inactive)
ROOT
ATOM      1  O1  BZF d   1       2.946  -5.460  -0.781  0.00  0.00    -0.204 OA
ATOM      2  C2  BZF d   1       3.806  -6.000  -1.719  0.00  0.00     0.174 A 
ATOM      3  C3  BZF d   1       3.317  -5.837  -2.965  0.00  0.00    -0.012 A 
ATOM      4  C3A BZF d   1       2.119  -5.072  -2.803  0.00  0.00    -0.107 A 
ATOM      5  C4  BZF d   1       1.195  -4.579  -3.679  0.00  0.00     0.055 A 
ATOM      6  C5  BZF d   1       0.101  -3.936  -3.192  0.00  0.00    -0.016 A 
ATOM      7  C6  BZF d   1      -0.102  -3.773  -1.837  0.00  0.00     0.022 A 
ATOM      8  C7  BZF d   1       0.789  -4.241  -0.930  0.00  0.00     0.029 A 
ATOM      9  C7A BZF d   1       1.912  -4.863  -1.420  0.00  0.00     0.058 A 
ENDROOT
TORSDOF 0
ENDMDL
