MODEL 1
REMARK minimizedAffinity 18.6886311
REMARK minimizedRMSD -1
REMARK  0 active torsions:
REMARK  status: ('A' for Active; 'I' for Inactive)
ROOT
ATOM      1  O1  BZF d   1      -0.023   0.746   4.069  0.00  0.00    -0.204 OA
ATOM      2  C2  BZF d   1       0.667   1.410   3.073  0.00  0.00     0.174 A 
ATOM      3  C3  BZF d   1       1.713   0.675   2.644  0.00  0.00    -0.012 A 
ATOM      4  C3A BZF d   1       1.619  -0.563   3.355  0.00  0.00    -0.107 A 
ATOM      5  C4  BZF d   1       2.364  -1.708   3.350  0.00  0.00     0.055 A 
ATOM      6  C5  BZF d   1       2.049  -2.705   4.217  0.00  0.00    -0.016 A 
ATOM      7  C6  BZF d   1       1.000  -2.590   5.106  0.00  0.00     0.022 A 
ATOM      8  C7  BZF d   1       0.229  -1.476   5.145  0.00  0.00     0.029 A 
ATOM      9  C7A BZF d   1       0.525  -0.479   4.247  0.00  0.00     0.058 A 
ENDROOT
TORSDOF 0
ENDMDL
