MODEL 1
REMARK minimizedAffinity 17.8242722
REMARK minimizedRMSD -1
REMARK  0 active torsions:
REMARK  status: ('A' for Active; 'I' for Inactive)
ROOT
ATOM      1  O1  BZF d   1      -4.947   1.139  -4.722  0.00  0.00    -0.204 OA
ATOM      2  C2  BZF d   1      -4.145   0.871  -5.814  0.00  0.00     0.174 A 
ATOM      3  C3  BZF d   1      -3.197   1.821  -5.956  0.00  0.00    -0.012 A 
ATOM      4  C3A BZF d   1      -3.365   2.689  -4.831  0.00  0.00    -0.107 A 
ATOM      5  C4  BZF d   1      -2.711   3.811  -4.405  0.00  0.00     0.055 A 
ATOM      6  C5  BZF d   1      -3.170   4.464  -3.305  0.00  0.00    -0.016 A 
ATOM      7  C6  BZF d   1      -4.280   4.029  -2.612  0.00  0.00     0.022 A 
ATOM      8  C7  BZF d   1      -4.958   2.919  -2.993  0.00  0.00     0.029 A 
ATOM      9  C7A BZF d   1      -4.477   2.237  -4.084  0.00  0.00     0.058 A 
ENDROOT
TORSDOF 0
ENDMDL
