MODEL 1
REMARK minimizedAffinity 14.0868158
REMARK minimizedRMSD -1
REMARK  0 active torsions:
REMARK  status: ('A' for Active; 'I' for Inactive)
ROOT
ATOM      1  O1  BZF d   1      -5.452   1.308  -5.188  0.00  0.00    -0.204 OA
ATOM      2  C2  BZF d   1      -4.415   0.666  -5.836  0.00  0.00     0.174 A 
ATOM      3  C3  BZF d   1      -3.254   1.328  -5.653  0.00  0.00    -0.012 A 
ATOM      4  C3A BZF d   1      -3.570   2.403  -4.764  0.00  0.00    -0.107 A 
ATOM      5  C4  BZF d   1      -2.830   3.402  -4.199  0.00  0.00     0.055 A 
ATOM      6  C5  BZF d   1      -3.455   4.335  -3.434  0.00  0.00    -0.016 A 
ATOM      7  C6  BZF d   1      -4.817   4.304  -3.219  0.00  0.00     0.022 A 
ATOM      8  C7  BZF d   1      -5.592   3.330  -3.755  0.00  0.00     0.029 A 
ATOM      9  C7A BZF d   1      -4.959   2.367  -4.501  0.00  0.00     0.058 A 
ENDROOT
TORSDOF 0
ENDMDL
