MODEL 1
REMARK minimizedAffinity 24.5110817
REMARK minimizedRMSD -1
REMARK  0 active torsions:
REMARK  status: ('A' for Active; 'I' for Inactive)
ROOT
ATOM      1  O1  BZF d   1      -1.783  -2.492   5.114  0.00  0.00    -0.204 OA
ATOM      2  C2  BZF d   1      -0.750  -2.250   5.999  0.00  0.00     0.174 A 
ATOM      3  C3  BZF d   1      -0.055  -1.153   5.635  0.00  0.00    -0.012 A 
ATOM      4  C3A BZF d   1      -0.750  -0.627   4.500  0.00  0.00    -0.107 A 
ATOM      5  C4  BZF d   1      -0.554   0.463   3.701  0.00  0.00     0.055 A 
ATOM      6  C5  BZF d   1      -1.370   0.653   2.631  0.00  0.00    -0.016 A 
ATOM      7  C6  BZF d   1      -2.387  -0.228   2.328  0.00  0.00     0.022 A 
ATOM      8  C7  BZF d   1      -2.624  -1.320   3.094  0.00  0.00     0.029 A 
ATOM      9  C7A BZF d   1      -1.822  -1.498   4.195  0.00  0.00     0.058 A 
ENDROOT
TORSDOF 0
ENDMDL
