MODEL 1
REMARK minimizedAffinity 15.4456272
REMARK minimizedRMSD -1
REMARK  0 active torsions:
REMARK  status: ('A' for Active; 'I' for Inactive)
ROOT
ATOM      1  O1  BZF d   1      -1.249   1.193   2.670  0.00  0.00    -0.204 OA
ATOM      2  C2  BZF d   1      -0.035   0.784   3.186  0.00  0.00     0.174 A 
ATOM      3  C3  BZF d   1       0.966   1.053   2.323  0.00  0.00    -0.012 A 
ATOM      4  C3A BZF d   1       0.350   1.753   1.238  0.00  0.00    -0.107 A 
ATOM      5  C4  BZF d   1       0.828   2.298   0.081  0.00  0.00     0.055 A 
ATOM      6  C5  BZF d   1      -0.048   2.847  -0.801  0.00  0.00    -0.016 A 
ATOM      7  C6  BZF d   1      -1.407   2.864  -0.561  0.00  0.00     0.022 A 
ATOM      8  C7  BZF d   1      -1.927   2.340   0.576  0.00  0.00     0.029 A 
ATOM      9  C7A BZF d   1      -1.041   1.813   1.484  0.00  0.00     0.058 A 
ENDROOT
TORSDOF 0
ENDMDL
