MODEL 1
REMARK minimizedAffinity 14.6931458
REMARK minimizedRMSD -1
REMARK  0 active torsions:
REMARK  status: ('A' for Active; 'I' for Inactive)
ROOT
ATOM      1  O1  BZF d   1       1.075  -4.606  -0.479  0.00  0.00    -0.204 OA
ATOM      2  C2  BZF d   1       0.676  -4.479  -1.796  0.00  0.00     0.174 A 
ATOM      3  C3  BZF d   1       0.998  -3.262  -2.278  0.00  0.00    -0.012 A 
ATOM      4  C3A BZF d   1       1.722  -2.619  -1.225  0.00  0.00    -0.107 A 
ATOM      5  C4  BZF d   1       2.319  -1.396  -1.106  0.00  0.00     0.055 A 
ATOM      6  C5  BZF d   1       2.879  -1.048   0.082  0.00  0.00    -0.016 A 
ATOM      7  C6  BZF d   1       2.857  -1.894   1.172  0.00  0.00     0.022 A 
ATOM      8  C7  BZF d   1       2.281  -3.118   1.100  0.00  0.00     0.029 A 
ATOM      9  C7A BZF d   1       1.743  -3.487  -0.109  0.00  0.00     0.058 A 
ENDROOT
TORSDOF 0
ENDMDL
