MODEL 1
REMARK minimizedAffinity 14.710722
REMARK minimizedRMSD -1
REMARK  0 active torsions:
REMARK  status: ('A' for Active; 'I' for Inactive)
ROOT
ATOM      1  O1  BZF d   1       2.192  -5.263  -1.723  0.00  0.00    -0.204 OA
ATOM      2  C2  BZF d   1       1.541  -4.210  -1.111  0.00  0.00     0.174 A 
ATOM      3  C3  BZF d   1       2.406  -3.465  -0.393  0.00  0.00    -0.012 A 
ATOM      4  C3A BZF d   1       3.693  -4.038  -0.641  0.00  0.00    -0.107 A 
ATOM      5  C4  BZF d   1       4.955  -3.729  -0.222  0.00  0.00     0.055 A 
ATOM      6  C5  BZF d   1       5.988  -4.533  -0.589  0.00  0.00    -0.016 A 
ATOM      7  C6  BZF d   1       5.794  -5.654  -1.368  0.00  0.00     0.022 A 
ATOM      8  C7  BZF d   1       4.561  -5.998  -1.813  0.00  0.00     0.029 A 
ATOM      9  C7A BZF d   1       3.520  -5.170  -1.471  0.00  0.00     0.058 A 
ENDROOT
TORSDOF 0
ENDMDL
