MODEL 1
REMARK minimizedAffinity -3.57061243
REMARK minimizedRMSD -1
REMARK  0 active torsions:
REMARK  status: ('A' for Active; 'I' for Inactive)
ROOT
ATOM      1  C4' PXY d   1       0.139  -1.782  -1.110  0.00  0.00     0.077 C 
ATOM      2  C1' PXY d   1      -0.543   2.769   2.388  0.00  0.00     0.077 C 
ATOM      3  C1  PXY d   1      -0.353   1.573   1.477  0.00  0.00    -0.082 A 
ATOM      4  C2  PXY d   1      -0.969   1.537   0.307  0.00  0.00     0.003 A 
ATOM      5  C3  PXY d   1      -0.833   0.449  -0.516  0.00  0.00     0.003 A 
ATOM      6  C4  PXY d   1      -0.016  -0.591  -0.161  0.00  0.00    -0.082 A 
ATOM      7  C5  PXY d   1       0.624  -0.557   1.027  0.00  0.00     0.003 A 
ATOM      8  C6  PXY d   1       0.441   0.538   1.866  0.00  0.00     0.003 A 
ENDROOT
TORSDOF 0
ENDMDL
