MODEL 1
REMARK minimizedAffinity -1.387568
REMARK minimizedRMSD -1
REMARK  0 active torsions:
REMARK  status: ('A' for Active; 'I' for Inactive)
ROOT
ATOM      1  C4' PXY d   1      -0.414   2.600  -1.902  0.00  0.00     0.077 C 
ATOM      2  C1' PXY d   1       0.058  -0.436   2.994  0.00  0.00     0.077 C 
ATOM      3  C1  PXY d   1      -0.073   0.369   1.716  0.00  0.00    -0.082 A 
ATOM      4  C2  PXY d   1       0.119  -0.222   0.548  0.00  0.00     0.003 A 
ATOM      5  C3  PXY d   1       0.036   0.498  -0.616  0.00  0.00     0.003 A 
ATOM      6  C4  PXY d   1      -0.301   1.824  -0.587  0.00  0.00    -0.082 A 
ATOM      7  C5  PXY d   1      -0.509   2.432   0.600  0.00  0.00     0.003 A 
ATOM      8  C6  PXY d   1      -0.379   1.694   1.772  0.00  0.00     0.003 A 
ENDROOT
TORSDOF 0
ENDMDL
