MODEL 1
REMARK minimizedAffinity -4.26937866
REMARK minimizedRMSD -1
REMARK  0 active torsions:
REMARK  status: ('A' for Active; 'I' for Inactive)
ROOT
ATOM      1  C4' PXY d   1       0.607  -0.538   1.907  0.00  0.00     0.077 C 
ATOM      2  C1' PXY d   1      -1.556   3.996  -0.952  0.00  0.00     0.077 C 
ATOM      3  C1  PXY d   1      -0.991   2.800  -0.213  0.00  0.00    -0.082 A 
ATOM      4  C2  PXY d   1      -1.025   2.772   1.109  0.00  0.00     0.003 A 
ATOM      5  C3  PXY d   1      -0.489   1.712   1.795  0.00  0.00     0.003 A 
ATOM      6  C4  PXY d   1       0.039   0.646   1.119  0.00  0.00    -0.082 A 
ATOM      7  C5  PXY d   1       0.069   0.662  -0.231  0.00  0.00     0.003 A 
ATOM      8  C6  PXY d   1      -0.443   1.765  -0.907  0.00  0.00     0.003 A 
ENDROOT
TORSDOF 0
ENDMDL
