MODEL 1
REMARK minimizedAffinity -0.56986469
REMARK minimizedRMSD -1
REMARK  0 active torsions:
REMARK  status: ('A' for Active; 'I' for Inactive)
ROOT
ATOM      1  C4' PXY d   1      -0.281  -2.784  -4.213  0.00  0.00     0.077 C 
ATOM      2  C1' PXY d   1       0.712  -0.049   0.782  0.00  0.00     0.077 C 
ATOM      3  C1  PXY d   1       0.454  -0.778  -0.522  0.00  0.00    -0.082 A 
ATOM      4  C2  PXY d   1       0.563  -0.126  -1.668  0.00  0.00     0.003 A 
ATOM      5  C3  PXY d   1       0.302  -0.761  -2.855  0.00  0.00     0.003 A 
ATOM      6  C4  PXY d   1      -0.021  -2.092  -2.873  0.00  0.00    -0.082 A 
ATOM      7  C5  PXY d   1      -0.123  -2.767  -1.708  0.00  0.00     0.003 A 
ATOM      8  C6  PXY d   1       0.105  -2.093  -0.512  0.00  0.00     0.003 A 
ENDROOT
TORSDOF 0
ENDMDL
