MODEL 1
REMARK minimizedAffinity -2.97329211
REMARK minimizedRMSD -1
REMARK  0 active torsions:
REMARK  status: ('A' for Active; 'I' for Inactive)
ROOT
ATOM      1  C4' PXY d   1       0.280  -2.001  -1.752  0.00  0.00     0.077 C 
ATOM      2  C1' PXY d   1      -1.001   2.449   1.708  0.00  0.00     0.077 C 
ATOM      3  C1  PXY d   1      -0.652   1.283   0.805  0.00  0.00    -0.082 A 
ATOM      4  C2  PXY d   1      -1.381   1.051  -0.275  0.00  0.00     0.003 A 
ATOM      5  C3  PXY d   1      -1.100  -0.019  -1.085  0.00  0.00     0.003 A 
ATOM      6  C4  PXY d   1      -0.029  -0.829  -0.817  0.00  0.00    -0.082 A 
ATOM      7  C5  PXY d   1       0.726  -0.592   0.277  0.00  0.00     0.003 A 
ATOM      8  C6  PXY d   1       0.399   0.474   1.109  0.00  0.00     0.003 A 
ENDROOT
TORSDOF 0
ENDMDL
