MODEL 1
REMARK minimizedAffinity -0.801668406
REMARK minimizedRMSD -1
REMARK  0 active torsions:
REMARK  status: ('A' for Active; 'I' for Inactive)
ROOT
ATOM      1  C4' PXY d   1       1.122   4.828   2.421  0.00  0.00     0.077 C 
ATOM      2  C1' PXY d   1      -1.670   1.008  -0.900  0.00  0.00     0.077 C 
ATOM      3  C1  PXY d   1      -0.949   2.017  -0.028  0.00  0.00    -0.082 A 
ATOM      4  C2  PXY d   1       0.362   2.157  -0.137  0.00  0.00     0.003 A 
ATOM      5  C3  PXY d   1       1.035   3.042   0.666  0.00  0.00     0.003 A 
ATOM      6  C4  PXY d   1       0.351   3.829   1.554  0.00  0.00    -0.082 A 
ATOM      7  C5  PXY d   1      -0.988   3.699   1.664  0.00  0.00     0.003 A 
ATOM      8  C6  PXY d   1      -1.646   2.766   0.868  0.00  0.00     0.003 A 
ENDROOT
TORSDOF 0
ENDMDL
