MODEL 1
REMARK minimizedAffinity 2.05676889
REMARK minimizedRMSD -1
REMARK  0 active torsions:
REMARK  status: ('A' for Active; 'I' for Inactive)
ROOT
ATOM      1  C4' PXY d   1      -2.196   3.243  -1.360  0.00  0.00     0.077 C 
ATOM      2  C1' PXY d   1       0.726  -1.653  -0.409  0.00  0.00     0.077 C 
ATOM      3  C1  PXY d   1      -0.050  -0.373  -0.651  0.00  0.00    -0.082 A 
ATOM      4  C2  PXY d   1       0.176   0.331  -1.748  0.00  0.00     0.003 A 
ATOM      5  C3  PXY d   1      -0.494   1.508  -1.967  0.00  0.00     0.003 A 
ATOM      6  C4  PXY d   1      -1.443   1.940  -1.080  0.00  0.00    -0.082 A 
ATOM      7  C5  PXY d   1      -1.687   1.221   0.037  0.00  0.00     0.003 A 
ATOM      8  C6  PXY d   1      -0.967   0.051   0.261  0.00  0.00     0.003 A 
ENDROOT
TORSDOF 0
ENDMDL
