MODEL 1
REMARK minimizedAffinity -1.309237
REMARK minimizedRMSD -1
REMARK  0 active torsions:
REMARK  status: ('A' for Active; 'I' for Inactive)
ROOT
ATOM      1  C4' PXY d   1      -1.106  -2.434  -0.620  0.00  0.00     0.077 C 
ATOM      2  C1' PXY d   1      -0.083   2.816   1.573  0.00  0.00     0.077 C 
ATOM      3  C1  PXY d   1      -0.339   1.439   0.993  0.00  0.00    -0.082 A 
ATOM      4  C2  PXY d   1      -1.575   1.074   0.696  0.00  0.00     0.003 A 
ATOM      5  C3  PXY d   1      -1.829  -0.180   0.201  0.00  0.00     0.003 A 
ATOM      6  C4  PXY d   1      -0.799  -1.050  -0.042  0.00  0.00    -0.082 A 
ATOM      7  C5  PXY d   1       0.466  -0.681   0.249  0.00  0.00     0.003 A 
ATOM      8  C6  PXY d   1       0.697   0.581   0.790  0.00  0.00     0.003 A 
ENDROOT
TORSDOF 0
ENDMDL
