MODEL 1
REMARK minimizedAffinity -1.67023015
REMARK minimizedRMSD -1
REMARK  1 active torsions:
REMARK  status: ('A' for Active; 'I' for Inactive)
REMARK    1  A    between atoms: C3_4  and  O_7 
ROOT
ATOM      1  C   UNL d   1       0.750  -5.987  -4.106  0.00  0.00    -0.033 A 
ATOM      2  C1  UNL d   1       0.111  -5.976  -5.347  0.00  0.00     0.039 A 
ATOM      3  C2  UNL d   1      -1.284  -5.978  -5.415  0.00  0.00    -0.080 A 
ATOM      4  C3  UNL d   1      -2.026  -5.991  -4.237  0.00  0.00     0.150 A 
ATOM      5  C4  UNL d   1      -1.395  -5.999  -2.997  0.00  0.00    -0.007 A 
ATOM      6  C5  UNL d   1      -0.002  -5.998  -2.931  0.00  0.00     0.039 A 
ENDROOT
BRANCH   4   7
ATOM      7  O   UNL d   1      -3.389  -5.999  -4.253  0.00  0.00    -0.526 OA
ATOM      8  H5  UNL d   1      -3.685  -6.021  -5.178  0.00  0.00     0.418 HD
ENDBRANCH   4   7
TORSDOF 1
ENDMDL
