MODEL 1
REMARK minimizedAffinity 2.45268393
REMARK minimizedRMSD -1
REMARK  1 active torsions:
REMARK  status: ('A' for Active; 'I' for Inactive)
REMARK    1  A    between atoms: C3_4  and  O_7 
ROOT
ATOM      1  C   UNL d   1       0.933  -4.872  -5.966  0.00  0.00    -0.033 A 
ATOM      2  C1  UNL d   1      -0.250  -5.612  -6.000  0.00  0.00     0.039 A 
ATOM      3  C2  UNL d   1      -0.868  -6.000  -4.809  0.00  0.00    -0.080 A 
ATOM      4  C3  UNL d   1      -0.293  -5.640  -3.593  0.00  0.00     0.150 A 
ATOM      5  C4  UNL d   1       0.884  -4.899  -3.552  0.00  0.00    -0.007 A 
ATOM      6  C5  UNL d   1       1.499  -4.514  -4.742  0.00  0.00     0.039 A 
ENDROOT
BRANCH   4   7
ATOM      7  O   UNL d   1      -0.856  -5.999  -2.404  0.00  0.00    -0.526 OA
ATOM      8  H5  UNL d   1      -1.648  -6.531  -2.588  0.00  0.00     0.418 HD
ENDBRANCH   4   7
TORSDOF 1
ENDMDL
