MODEL 1
REMARK minimizedAffinity -0.0644846335
REMARK minimizedRMSD -1
REMARK  1 active torsions:
REMARK  status: ('A' for Active; 'I' for Inactive)
REMARK    1  A    between atoms: C3_4  and  O_7 
ROOT
ATOM      1  C   UNL d   1      -1.726  -5.996  -3.769  0.00  0.00    -0.033 A 
ATOM      2  C1  UNL d   1      -1.466  -5.996  -5.141  0.00  0.00     0.039 A 
ATOM      3  C2  UNL d   1      -0.148  -5.992  -5.604  0.00  0.00    -0.080 A 
ATOM      4  C3  UNL d   1       0.898  -5.988  -4.686  0.00  0.00     0.150 A 
ATOM      5  C4  UNL d   1       0.647  -5.991  -3.318  0.00  0.00    -0.007 A 
ATOM      6  C5  UNL d   1      -0.669  -5.994  -2.858  0.00  0.00     0.039 A 
ENDROOT
BRANCH   4   7
ATOM      7  O   UNL d   1       2.200  -5.979  -5.090  0.00  0.00    -0.526 OA
ATOM      8  H5  UNL d   1       2.221  -5.949  -6.061  0.00  0.00     0.418 HD
ENDBRANCH   4   7
TORSDOF 1
ENDMDL
