MODEL 1
REMARK minimizedAffinity 4.6866045
REMARK minimizedRMSD -1
REMARK  1 active torsions:
REMARK  status: ('A' for Active; 'I' for Inactive)
REMARK    1  A    between atoms: C3_4  and  O_7 
ROOT
ATOM      1  C   UNL d   1      -0.070  -1.558   0.617  0.00  0.00    -0.033 A 
ATOM      2  C1  UNL d   1       0.862  -2.574   0.838  0.00  0.00     0.039 A 
ATOM      3  C2  UNL d   1       2.229  -2.292   0.794  0.00  0.00    -0.080 A 
ATOM      4  C3  UNL d   1       2.650  -0.991   0.531  0.00  0.00     0.150 A 
ATOM      5  C4  UNL d   1       1.727   0.027   0.314  0.00  0.00    -0.007 A 
ATOM      6  C5  UNL d   1       0.362  -0.257   0.357  0.00  0.00     0.039 A 
ENDROOT
BRANCH   4   7
ATOM      7  O   UNL d   1       3.973  -0.668   0.474  0.00  0.00    -0.526 OA
ATOM      8  H5  UNL d   1       4.493  -1.477   0.615  0.00  0.00     0.418 HD
ENDBRANCH   4   7
TORSDOF 1
ENDMDL
