MODEL 1
REMARK minimizedAffinity -1.53939354
REMARK minimizedRMSD -1
REMARK  1 active torsions:
REMARK  status: ('A' for Active; 'I' for Inactive)
REMARK    1  A    between atoms: C3_4  and  O_7 
ROOT
ATOM      1  C   UNL d   1       0.406   0.561   0.293  0.00  0.00    -0.033 A 
ATOM      2  C1  UNL d   1      -0.518  -0.419   0.663  0.00  0.00     0.039 A 
ATOM      3  C2  UNL d   1      -0.111  -1.748   0.797  0.00  0.00    -0.080 A 
ATOM      4  C3  UNL d   1       1.219  -2.083   0.560  0.00  0.00     0.150 A 
ATOM      5  C4  UNL d   1       2.145  -1.111   0.196  0.00  0.00    -0.007 A 
ATOM      6  C5  UNL d   1       1.737   0.216   0.062  0.00  0.00     0.039 A 
ENDROOT
BRANCH   4   7
ATOM      7  O   UNL d   1       1.662  -3.367   0.674  0.00  0.00    -0.526 OA
ATOM      8  H5  UNL d   1       0.906  -3.934   0.904  0.00  0.00     0.418 HD
ENDBRANCH   4   7
TORSDOF 1
ENDMDL
