MODEL 1
REMARK minimizedAffinity -0.973985851
REMARK minimizedRMSD -1
REMARK  1 active torsions:
REMARK  status: ('A' for Active; 'I' for Inactive)
REMARK    1  A    between atoms: C3_4  and  O_7 
ROOT
ATOM      1  C   UNL d   1      -4.163  -5.996  -3.007  0.00  0.00    -0.033 A 
ATOM      2  C1  UNL d   1      -3.007  -5.999  -2.224  0.00  0.00     0.039 A 
ATOM      3  C2  UNL d   1      -3.105  -6.000  -0.831  0.00  0.00    -0.080 A 
ATOM      4  C3  UNL d   1      -4.363  -5.998  -0.235  0.00  0.00     0.150 A 
ATOM      5  C4  UNL d   1      -5.519  -5.999  -1.008  0.00  0.00    -0.007 A 
ATOM      6  C5  UNL d   1      -5.419  -5.998  -2.399  0.00  0.00     0.039 A 
ENDROOT
BRANCH   4   7
ATOM      7  O   UNL d   1      -4.509  -5.994   1.121  0.00  0.00    -0.526 OA
ATOM      8  H5  UNL d   1      -3.626  -5.965   1.525  0.00  0.00     0.418 HD
ENDBRANCH   4   7
TORSDOF 1
ENDMDL
