MODEL 1
REMARK minimizedAffinity 2.67119336
REMARK minimizedRMSD -1
REMARK  1 active torsions:
REMARK  status: ('A' for Active; 'I' for Inactive)
REMARK    1  A    between atoms: C3_4  and  O_7 
ROOT
ATOM      1  C   UNL d   1      -0.573  -1.778   0.781  0.00  0.00    -0.033 A 
ATOM      2  C1  UNL d   1      -0.047  -0.507   0.539  0.00  0.00     0.039 A 
ATOM      3  C2  UNL d   1       1.334  -0.306   0.557  0.00  0.00    -0.080 A 
ATOM      4  C3  UNL d   1       2.178  -1.382   0.817  0.00  0.00     0.150 A 
ATOM      5  C4  UNL d   1       1.661  -2.652   1.055  0.00  0.00    -0.007 A 
ATOM      6  C5  UNL d   1       0.281  -2.850   1.038  0.00  0.00     0.039 A 
ENDROOT
BRANCH   4   7
ATOM      7  O   UNL d   1       3.533  -1.234   0.850  0.00  0.00    -0.526 OA
ATOM      8  H5  UNL d   1       3.744  -0.298   0.696  0.00  0.00     0.418 HD
ENDBRANCH   4   7
TORSDOF 1
ENDMDL
