MODEL 1
REMARK minimizedAffinity -1.20500755
REMARK minimizedRMSD -1
REMARK  1 active torsions:
REMARK  status: ('A' for Active; 'I' for Inactive)
REMARK    1  A    between atoms: C3_4  and  O_7 
ROOT
ATOM      1  C   UNL d   1      -1.969  -5.953  -3.921  0.00  0.00    -0.033 A 
ATOM      2  C1  UNL d   1      -0.770  -5.988  -3.208  0.00  0.00     0.039 A 
ATOM      3  C2  UNL d   1       0.449  -5.992  -3.889  0.00  0.00    -0.080 A 
ATOM      4  C3  UNL d   1       0.454  -5.960  -5.281  0.00  0.00     0.150 A 
ATOM      5  C4  UNL d   1      -0.737  -5.922  -5.997  0.00  0.00    -0.007 A 
ATOM      6  C5  UNL d   1      -1.953  -5.919  -5.316  0.00  0.00     0.039 A 
ENDROOT
BRANCH   4   7
ATOM      7  O   UNL d   1       1.619  -5.967  -5.989  0.00  0.00    -0.526 OA
ATOM      8  H5  UNL d   1       2.360  -6.024  -5.363  0.00  0.00     0.418 HD
ENDBRANCH   4   7
TORSDOF 1
ENDMDL
