MODEL 1
REMARK minimizedAffinity -1.62874758
REMARK minimizedRMSD -1
REMARK  1 active torsions:
REMARK  status: ('A' for Active; 'I' for Inactive)
REMARK    1  A    between atoms: C3_4  and  O_7 
ROOT
ATOM      1  C   UNL d   1      -0.037  -3.574   0.861  0.00  0.00    -0.033 A 
ATOM      2  C1  UNL d   1       0.904  -2.889   1.633  0.00  0.00     0.039 A 
ATOM      3  C2  UNL d   1       0.970  -1.495   1.582  0.00  0.00    -0.080 A 
ATOM      4  C3  UNL d   1       0.090  -0.799   0.758  0.00  0.00     0.150 A 
ATOM      5  C4  UNL d   1      -0.852  -1.475  -0.010  0.00  0.00    -0.007 A 
ATOM      6  C5  UNL d   1      -0.916  -2.866   0.041  0.00  0.00     0.039 A 
ENDROOT
BRANCH   4   7
ATOM      7  O   UNL d   1       0.120   0.561   0.671  0.00  0.00    -0.526 OA
ATOM      8  H5  UNL d   1       0.840   0.890   1.235  0.00  0.00     0.418 HD
ENDBRANCH   4   7
TORSDOF 1
ENDMDL
