MODEL 1
REMARK minimizedAffinity -1.94127727
REMARK minimizedRMSD -1
REMARK  1 active torsions:
REMARK  status: ('A' for Active; 'I' for Inactive)
REMARK    1  A    between atoms: C3_4  and  O_7 
ROOT
ATOM      1  C   UNL d   1       0.889  -3.079   1.280  0.00  0.00    -0.033 A 
ATOM      2  C1  UNL d   1       2.098  -2.415   1.492  0.00  0.00     0.039 A 
ATOM      3  C2  UNL d   1       2.222  -1.063   1.167  0.00  0.00    -0.080 A 
ATOM      4  C3  UNL d   1       1.129  -0.386   0.631  0.00  0.00     0.150 A 
ATOM      5  C4  UNL d   1      -0.081  -1.040   0.421  0.00  0.00    -0.007 A 
ATOM      6  C5  UNL d   1      -0.201  -2.391   0.745  0.00  0.00     0.039 A 
ENDROOT
BRANCH   4   7
ATOM      7  O   UNL d   1       1.202   0.932   0.294  0.00  0.00    -0.526 OA
ATOM      8  H5  UNL d   1       2.106   1.244   0.468  0.00  0.00     0.418 HD
ENDBRANCH   4   7
TORSDOF 1
ENDMDL
