MODEL 1
REMARK minimizedAffinity -0.278504521
REMARK minimizedRMSD -1
REMARK  1 active torsions:
REMARK  status: ('A' for Active; 'I' for Inactive)
REMARK    1  A    between atoms: C3_4  and  O_7 
ROOT
ATOM      1  C   UNL d   1       0.477  -3.211   0.771  0.00  0.00    -0.033 A 
ATOM      2  C1  UNL d   1      -0.779  -2.629   0.589  0.00  0.00     0.039 A 
ATOM      3  C2  UNL d   1      -0.926  -1.243   0.665  0.00  0.00    -0.080 A 
ATOM      4  C3  UNL d   1       0.189  -0.451   0.922  0.00  0.00     0.150 A 
ATOM      5  C4  UNL d   1       1.445  -1.023   1.101  0.00  0.00    -0.007 A 
ATOM      6  C5  UNL d   1       1.589  -2.408   1.025  0.00  0.00     0.039 A 
ENDROOT
BRANCH   4   7
ATOM      7  O   UNL d   1       0.094   0.906   1.011  0.00  0.00    -0.526 OA
ATOM      8  H5  UNL d   1      -0.837   1.158   0.895  0.00  0.00     0.418 HD
ENDBRANCH   4   7
TORSDOF 1
ENDMDL
