MODEL 1
REMARK minimizedAffinity -3.80061245
REMARK minimizedRMSD -1
REMARK  1 active torsions:
REMARK  status: ('A' for Active; 'I' for Inactive)
REMARK    1  A    between atoms: C3_4  and  O_7 
ROOT
ATOM      1  C   UNL d   1      -2.273  -5.999  -3.538  0.00  0.00    -0.033 A 
ATOM      2  C1  UNL d   1      -2.388  -5.576  -4.864  0.00  0.00     0.039 A 
ATOM      3  C2  UNL d   1      -1.260  -5.136  -5.558  0.00  0.00    -0.080 A 
ATOM      4  C3  UNL d   1      -0.024  -5.126  -4.917  0.00  0.00     0.150 A 
ATOM      5  C4  UNL d   1       0.099  -5.550  -3.598  0.00  0.00    -0.007 A 
ATOM      6  C5  UNL d   1      -1.029  -5.988  -2.906  0.00  0.00     0.039 A 
ENDROOT
BRANCH   4   7
ATOM      7  O   UNL d   1       1.105  -4.700  -5.553  0.00  0.00    -0.526 OA
ATOM      8  H5  UNL d   1       0.863  -4.411  -6.449  0.00  0.00     0.418 HD
ENDBRANCH   4   7
TORSDOF 1
ENDMDL
