MODEL 1
REMARK minimizedAffinity -0.649154902
REMARK minimizedRMSD -1
REMARK  1 active torsions:
REMARK  status: ('A' for Active; 'I' for Inactive)
REMARK    1  A    between atoms: C3_4  and  O_7 
ROOT
ATOM      1  C   UNL d   1       1.454  -5.683  -5.155  0.00  0.00    -0.033 A 
ATOM      2  C1  UNL d   1       1.264  -5.583  -3.775  0.00  0.00     0.039 A 
ATOM      3  C2  UNL d   1      -0.020  -5.689  -3.236  0.00  0.00    -0.080 A 
ATOM      4  C3  UNL d   1      -1.103  -5.895  -4.086  0.00  0.00     0.150 A 
ATOM      5  C4  UNL d   1      -0.920  -6.000  -5.461  0.00  0.00    -0.007 A 
ATOM      6  C5  UNL d   1       0.362  -5.893  -5.998  0.00  0.00     0.039 A 
ENDROOT
BRANCH   4   7
ATOM      7  O   UNL d   1      -2.375  -6.000  -3.607  0.00  0.00    -0.526 OA
ATOM      8  H5  UNL d   1      -2.352  -5.879  -2.643  0.00  0.00     0.418 HD
ENDBRANCH   4   7
TORSDOF 1
ENDMDL
