MODEL 1
REMARK minimizedAffinity 2.05221963
REMARK minimizedRMSD -1
REMARK  1 active torsions:
REMARK  status: ('A' for Active; 'I' for Inactive)
REMARK    1  A    between atoms: C3_4  and  O_7 
ROOT
ATOM      1  C   UNL d   1       1.317  -5.995  -5.028  0.00  0.00    -0.033 A 
ATOM      2  C1  UNL d   1       1.478  -6.000  -3.642  0.00  0.00     0.039 A 
ATOM      3  C2  UNL d   1       0.359  -6.000  -2.807  0.00  0.00    -0.080 A 
ATOM      4  C3  UNL d   1      -0.914  -5.996  -3.371  0.00  0.00     0.150 A 
ATOM      5  C4  UNL d   1      -1.081  -5.995  -4.752  0.00  0.00    -0.007 A 
ATOM      6  C5  UNL d   1       0.037  -5.994  -5.584  0.00  0.00     0.039 A 
ENDROOT
BRANCH   4   7
ATOM      7  O   UNL d   1      -2.036  -5.991  -2.597  0.00  0.00    -0.526 OA
ATOM      8  H5  UNL d   1      -1.766  -5.963  -1.664  0.00  0.00     0.418 HD
ENDBRANCH   4   7
TORSDOF 1
ENDMDL
