MODEL 1
REMARK minimizedAffinity -2.2139051
REMARK minimizedRMSD -1
REMARK  1 active torsions:
REMARK  status: ('A' for Active; 'I' for Inactive)
REMARK    1  A    between atoms: C3_4  and  O_7 
ROOT
ATOM      1  C   UNL d   1      -0.195  -5.628  -1.700  0.00  0.00    -0.033 A 
ATOM      2  C1  UNL d   1       1.122  -5.256  -1.982  0.00  0.00     0.039 A 
ATOM      3  C2  UNL d   1       1.583  -5.258  -3.299  0.00  0.00    -0.080 A 
ATOM      4  C3  UNL d   1       0.719  -5.632  -4.325  0.00  0.00     0.150 A 
ATOM      5  C4  UNL d   1      -0.594  -6.000  -4.052  0.00  0.00    -0.007 A 
ATOM      6  C5  UNL d   1      -1.053  -5.998  -2.736  0.00  0.00     0.039 A 
ENDROOT
BRANCH   4   7
ATOM      7  O   UNL d   1       1.125  -5.654  -5.626  0.00  0.00    -0.526 OA
ATOM      8  H5  UNL d   1       2.064  -5.404  -5.660  0.00  0.00     0.418 HD
ENDBRANCH   4   7
TORSDOF 1
ENDMDL
