MODEL 1
REMARK minimizedAffinity -0.233251587
REMARK minimizedRMSD -1
REMARK  1 active torsions:
REMARK  status: ('A' for Active; 'I' for Inactive)
REMARK    1  A    between atoms: C3_4  and  O_7 
ROOT
ATOM      1  C   UNL d   1       2.445  -5.930  -3.765  0.00  0.00    -0.033 A 
ATOM      2  C1  UNL d   1       2.525  -5.992  -5.158  0.00  0.00     0.039 A 
ATOM      3  C2  UNL d   1       1.359  -5.999  -5.927  0.00  0.00    -0.080 A 
ATOM      4  C3  UNL d   1       0.122  -5.943  -5.292  0.00  0.00     0.150 A 
ATOM      5  C4  UNL d   1       0.034  -5.876  -3.905  0.00  0.00    -0.007 A 
ATOM      6  C5  UNL d   1       1.199  -5.870  -3.139  0.00  0.00     0.039 A 
ENDROOT
BRANCH   4   7
ATOM      7  O   UNL d   1      -1.043  -5.952  -5.999  0.00  0.00    -0.526 OA
ATOM      8  H5  UNL d   1      -0.829  -6.029  -6.944  0.00  0.00     0.418 HD
ENDBRANCH   4   7
TORSDOF 1
ENDMDL
