MODEL 1
REMARK minimizedAffinity -5.29414129
REMARK minimizedRMSD -1
REMARK  1 active torsions:
REMARK  status: ('A' for Active; 'I' for Inactive)
REMARK    1  A    between atoms: C1_2  and  C2_3 
ROOT
ATOM      1  C2  UNL d   1       0.086   1.479   0.211  0.00  0.00    -0.081 A 
ATOM      2  C3  UNL d   1       1.060   0.514  -0.074  0.00  0.00     0.006 A 
ATOM      3  C4  UNL d   1       0.727  -0.842  -0.102  0.00  0.00     0.002 A 
ATOM      4  C5  UNL d   1      -0.586  -1.256   0.146  0.00  0.00    -0.080 A 
ATOM      5  C6  UNL d   1      -0.963  -2.707   0.089  0.00  0.00     0.076 C 
ATOM      6  C7  UNL d   1      -1.555  -0.294   0.448  0.00  0.00     0.002 A 
ATOM      7  C8  UNL d   1      -1.223   1.062   0.477  0.00  0.00     0.006 A 
ENDROOT
BRANCH   1   8
ATOM      8  C1  UNL d   1       0.428   2.946   0.179  0.00  0.00     0.054 C 
ATOM      9  C   UNL d   1       1.821   3.202   0.735  0.00  0.00     0.018 C 
ENDBRANCH   1   8
TORSDOF 1
ENDMDL
