MODEL 1
REMARK minimizedAffinity -4.76134682
REMARK minimizedRMSD -1
REMARK  1 active torsions:
REMARK  status: ('A' for Active; 'I' for Inactive)
REMARK    1  A    between atoms: C1_2  and  C2_3 
ROOT
ATOM      1  C2  UNL d   1      -0.027  -0.674   0.122  0.00  0.00    -0.081 A 
ATOM      2  C3  UNL d   1      -1.129   0.162   0.336  0.00  0.00     0.006 A 
ATOM      3  C4  UNL d   1      -1.002   1.548   0.211  0.00  0.00     0.002 A 
ATOM      4  C5  UNL d   1       0.227   2.119  -0.138  0.00  0.00    -0.080 A 
ATOM      5  C6  UNL d   1       0.370   3.602  -0.306  0.00  0.00     0.076 C 
ATOM      6  C7  UNL d   1       1.332   1.284  -0.336  0.00  0.00     0.002 A 
ATOM      7  C8  UNL d   1       1.206  -0.101  -0.210  0.00  0.00     0.006 A 
ENDROOT
BRANCH   1   8
ATOM      8  C1  UNL d   1      -0.176  -2.173   0.193  0.00  0.00     0.054 C 
ATOM      9  C   UNL d   1      -0.202  -2.793  -1.197  0.00  0.00     0.018 C 
ENDBRANCH   1   8
TORSDOF 1
ENDMDL
