MODEL 1
REMARK minimizedAffinity -4.86963224
REMARK minimizedRMSD -1
REMARK  1 active torsions:
REMARK  status: ('A' for Active; 'I' for Inactive)
REMARK    1  A    between atoms: C1_2  and  C2_3 
ROOT
ATOM      1  C2  UNL d   1       0.351  -0.407   0.153  0.00  0.00    -0.081 A 
ATOM      2  C3  UNL d   1      -0.767   0.434   0.092  0.00  0.00     0.006 A 
ATOM      3  C4  UNL d   1      -0.615   1.821   0.153  0.00  0.00     0.002 A 
ATOM      4  C5  UNL d   1       0.658   2.390   0.269  0.00  0.00    -0.080 A 
ATOM      5  C6  UNL d   1       0.838   3.879   0.306  0.00  0.00     0.076 C 
ATOM      6  C7  UNL d   1       1.774   1.550   0.348  0.00  0.00     0.002 A 
ATOM      7  C8  UNL d   1       1.622   0.163   0.287  0.00  0.00     0.006 A 
ENDROOT
BRANCH   1   8
ATOM      8  C1  UNL d   1       0.195  -1.900   0.022  0.00  0.00     0.054 C 
ATOM      9  C   UNL d   1      -0.336  -2.283  -1.352  0.00  0.00     0.018 C 
ENDBRANCH   1   8
TORSDOF 1
ENDMDL
