MODEL 1
REMARK minimizedAffinity -5.09042978
REMARK minimizedRMSD -1
REMARK  1 active torsions:
REMARK  status: ('A' for Active; 'I' for Inactive)
REMARK    1  A    between atoms: C1_2  and  C2_3 
ROOT
ATOM      1  C2  UNL d   1      -0.185  -0.819  -0.371  0.00  0.00    -0.081 A 
ATOM      2  C3  UNL d   1      -1.250  -0.043   0.101  0.00  0.00     0.006 A 
ATOM      3  C4  UNL d   1      -1.111   1.339   0.245  0.00  0.00     0.002 A 
ATOM      4  C5  UNL d   1       0.093   1.970  -0.089  0.00  0.00    -0.080 A 
ATOM      5  C6  UNL d   1       0.246   3.457   0.032  0.00  0.00     0.076 C 
ATOM      6  C7  UNL d   1       1.163   1.192  -0.544  0.00  0.00     0.002 A 
ATOM      7  C8  UNL d   1       1.025  -0.190  -0.687  0.00  0.00     0.006 A 
ENDROOT
BRANCH   1   8
ATOM      8  C1  UNL d   1      -0.353  -2.301  -0.589  0.00  0.00     0.054 C 
ATOM      9  C   UNL d   1      -0.937  -2.596  -1.963  0.00  0.00     0.018 C 
ENDBRANCH   1   8
TORSDOF 1
ENDMDL
