MODEL 1
REMARK minimizedAffinity -3.69285417
REMARK minimizedRMSD -1
REMARK  1 active torsions:
REMARK  status: ('A' for Active; 'I' for Inactive)
REMARK    1  A    between atoms: C1_2  and  C2_3 
ROOT
ATOM      1  C2  UNL d   1      -0.046  -1.101  -0.042  0.00  0.00    -0.081 A 
ATOM      2  C3  UNL d   1      -1.232  -0.483   0.371  0.00  0.00     0.006 A 
ATOM      3  C4  UNL d   1      -1.297   0.906   0.504  0.00  0.00     0.002 A 
ATOM      4  C5  UNL d   1      -0.181   1.700   0.219  0.00  0.00    -0.080 A 
ATOM      5  C6  UNL d   1      -0.247   3.194   0.328  0.00  0.00     0.076 C 
ATOM      6  C7  UNL d   1       1.009   1.081  -0.177  0.00  0.00     0.002 A 
ATOM      7  C8  UNL d   1       1.076  -0.308  -0.309  0.00  0.00     0.006 A 
ENDROOT
BRANCH   1   8
ATOM      8  C1  UNL d   1       0.009  -2.593  -0.248  0.00  0.00     0.054 C 
ATOM      9  C   UNL d   1      -1.339  -3.140  -0.698  0.00  0.00     0.018 C 
ENDBRANCH   1   8
TORSDOF 1
ENDMDL
