MODEL 1
REMARK minimizedAffinity -5.86172676
REMARK minimizedRMSD -1
REMARK  1 active torsions:
REMARK  status: ('A' for Active; 'I' for Inactive)
REMARK    1  A    between atoms: C1_2  and  C2_3 
ROOT
ATOM      1  C2  UNL d   1       0.419  -0.552  -0.122  0.00  0.00    -0.081 A 
ATOM      2  C3  UNL d   1       1.613   0.163  -0.279  0.00  0.00     0.006 A 
ATOM      3  C4  UNL d   1       1.609   1.560  -0.261  0.00  0.00     0.002 A 
ATOM      4  C5  UNL d   1       0.415   2.265  -0.079  0.00  0.00    -0.080 A 
ATOM      5  C6  UNL d   1       0.401   3.763  -0.027  0.00  0.00     0.076 C 
ATOM      6  C7  UNL d   1      -0.780   1.551   0.060  0.00  0.00     0.002 A 
ATOM      7  C8  UNL d   1      -0.778   0.154   0.042  0.00  0.00     0.006 A 
ENDROOT
BRANCH   1   8
ATOM      8  C1  UNL d   1       0.429  -2.058  -0.076  0.00  0.00     0.054 C 
ATOM      9  C   UNL d   1      -0.387  -2.652  -1.216  0.00  0.00     0.018 C 
ENDBRANCH   1   8
TORSDOF 1
ENDMDL
