MODEL 1
REMARK minimizedAffinity -3.96895075
REMARK minimizedRMSD -1
REMARK  1 active torsions:
REMARK  status: ('A' for Active; 'I' for Inactive)
REMARK    1  A    between atoms: C1_2  and  C2_3 
ROOT
ATOM      1  C2  UNL d   1      -0.172  -0.512   0.013  0.00  0.00    -0.081 A 
ATOM      2  C3  UNL d   1      -1.318   0.221   0.344  0.00  0.00     0.006 A 
ATOM      3  C4  UNL d   1      -1.351   1.605   0.161  0.00  0.00     0.002 A 
ATOM      4  C5  UNL d   1      -0.242   2.278  -0.365  0.00  0.00    -0.080 A 
ATOM      5  C6  UNL d   1      -0.275   3.760  -0.595  0.00  0.00     0.076 C 
ATOM      6  C7  UNL d   1       0.909   1.548  -0.680  0.00  0.00     0.002 A 
ATOM      7  C8  UNL d   1       0.942   0.164  -0.495  0.00  0.00     0.006 A 
ENDROOT
BRANCH   1   8
ATOM      8  C1  UNL d   1      -0.157  -2.014   0.149  0.00  0.00     0.054 C 
ATOM      9  C   UNL d   1      -1.305  -2.651  -0.621  0.00  0.00     0.018 C 
ENDBRANCH   1   8
TORSDOF 1
ENDMDL
