MODEL 1
REMARK minimizedAffinity -4.74329329
REMARK minimizedRMSD -1
REMARK  1 active torsions:
REMARK  status: ('A' for Active; 'I' for Inactive)
REMARK    1  A    between atoms: C1_2  and  C2_3 
ROOT
ATOM      1  C2  UNL d   1       0.145  -1.206  -0.384  0.00  0.00    -0.081 A 
ATOM      2  C3  UNL d   1      -1.092  -0.570  -0.541  0.00  0.00     0.006 A 
ATOM      3  C4  UNL d   1      -1.246   0.776  -0.199  0.00  0.00     0.002 A 
ATOM      4  C5  UNL d   1      -0.163   1.510   0.297  0.00  0.00    -0.080 A 
ATOM      5  C6  UNL d   1      -0.306   2.963   0.639  0.00  0.00     0.076 C 
ATOM      6  C7  UNL d   1       1.069   0.870   0.470  0.00  0.00     0.002 A 
ATOM      7  C8  UNL d   1       1.223  -0.475   0.129  0.00  0.00     0.006 A 
ENDROOT
BRANCH   1   8
ATOM      8  C1  UNL d   1       0.331  -2.639  -0.812  0.00  0.00     0.054 C 
ATOM      9  C   UNL d   1      -0.995  -3.274  -1.207  0.00  0.00     0.018 C 
ENDBRANCH   1   8
TORSDOF 1
ENDMDL
