MODEL 1
REMARK minimizedAffinity -3.44313741
REMARK minimizedRMSD -1
REMARK  1 active torsions:
REMARK  status: ('A' for Active; 'I' for Inactive)
REMARK    1  A    between atoms: C1_2  and  C2_3 
ROOT
ATOM      1  C2  UNL d   1      -0.168  -0.940  -0.143  0.00  0.00    -0.081 A 
ATOM      2  C3  UNL d   1      -1.280  -0.123  -0.385  0.00  0.00     0.006 A 
ATOM      3  C4  UNL d   1      -1.147   1.267  -0.398  0.00  0.00     0.002 A 
ATOM      4  C5  UNL d   1       0.099   1.864  -0.179  0.00  0.00    -0.080 A 
ATOM      5  C6  UNL d   1       0.261   3.354  -0.221  0.00  0.00     0.076 C 
ATOM      6  C7  UNL d   1       1.206   1.048   0.079  0.00  0.00     0.002 A 
ATOM      7  C8  UNL d   1       1.074  -0.342   0.094  0.00  0.00     0.006 A 
ENDROOT
BRANCH   1   8
ATOM      8  C1  UNL d   1      -0.295  -2.441  -0.192  0.00  0.00     0.054 C 
ATOM      9  C   UNL d   1      -0.150  -2.963  -1.614  0.00  0.00     0.018 C 
ENDBRANCH   1   8
TORSDOF 1
ENDMDL
