MODEL 1
REMARK minimizedAffinity -2.32700849
REMARK minimizedRMSD -1
REMARK  1 active torsions:
REMARK  status: ('A' for Active; 'I' for Inactive)
REMARK    1  A    between atoms: C1_2  and  C2_3 
ROOT
ATOM      1  C2  UNL d   1      -0.045   1.964   0.939  0.00  0.00    -0.081 A 
ATOM      2  C3  UNL d   1      -1.019   1.065   1.390  0.00  0.00     0.006 A 
ATOM      3  C4  UNL d   1      -1.130  -0.205   0.820  0.00  0.00     0.002 A 
ATOM      4  C5  UNL d   1      -0.264  -0.601  -0.206  0.00  0.00    -0.080 A 
ATOM      5  C6  UNL d   1      -0.353  -1.972  -0.806  0.00  0.00     0.076 C 
ATOM      6  C7  UNL d   1       0.698   0.303  -0.669  0.00  0.00     0.002 A 
ATOM      7  C8  UNL d   1       0.809   1.574  -0.099  0.00  0.00     0.006 A 
ENDROOT
BRANCH   1   8
ATOM      8  C1  UNL d   1       0.119   3.310   1.596  0.00  0.00     0.054 C 
ATOM      9  C   UNL d   1      -0.363   3.284   3.040  0.00  0.00     0.018 C 
ENDBRANCH   1   8
TORSDOF 1
ENDMDL
