MODEL 1
REMARK minimizedAffinity 7.31272984
REMARK minimizedRMSD -1
REMARK  1 active torsions:
REMARK  status: ('A' for Active; 'I' for Inactive)
REMARK    1  A    between atoms: C1_2  and  C2_3 
ROOT
ATOM      1  C2  UNL d   1      -4.032  -5.255   0.412  0.00  0.00    -0.081 A 
ATOM      2  C3  UNL d   1      -4.533  -4.996  -0.869  0.00  0.00     0.006 A 
ATOM      3  C4  UNL d   1      -3.717  -4.422  -1.847  0.00  0.00     0.002 A 
ATOM      4  C5  UNL d   1      -2.384  -4.105  -1.562  0.00  0.00    -0.080 A 
ATOM      5  C6  UNL d   1      -1.489  -3.517  -2.612  0.00  0.00     0.076 C 
ATOM      6  C7  UNL d   1      -1.888  -4.347  -0.277  0.00  0.00     0.002 A 
ATOM      7  C8  UNL d   1      -2.704  -4.920   0.701  0.00  0.00     0.006 A 
ENDROOT
BRANCH   1   8
ATOM      8  C1  UNL d   1      -4.890  -5.933   1.449  0.00  0.00     0.054 C 
ATOM      9  C   UNL d   1      -5.999  -5.012   1.937  0.00  0.00     0.018 C 
ENDBRANCH   1   8
TORSDOF 1
ENDMDL
