MODEL 1
REMARK minimizedAffinity -5.51134872
REMARK minimizedRMSD -1
REMARK  1 active torsions:
REMARK  status: ('A' for Active; 'I' for Inactive)
REMARK    1  A    between atoms: C1_2  and  C2_3 
ROOT
ATOM      1  C2  UNL d   1       0.026  -0.490   0.240  0.00  0.00    -0.081 A 
ATOM      2  C3  UNL d   1      -0.956   0.374   0.740  0.00  0.00     0.006 A 
ATOM      3  C4  UNL d   1      -0.820   1.757   0.599  0.00  0.00     0.002 A 
ATOM      4  C5  UNL d   1       0.295   2.298  -0.050  0.00  0.00    -0.080 A 
ATOM      5  C6  UNL d   1       0.439   3.780  -0.235  0.00  0.00     0.076 C 
ATOM      6  C7  UNL d   1       1.285   1.436  -0.534  0.00  0.00     0.002 A 
ATOM      7  C8  UNL d   1       1.150   0.053  -0.393  0.00  0.00     0.006 A 
ENDROOT
BRANCH   1   8
ATOM      8  C1  UNL d   1      -0.149  -1.984   0.333  0.00  0.00     0.054 C 
ATOM      9  C   UNL d   1      -0.256  -2.616  -1.048  0.00  0.00     0.018 C 
ENDBRANCH   1   8
TORSDOF 1
ENDMDL
