MODEL 1
REMARK minimizedAffinity 0.0899931639
REMARK minimizedRMSD -1
REMARK  1 active torsions:
REMARK  status: ('A' for Active; 'I' for Inactive)
REMARK    1  A    between atoms: C1_2  and  C2_3 
ROOT
ATOM      1  C2  UNL d   1      -0.494  -1.861  -0.533  0.00  0.00    -0.081 A 
ATOM      2  C3  UNL d   1      -1.269  -0.809  -0.029  0.00  0.00     0.006 A 
ATOM      3  C4  UNL d   1      -0.707   0.455   0.162  0.00  0.00     0.002 A 
ATOM      4  C5  UNL d   1       0.635   0.691  -0.156  0.00  0.00    -0.080 A 
ATOM      5  C6  UNL d   1       1.242   2.052   0.016  0.00  0.00     0.076 C 
ATOM      6  C7  UNL d   1       1.413  -0.364  -0.643  0.00  0.00     0.002 A 
ATOM      7  C8  UNL d   1       0.852  -1.629  -0.833  0.00  0.00     0.006 A 
ENDROOT
BRANCH   1   8
ATOM      8  C1  UNL d   1      -1.114  -3.209  -0.801  0.00  0.00     0.054 C 
ATOM      9  C   UNL d   1      -1.034  -3.571  -2.277  0.00  0.00     0.018 C 
ENDBRANCH   1   8
TORSDOF 1
ENDMDL
