MODEL 1
REMARK minimizedAffinity 6.02372694
REMARK minimizedRMSD -1
REMARK  0 active torsions:
REMARK  status: ('A' for Active; 'I' for Inactive)
ROOT
ATOM      1  C   UNL d   1       2.959   3.306   4.375  0.00  0.00     0.172 C 
ATOM      2  N   UNL d   1       2.231   3.777   3.221  0.00  0.00    -0.070 N 
ATOM      3  C1  UNL d   1       2.444   4.964   2.572  0.00  0.00    -0.004 A 
ATOM      4  C2  UNL d   1       1.548   5.041   1.528  0.00  0.00    -0.047 A 
ATOM      5  C3  UNL d   1       0.769   3.860   1.550  0.00  0.00    -0.047 A 
ATOM      6  C4  UNL d   1       1.213   3.095   2.608  0.00  0.00    -0.004 A 
ENDROOT
TORSDOF 0
ENDMDL
