MODEL 1
REMARK minimizedAffinity 6.7246666
REMARK minimizedRMSD -1
REMARK  0 active torsions:
REMARK  status: ('A' for Active; 'I' for Inactive)
ROOT
ATOM      1  C   UNL d   1       2.779   2.940   4.180  0.00  0.00     0.172 C 
ATOM      2  N   UNL d   1       2.019   3.476   3.076  0.00  0.00    -0.070 N 
ATOM      3  C1  UNL d   1       0.977   2.850   2.445  0.00  0.00    -0.004 A 
ATOM      4  C2  UNL d   1       0.522   3.686   1.449  0.00  0.00    -0.047 A 
ATOM      5  C3  UNL d   1       1.318   4.856   1.482  0.00  0.00    -0.047 A 
ATOM      6  C4  UNL d   1       2.237   4.699   2.498  0.00  0.00    -0.004 A 
ENDROOT
TORSDOF 0
ENDMDL
