MODEL 1
REMARK minimizedAffinity 4.51762962
REMARK minimizedRMSD -1
REMARK  0 active torsions:
REMARK  status: ('A' for Active; 'I' for Inactive)
ROOT
ATOM      1  C   UNL d   1      -5.996  -1.168   2.604  0.00  0.00     0.172 C 
ATOM      2  N   UNL d   1      -5.519  -1.669   3.872  0.00  0.00    -0.070 N 
ATOM      3  C1  UNL d   1      -4.525  -1.108   4.629  0.00  0.00    -0.004 A 
ATOM      4  C2  UNL d   1      -4.369  -1.880   5.760  0.00  0.00    -0.047 A 
ATOM      5  C3  UNL d   1      -5.301  -2.942   5.679  0.00  0.00    -0.047 A 
ATOM      6  C4  UNL d   1      -6.000  -2.787   4.501  0.00  0.00    -0.004 A 
ENDROOT
TORSDOF 0
ENDMDL
