MODEL 1
REMARK minimizedAffinity 3.12026
REMARK minimizedRMSD -1
REMARK  0 active torsions:
REMARK  status: ('A' for Active; 'I' for Inactive)
ROOT
ATOM      1  C   UNL d   1      -5.977  -2.272   1.128  0.00  0.00     0.172 C 
ATOM      2  N   UNL d   1      -5.983  -2.263   2.572  0.00  0.00    -0.070 N 
ATOM      3  C1  UNL d   1      -5.975  -1.145   3.364  0.00  0.00    -0.004 A 
ATOM      4  C2  UNL d   1      -5.985  -1.559   4.678  0.00  0.00    -0.047 A 
ATOM      5  C3  UNL d   1      -5.997  -2.974   4.677  0.00  0.00    -0.047 A 
ATOM      6  C4  UNL d   1      -5.996  -3.383   3.360  0.00  0.00    -0.004 A 
ENDROOT
TORSDOF 0
ENDMDL
