MODEL 1
REMARK minimizedAffinity 5.0872798
REMARK minimizedRMSD -1
REMARK  0 active torsions:
REMARK  status: ('A' for Active; 'I' for Inactive)
ROOT
ATOM      1  C   UNL d   1      -5.999  -2.293   2.411  0.00  0.00     0.172 C 
ATOM      2  N   UNL d   1      -5.988  -2.372   3.853  0.00  0.00    -0.070 N 
ATOM      3  C1  UNL d   1      -5.963  -1.305   4.711  0.00  0.00    -0.004 A 
ATOM      4  C2  UNL d   1      -5.960  -1.799   5.997  0.00  0.00    -0.047 A 
ATOM      5  C3  UNL d   1      -5.983  -3.211   5.910  0.00  0.00    -0.047 A 
ATOM      6  C4  UNL d   1      -5.999  -3.539   4.571  0.00  0.00    -0.004 A 
ENDROOT
TORSDOF 0
ENDMDL
