MODEL 1
REMARK minimizedAffinity -2.16288185
REMARK minimizedRMSD -1
REMARK  0 active torsions:
REMARK  status: ('A' for Active; 'I' for Inactive)
ROOT
ATOM      1  C   UNL d   1       1.444   4.600   1.122  0.00  0.00     0.172 C 
ATOM      2  N   UNL d   1       0.296   3.977   0.506  0.00  0.00    -0.070 N 
ATOM      3  C1  UNL d   1       0.090   3.841  -0.841  0.00  0.00    -0.004 A 
ATOM      4  C2  UNL d   1      -1.115   3.197  -1.020  0.00  0.00    -0.047 A 
ATOM      5  C3  UNL d   1      -1.652   2.938   0.264  0.00  0.00    -0.047 A 
ATOM      6  C4  UNL d   1      -0.757   3.431   1.190  0.00  0.00    -0.004 A 
ENDROOT
TORSDOF 0
ENDMDL
