MODEL 1
REMARK minimizedAffinity -2.44162655
REMARK minimizedRMSD -1
REMARK  0 active torsions:
REMARK  status: ('A' for Active; 'I' for Inactive)
ROOT
ATOM      1  C   UNL d   1      -0.008   0.021  -0.058  0.00  0.00     0.172 C 
ATOM      2  N   UNL d   1      -0.438   1.374   0.208  0.00  0.00    -0.070 N 
ATOM      3  C1  UNL d   1      -0.113   2.112   1.314  0.00  0.00    -0.004 A 
ATOM      4  C2  UNL d   1      -0.716   3.345   1.192  0.00  0.00    -0.047 A 
ATOM      5  C3  UNL d   1      -1.430   3.347  -0.030  0.00  0.00    -0.047 A 
ATOM      6  C4  UNL d   1      -1.241   2.115  -0.619  0.00  0.00    -0.004 A 
ENDROOT
TORSDOF 0
ENDMDL
