MODEL 1
REMARK minimizedAffinity -2.63898039
REMARK minimizedRMSD -1
REMARK  0 active torsions:
REMARK  status: ('A' for Active; 'I' for Inactive)
ROOT
ATOM      1  C   UNL d   1      -1.111   3.033   1.303  0.00  0.00     0.172 C 
ATOM      2  N   UNL d   1      -0.305   1.846   1.466  0.00  0.00    -0.070 N 
ATOM      3  C1  UNL d   1       0.733   1.700   2.347  0.00  0.00    -0.004 A 
ATOM      4  C2  UNL d   1       1.240   0.428   2.196  0.00  0.00    -0.047 A 
ATOM      5  C3  UNL d   1       0.481  -0.213   1.188  0.00  0.00    -0.047 A 
ATOM      6  C4  UNL d   1      -0.469   0.687   0.754  0.00  0.00    -0.004 A 
ENDROOT
TORSDOF 0
ENDMDL
