MODEL 1
REMARK minimizedAffinity 0.662070811
REMARK minimizedRMSD -1
REMARK  0 active torsions:
REMARK  status: ('A' for Active; 'I' for Inactive)
ROOT
ATOM      1  C   UNL d   1       0.962  -0.244   0.329  0.00  0.00     0.172 C 
ATOM      2  N   UNL d   1      -0.026   0.340  -0.547  0.00  0.00    -0.070 N 
ATOM      3  C1  UNL d   1       0.154   1.453  -1.324  0.00  0.00    -0.004 A 
ATOM      4  C2  UNL d   1      -1.018   1.683  -2.010  0.00  0.00    -0.047 A 
ATOM      5  C3  UNL d   1      -1.936   0.674  -1.632  0.00  0.00    -0.047 A 
ATOM      6  C4  UNL d   1      -1.295  -0.144  -0.726  0.00  0.00    -0.004 A 
ENDROOT
TORSDOF 0
ENDMDL
