MODEL 1
REMARK minimizedAffinity -1.50191844
REMARK minimizedRMSD -1
REMARK  0 active torsions:
REMARK  status: ('A' for Active; 'I' for Inactive)
ROOT
ATOM      1  C   UNL d   1      -0.164   0.807  -0.432  0.00  0.00     0.172 C 
ATOM      2  N   UNL d   1       0.410   0.409   0.832  0.00  0.00    -0.070 N 
ATOM      3  C1  UNL d   1       0.938  -0.821   1.117  0.00  0.00    -0.004 A 
ATOM      4  C2  UNL d   1       1.380  -0.799   2.422  0.00  0.00    -0.047 A 
ATOM      5  C3  UNL d   1       1.107   0.490   2.939  0.00  0.00    -0.047 A 
ATOM      6  C4  UNL d   1       0.507   1.217   1.934  0.00  0.00    -0.004 A 
ENDROOT
TORSDOF 0
ENDMDL
