MODEL 1
REMARK minimizedAffinity -1.83740592
REMARK minimizedRMSD -1
REMARK  1 active torsions:
REMARK  status: ('A' for Active; 'I' for Inactive)
REMARK    1  A    between atoms: C1_2  and  C2_3 
ROOT
ATOM      1  C2  UNL d   1      -0.422  -2.302  -0.909  0.00  0.00    -0.073 A 
ATOM      2  C3  UNL d   1       0.330  -2.441  -2.081  0.00  0.00    -0.002 A 
ATOM      3  C4  UNL d   1      -0.176  -3.163  -3.163  0.00  0.00     0.004 A 
ATOM      4  C5  UNL d   1      -1.441  -3.747  -3.087  0.00  0.00    -0.004 A 
ATOM      5  C6  UNL d   1      -2.213  -3.609  -1.928  0.00  0.00    -0.075 A 
ATOM      6  C7  UNL d   1      -3.574  -4.233  -1.830  0.00  0.00     0.076 C 
ATOM      7  C8  UNL d   1      -1.696  -2.885  -0.846  0.00  0.00     0.001 A 
ENDROOT
BRANCH   1   8
ATOM      8  C1  UNL d   1       0.118  -1.518   0.259  0.00  0.00     0.053 C 
ATOM      9  C   UNL d   1      -0.011  -0.018   0.047  0.00  0.00     0.018 C 
ENDBRANCH   1   8
TORSDOF 1
ENDMDL
