MODEL 1
REMARK minimizedAffinity -3.57286143
REMARK minimizedRMSD -1
REMARK  1 active torsions:
REMARK  status: ('A' for Active; 'I' for Inactive)
REMARK    1  A    between atoms: C1_2  and  C2_3 
ROOT
ATOM      1  C2  UNL d   1       0.572   1.551   0.195  0.00  0.00    -0.073 A 
ATOM      2  C3  UNL d   1       1.915   1.297   0.493  0.00  0.00    -0.002 A 
ATOM      3  C4  UNL d   1       2.403  -0.010   0.493  0.00  0.00     0.004 A 
ATOM      4  C5  UNL d   1       1.555  -1.075   0.189  0.00  0.00    -0.004 A 
ATOM      5  C6  UNL d   1       0.212  -0.841  -0.123  0.00  0.00    -0.075 A 
ATOM      6  C7  UNL d   1      -0.713  -1.976  -0.451  0.00  0.00     0.076 C 
ATOM      7  C8  UNL d   1      -0.271   0.475  -0.119  0.00  0.00     0.001 A 
ENDROOT
BRANCH   1   8
ATOM      8  C1  UNL d   1       0.042   2.962   0.188  0.00  0.00     0.053 C 
ATOM      9  C   UNL d   1       1.123   3.978   0.523  0.00  0.00     0.018 C 
ENDBRANCH   1   8
TORSDOF 1
ENDMDL
