MODEL 1
REMARK minimizedAffinity -3.42789865
REMARK minimizedRMSD -1
REMARK  1 active torsions:
REMARK  status: ('A' for Active; 'I' for Inactive)
REMARK    1  A    between atoms: C1_2  and  C2_3 
ROOT
ATOM      1  C2  UNL d   1      -0.429   0.630   0.153  0.00  0.00    -0.073 A 
ATOM      2  C3  UNL d   1       0.963   0.610   0.016  0.00  0.00    -0.002 A 
ATOM      3  C4  UNL d   1       1.633  -0.597  -0.194  0.00  0.00     0.004 A 
ATOM      4  C5  UNL d   1       0.918  -1.791  -0.276  0.00  0.00    -0.004 A 
ATOM      5  C6  UNL d   1      -0.475  -1.790  -0.154  0.00  0.00    -0.075 A 
ATOM      6  C7  UNL d   1      -1.258  -3.067  -0.238  0.00  0.00     0.076 C 
ATOM      7  C8  UNL d   1      -1.140  -0.575   0.059  0.00  0.00     0.001 A 
ENDROOT
BRANCH   1   8
ATOM      8  C1  UNL d   1      -1.158   1.931   0.373  0.00  0.00     0.053 C 
ATOM      9  C   UNL d   1      -0.221   3.038   0.829  0.00  0.00     0.018 C 
ENDBRANCH   1   8
TORSDOF 1
ENDMDL
