MODEL 1
REMARK minimizedAffinity -2.83362532
REMARK minimizedRMSD -1
REMARK  1 active torsions:
REMARK  status: ('A' for Active; 'I' for Inactive)
REMARK    1  A    between atoms: C1_2  and  C2_3 
ROOT
ATOM      1  C2  UNL d   1      -0.569  -1.044  -1.042  0.00  0.00    -0.073 A 
ATOM      2  C3  UNL d   1      -0.059  -1.031  -2.346  0.00  0.00    -0.002 A 
ATOM      3  C4  UNL d   1      -0.374  -2.059  -3.235  0.00  0.00     0.004 A 
ATOM      4  C5  UNL d   1      -1.205  -3.105  -2.834  0.00  0.00    -0.004 A 
ATOM      5  C6  UNL d   1      -1.733  -3.129  -1.539  0.00  0.00    -0.075 A 
ATOM      6  C7  UNL d   1      -2.627  -4.248  -1.092  0.00  0.00     0.076 C 
ATOM      7  C8  UNL d   1      -1.411  -2.095  -0.651  0.00  0.00     0.001 A 
ENDROOT
BRANCH   1   8
ATOM      8  C1  UNL d   1      -0.237   0.067  -0.080  0.00  0.00     0.053 C 
ATOM      9  C   UNL d   1      -0.106   1.410  -0.782  0.00  0.00     0.018 C 
ENDBRANCH   1   8
TORSDOF 1
ENDMDL
