MODEL 1
REMARK minimizedAffinity -2.86794424
REMARK minimizedRMSD -1
REMARK  1 active torsions:
REMARK  status: ('A' for Active; 'I' for Inactive)
REMARK    1  A    between atoms: C1_2  and  C2_3 
ROOT
ATOM      1  C2  UNL d   1       0.130   1.866  -0.167  0.00  0.00    -0.073 A 
ATOM      2  C3  UNL d   1       0.883   0.701  -0.355  0.00  0.00    -0.002 A 
ATOM      3  C4  UNL d   1       0.419  -0.523   0.127  0.00  0.00     0.004 A 
ATOM      4  C5  UNL d   1      -0.804  -0.597   0.794  0.00  0.00    -0.004 A 
ATOM      5  C6  UNL d   1      -1.576   0.554   0.981  0.00  0.00    -0.075 A 
ATOM      6  C7  UNL d   1      -2.893   0.491   1.698  0.00  0.00     0.076 C 
ATOM      7  C8  UNL d   1      -1.102   1.780   0.496  0.00  0.00     0.001 A 
ENDROOT
BRANCH   1   8
ATOM      8  C1  UNL d   1       0.624   3.190  -0.691  0.00  0.00     0.053 C 
ATOM      9  C   UNL d   1       0.655   4.256   0.392  0.00  0.00     0.018 C 
ENDBRANCH   1   8
TORSDOF 1
ENDMDL
