MODEL 1
REMARK minimizedAffinity -5.63323736
REMARK minimizedRMSD -1
REMARK  1 active torsions:
REMARK  status: ('A' for Active; 'I' for Inactive)
REMARK    1  A    between atoms: C1_2  and  C2_3 
ROOT
ATOM      1  C2  UNL d   1       0.033  -0.221   0.147  0.00  0.00    -0.073 A 
ATOM      2  C3  UNL d   1      -1.017   0.693   0.291  0.00  0.00    -0.002 A 
ATOM      3  C4  UNL d   1      -0.749   2.037   0.557  0.00  0.00     0.004 A 
ATOM      4  C5  UNL d   1       0.569   2.481   0.673  0.00  0.00    -0.004 A 
ATOM      5  C6  UNL d   1       1.631   1.584   0.519  0.00  0.00    -0.075 A 
ATOM      6  C7  UNL d   1       3.054   2.045   0.643  0.00  0.00     0.076 C 
ATOM      7  C8  UNL d   1       1.354   0.236   0.256  0.00  0.00     0.001 A 
ENDROOT
BRANCH   1   8
ATOM      8  C1  UNL d   1      -0.251  -1.672  -0.146  0.00  0.00     0.053 C 
ATOM      9  C   UNL d   1      -0.178  -1.978  -1.634  0.00  0.00     0.018 C 
ENDBRANCH   1   8
TORSDOF 1
ENDMDL
