MODEL 1
REMARK minimizedAffinity -2.73388815
REMARK minimizedRMSD -1
REMARK  1 active torsions:
REMARK  status: ('A' for Active; 'I' for Inactive)
REMARK    1  A    between atoms: C1_2  and  C2_3 
ROOT
ATOM      1  C2  UNL d   1      -0.995   2.024   0.973  0.00  0.00    -0.073 A 
ATOM      2  C3  UNL d   1      -0.188   2.968   0.328  0.00  0.00    -0.002 A 
ATOM      3  C4  UNL d   1       0.619   2.590  -0.745  0.00  0.00     0.004 A 
ATOM      4  C5  UNL d   1       0.623   1.268  -1.189  0.00  0.00    -0.004 A 
ATOM      5  C6  UNL d   1      -0.185   0.312  -0.565  0.00  0.00    -0.075 A 
ATOM      6  C7  UNL d   1      -0.191  -1.115  -1.029  0.00  0.00     0.076 C 
ATOM      7  C8  UNL d   1      -0.992   0.699   0.514  0.00  0.00     0.001 A 
ENDROOT
BRANCH   1   8
ATOM      8  C1  UNL d   1      -1.874   2.429   2.128  0.00  0.00     0.053 C 
ATOM      9  C   UNL d   1      -1.070   3.019   3.276  0.00  0.00     0.018 C 
ENDBRANCH   1   8
TORSDOF 1
ENDMDL
