MODEL 1
REMARK minimizedAffinity -3.37375832
REMARK minimizedRMSD -1
REMARK  1 active torsions:
REMARK  status: ('A' for Active; 'I' for Inactive)
REMARK    1  A    between atoms: C1_2  and  C2_3 
ROOT
ATOM      1  C2  UNL d   1      -0.434   0.022  -0.249  0.00  0.00    -0.073 A 
ATOM      2  C3  UNL d   1       0.404  -0.322   0.818  0.00  0.00    -0.002 A 
ATOM      3  C4  UNL d   1       0.901  -1.621   0.934  0.00  0.00     0.004 A 
ATOM      4  C5  UNL d   1       0.571  -2.586  -0.018  0.00  0.00    -0.004 A 
ATOM      5  C6  UNL d   1      -0.255  -2.258  -1.098  0.00  0.00    -0.075 A 
ATOM      6  C7  UNL d   1      -0.621  -3.285  -2.128  0.00  0.00     0.076 C 
ATOM      7  C8  UNL d   1      -0.752  -0.952  -1.206  0.00  0.00     0.001 A 
ENDROOT
BRANCH   1   8
ATOM      8  C1  UNL d   1      -0.967   1.425  -0.382  0.00  0.00     0.053 C 
ATOM      9  C   UNL d   1      -0.805   2.221   0.904  0.00  0.00     0.018 C 
ENDBRANCH   1   8
TORSDOF 1
ENDMDL
