MODEL 1
REMARK minimizedAffinity 0.383125752
REMARK minimizedRMSD -1
REMARK  1 active torsions:
REMARK  status: ('A' for Active; 'I' for Inactive)
REMARK    1  A    between atoms: C1_2  and  C2_3 
ROOT
ATOM      1  C2  UNL d   1      -0.667   0.868   0.400  0.00  0.00    -0.073 A 
ATOM      2  C3  UNL d   1      -0.046   1.691  -0.547  0.00  0.00    -0.002 A 
ATOM      3  C4  UNL d   1       0.242   3.022  -0.243  0.00  0.00     0.004 A 
ATOM      4  C5  UNL d   1      -0.081   3.542   1.011  0.00  0.00    -0.004 A 
ATOM      5  C6  UNL d   1      -0.691   2.732   1.975  0.00  0.00    -0.075 A 
ATOM      6  C7  UNL d   1      -1.046   3.276   3.327  0.00  0.00     0.076 C 
ATOM      7  C8  UNL d   1      -0.979   1.397   1.661  0.00  0.00     0.001 A 
ENDROOT
BRANCH   1   8
ATOM      8  C1  UNL d   1      -0.974  -0.572   0.079  0.00  0.00     0.053 C 
ATOM      9  C   UNL d   1       0.283  -1.427   0.037  0.00  0.00     0.018 C 
ENDBRANCH   1   8
TORSDOF 1
ENDMDL
