MODEL 1
REMARK minimizedAffinity 6.34004402
REMARK minimizedRMSD -1
REMARK  1 active torsions:
REMARK  status: ('A' for Active; 'I' for Inactive)
REMARK    1  A    between atoms: C1_2  and  C2_3 
ROOT
ATOM      1  C2  UNL d   1       0.788  -2.076  -0.768  0.00  0.00    -0.073 A 
ATOM      2  C3  UNL d   1       1.624  -2.051  -1.890  0.00  0.00    -0.002 A 
ATOM      3  C4  UNL d   1       1.342  -2.852  -2.998  0.00  0.00     0.004 A 
ATOM      4  C5  UNL d   1       0.220  -3.679  -2.998  0.00  0.00    -0.004 A 
ATOM      5  C6  UNL d   1      -0.635  -3.710  -1.891  0.00  0.00    -0.075 A 
ATOM      6  C7  UNL d   1      -1.845  -4.596  -1.875  0.00  0.00     0.076 C 
ATOM      7  C8  UNL d   1      -0.343  -2.905  -0.781  0.00  0.00     0.001 A 
ENDROOT
BRANCH   1   8
ATOM      8  C1  UNL d   1       1.085  -1.208   0.427  0.00  0.00     0.053 C 
ATOM      9  C   UNL d   1       2.507  -0.671   0.403  0.00  0.00     0.018 C 
ENDBRANCH   1   8
TORSDOF 1
ENDMDL
