MODEL 1
REMARK minimizedAffinity 4.91508818
REMARK minimizedRMSD -1
REMARK  1 active torsions:
REMARK  status: ('A' for Active; 'I' for Inactive)
REMARK    1  A    between atoms: C1_2  and  C2_3 
ROOT
ATOM      1  C2  UNL d   1       1.837   1.559   0.084  0.00  0.00    -0.073 A 
ATOM      2  C3  UNL d   1       2.358   2.654  -0.615  0.00  0.00    -0.002 A 
ATOM      3  C4  UNL d   1       1.643   3.850  -0.685  0.00  0.00     0.004 A 
ATOM      4  C5  UNL d   1       0.405   3.966  -0.052  0.00  0.00    -0.004 A 
ATOM      5  C6  UNL d   1      -0.126   2.887   0.662  0.00  0.00    -0.075 A 
ATOM      6  C7  UNL d   1      -1.457   2.996   1.347  0.00  0.00     0.076 C 
ATOM      7  C8  UNL d   1       0.597   1.689   0.725  0.00  0.00     0.001 A 
ENDROOT
BRANCH   1   8
ATOM      8  C1  UNL d   1       2.609   0.268   0.168  0.00  0.00     0.053 C 
ATOM      9  C   UNL d   1       1.690  -0.941   0.258  0.00  0.00     0.018 C 
ENDBRANCH   1   8
TORSDOF 1
ENDMDL
