MODEL 1
REMARK minimizedAffinity -0.897846699
REMARK minimizedRMSD -1
REMARK  1 active torsions:
REMARK  status: ('A' for Active; 'I' for Inactive)
REMARK    1  A    between atoms: N_2  and  C1_3 
ROOT
ATOM      1  C1  UNL d   1       0.624   1.355   0.917  0.00  0.00     0.143 A 
ATOM      2  C2  UNL d   1       0.137   0.048   0.804  0.00  0.00    -0.057 A 
ATOM      3  C3  UNL d   1      -1.232  -0.208   0.657  0.00  0.00     0.033 A 
ATOM      4  C4  UNL d   1      -2.144   0.842   0.650  0.00  0.00    -0.042 A 
ATOM      5  C5  UNL d   1      -1.686   2.148   0.786  0.00  0.00     0.033 A 
ATOM      6  C6  UNL d   1      -0.317   2.397   0.925  0.00  0.00    -0.057 A 
ENDROOT
BRANCH   1   7
ATOM      7  N   UNL d   1       1.962   1.668   1.164  0.00  0.00    -0.732 N 
ATOM      8  C   UNL d   1       2.314   2.814   1.974  0.00  0.00     0.284 C 
ATOM      9  H3  UNL d   1       2.527   0.841   1.345  0.00  0.00     0.395 HD
ENDBRANCH   1   7
TORSDOF 1
ENDMDL
