MODEL 1
REMARK minimizedAffinity 6.93377495
REMARK minimizedRMSD -1
REMARK  1 active torsions:
REMARK  status: ('A' for Active; 'I' for Inactive)
REMARK    1  A    between atoms: N_2  and  C1_3 
ROOT
ATOM      1  C1  UNL d   1      -1.404   1.915   0.535  0.00  0.00     0.143 A 
ATOM      2  C2  UNL d   1      -0.778   0.664   0.559  0.00  0.00    -0.057 A 
ATOM      3  C3  UNL d   1      -1.518  -0.515   0.702  0.00  0.00     0.033 A 
ATOM      4  C4  UNL d   1      -2.900  -0.462   0.854  0.00  0.00    -0.042 A 
ATOM      5  C5  UNL d   1      -3.541   0.772   0.858  0.00  0.00     0.033 A 
ATOM      6  C6  UNL d   1      -2.796   1.946   0.708  0.00  0.00    -0.057 A 
ENDROOT
BRANCH   1   7
ATOM      7  N   UNL d   1      -0.714   3.129   0.494  0.00  0.00    -0.732 N 
ATOM      8  C   UNL d   1       0.436   3.353   1.345  0.00  0.00     0.284 C 
ATOM      9  H3  UNL d   1      -0.604   3.482  -0.454  0.00  0.00     0.395 HD
ENDBRANCH   1   7
TORSDOF 1
ENDMDL
