MODEL 1
REMARK minimizedAffinity 7.98341131
REMARK minimizedRMSD -1
REMARK  1 active torsions:
REMARK  status: ('A' for Active; 'I' for Inactive)
REMARK    1  A    between atoms: N_2  and  C1_3 
ROOT
ATOM      1  C1  UNL d   1       0.323   2.032   1.372  0.00  0.00     0.143 A 
ATOM      2  C2  UNL d   1       1.573   1.635   0.887  0.00  0.00    -0.057 A 
ATOM      3  C3  UNL d   1       1.729   0.444   0.169  0.00  0.00     0.033 A 
ATOM      4  C4  UNL d   1       0.638  -0.390  -0.053  0.00  0.00    -0.042 A 
ATOM      5  C5  UNL d   1      -0.610  -0.028   0.442  0.00  0.00     0.033 A 
ATOM      6  C6  UNL d   1      -0.761   1.167   1.153  0.00  0.00    -0.057 A 
ENDROOT
BRANCH   1   7
ATOM      7  N   UNL d   1       0.121   3.156   2.177  0.00  0.00    -0.732 N 
ATOM      8  C   UNL d   1      -0.861   3.135   3.240  0.00  0.00     0.284 C 
ATOM      9  H3  UNL d   1       0.994   3.616   2.427  0.00  0.00     0.395 HD
ENDBRANCH   1   7
TORSDOF 1
ENDMDL
