MODEL 1
REMARK minimizedAffinity 0.74695909
REMARK minimizedRMSD -1
REMARK  1 active torsions:
REMARK  status: ('A' for Active; 'I' for Inactive)
REMARK    1  A    between atoms: N_2  and  C1_3 
ROOT
ATOM      1  C1  UNL d   1      -0.173   2.019   1.224  0.00  0.00     0.143 A 
ATOM      2  C2  UNL d   1       0.255   0.936   0.449  0.00  0.00    -0.057 A 
ATOM      3  C3  UNL d   1      -0.602  -0.133   0.158  0.00  0.00     0.033 A 
ATOM      4  C4  UNL d   1      -1.898  -0.150   0.663  0.00  0.00    -0.042 A 
ATOM      5  C5  UNL d   1      -2.337   0.904   1.457  0.00  0.00     0.033 A 
ATOM      6  C6  UNL d   1      -1.479   1.971   1.738  0.00  0.00    -0.057 A 
ENDROOT
BRANCH   1   7
ATOM      7  N   UNL d   1       0.662   3.063   1.630  0.00  0.00    -0.732 N 
ATOM      8  C   UNL d   1       1.997   2.792   2.118  0.00  0.00     0.284 C 
ATOM      9  H3  UNL d   1       0.600   3.871   1.014  0.00  0.00     0.395 HD
ENDBRANCH   1   7
TORSDOF 1
ENDMDL
