MODEL 1
REMARK minimizedAffinity -0.459784031
REMARK minimizedRMSD -1
REMARK  1 active torsions:
REMARK  status: ('A' for Active; 'I' for Inactive)
REMARK    1  A    between atoms: N_2  and  C1_3 
ROOT
ATOM      1  C1  UNL d   1      -0.064   0.474   0.825  0.00  0.00     0.143 A 
ATOM      2  C2  UNL d   1      -1.059  -0.473   1.090  0.00  0.00    -0.057 A 
ATOM      3  C3  UNL d   1      -2.402  -0.099   1.217  0.00  0.00     0.033 A 
ATOM      4  C4  UNL d   1      -2.772   1.238   1.109  0.00  0.00    -0.042 A 
ATOM      5  C5  UNL d   1      -1.797   2.199   0.870  0.00  0.00     0.033 A 
ATOM      6  C6  UNL d   1      -0.458   1.819   0.738  0.00  0.00    -0.057 A 
ENDROOT
BRANCH   1   7
ATOM      7  N   UNL d   1       1.300   0.179   0.786  0.00  0.00    -0.732 N 
ATOM      8  C   UNL d   1       1.968  -0.056  -0.476  0.00  0.00     0.284 C 
ATOM      9  H3  UNL d   1       1.838   0.740   1.443  0.00  0.00     0.395 HD
ENDBRANCH   1   7
TORSDOF 1
ENDMDL
