MODEL 1
REMARK minimizedAffinity 1.58119869
REMARK minimizedRMSD -1
REMARK  1 active torsions:
REMARK  status: ('A' for Active; 'I' for Inactive)
REMARK    1  A    between atoms: N_2  and  C1_3 
ROOT
ATOM      1  C1  UNL d   1       0.488   0.940   0.961  0.00  0.00     0.143 A 
ATOM      2  C2  UNL d   1      -0.299  -0.212   1.064  0.00  0.00    -0.057 A 
ATOM      3  C3  UNL d   1      -1.688  -0.160   0.893  0.00  0.00     0.033 A 
ATOM      4  C4  UNL d   1      -2.319   1.054   0.644  0.00  0.00    -0.042 A 
ATOM      5  C5  UNL d   1      -1.560   2.215   0.562  0.00  0.00     0.033 A 
ATOM      6  C6  UNL d   1      -0.173   2.156   0.727  0.00  0.00    -0.057 A 
ENDROOT
BRANCH   1   7
ATOM      7  N   UNL d   1       1.861   0.970   1.218  0.00  0.00    -0.732 N 
ATOM      8  C   UNL d   1       2.472   2.133   1.824  0.00  0.00     0.284 C 
ATOM      9  H3  UNL d   1       2.208   0.083   1.576  0.00  0.00     0.395 HD
ENDBRANCH   1   7
TORSDOF 1
ENDMDL
