MODEL 1
REMARK minimizedAffinity 5.4470973
REMARK minimizedRMSD -1
REMARK  1 active torsions:
REMARK  status: ('A' for Active; 'I' for Inactive)
REMARK    1  A    between atoms: N_2  and  C1_3 
ROOT
ATOM      1  C1  UNL d   1       0.523   0.659   0.726  0.00  0.00     0.143 A 
ATOM      2  C2  UNL d   1      -0.008   1.943   0.890  0.00  0.00    -0.057 A 
ATOM      3  C3  UNL d   1      -1.391   2.157   0.930  0.00  0.00     0.033 A 
ATOM      4  C4  UNL d   1      -2.271   1.091   0.775  0.00  0.00    -0.042 A 
ATOM      5  C5  UNL d   1      -1.766  -0.191   0.585  0.00  0.00     0.033 A 
ATOM      6  C6  UNL d   1      -0.384  -0.399   0.554  0.00  0.00    -0.057 A 
ENDROOT
BRANCH   1   7
ATOM      7  N   UNL d   1       1.887   0.394   0.579  0.00  0.00    -0.732 N 
ATOM      8  C   UNL d   1       2.471   0.241  -0.735  0.00  0.00     0.284 C 
ATOM      9  H3  UNL d   1       2.458   0.930   1.229  0.00  0.00     0.395 HD
ENDBRANCH   1   7
TORSDOF 1
ENDMDL
