MODEL 1
REMARK minimizedAffinity 5.07127428
REMARK minimizedRMSD -1
REMARK  1 active torsions:
REMARK  status: ('A' for Active; 'I' for Inactive)
REMARK    1  A    between atoms: N_2  and  C1_3 
ROOT
ATOM      1  C1  UNL d   1       0.467   0.550   0.135  0.00  0.00     0.143 A 
ATOM      2  C2  UNL d   1      -0.171   1.786   0.282  0.00  0.00    -0.057 A 
ATOM      3  C3  UNL d   1      -1.540   1.868   0.562  0.00  0.00     0.033 A 
ATOM      4  C4  UNL d   1      -2.304   0.711   0.670  0.00  0.00    -0.042 A 
ATOM      5  C5  UNL d   1      -1.697  -0.528   0.502  0.00  0.00     0.033 A 
ATOM      6  C6  UNL d   1      -0.328  -0.604   0.230  0.00  0.00    -0.057 A 
ENDROOT
BRANCH   1   7
ATOM      7  N   UNL d   1       1.805   0.404  -0.241  0.00  0.00    -0.732 N 
ATOM      8  C   UNL d   1       2.202   0.549  -1.625  0.00  0.00     0.284 C 
ATOM      9  H3  UNL d   1       2.444   0.837   0.422  0.00  0.00     0.395 HD
ENDBRANCH   1   7
TORSDOF 1
ENDMDL
