MODEL 1
REMARK minimizedAffinity 6.88163042
REMARK minimizedRMSD -1
REMARK  0 active torsions:
REMARK  status: ('A' for Active; 'I' for Inactive)
ROOT
ATOM      1  C   UNL d   1      -3.691  -1.803   4.070  0.00  0.00     0.172 C 
ATOM      2  N   UNL d   1      -3.572  -0.364   4.048  0.00  0.00    -0.070 N 
ATOM      3  C1  UNL d   1      -3.723   0.433   2.945  0.00  0.00    -0.004 A 
ATOM      4  C2  UNL d   1      -3.534   1.740   3.339  0.00  0.00    -0.047 A 
ATOM      5  C3  UNL d   1      -3.260   1.728   4.727  0.00  0.00    -0.047 A 
ATOM      6  C4  UNL d   1      -3.290   0.413   5.141  0.00  0.00    -0.004 A 
ENDROOT
TORSDOF 0
ENDMDL
