MODEL 1
REMARK minimizedAffinity 6.70646763
REMARK minimizedRMSD -1
REMARK  0 active torsions:
REMARK  status: ('A' for Active; 'I' for Inactive)
ROOT
ATOM      1  C   UNL d   1       3.357   1.027  -0.211  0.00  0.00     0.172 C 
ATOM      2  N   UNL d   1       2.966  -0.334  -0.497  0.00  0.00    -0.070 N 
ATOM      3  C1  UNL d   1       3.548  -1.458   0.025  0.00  0.00    -0.004 A 
ATOM      4  C2  UNL d   1       2.890  -2.553  -0.493  0.00  0.00    -0.047 A 
ATOM      5  C3  UNL d   1       1.878  -2.070  -1.356  0.00  0.00    -0.047 A 
ATOM      6  C4  UNL d   1       1.948  -0.693  -1.340  0.00  0.00    -0.004 A 
ENDROOT
TORSDOF 0
ENDMDL
