MODEL 1
REMARK minimizedAffinity 3.4803164
REMARK minimizedRMSD -1
REMARK  0 active torsions:
REMARK  status: ('A' for Active; 'I' for Inactive)
ROOT
ATOM      1  C   UNL d   1      -4.805   2.461   3.973  0.00  0.00     0.172 C 
ATOM      2  N   UNL d   1      -3.938   1.509   3.321  0.00  0.00    -0.070 N 
ATOM      3  C1  UNL d   1      -2.657   1.752   2.901  0.00  0.00    -0.004 A 
ATOM      4  C2  UNL d   1      -2.173   0.595   2.331  0.00  0.00    -0.047 A 
ATOM      5  C3  UNL d   1      -3.198  -0.377   2.409  0.00  0.00    -0.047 A 
ATOM      6  C4  UNL d   1      -4.279   0.215   3.026  0.00  0.00    -0.004 A 
ENDROOT
TORSDOF 0
ENDMDL
