MODEL 1
REMARK minimizedAffinity 1.69218802
REMARK minimizedRMSD -1
REMARK  0 active torsions:
REMARK  status: ('A' for Active; 'I' for Inactive)
ROOT
ATOM      1  C   UNL d   1      -1.894   2.490  -4.509  0.00  0.00     0.172 C 
ATOM      2  N   UNL d   1      -2.348   3.811  -4.872  0.00  0.00    -0.070 N 
ATOM      3  C1  UNL d   1      -2.129   4.956  -4.155  0.00  0.00    -0.004 A 
ATOM      4  C2  UNL d   1      -2.720   6.000  -4.834  0.00  0.00    -0.047 A 
ATOM      5  C3  UNL d   1      -3.316   5.463  -6.000  0.00  0.00    -0.047 A 
ATOM      6  C4  UNL d   1      -3.071   4.106  -5.999  0.00  0.00    -0.004 A 
ENDROOT
TORSDOF 0
ENDMDL
