MODEL 1
REMARK minimizedAffinity 17.2838249
REMARK minimizedRMSD -1
REMARK  0 active torsions:
REMARK  status: ('A' for Active; 'I' for Inactive)
ROOT
ATOM      1  C   UNL d   1      -2.263   3.096  -4.115  0.00  0.00     0.172 C 
ATOM      2  N   UNL d   1      -2.971   4.104  -4.868  0.00  0.00    -0.070 N 
ATOM      3  C1  UNL d   1      -4.258   4.002  -5.326  0.00  0.00    -0.004 A 
ATOM      4  C2  UNL d   1      -4.562   5.168  -5.994  0.00  0.00    -0.047 A 
ATOM      5  C3  UNL d   1      -3.418   6.000  -5.936  0.00  0.00    -0.047 A 
ATOM      6  C4  UNL d   1      -2.448   5.316  -5.234  0.00  0.00    -0.004 A 
ENDROOT
TORSDOF 0
ENDMDL
