MODEL 1
REMARK minimizedAffinity 13.6938295
REMARK minimizedRMSD -1
REMARK  0 active torsions:
REMARK  status: ('A' for Active; 'I' for Inactive)
ROOT
ATOM      1  C   UNL d   1      -2.983   0.453   3.226  0.00  0.00     0.172 C 
ATOM      2  N   UNL d   1      -1.682   0.917   2.804  0.00  0.00    -0.070 N 
ATOM      3  C1  UNL d   1      -1.446   1.884   1.864  0.00  0.00    -0.004 A 
ATOM      4  C2  UNL d   1      -0.081   2.037   1.750  0.00  0.00    -0.047 A 
ATOM      5  C3  UNL d   1       0.524   1.130   2.652  0.00  0.00    -0.047 A 
ATOM      6  C4  UNL d   1      -0.490   0.450   3.292  0.00  0.00    -0.004 A 
ENDROOT
TORSDOF 0
ENDMDL
