MODEL 1
REMARK minimizedAffinity 2.91877699
REMARK minimizedRMSD -1
REMARK  0 active torsions:
REMARK  status: ('A' for Active; 'I' for Inactive)
ROOT
ATOM      1  C   UNL d   1       4.128   1.369   0.285  0.00  0.00     0.172 C 
ATOM      2  N   UNL d   1       3.682   0.009   0.098  0.00  0.00    -0.070 N 
ATOM      3  C1  UNL d   1       4.270  -1.105   0.637  0.00  0.00    -0.004 A 
ATOM      4  C2  UNL d   1       3.549  -2.204   0.224  0.00  0.00    -0.047 A 
ATOM      5  C3  UNL d   1       2.492  -1.736  -0.592  0.00  0.00    -0.047 A 
ATOM      6  C4  UNL d   1       2.598  -0.362  -0.653  0.00  0.00    -0.004 A 
ENDROOT
TORSDOF 0
ENDMDL
