MODEL 1
REMARK minimizedAffinity 10.5347128
REMARK minimizedRMSD -1
REMARK  0 active torsions:
REMARK  status: ('A' for Active; 'I' for Inactive)
ROOT
ATOM      1  C   UNL d   1       2.684  -1.280  -0.840  0.00  0.00     0.172 C 
ATOM      2  N   UNL d   1       3.073  -2.583  -0.354  0.00  0.00    -0.070 N 
ATOM      3  C1  UNL d   1       2.216  -3.586   0.015  0.00  0.00    -0.004 A 
ATOM      4  C2  UNL d   1       2.975  -4.663   0.418  0.00  0.00    -0.047 A 
ATOM      5  C3  UNL d   1       4.336  -4.294   0.289  0.00  0.00    -0.047 A 
ATOM      6  C4  UNL d   1       4.367  -3.002  -0.191  0.00  0.00    -0.004 A 
ENDROOT
TORSDOF 0
ENDMDL
