MODEL 1
REMARK minimizedAffinity 11.8993301
REMARK minimizedRMSD -1
REMARK  0 active torsions:
REMARK  status: ('A' for Active; 'I' for Inactive)
ROOT
ATOM      1  C   UNL d   1       1.404   0.898   5.826  0.00  0.00     0.172 C 
ATOM      2  N   UNL d   1       0.803   0.811   4.516  0.00  0.00    -0.070 N 
ATOM      3  C1  UNL d   1       0.608  -0.340   3.801  0.00  0.00    -0.004 A 
ATOM      4  C2  UNL d   1       0.009  -0.000   2.607  0.00  0.00    -0.047 A 
ATOM      5  C3  UNL d   1      -0.160   1.405   2.604  0.00  0.00    -0.047 A 
ATOM      6  C4  UNL d   1       0.340   1.882   3.797  0.00  0.00    -0.004 A 
ENDROOT
TORSDOF 0
ENDMDL
