MODEL 1
REMARK minimizedAffinity 8.09088039
REMARK minimizedRMSD -1
REMARK  0 active torsions:
REMARK  status: ('A' for Active; 'I' for Inactive)
ROOT
ATOM      1  C   UNL d   1      -0.049   4.030   6.000  0.00  0.00     0.172 C 
ATOM      2  N   UNL d   1       0.365   2.811   5.345  0.00  0.00    -0.070 N 
ATOM      3  C1  UNL d   1       0.364   2.591   3.994  0.00  0.00    -0.004 A 
ATOM      4  C2  UNL d   1       0.828   1.312   3.774  0.00  0.00    -0.047 A 
ATOM      5  C3  UNL d   1       1.118   0.744   5.038  0.00  0.00    -0.047 A 
ATOM      6  C4  UNL d   1       0.822   1.694   5.992  0.00  0.00    -0.004 A 
ENDROOT
TORSDOF 0
ENDMDL
