MODEL 1
REMARK minimizedAffinity 2.84913993
REMARK minimizedRMSD -1
REMARK  0 active torsions:
REMARK  status: ('A' for Active; 'I' for Inactive)
ROOT
ATOM      1  C   UNL d   1       3.962   0.498   0.427  0.00  0.00     0.172 C 
ATOM      2  N   UNL d   1       3.822  -0.909   0.132  0.00  0.00    -0.070 N 
ATOM      3  C1  UNL d   1       2.828  -1.471  -0.623  0.00  0.00    -0.004 A 
ATOM      4  C2  UNL d   1       3.050  -2.831  -0.667  0.00  0.00    -0.047 A 
ATOM      5  C3  UNL d   1       4.217  -3.094   0.089  0.00  0.00    -0.047 A 
ATOM      6  C4  UNL d   1       4.675  -1.887   0.572  0.00  0.00    -0.004 A 
ENDROOT
TORSDOF 0
ENDMDL
