MODEL 1
REMARK minimizedAffinity 9.54325104
REMARK minimizedRMSD -1
REMARK  0 active torsions:
REMARK  status: ('A' for Active; 'I' for Inactive)
ROOT
ATOM      1  C   UNL d   1      -4.118  -2.037   2.123  0.00  0.00     0.172 C 
ATOM      2  N   UNL d   1      -3.435  -0.795   2.401  0.00  0.00    -0.070 N 
ATOM      3  C1  UNL d   1      -2.212  -0.428   1.906  0.00  0.00    -0.004 A 
ATOM      4  C2  UNL d   1      -1.913   0.822   2.405  0.00  0.00    -0.047 A 
ATOM      5  C3  UNL d   1      -2.993   1.219   3.228  0.00  0.00    -0.047 A 
ATOM      6  C4  UNL d   1      -3.921   0.199   3.208  0.00  0.00    -0.004 A 
ENDROOT
TORSDOF 0
ENDMDL
