MODEL 1
REMARK minimizedAffinity 3.16554403
REMARK minimizedRMSD -1
REMARK  0 active torsions:
REMARK  status: ('A' for Active; 'I' for Inactive)
ROOT
ATOM      1  C   UNL d   1      -5.482  -5.801  -5.999  0.00  0.00     0.172 C 
ATOM      2  N   UNL d   1      -5.109  -4.419  -5.810  0.00  0.00    -0.070 N 
ATOM      3  C1  UNL d   1      -5.928  -3.338  -6.000  0.00  0.00    -0.004 A 
ATOM      4  C2  UNL d   1      -5.201  -2.202  -5.716  0.00  0.00    -0.047 A 
ATOM      5  C3  UNL d   1      -3.899  -2.615  -5.345  0.00  0.00    -0.047 A 
ATOM      6  C4  UNL d   1      -3.870  -3.992  -5.412  0.00  0.00    -0.004 A 
ENDROOT
TORSDOF 0
ENDMDL
