MODEL 1
REMARK minimizedAffinity 2.31847024
REMARK minimizedRMSD -1
REMARK  0 active torsions:
REMARK  status: ('A' for Active; 'I' for Inactive)
ROOT
ATOM      1  C   UNL d   1      -3.028  -3.609  -5.726  0.00  0.00     0.172 C 
ATOM      2  N   UNL d   1      -2.199  -4.031  -4.622  0.00  0.00    -0.070 N 
ATOM      3  C1  UNL d   1      -0.830  -4.016  -4.601  0.00  0.00    -0.004 A 
ATOM      4  C2  UNL d   1      -0.421  -4.493  -3.374  0.00  0.00    -0.047 A 
ATOM      5  C3  UNL d   1      -1.585  -4.805  -2.632  0.00  0.00    -0.047 A 
ATOM      6  C4  UNL d   1      -2.671  -4.509  -3.428  0.00  0.00    -0.004 A 
ENDROOT
TORSDOF 0
ENDMDL
