MODEL 1
REMARK minimizedAffinity 6.52264404
REMARK minimizedRMSD -1
REMARK  0 active torsions:
REMARK  status: ('A' for Active; 'I' for Inactive)
ROOT
ATOM      1  C   UNL d   1      -3.477   0.231   3.055  0.00  0.00     0.172 C 
ATOM      2  N   UNL d   1      -4.040   1.340   3.789  0.00  0.00    -0.070 N 
ATOM      3  C1  UNL d   1      -3.593   1.807   4.996  0.00  0.00    -0.004 A 
ATOM      4  C2  UNL d   1      -4.392   2.870   5.359  0.00  0.00    -0.047 A 
ATOM      5  C3  UNL d   1      -5.353   3.047   4.335  0.00  0.00    -0.047 A 
ATOM      6  C4  UNL d   1      -5.112   2.087   3.376  0.00  0.00    -0.004 A 
ENDROOT
TORSDOF 0
ENDMDL
