MODEL 1
REMARK minimizedAffinity 9.05092335
REMARK minimizedRMSD -1
REMARK  1 active torsions:
REMARK  status: ('A' for Active; 'I' for Inactive)
REMARK    1  A    between atoms: C1_2  and  C2_3 
ROOT
ATOM      1  C2  UNL d   1       0.392   2.480   1.238  0.00  0.00    -0.076 A 
ATOM      2  C3  UNL d   1       1.196   2.840   0.143  0.00  0.00     0.004 A 
ATOM      3  C4  UNL d   1       0.627   3.262  -1.057  0.00  0.00    -0.003 A 
ATOM      4  C5  UNL d   1      -0.756   3.332  -1.181  0.00  0.00     0.000 A 
ATOM      5  C6  UNL d   1      -1.569   2.996  -0.099  0.00  0.00     0.000 A 
ATOM      6  C7  UNL d   1      -1.011   2.584   1.123  0.00  0.00    -0.073 A 
ATOM      7  C8  UNL d   1      -1.935   2.228   2.255  0.00  0.00     0.078 C 
ENDROOT
BRANCH   1   8
ATOM      8  C1  UNL d   1       1.065   2.004   2.506  0.00  0.00     0.053 C 
ATOM      9  C   UNL d   1       2.565   1.822   2.336  0.00  0.00     0.018 C 
ENDBRANCH   1   8
TORSDOF 1
ENDMDL
