MODEL 1
REMARK minimizedAffinity 11.7545853
REMARK minimizedRMSD -1
REMARK  1 active torsions:
REMARK  status: ('A' for Active; 'I' for Inactive)
REMARK    1  A    between atoms: C1_2  and  C2_3 
ROOT
ATOM      1  C2  UNL d   1      -0.452   3.948  -0.804  0.00  0.00    -0.076 A 
ATOM      2  C3  UNL d   1       0.905   4.264  -0.617  0.00  0.00     0.004 A 
ATOM      3  C4  UNL d   1       1.513   5.280  -1.352  0.00  0.00    -0.003 A 
ATOM      4  C5  UNL d   1       0.773   5.999  -2.284  0.00  0.00     0.000 A 
ATOM      5  C6  UNL d   1      -0.579   5.711  -2.470  0.00  0.00     0.000 A 
ATOM      6  C7  UNL d   1      -1.211   4.700  -1.726  0.00  0.00    -0.073 A 
ATOM      7  C8  UNL d   1      -2.670   4.428  -1.972  0.00  0.00     0.078 C 
ENDROOT
BRANCH   1   8
ATOM      8  C1  UNL d   1      -1.050   2.817   0.002  0.00  0.00     0.053 C 
ATOM      9  C   UNL d   1      -0.006   2.059   0.807  0.00  0.00     0.018 C 
ENDBRANCH   1   8
TORSDOF 1
ENDMDL
