MODEL 1
REMARK minimizedAffinity 11.641387
REMARK minimizedRMSD -1
REMARK  1 active torsions:
REMARK  status: ('A' for Active; 'I' for Inactive)
REMARK    1  A    between atoms: C1_2  and  C2_3 
ROOT
ATOM      1  C2  UNL d   1       0.337   3.149  -1.370  0.00  0.00    -0.076 A 
ATOM      2  C3  UNL d   1      -0.757   4.027  -1.460  0.00  0.00     0.004 A 
ATOM      3  C4  UNL d   1      -1.929   3.790  -0.743  0.00  0.00    -0.003 A 
ATOM      4  C5  UNL d   1      -2.025   2.671   0.077  0.00  0.00     0.000 A 
ATOM      5  C6  UNL d   1      -0.943   1.798   0.192  0.00  0.00     0.000 A 
ATOM      6  C7  UNL d   1       0.251   2.031  -0.512  0.00  0.00    -0.073 A 
ATOM      7  C8  UNL d   1       1.384   1.054  -0.356  0.00  0.00     0.078 C 
ENDROOT
BRANCH   1   8
ATOM      8  C1  UNL d   1       1.571   3.443  -2.193  0.00  0.00     0.053 C 
ATOM      9  C   UNL d   1       1.913   4.924  -2.222  0.00  0.00     0.018 C 
ENDBRANCH   1   8
TORSDOF 1
ENDMDL
