MODEL 1
REMARK minimizedAffinity 11.8069286
REMARK minimizedRMSD -1
REMARK  1 active torsions:
REMARK  status: ('A' for Active; 'I' for Inactive)
REMARK    1  A    between atoms: C1_2  and  C2_3 
ROOT
ATOM      1  C2  UNL d   1       0.095   2.944   0.203  0.00  0.00    -0.076 A 
ATOM      2  C3  UNL d   1      -1.069   3.728   0.278  0.00  0.00     0.004 A 
ATOM      3  C4  UNL d   1      -1.970   3.577   1.330  0.00  0.00    -0.003 A 
ATOM      4  C5  UNL d   1      -1.721   2.638   2.326  0.00  0.00     0.000 A 
ATOM      5  C6  UNL d   1      -0.563   1.864   2.278  0.00  0.00     0.000 A 
ATOM      6  C7  UNL d   1       0.364   2.016   1.232  0.00  0.00    -0.073 A 
ATOM      7  C8  UNL d   1       1.594   1.150   1.226  0.00  0.00     0.078 C 
ENDROOT
BRANCH   1   8
ATOM      8  C1  UNL d   1       1.022   3.133  -0.976  0.00  0.00     0.053 C 
ATOM      9  C   UNL d   1       2.020   4.260  -0.757  0.00  0.00     0.018 C 
ENDBRANCH   1   8
TORSDOF 1
ENDMDL
