MODEL 1
REMARK minimizedAffinity 14.8423567
REMARK minimizedRMSD -1
REMARK  1 active torsions:
REMARK  status: ('A' for Active; 'I' for Inactive)
REMARK    1  A    between atoms: C1_2  and  C2_3 
ROOT
ATOM      1  C2  UNL d   1      -0.828   4.579  -0.111  0.00  0.00    -0.076 A 
ATOM      2  C3  UNL d   1      -1.117   3.594   0.850  0.00  0.00     0.004 A 
ATOM      3  C4  UNL d   1      -0.619   2.298   0.721  0.00  0.00    -0.003 A 
ATOM      4  C5  UNL d   1       0.177   1.967  -0.370  0.00  0.00     0.000 A 
ATOM      5  C6  UNL d   1       0.488   2.936  -1.323  0.00  0.00     0.000 A 
ATOM      6  C7  UNL d   1       0.007   4.251  -1.200  0.00  0.00    -0.073 A 
ATOM      7  C8  UNL d   1       0.369   5.255  -2.260  0.00  0.00     0.078 C 
ENDROOT
BRANCH   1   8
ATOM      8  C1  UNL d   1      -1.419   5.959   0.068  0.00  0.00     0.053 C 
ATOM      9  C   UNL d   1      -2.494   5.999   1.142  0.00  0.00     0.018 C 
ENDBRANCH   1   8
TORSDOF 1
ENDMDL
