MODEL 1
REMARK minimizedAffinity 22.555706
REMARK minimizedRMSD -1
REMARK  1 active torsions:
REMARK  status: ('A' for Active; 'I' for Inactive)
REMARK    1  A    between atoms: C1_2  and  C2_3 
ROOT
ATOM      1  C2  UNL d   1      -0.536   4.101  -0.314  0.00  0.00    -0.076 A 
ATOM      2  C3  UNL d   1      -1.004   3.083   0.535  0.00  0.00     0.004 A 
ATOM      3  C4  UNL d   1      -0.466   1.798   0.480  0.00  0.00    -0.003 A 
ATOM      4  C5  UNL d   1       0.549   1.511  -0.426  0.00  0.00     0.000 A 
ATOM      5  C6  UNL d   1       1.038   2.513  -1.263  0.00  0.00     0.000 A 
ATOM      6  C7  UNL d   1       0.518   3.817  -1.208  0.00  0.00    -0.073 A 
ATOM      7  C8  UNL d   1       1.079   4.857  -2.139  0.00  0.00     0.078 C 
ENDROOT
BRANCH   1   8
ATOM      8  C1  UNL d   1      -1.176   5.468  -0.227  0.00  0.00     0.053 C 
ATOM      9  C   UNL d   1      -1.957   5.665   1.063  0.00  0.00     0.018 C 
ENDBRANCH   1   8
TORSDOF 1
ENDMDL
