MODEL 1
REMARK minimizedAffinity 4.73826122
REMARK minimizedRMSD -1
REMARK  1 active torsions:
REMARK  status: ('A' for Active; 'I' for Inactive)
REMARK    1  A    between atoms: C1_2  and  C2_3 
ROOT
ATOM      1  C2  UNL d   1      -1.008   1.793  -1.362  0.00  0.00    -0.076 A 
ATOM      2  C3  UNL d   1      -1.587   0.519  -1.235  0.00  0.00     0.004 A 
ATOM      3  C4  UNL d   1      -0.796  -0.615  -1.058  0.00  0.00    -0.003 A 
ATOM      4  C5  UNL d   1       0.588  -0.493  -1.004  0.00  0.00     0.000 A 
ATOM      5  C6  UNL d   1       1.179   0.766  -1.110  0.00  0.00     0.000 A 
ATOM      6  C7  UNL d   1       0.395   1.921  -1.273  0.00  0.00    -0.073 A 
ATOM      7  C8  UNL d   1       1.085   3.252  -1.388  0.00  0.00     0.078 C 
ENDROOT
BRANCH   1   8
ATOM      8  C1  UNL d   1      -1.915   2.983  -1.579  0.00  0.00     0.053 C 
ATOM      9  C   UNL d   1      -2.278   3.179  -3.043  0.00  0.00     0.018 C 
ENDBRANCH   1   8
TORSDOF 1
ENDMDL
