MODEL 1
REMARK minimizedAffinity 0.0894717649
REMARK minimizedRMSD -1
REMARK  2 active torsions:
REMARK  status: ('A' for Active; 'I' for Inactive)
REMARK    1  A    between atoms: C2'_3  and  C1'_4 
REMARK    2  A    between atoms: C1'_4  and  C1_5 
ROOT
ATOM      1  C1  I4B d   1       3.379   0.777  -0.913  0.00  0.00    -0.075 A 
ATOM      2  C2  I4B d   1       3.070  -0.551  -0.758  0.00  0.00     0.003 A 
ATOM      3  C3  I4B d   1       1.913  -0.934  -0.037  0.00  0.00     0.002 A 
ATOM      4  C4  I4B d   1       1.126   0.035   0.550  0.00  0.00    -0.004 A 
ATOM      5  C5  I4B d   1       1.428   1.382   0.373  0.00  0.00     0.002 A 
ATOM      6  C6  I4B d   1       2.555   1.756  -0.374  0.00  0.00     0.003 A 
ENDROOT
BRANCH   1   7
ATOM      7  C1' I4B d   1       4.627   1.145  -1.651  0.00  0.00     0.060 C 
BRANCH   7   8
ATOM      8  C2' I4B d   1       5.022   2.546  -1.230  0.00  0.00    -0.013 C 
ATOM      9  C4' I4B d   1       5.611   2.553   0.155  0.00  0.00     0.013 C 
ATOM     10  C3' I4B d   1       6.000   3.074  -2.238  0.00  0.00     0.013 C 
ENDBRANCH   7   8
ENDBRANCH   1   7
TORSDOF 2
ENDMDL
