MODEL 1
REMARK minimizedAffinity 5.50766945
REMARK minimizedRMSD -1
REMARK  2 active torsions:
REMARK  status: ('A' for Active; 'I' for Inactive)
REMARK    1  A    between atoms: C2'_3  and  C1'_4 
REMARK    2  A    between atoms: C1'_4  and  C1_5 
ROOT
ATOM      1  C1  I4B d   1       2.911   0.230   0.511  0.00  0.00    -0.075 A 
ATOM      2  C2  I4B d   1       3.740   1.186  -0.020  0.00  0.00     0.003 A 
ATOM      3  C3  I4B d   1       3.825   1.357  -1.423  0.00  0.00     0.002 A 
ATOM      4  C4  I4B d   1       3.105   0.523  -2.254  0.00  0.00    -0.004 A 
ATOM      5  C5  I4B d   1       2.247  -0.431  -1.713  0.00  0.00     0.002 A 
ATOM      6  C6  I4B d   1       2.139  -0.570  -0.322  0.00  0.00     0.003 A 
ENDROOT
BRANCH   1   7
ATOM      7  C1' I4B d   1       2.871   0.055   1.996  0.00  0.00     0.060 C 
BRANCH   7   8
ATOM      8  C2' I4B d   1       1.585   0.673   2.505  0.00  0.00    -0.013 C 
ATOM      9  C4' I4B d   1       1.286   0.230   3.913  0.00  0.00     0.013 C 
ATOM     10  C3' I4B d   1       1.725   2.164   2.425  0.00  0.00     0.013 C 
ENDBRANCH   7   8
ENDBRANCH   1   7
TORSDOF 2
ENDMDL
