MODEL 1
REMARK minimizedAffinity -1.55916893
REMARK minimizedRMSD -1
REMARK  2 active torsions:
REMARK  status: ('A' for Active; 'I' for Inactive)
REMARK    1  A    between atoms: C2'_3  and  C1'_4 
REMARK    2  A    between atoms: C1'_4  and  C1_5 
ROOT
ATOM      1  C1  I4B d   1       2.120   0.283  -0.225  0.00  0.00    -0.075 A 
ATOM      2  C2  I4B d   1       2.208  -0.401   0.961  0.00  0.00     0.003 A 
ATOM      3  C3  I4B d   1       1.432  -1.566   1.172  0.00  0.00     0.002 A 
ATOM      4  C4  I4B d   1       0.549  -1.981   0.195  0.00  0.00    -0.004 A 
ATOM      5  C5  I4B d   1       0.479  -1.299  -1.017  0.00  0.00     0.002 A 
ATOM      6  C6  I4B d   1       1.278  -0.168  -1.234  0.00  0.00     0.003 A 
ENDROOT
BRANCH   1   7
ATOM      7  C1' I4B d   1       2.930   1.528  -0.401  0.00  0.00     0.060 C 
BRANCH   7   8
ATOM      8  C2' I4B d   1       4.233   1.147  -1.073  0.00  0.00    -0.013 C 
ATOM      9  C4' I4B d   1       4.626   2.160  -2.116  0.00  0.00     0.013 C 
ATOM     10  C3' I4B d   1       5.285   1.028  -0.011  0.00  0.00     0.013 C 
ENDBRANCH   7   8
ENDBRANCH   1   7
TORSDOF 2
ENDMDL
