MODEL 1
REMARK minimizedAffinity 15.4919729
REMARK minimizedRMSD -1
REMARK  2 active torsions:
REMARK  status: ('A' for Active; 'I' for Inactive)
REMARK    1  A    between atoms: C2'_3  and  C1'_4 
REMARK    2  A    between atoms: C1'_4  and  C1_5 
ROOT
ATOM      1  C1  I4B d   1       0.838  -2.461   5.227  0.00  0.00    -0.075 A 
ATOM      2  C2  I4B d   1       0.950  -2.520   3.860  0.00  0.00     0.003 A 
ATOM      3  C3  I4B d   1       0.996  -1.329   3.096  0.00  0.00     0.002 A 
ATOM      4  C4  I4B d   1       0.879  -0.110   3.731  0.00  0.00    -0.004 A 
ATOM      5  C5  I4B d   1       0.790  -0.050   5.119  0.00  0.00     0.002 A 
ATOM      6  C6  I4B d   1       0.782  -1.233   5.873  0.00  0.00     0.003 A 
ENDROOT
BRANCH   1   7
ATOM      7  C1' I4B d   1       0.759  -3.739   6.000  0.00  0.00     0.060 C 
BRANCH   7   8
ATOM      8  C2' I4B d   1      -0.454  -4.505   5.511  0.00  0.00    -0.013 C 
ATOM      9  C4' I4B d   1      -0.430  -5.931   5.995  0.00  0.00     0.013 C 
ATOM     10  C3' I4B d   1      -1.680  -3.790   5.994  0.00  0.00     0.013 C 
ENDBRANCH   7   8
ENDBRANCH   1   7
TORSDOF 2
ENDMDL
