MODEL 1
REMARK minimizedAffinity 6.87823391
REMARK minimizedRMSD -1
REMARK  2 active torsions:
REMARK  status: ('A' for Active; 'I' for Inactive)
REMARK    1  A    between atoms: C2'_3  and  C1'_4 
REMARK    2  A    between atoms: C1'_4  and  C1_5 
ROOT
ATOM      1  C1  I4B d   1       2.799   0.792  -1.119  0.00  0.00    -0.075 A 
ATOM      2  C2  I4B d   1       3.446   0.204  -2.177  0.00  0.00     0.003 A 
ATOM      3  C3  I4B d   1       4.521   0.870  -2.815  0.00  0.00     0.002 A 
ATOM      4  C4  I4B d   1       4.880   2.135  -2.396  0.00  0.00    -0.004 A 
ATOM      5  C5  I4B d   1       4.239   2.720  -1.308  0.00  0.00     0.002 A 
ATOM      6  C6  I4B d   1       3.199   2.039  -0.657  0.00  0.00     0.003 A 
ENDROOT
BRANCH   1   7
ATOM      7  C1' I4B d   1       1.646   0.075  -0.491  0.00  0.00     0.060 C 
BRANCH   7   8
ATOM      8  C2' I4B d   1       1.942  -1.411  -0.533  0.00  0.00    -0.013 C 
ATOM      9  C4' I4B d   1       2.906  -1.806   0.554  0.00  0.00     0.013 C 
ATOM     10  C3' I4B d   1       0.642  -2.145  -0.397  0.00  0.00     0.013 C 
ENDBRANCH   7   8
ENDBRANCH   1   7
TORSDOF 2
ENDMDL
