MODEL 1
REMARK minimizedAffinity -0.486623198
REMARK minimizedRMSD -1
REMARK  0 active torsions:
REMARK  status: ('A' for Active; 'I' for Inactive)
ROOT
ATOM      1  C   UNL d   1       2.389  -0.512   1.081  0.00  0.00     0.124 A 
ATOM      2  C1  UNL d   1       1.127  -0.348   1.634  0.00  0.00     0.062 A 
ATOM      3  C2  UNL d   1       0.010  -0.238   0.810  0.00  0.00     0.162 A 
ATOM      4  C3  UNL d   1       0.151  -0.293  -0.577  0.00  0.00    -0.034 A 
ATOM      5  C4  UNL d   1       1.424  -0.457  -1.126  0.00  0.00     0.162 A 
ATOM      6  C5  UNL d   1       2.537  -0.566  -0.298  0.00  0.00     0.062 A 
ATOM      7  F   UNL d   1       3.756  -0.724  -0.834  0.00  0.00    -0.097 F 
ATOM      8  F1  UNL d   1       1.595  -0.514  -2.455  0.00  0.00    -0.096 F 
ATOM      9  I   UNL d   1      -1.516  -0.130  -1.813  0.00  0.00    -0.060 I 
ATOM     10  F2  UNL d   1      -1.198  -0.081   1.371  0.00  0.00    -0.096 F 
ATOM     11  F3  UNL d   1       0.981  -0.294   2.965  0.00  0.00    -0.097 F 
ATOM     12  F4  UNL d   1       3.462  -0.616   1.876  0.00  0.00    -0.092 F 
ENDROOT
TORSDOF 0
ENDMDL
