MODEL 1
REMARK minimizedAffinity -1.72024679
REMARK minimizedRMSD -1
REMARK  0 active torsions:
REMARK  status: ('A' for Active; 'I' for Inactive)
ROOT
ATOM      1  C   UNL d   1       2.167  -0.562   2.082  0.00  0.00     0.124 A 
ATOM      2  C1  UNL d   1       1.125  -1.474   2.178  0.00  0.00     0.062 A 
ATOM      3  C2  UNL d   1      -0.059  -1.261   1.477  0.00  0.00     0.162 A 
ATOM      4  C3  UNL d   1      -0.207  -0.131   0.674  0.00  0.00    -0.034 A 
ATOM      5  C4  UNL d   1       0.845   0.783   0.583  0.00  0.00     0.162 A 
ATOM      6  C5  UNL d   1       2.026   0.565   1.285  0.00  0.00     0.062 A 
ATOM      7  F   UNL d   1       3.031   1.448   1.192  0.00  0.00    -0.097 F 
ATOM      8  F1  UNL d   1       0.736   1.880  -0.180  0.00  0.00    -0.096 F 
ATOM      9  I   UNL d   1      -1.975   0.192  -0.375  0.00  0.00    -0.060 I 
ATOM     10  F2  UNL d   1      -1.049  -2.159   1.589  0.00  0.00    -0.096 F 
ATOM     11  F3  UNL d   1       1.258  -2.564   2.948  0.00  0.00    -0.097 F 
ATOM     12  F4  UNL d   1       3.304  -0.770   2.758  0.00  0.00    -0.092 F 
ENDROOT
TORSDOF 0
ENDMDL
