MODEL 1
REMARK minimizedAffinity 1.54624283
REMARK minimizedRMSD -1
REMARK  0 active torsions:
REMARK  status: ('A' for Active; 'I' for Inactive)
ROOT
ATOM      1  C   UNL d   1      -1.103  -0.033   0.888  0.00  0.00     0.124 A 
ATOM      2  C1  UNL d   1      -0.176   0.974   0.659  0.00  0.00     0.062 A 
ATOM      3  C2  UNL d   1       1.186   0.690   0.681  0.00  0.00     0.162 A 
ATOM      4  C3  UNL d   1       1.630  -0.609   0.932  0.00  0.00    -0.034 A 
ATOM      5  C4  UNL d   1       0.692  -1.616   1.162  0.00  0.00     0.162 A 
ATOM      6  C5  UNL d   1      -0.669  -1.327   1.139  0.00  0.00     0.062 A 
ATOM      7  F   UNL d   1      -1.563  -2.301   1.361  0.00  0.00    -0.097 F 
ATOM      8  F1  UNL d   1       1.084  -2.875   1.407  0.00  0.00    -0.096 F 
ATOM      9  I   UNL d   1       3.666  -1.038   0.966  0.00  0.00    -0.060 I 
ATOM     10  F2  UNL d   1       2.060   1.683   0.456  0.00  0.00    -0.096 F 
ATOM     11  F3  UNL d   1      -0.593   2.225   0.416  0.00  0.00    -0.097 F 
ATOM     12  F4  UNL d   1      -2.413   0.243   0.867  0.00  0.00    -0.092 F 
ENDROOT
TORSDOF 0
ENDMDL
