MODEL 1
REMARK minimizedAffinity -0.0876012594
REMARK minimizedRMSD -1
REMARK  0 active torsions:
REMARK  status: ('A' for Active; 'I' for Inactive)
ROOT
ATOM      1  C   UNL d   1       0.688   1.378  -0.144  0.00  0.00     0.124 A 
ATOM      2  C1  UNL d   1       1.913   1.129   0.459  0.00  0.00     0.062 A 
ATOM      3  C2  UNL d   1       2.051   0.073   1.355  0.00  0.00     0.162 A 
ATOM      4  C3  UNL d   1       0.960  -0.744   1.652  0.00  0.00    -0.034 A 
ATOM      5  C4  UNL d   1      -0.269  -0.487   1.042  0.00  0.00     0.162 A 
ATOM      6  C5  UNL d   1      -0.401   0.570   0.148  0.00  0.00     0.062 A 
ATOM      7  F   UNL d   1      -1.586   0.809  -0.434  0.00  0.00    -0.097 F 
ATOM      8  F1  UNL d   1      -1.339  -1.253   1.305  0.00  0.00    -0.096 F 
ATOM      9  I   UNL d   1       1.161  -2.325   2.990  0.00  0.00    -0.060 I 
ATOM     10  F2  UNL d   1       3.246  -0.145   1.923  0.00  0.00    -0.096 F 
ATOM     11  F3  UNL d   1       2.968   1.909   0.180  0.00  0.00    -0.097 F 
ATOM     12  F4  UNL d   1       0.559   2.396  -1.004  0.00  0.00    -0.092 F 
ENDROOT
TORSDOF 0
ENDMDL
