MODEL 1
REMARK minimizedAffinity -4.5549345
REMARK minimizedRMSD -1
REMARK  0 active torsions:
REMARK  status: ('A' for Active; 'I' for Inactive)
ROOT
ATOM      1  C   UNL d   1       1.477   0.675   0.553  0.00  0.00     0.124 A 
ATOM      2  C1  UNL d   1       2.501  -0.154   0.989  0.00  0.00     0.062 A 
ATOM      3  C2  UNL d   1       2.209  -1.405   1.525  0.00  0.00     0.162 A 
ATOM      4  C3  UNL d   1       0.886  -1.835   1.627  0.00  0.00    -0.034 A 
ATOM      5  C4  UNL d   1      -0.139  -0.996   1.187  0.00  0.00     0.162 A 
ATOM      6  C5  UNL d   1       0.158   0.254   0.652  0.00  0.00     0.062 A 
ATOM      7  F   UNL d   1      -0.833   1.053   0.231  0.00  0.00    -0.097 F 
ATOM      8  F1  UNL d   1      -1.422  -1.378   1.270  0.00  0.00    -0.096 F 
ATOM      9  I   UNL d   1       0.445  -3.705   2.428  0.00  0.00    -0.060 I 
ATOM     10  F2  UNL d   1       3.219  -2.185   1.939  0.00  0.00    -0.096 F 
ATOM     11  F3  UNL d   1       3.776   0.251   0.895  0.00  0.00    -0.097 F 
ATOM     12  F4  UNL d   1       1.761   1.878   0.039  0.00  0.00    -0.092 F 
ENDROOT
TORSDOF 0
ENDMDL
