MODEL 1
REMARK minimizedAffinity 0.704628348
REMARK minimizedRMSD -1
REMARK  0 active torsions:
REMARK  status: ('A' for Active; 'I' for Inactive)
ROOT
ATOM      1  C   UNL d   1       1.696   1.571   0.592  0.00  0.00     0.124 A 
ATOM      2  C1  UNL d   1       0.842   2.182  -0.316  0.00  0.00     0.062 A 
ATOM      3  C2  UNL d   1      -0.239   1.481  -0.842  0.00  0.00     0.162 A 
ATOM      4  C3  UNL d   1      -0.473   0.159  -0.461  0.00  0.00    -0.034 A 
ATOM      5  C4  UNL d   1       0.390  -0.449   0.452  0.00  0.00     0.162 A 
ATOM      6  C5  UNL d   1       1.469   0.256   0.975  0.00  0.00     0.062 A 
ATOM      7  F   UNL d   1       2.293  -0.336   1.851  0.00  0.00    -0.097 F 
ATOM      8  F1  UNL d   1       0.194  -1.718   0.840  0.00  0.00    -0.096 F 
ATOM      9  I   UNL d   1      -2.089  -0.893  -1.245  0.00  0.00    -0.060 I 
ATOM     10  F2  UNL d   1      -1.048   2.096  -1.717  0.00  0.00    -0.096 F 
ATOM     11  F3  UNL d   1       1.059   3.452  -0.688  0.00  0.00    -0.097 F 
ATOM     12  F4  UNL d   1       2.736   2.248   1.095  0.00  0.00    -0.092 F 
ENDROOT
TORSDOF 0
ENDMDL
