MODEL 1
REMARK minimizedAffinity -2.09867454
REMARK minimizedRMSD -1
REMARK  0 active torsions:
REMARK  status: ('A' for Active; 'I' for Inactive)
ROOT
ATOM      1  C   UNL d   1       0.515   1.691   0.042  0.00  0.00     0.124 A 
ATOM      2  C1  UNL d   1      -0.596   0.893  -0.192  0.00  0.00     0.062 A 
ATOM      3  C2  UNL d   1      -0.643  -0.406   0.306  0.00  0.00     0.162 A 
ATOM      4  C3  UNL d   1       0.425  -0.915   1.045  0.00  0.00    -0.034 A 
ATOM      5  C4  UNL d   1       1.540  -0.108   1.275  0.00  0.00     0.162 A 
ATOM      6  C5  UNL d   1       1.582   1.190   0.775  0.00  0.00     0.062 A 
ATOM      7  F   UNL d   1       2.657   1.959   1.003  0.00  0.00    -0.097 F 
ATOM      8  F1  UNL d   1       2.584  -0.566   1.981  0.00  0.00    -0.096 F 
ATOM      9  I   UNL d   1       0.358  -2.857   1.791  0.00  0.00    -0.060 I 
ATOM     10  F2  UNL d   1      -1.730  -1.154   0.065  0.00  0.00    -0.096 F 
ATOM     11  F3  UNL d   1      -1.628   1.374  -0.901  0.00  0.00    -0.097 F 
ATOM     12  F4  UNL d   1       0.558   2.940  -0.439  0.00  0.00    -0.092 F 
ENDROOT
TORSDOF 0
ENDMDL
