MODEL 1
REMARK minimizedAffinity -4.76678658
REMARK minimizedRMSD -1
REMARK  0 active torsions:
REMARK  status: ('A' for Active; 'I' for Inactive)
ROOT
ATOM      1  C   UNL d   1       2.558  -0.464   1.460  0.00  0.00     0.124 A 
ATOM      2  C1  UNL d   1       1.721  -1.567   1.357  0.00  0.00     0.062 A 
ATOM      3  C2  UNL d   1       0.520  -1.471   0.659  0.00  0.00     0.162 A 
ATOM      4  C3  UNL d   1       0.149  -0.268   0.059  0.00  0.00    -0.034 A 
ATOM      5  C4  UNL d   1       0.995   0.837   0.168  0.00  0.00     0.162 A 
ATOM      6  C5  UNL d   1       2.194   0.736   0.866  0.00  0.00     0.062 A 
ATOM      7  F   UNL d   1       3.001   1.802   0.965  0.00  0.00    -0.097 F 
ATOM      8  F1  UNL d   1       0.669   2.008  -0.398  0.00  0.00    -0.096 F 
ATOM      9  I   UNL d   1      -1.646  -0.121  -0.985  0.00  0.00    -0.060 I 
ATOM     10  F2  UNL d   1      -0.269  -2.553   0.575  0.00  0.00    -0.096 F 
ATOM     11  F3  UNL d   1       2.069  -2.727   1.931  0.00  0.00    -0.097 F 
ATOM     12  F4  UNL d   1       3.712  -0.559   2.133  0.00  0.00    -0.092 F 
ENDROOT
TORSDOF 0
ENDMDL
