MODEL 1
REMARK minimizedAffinity -4.33904791
REMARK minimizedRMSD -1
REMARK  0 active torsions:
REMARK  status: ('A' for Active; 'I' for Inactive)
ROOT
ATOM      1  C1  BNZ d   1       0.673   0.288   1.754  0.00  0.00     0.000 A 
ATOM      2  C2  BNZ d   1       0.077   1.378   2.330  0.00  0.00     0.000 A 
ATOM      3  C3  BNZ d   1      -0.980   1.999   1.725  0.00  0.00     0.000 A 
ATOM      4  C4  BNZ d   1      -1.413   1.555   0.527  0.00  0.00     0.000 A 
ATOM      5  C5  BNZ d   1      -0.816   0.463  -0.071  0.00  0.00     0.000 A 
ATOM      6  C6  BNZ d   1       0.222  -0.184   0.559  0.00  0.00     0.000 A 
ENDROOT
TORSDOF 0
ENDMDL
