MODEL 1
REMARK minimizedAffinity -4.92584181
REMARK minimizedRMSD -1
REMARK  0 active torsions:
REMARK  status: ('A' for Active; 'I' for Inactive)
ROOT
ATOM      1  C1  BNZ d   1      -0.362   1.515   2.358  0.00  0.00     0.000 A 
ATOM      2  C2  BNZ d   1       0.250   0.306   2.161  0.00  0.00     0.000 A 
ATOM      3  C3  BNZ d   1       0.263  -0.279   0.926  0.00  0.00     0.000 A 
ATOM      4  C4  BNZ d   1      -0.371   0.325  -0.100  0.00  0.00     0.000 A 
ATOM      5  C5  BNZ d   1      -1.001   1.539   0.085  0.00  0.00     0.000 A 
ATOM      6  C6  BNZ d   1      -0.978   2.144   1.321  0.00  0.00     0.000 A 
ENDROOT
TORSDOF 0
ENDMDL
