MODEL 1
REMARK minimizedAffinity -4.84951448
REMARK minimizedRMSD -1
REMARK  0 active torsions:
REMARK  status: ('A' for Active; 'I' for Inactive)
ROOT
ATOM      1  C1  BNZ d   1      -0.048  -0.224   0.304  0.00  0.00     0.000 A 
ATOM      2  C2  BNZ d   1       0.042   0.213   1.599  0.00  0.00     0.000 A 
ATOM      3  C3  BNZ d   1      -0.512   1.404   1.976  0.00  0.00     0.000 A 
ATOM      4  C4  BNZ d   1      -1.119   2.175   1.051  0.00  0.00     0.000 A 
ATOM      5  C5  BNZ d   1      -1.210   1.753  -0.261  0.00  0.00     0.000 A 
ATOM      6  C6  BNZ d   1      -0.685   0.535  -0.629  0.00  0.00     0.000 A 
ENDROOT
TORSDOF 0
ENDMDL
