MODEL 1
REMARK minimizedAffinity -4.84153366
REMARK minimizedRMSD -1
REMARK  0 active torsions:
REMARK  status: ('A' for Active; 'I' for Inactive)
ROOT
ATOM      1  C1  BNZ d   1      -0.164   1.906   2.081  0.00  0.00     0.000 A 
ATOM      2  C2  BNZ d   1       0.499   0.728   1.862  0.00  0.00     0.000 A 
ATOM      3  C3  BNZ d   1       0.599   0.203   0.604  0.00  0.00     0.000 A 
ATOM      4  C4  BNZ d   1       0.001   0.836  -0.427  0.00  0.00     0.000 A 
ATOM      5  C5  BNZ d   1      -0.679   2.019  -0.221  0.00  0.00     0.000 A 
ATOM      6  C6  BNZ d   1      -0.744   2.564   1.041  0.00  0.00     0.000 A 
ENDROOT
TORSDOF 0
ENDMDL
