MODEL 1
REMARK minimizedAffinity -3.58310938
REMARK minimizedRMSD -1
REMARK  0 active torsions:
REMARK  status: ('A' for Active; 'I' for Inactive)
ROOT
ATOM      1  C1  BNZ d   1       1.142   0.722   2.607  0.00  0.00     0.000 A 
ATOM      2  C2  BNZ d   1       0.366   1.817   2.879  0.00  0.00     0.000 A 
ATOM      3  C3  BNZ d   1      -0.734   2.101   2.120  0.00  0.00     0.000 A 
ATOM      4  C4  BNZ d   1      -1.034   1.314   1.066  0.00  0.00     0.000 A 
ATOM      5  C5  BNZ d   1      -0.256   0.212   0.773  0.00  0.00     0.000 A 
ATOM      6  C6  BNZ d   1       0.829  -0.093   1.564  0.00  0.00     0.000 A 
ENDROOT
TORSDOF 0
ENDMDL
