MODEL 1
REMARK minimizedAffinity -3.23045063
REMARK minimizedRMSD -1
REMARK  0 active torsions:
REMARK  status: ('A' for Active; 'I' for Inactive)
ROOT
ATOM      1  C1  BNZ d   1       0.864  -0.780   1.247  0.00  0.00     0.000 A 
ATOM      2  C2  BNZ d   1       0.131   0.251   1.773  0.00  0.00     0.000 A 
ATOM      3  C3  BNZ d   1      -0.635   1.046   0.968  0.00  0.00     0.000 A 
ATOM      4  C4  BNZ d   1      -0.637   0.836  -0.364  0.00  0.00     0.000 A 
ATOM      5  C5  BNZ d   1       0.104  -0.193  -0.910  0.00  0.00     0.000 A 
ATOM      6  C6  BNZ d   1       0.844  -1.016  -0.093  0.00  0.00     0.000 A 
ENDROOT
TORSDOF 0
ENDMDL
