MODEL 1
REMARK minimizedAffinity 2.63479471
REMARK minimizedRMSD -1
REMARK  0 active torsions:
REMARK  status: ('A' for Active; 'I' for Inactive)
ROOT
ATOM      1  C1  BNZ d   1       3.610  -1.883   4.662  0.00  0.00     0.000 A 
ATOM      2  C2  BNZ d   1       2.404  -1.427   4.198  0.00  0.00     0.000 A 
ATOM      3  C3  BNZ d   1       2.345  -0.414   3.282  0.00  0.00     0.000 A 
ATOM      4  C4  BNZ d   1       3.487   0.167   2.861  0.00  0.00     0.000 A 
ATOM      5  C5  BNZ d   1       4.709  -0.276   3.326  0.00  0.00     0.000 A 
ATOM      6  C6  BNZ d   1       4.767  -1.321   4.219  0.00  0.00     0.000 A 
ENDROOT
TORSDOF 0
ENDMDL
