MODEL 1
REMARK minimizedAffinity -3.69180608
REMARK minimizedRMSD -1
REMARK  3 active torsions:
REMARK  status: ('A' for Active; 'I' for Inactive)
REMARK    1  A    between atoms: C3'_2  and  C2'_3 
REMARK    2  A    between atoms: C2'_3  and  C1'_4 
REMARK    3  A    between atoms: C1'_4  and  C1_5 
ROOT
ATOM      1  C1  N4B d   1       0.219  -0.580  -0.046  0.00  0.00    -0.075 A 
ATOM      2  C2  N4B d   1       0.418  -0.892  -1.409  0.00  0.00     0.002 A 
ATOM      3  C3  N4B d   1      -0.085  -2.060  -1.927  0.00  0.00     0.002 A 
ATOM      4  C4  N4B d   1      -0.772  -2.936  -1.101  0.00  0.00    -0.004 A 
ATOM      5  C5  N4B d   1      -0.983  -2.616   0.208  0.00  0.00     0.002 A 
ATOM      6  C6  N4B d   1      -0.486  -1.443   0.741  0.00  0.00     0.002 A 
ENDROOT
BRANCH   1   7
ATOM      7  C1' N4B d   1       0.824   0.644   0.585  0.00  0.00     0.057 C 
BRANCH   7   8
ATOM      8  C2' N4B d   1       0.531   1.857  -0.292  0.00  0.00     0.009 C 
BRANCH   8   9
ATOM      9  C3' N4B d   1       1.122   3.132   0.285  0.00  0.00     0.004 C 
ATOM     10  C4' N4B d   1       2.616   3.077   0.404  0.00  0.00     0.003 C 
ENDBRANCH   8   9
ENDBRANCH   7   8
ENDBRANCH   1   7
TORSDOF 3
ENDMDL
