MODEL 1
REMARK minimizedAffinity -5.74602461
REMARK minimizedRMSD -1
REMARK  3 active torsions:
REMARK  status: ('A' for Active; 'I' for Inactive)
REMARK    1  A    between atoms: C3'_2  and  C2'_3 
REMARK    2  A    between atoms: C2'_3  and  C1'_4 
REMARK    3  A    between atoms: C1'_4  and  C1_5 
ROOT
ATOM      1  C1  N4B d   1       0.271   0.803   0.603  0.00  0.00    -0.075 A 
ATOM      2  C2  N4B d   1       0.154   1.947  -0.215  0.00  0.00     0.002 A 
ATOM      3  C3  N4B d   1       0.932   3.051   0.033  0.00  0.00     0.002 A 
ATOM      4  C4  N4B d   1       1.816   3.041   1.102  0.00  0.00    -0.004 A 
ATOM      5  C5  N4B d   1       1.941   1.922   1.872  0.00  0.00     0.002 A 
ATOM      6  C6  N4B d   1       1.168   0.804   1.632  0.00  0.00     0.002 A 
ENDROOT
BRANCH   1   7
ATOM      7  C1' N4B d   1      -0.620  -0.396   0.423  0.00  0.00     0.057 C 
BRANCH   7   8
ATOM      8  C2' N4B d   1       0.165  -1.502  -0.276  0.00  0.00     0.009 C 
BRANCH   8   9
ATOM      9  C3' N4B d   1      -0.446  -2.872  -0.035  0.00  0.00     0.004 C 
ATOM     10  C4' N4B d   1      -1.861  -2.798   0.456  0.00  0.00     0.003 C 
ENDBRANCH   8   9
ENDBRANCH   7   8
ENDBRANCH   1   7
TORSDOF 3
ENDMDL
