MODEL 1
REMARK minimizedAffinity -4.99209261
REMARK minimizedRMSD -1
REMARK  3 active torsions:
REMARK  status: ('A' for Active; 'I' for Inactive)
REMARK    1  A    between atoms: C3'_2  and  C2'_3 
REMARK    2  A    between atoms: C2'_3  and  C1'_4 
REMARK    3  A    between atoms: C1'_4  and  C1_5 
ROOT
ATOM      1  C1  N4B d   1       1.106   0.614   0.843  0.00  0.00    -0.075 A 
ATOM      2  C2  N4B d   1       1.991   1.643   1.235  0.00  0.00     0.002 A 
ATOM      3  C3  N4B d   1       1.844   2.907   0.720  0.00  0.00     0.002 A 
ATOM      4  C4  N4B d   1       0.837   3.161  -0.199  0.00  0.00    -0.004 A 
ATOM      5  C5  N4B d   1      -0.029   2.168  -0.552  0.00  0.00     0.002 A 
ATOM      6  C6  N4B d   1       0.104   0.894  -0.040  0.00  0.00     0.002 A 
ENDROOT
BRANCH   1   7
ATOM      7  C1' N4B d   1       1.280  -0.804   1.314  0.00  0.00     0.057 C 
BRANCH   7   8
ATOM      8  C2' N4B d   1       0.831  -1.757   0.209  0.00  0.00     0.009 C 
BRANCH   8   9
ATOM      9  C3' N4B d   1      -0.024  -2.891   0.750  0.00  0.00     0.004 C 
ATOM     10  C4' N4B d   1      -1.480  -2.539   0.817  0.00  0.00     0.003 C 
ENDBRANCH   8   9
ENDBRANCH   7   8
ENDBRANCH   1   7
TORSDOF 3
ENDMDL
