MODEL 1
REMARK minimizedAffinity -4.19986725
REMARK minimizedRMSD -1
REMARK  3 active torsions:
REMARK  status: ('A' for Active; 'I' for Inactive)
REMARK    1  A    between atoms: C3'_2  and  C2'_3 
REMARK    2  A    between atoms: C2'_3  and  C1'_4 
REMARK    3  A    between atoms: C1'_4  and  C1_5 
ROOT
ATOM      1  C1  N4B d   1       0.362  -1.434  -0.547  0.00  0.00    -0.075 A 
ATOM      2  C2  N4B d   1       0.286  -2.361   0.515  0.00  0.00     0.002 A 
ATOM      3  C3  N4B d   1      -0.213  -3.621   0.292  0.00  0.00     0.002 A 
ATOM      4  C4  N4B d   1      -0.658  -3.968  -0.975  0.00  0.00    -0.004 A 
ATOM      5  C5  N4B d   1      -0.558  -3.075  -2.001  0.00  0.00     0.002 A 
ATOM      6  C6  N4B d   1      -0.055  -1.807  -1.792  0.00  0.00     0.002 A 
ENDROOT
BRANCH   1   7
ATOM      7  C1' N4B d   1       0.820  -0.017  -0.333  0.00  0.00     0.057 C 
BRANCH   7   8
ATOM      8  C2' N4B d   1       0.079   0.573   0.864  0.00  0.00     0.009 C 
BRANCH   8   9
ATOM      9  C3' N4B d   1      -1.428   0.445   0.719  0.00  0.00     0.004 C 
ATOM     10  C4' N4B d   1      -2.075  -0.176   1.921  0.00  0.00     0.003 C 
ENDBRANCH   8   9
ENDBRANCH   7   8
ENDBRANCH   1   7
TORSDOF 3
ENDMDL
