MODEL 1
REMARK minimizedAffinity -2.97393155
REMARK minimizedRMSD -1
REMARK  3 active torsions:
REMARK  status: ('A' for Active; 'I' for Inactive)
REMARK    1  A    between atoms: C3'_2  and  C2'_3 
REMARK    2  A    between atoms: C2'_3  and  C1'_4 
REMARK    3  A    between atoms: C1'_4  and  C1_5 
ROOT
ATOM      1  C1  N4B d   1      -0.162   0.085   0.027  0.00  0.00    -0.075 A 
ATOM      2  C2  N4B d   1       0.172   0.073   1.399  0.00  0.00     0.002 A 
ATOM      3  C3  N4B d   1      -0.015  -1.066   2.142  0.00  0.00     0.002 A 
ATOM      4  C4  N4B d   1      -0.550  -2.196   1.542  0.00  0.00    -0.004 A 
ATOM      5  C5  N4B d   1      -0.847  -2.185   0.210  0.00  0.00     0.002 A 
ATOM      6  C6  N4B d   1      -0.661  -1.048  -0.550  0.00  0.00     0.002 A 
ENDROOT
BRANCH   1   7
ATOM      7  C1' N4B d   1      -0.056   1.333  -0.806  0.00  0.00     0.057 C 
BRANCH   7   8
ATOM      8  C2' N4B d   1       0.082   2.540   0.116  0.00  0.00     0.009 C 
BRANCH   8   9
ATOM      9  C3' N4B d   1       1.438   3.211  -0.025  0.00  0.00     0.004 C 
ATOM     10  C4' N4B d   1       2.190   3.281   1.271  0.00  0.00     0.003 C 
ENDBRANCH   8   9
ENDBRANCH   7   8
ENDBRANCH   1   7
TORSDOF 3
ENDMDL
