MODEL 1
REMARK minimizedAffinity -0.256454736
REMARK minimizedRMSD -1
REMARK  3 active torsions:
REMARK  status: ('A' for Active; 'I' for Inactive)
REMARK    1  A    between atoms: C3'_2  and  C2'_3 
REMARK    2  A    between atoms: C2'_3  and  C1'_4 
REMARK    3  A    between atoms: C1'_4  and  C1_5 
ROOT
ATOM      1  C1  N4B d   1      -0.340  -0.368  -0.010  0.00  0.00    -0.075 A 
ATOM      2  C2  N4B d   1      -0.473  -1.497  -0.848  0.00  0.00     0.002 A 
ATOM      3  C3  N4B d   1      -0.708  -2.734  -0.302  0.00  0.00     0.002 A 
ATOM      4  C4  N4B d   1      -0.794  -2.871   1.076  0.00  0.00    -0.004 A 
ATOM      5  C5  N4B d   1      -0.690  -1.771   1.877  0.00  0.00     0.002 A 
ATOM      6  C6  N4B d   1      -0.458  -0.521   1.341  0.00  0.00     0.002 A 
ENDROOT
BRANCH   1   7
ATOM      7  C1' N4B d   1       0.003   0.991  -0.556  0.00  0.00     0.057 C 
BRANCH   7   8
ATOM      8  C2' N4B d   1       0.560   1.857   0.569  0.00  0.00     0.009 C 
BRANCH   8   9
ATOM      9  C3' N4B d   1       0.896   3.260   0.094  0.00  0.00     0.004 C 
ATOM     10  C4' N4B d   1       2.372   3.499  -0.016  0.00  0.00     0.003 C 
ENDBRANCH   8   9
ENDBRANCH   7   8
ENDBRANCH   1   7
TORSDOF 3
ENDMDL
