MODEL 1
REMARK minimizedAffinity 6.08128548
REMARK minimizedRMSD -1
REMARK  0 active torsions:
REMARK  status: ('A' for Active; 'I' for Inactive)
ROOT
ATOM      1  C1  DEN d   1      -0.285   1.558   1.274  0.00  0.00     0.130 A 
ATOM      2  C2  DEN d   1      -0.665   2.941   0.999  0.00  0.00    -0.031 A 
ATOM      3  C3  DEN d   1      -1.607   2.938  -0.138  0.00  0.00     0.027 A 
ATOM      4  C4  DEN d   1      -2.515   0.936  -1.487  0.00  0.00     0.027 A 
ATOM      5  C5  DEN d   1      -2.471  -0.433  -1.631  0.00  0.00    -0.003 A 
ATOM      6  C6  DEN d   1      -1.676  -1.225  -0.846  0.00  0.00     0.001 A 
ATOM      7  C7  DEN d   1      -0.926  -0.657   0.150  0.00  0.00     0.017 A 
ATOM      8  C8  DEN d   1      -0.960   0.723   0.297  0.00  0.00    -0.094 A 
ATOM      9  C9  DEN d   1      -1.779   1.505  -0.499  0.00  0.00    -0.072 A 
ENDROOT
TORSDOF 0
ENDMDL
