MODEL 1
REMARK minimizedAffinity 0.0159714576
REMARK minimizedRMSD -1
REMARK  0 active torsions:
REMARK  status: ('A' for Active; 'I' for Inactive)
ROOT
ATOM      1  C1  DEN d   1       0.525   0.011  -0.501  0.00  0.00     0.130 A 
ATOM      2  C2  DEN d   1      -0.214   0.396   0.697  0.00  0.00    -0.031 A 
ATOM      3  C3  DEN d   1      -1.085  -0.733   1.079  0.00  0.00     0.027 A 
ATOM      4  C4  DEN d   1      -1.356  -3.031  -0.060  0.00  0.00     0.027 A 
ATOM      5  C5  DEN d   1      -0.946  -3.816  -1.115  0.00  0.00    -0.003 A 
ATOM      6  C6  DEN d   1      -0.050  -3.372  -2.051  0.00  0.00     0.001 A 
ATOM      7  C7  DEN d   1       0.500  -2.124  -1.925  0.00  0.00     0.017 A 
ATOM      8  C8  DEN d   1       0.087  -1.323  -0.868  0.00  0.00    -0.094 A 
ATOM      9  C9  DEN d   1      -0.811  -1.795   0.075  0.00  0.00    -0.072 A 
ENDROOT
TORSDOF 0
ENDMDL
