MODEL 1
REMARK minimizedAffinity -5.87238884
REMARK minimizedRMSD -1
REMARK  0 active torsions:
REMARK  status: ('A' for Active; 'I' for Inactive)
ROOT
ATOM      1  C1  DEN d   1      -0.348  -0.706   0.633  0.00  0.00     0.130 A 
ATOM      2  C2  DEN d   1       1.020  -1.197   0.771  0.00  0.00    -0.031 A 
ATOM      3  C3  DEN d   1       1.939  -0.071   0.505  0.00  0.00     0.027 A 
ATOM      4  C4  DEN d   1       1.377   2.373  -0.101  0.00  0.00     0.027 A 
ATOM      5  C5  DEN d   1       0.354   3.262  -0.344  0.00  0.00    -0.003 A 
ATOM      6  C6  DEN d   1      -0.963   2.886  -0.313  0.00  0.00     0.001 A 
ATOM      7  C7  DEN d   1      -1.294   1.598   0.012  0.00  0.00     0.017 A 
ATOM      8  C8  DEN d   1      -0.267   0.693   0.252  0.00  0.00    -0.094 A 
ATOM      9  C9  DEN d   1       1.057   1.095   0.228  0.00  0.00    -0.072 A 
ENDROOT
TORSDOF 0
ENDMDL
