MODEL 1
REMARK minimizedAffinity -5.40419579
REMARK minimizedRMSD -1
REMARK  0 active torsions:
REMARK  status: ('A' for Active; 'I' for Inactive)
ROOT
ATOM      1  C1  DEN d   1       0.074   2.449   0.522  0.00  0.00     0.130 A 
ATOM      2  C2  DEN d   1      -1.363   2.337   0.282  0.00  0.00    -0.031 A 
ATOM      3  C3  DEN d   1      -1.685   0.908   0.100  0.00  0.00     0.027 A 
ATOM      4  C4  DEN d   1      -0.110  -1.133   0.171  0.00  0.00     0.027 A 
ATOM      5  C5  DEN d   1       1.197  -1.537   0.331  0.00  0.00    -0.003 A 
ATOM      6  C6  DEN d   1       2.218  -0.646   0.531  0.00  0.00     0.001 A 
ATOM      7  C7  DEN d   1       1.942   0.693   0.621  0.00  0.00     0.017 A 
ATOM      8  C8  DEN d   1       0.628   1.109   0.453  0.00  0.00    -0.094 A 
ATOM      9  C9  DEN d   1      -0.392   0.191   0.263  0.00  0.00    -0.072 A 
ENDROOT
TORSDOF 0
ENDMDL
