MODEL 1
REMARK minimizedAffinity -6.03656292
REMARK minimizedRMSD -1
REMARK  0 active torsions:
REMARK  status: ('A' for Active; 'I' for Inactive)
ROOT
ATOM      1  C1  DEN d   1       0.369  -1.146   0.382  0.00  0.00     0.130 A 
ATOM      2  C2  DEN d   1      -1.091  -1.175   0.418  0.00  0.00    -0.031 A 
ATOM      3  C3  DEN d   1      -1.574   0.220   0.457  0.00  0.00     0.027 A 
ATOM      4  C4  DEN d   1      -0.210   2.410   0.461  0.00  0.00     0.027 A 
ATOM      5  C5  DEN d   1       1.061   2.941   0.451  0.00  0.00    -0.003 A 
ATOM      6  C6  DEN d   1       2.181   2.153   0.451  0.00  0.00     0.001 A 
ATOM      7  C7  DEN d   1       2.052   0.790   0.416  0.00  0.00     0.017 A 
ATOM      8  C8  DEN d   1       0.774   0.247   0.434  0.00  0.00    -0.094 A 
ATOM      9  C9  DEN d   1      -0.346   1.060   0.422  0.00  0.00    -0.072 A 
ENDROOT
TORSDOF 0
ENDMDL
