MODEL 1
REMARK minimizedAffinity -5.11529827
REMARK minimizedRMSD -1
REMARK  0 active torsions:
REMARK  status: ('A' for Active; 'I' for Inactive)
ROOT
ATOM      1  C1  DEN d   1       0.909  -0.217  -0.517  0.00  0.00     0.130 A 
ATOM      2  C2  DEN d   1      -0.417  -0.632  -0.066  0.00  0.00    -0.031 A 
ATOM      3  C3  DEN d   1      -1.063   0.528   0.580  0.00  0.00     0.027 A 
ATOM      4  C4  DEN d   1      -0.147   2.915   0.919  0.00  0.00     0.027 A 
ATOM      5  C5  DEN d   1       0.937   3.741   0.715  0.00  0.00    -0.003 A 
ATOM      6  C6  DEN d   1       2.090   3.301   0.121  0.00  0.00     0.001 A 
ATOM      7  C7  DEN d   1       2.170   2.010  -0.330  0.00  0.00     0.017 A 
ATOM      8  C8  DEN d   1       1.085   1.169  -0.122  0.00  0.00    -0.094 A 
ATOM      9  C9  DEN d   1      -0.077   1.637   0.469  0.00  0.00    -0.072 A 
ENDROOT
TORSDOF 0
ENDMDL
