MODEL 1
REMARK minimizedAffinity -5.23548412
REMARK minimizedRMSD -1
REMARK  0 active torsions:
REMARK  status: ('A' for Active; 'I' for Inactive)
ROOT
ATOM      1  C1  DEN d   1       2.716   1.385   1.282  0.00  0.00     0.130 A 
ATOM      2  C2  DEN d   1       2.839   2.838   1.373  0.00  0.00    -0.031 A 
ATOM      3  C3  DEN d   1       1.527   3.429   1.043  0.00  0.00     0.027 A 
ATOM      4  C4  DEN d   1      -0.674   2.243   0.408  0.00  0.00     0.027 A 
ATOM      5  C5  DEN d   1      -1.267   1.020   0.189  0.00  0.00    -0.003 A 
ATOM      6  C6  DEN d   1      -0.571  -0.157   0.284  0.00  0.00     0.001 A 
ATOM      7  C7  DEN d   1       0.749  -0.137   0.652  0.00  0.00     0.017 A 
ATOM      8  C8  DEN d   1       1.355   1.094   0.868  0.00  0.00    -0.094 A 
ATOM      9  C9  DEN d   1       0.632   2.271   0.778  0.00  0.00    -0.072 A 
ENDROOT
TORSDOF 0
ENDMDL
