MODEL 1
REMARK minimizedAffinity -5.77306843
REMARK minimizedRMSD -1
REMARK  0 active torsions:
REMARK  status: ('A' for Active; 'I' for Inactive)
ROOT
ATOM      1  C1  DEN d   1      -1.148   0.427  -0.038  0.00  0.00     0.130 A 
ATOM      2  C2  DEN d   1      -0.423  -0.835  -0.156  0.00  0.00    -0.031 A 
ATOM      3  C3  DEN d   1       1.018  -0.527  -0.251  0.00  0.00     0.027 A 
ATOM      4  C4  DEN d   1       2.191   1.770  -0.220  0.00  0.00     0.027 A 
ATOM      5  C5  DEN d   1       1.993   3.131  -0.148  0.00  0.00    -0.003 A 
ATOM      6  C6  DEN d   1       0.742   3.683  -0.070  0.00  0.00     0.001 A 
ATOM      7  C7  DEN d   1      -0.358   2.868  -0.015  0.00  0.00     0.017 A 
ATOM      8  C8  DEN d   1      -0.166   1.495  -0.095  0.00  0.00    -0.094 A 
ATOM      9  C9  DEN d   1       1.107   0.956  -0.162  0.00  0.00    -0.072 A 
ENDROOT
TORSDOF 0
ENDMDL
