MODEL 1
REMARK minimizedAffinity -3.96444774
REMARK minimizedRMSD -1
REMARK  0 active torsions:
REMARK  status: ('A' for Active; 'I' for Inactive)
ROOT
ATOM      1  C1  DEN d   1       0.467  -0.266   0.051  0.00  0.00     0.130 A 
ATOM      2  C2  DEN d   1      -0.961  -0.129  -0.224  0.00  0.00    -0.031 A 
ATOM      3  C3  DEN d   1      -1.394   1.197   0.261  0.00  0.00     0.027 A 
ATOM      4  C4  DEN d   1       0.001   3.043   1.400  0.00  0.00     0.027 A 
ATOM      5  C5  DEN d   1       1.256   3.381   1.857  0.00  0.00    -0.003 A 
ATOM      6  C6  DEN d   1       2.319   2.522   1.775  0.00  0.00     0.001 A 
ATOM      7  C7  DEN d   1       2.158   1.297   1.183  0.00  0.00     0.017 A 
ATOM      8  C8  DEN d   1       0.894   0.946   0.727  0.00  0.00    -0.094 A 
ATOM      9  C9  DEN d   1      -0.165   1.834   0.807  0.00  0.00    -0.072 A 
ENDROOT
TORSDOF 0
ENDMDL
