MODEL 1
REMARK minimizedAffinity -5.11911249
REMARK minimizedRMSD -1
REMARK  0 active torsions:
REMARK  status: ('A' for Active; 'I' for Inactive)
ROOT
ATOM      1  C1  DEN d   1       1.882   1.789   0.040  0.00  0.00     0.130 A 
ATOM      2  C2  DEN d   1       1.021   2.966   0.113  0.00  0.00    -0.031 A 
ATOM      3  C3  DEN d   1      -0.377   2.503   0.221  0.00  0.00     0.027 A 
ATOM      4  C4  DEN d   1      -1.287   0.091   0.287  0.00  0.00     0.027 A 
ATOM      5  C5  DEN d   1      -0.940  -1.241   0.243  0.00  0.00    -0.003 A 
ATOM      6  C6  DEN d   1       0.358  -1.653   0.095  0.00  0.00     0.001 A 
ATOM      7  C7  DEN d   1       1.362  -0.723   0.031  0.00  0.00     0.017 A 
ATOM      8  C8  DEN d   1       1.019   0.622   0.068  0.00  0.00    -0.094 A 
ATOM      9  C9  DEN d   1      -0.298   1.018   0.230  0.00  0.00    -0.072 A 
ENDROOT
TORSDOF 0
ENDMDL
