MODEL 1
REMARK minimizedAffinity -7.31901264
REMARK minimizedRMSD -1
REMARK  0 active torsions:
REMARK  status: ('A' for Active; 'I' for Inactive)
ROOT
ATOM      1  C1  DEN d   1       2.880   0.548   0.391  0.00  0.00     0.130 A 
ATOM      2  C2  DEN d   1       1.895  -0.518   0.226  0.00  0.00    -0.031 A 
ATOM      3  C3  DEN d   1       0.587   0.108  -0.053  0.00  0.00     0.027 A 
ATOM      4  C4  DEN d   1      -0.006   2.610  -0.249  0.00  0.00     0.027 A 
ATOM      5  C5  DEN d   1       0.495   3.892  -0.175  0.00  0.00    -0.003 A 
ATOM      6  C6  DEN d   1       1.807   4.147   0.123  0.00  0.00     0.001 A 
ATOM      7  C7  DEN d   1       2.675   3.104   0.315  0.00  0.00     0.017 A 
ATOM      8  C8  DEN d   1       2.176   1.810   0.250  0.00  0.00    -0.094 A 
ATOM      9  C9  DEN d   1       0.849   1.572  -0.065  0.00  0.00    -0.072 A 
ENDROOT
TORSDOF 0
ENDMDL
