MODEL 1
REMARK minimizedAffinity -5.8418932
REMARK minimizedRMSD -1
REMARK  0 active torsions:
REMARK  status: ('A' for Active; 'I' for Inactive)
ROOT
ATOM      1  C   UNL d   1       1.298  -3.151  -2.081  0.00  0.00     0.077 C 
ATOM      2  C1  UNL d   1       1.103  -1.746  -1.595  0.00  0.00    -0.074 A 
ATOM      3  C2  UNL d   1       1.677  -0.665  -2.273  0.00  0.00    -0.005 A 
ATOM      4  C3  UNL d   1       1.479   0.637  -1.816  0.00  0.00     0.006 A 
ATOM      5  C4  UNL d   1       0.707   0.873  -0.677  0.00  0.00    -0.005 A 
ATOM      6  C5  UNL d   1       0.125  -0.195   0.013  0.00  0.00    -0.074 A 
ATOM      7  C6  UNL d   1      -0.716   0.041   1.233  0.00  0.00     0.077 C 
ATOM      8  C7  UNL d   1       0.322  -1.501  -0.457  0.00  0.00    -0.001 A 
ENDROOT
TORSDOF 0
ENDMDL
