MODEL 1
REMARK minimizedAffinity -2.17524457
REMARK minimizedRMSD -1
REMARK  0 active torsions:
REMARK  status: ('A' for Active; 'I' for Inactive)
ROOT
ATOM      1  C   UNL d   1       0.807  -0.865  -3.572  0.00  0.00     0.077 C 
ATOM      2  C1  UNL d   1       0.808  -0.231  -2.213  0.00  0.00    -0.074 A 
ATOM      3  C2  UNL d   1       1.908   0.506  -1.765  0.00  0.00    -0.005 A 
ATOM      4  C3  UNL d   1       1.891   1.098  -0.502  0.00  0.00     0.006 A 
ATOM      5  C4  UNL d   1       0.775   0.960   0.324  0.00  0.00    -0.005 A 
ATOM      6  C5  UNL d   1      -0.336   0.227  -0.108  0.00  0.00    -0.074 A 
ATOM      7  C6  UNL d   1      -1.548   0.077   0.763  0.00  0.00     0.077 C 
ATOM      8  C7  UNL d   1      -0.313  -0.359  -1.381  0.00  0.00    -0.001 A 
ENDROOT
TORSDOF 0
ENDMDL
