MODEL 1
REMARK minimizedAffinity 5.67281103
REMARK minimizedRMSD -1
REMARK  0 active torsions:
REMARK  status: ('A' for Active; 'I' for Inactive)
ROOT
ATOM      1  C   UNL d   1       1.174  -0.171  -3.583  0.00  0.00     0.077 C 
ATOM      2  C1  UNL d   1       1.798   0.446  -2.367  0.00  0.00    -0.074 A 
ATOM      3  C2  UNL d   1       3.010  -0.033  -1.859  0.00  0.00    -0.005 A 
ATOM      4  C3  UNL d   1       3.584   0.558  -0.734  0.00  0.00     0.006 A 
ATOM      5  C4  UNL d   1       2.953   1.632  -0.105  0.00  0.00    -0.005 A 
ATOM      6  C5  UNL d   1       1.741   2.125  -0.599  0.00  0.00    -0.074 A 
ATOM      7  C6  UNL d   1       1.055   3.286   0.059  0.00  0.00     0.077 C 
ATOM      8  C7  UNL d   1       1.174   1.531  -1.735  0.00  0.00    -0.001 A 
ENDROOT
TORSDOF 0
ENDMDL
