MODEL 1
REMARK minimizedAffinity -3.64725614
REMARK minimizedRMSD -1
REMARK  0 active torsions:
REMARK  status: ('A' for Active; 'I' for Inactive)
ROOT
ATOM      1  C   UNL d   1      -0.977  -0.860   0.818  0.00  0.00     0.077 C 
ATOM      2  C1  UNL d   1       0.022  -0.025   0.072  0.00  0.00    -0.074 A 
ATOM      3  C2  UNL d   1       0.610   1.095   0.668  0.00  0.00    -0.005 A 
ATOM      4  C3  UNL d   1       1.544   1.856  -0.035  0.00  0.00     0.006 A 
ATOM      5  C4  UNL d   1       1.899   1.505  -1.338  0.00  0.00    -0.005 A 
ATOM      6  C5  UNL d   1       1.322   0.387  -1.949  0.00  0.00    -0.074 A 
ATOM      7  C6  UNL d   1       1.700  -0.010  -3.345  0.00  0.00     0.077 C 
ATOM      8  C7  UNL d   1       0.389  -0.376  -1.234  0.00  0.00    -0.001 A 
ENDROOT
TORSDOF 0
ENDMDL
