MODEL 1
REMARK minimizedAffinity -4.30386162
REMARK minimizedRMSD -1
REMARK  0 active torsions:
REMARK  status: ('A' for Active; 'I' for Inactive)
ROOT
ATOM      1  C   UNL d   1       2.051   1.270  -2.218  0.00  0.00     0.077 C 
ATOM      2  C1  UNL d   1       1.054   0.471  -1.433  0.00  0.00    -0.074 A 
ATOM      3  C2  UNL d   1       0.887  -0.898  -1.665  0.00  0.00    -0.005 A 
ATOM      4  C3  UNL d   1      -0.037  -1.630  -0.920  0.00  0.00     0.006 A 
ATOM      5  C4  UNL d   1      -0.804  -1.002   0.062  0.00  0.00    -0.005 A 
ATOM      6  C5  UNL d   1      -0.651   0.367   0.308  0.00  0.00    -0.074 A 
ATOM      7  C6  UNL d   1      -1.460   1.056   1.366  0.00  0.00     0.077 C 
ATOM      8  C7  UNL d   1       0.285   1.094  -0.440  0.00  0.00    -0.001 A 
ENDROOT
TORSDOF 0
ENDMDL
