MODEL 1
REMARK minimizedAffinity -5.34686899
REMARK minimizedRMSD -1
REMARK  0 active torsions:
REMARK  status: ('A' for Active; 'I' for Inactive)
ROOT
ATOM      1  C   UNL d   1       0.931  -0.302  -3.194  0.00  0.00     0.077 C 
ATOM      2  C1  UNL d   1       0.636   0.123  -1.786  0.00  0.00    -0.074 A 
ATOM      3  C2  UNL d   1       1.257   1.246  -1.230  0.00  0.00    -0.005 A 
ATOM      4  C3  UNL d   1       0.965   1.635   0.077  0.00  0.00     0.006 A 
ATOM      5  C4  UNL d   1       0.051   0.908   0.840  0.00  0.00    -0.005 A 
ATOM      6  C5  UNL d   1      -0.581  -0.217   0.300  0.00  0.00    -0.074 A 
ATOM      7  C6  UNL d   1      -1.574  -1.004   1.102  0.00  0.00     0.077 C 
ATOM      8  C7  UNL d   1      -0.288  -0.598  -1.017  0.00  0.00    -0.001 A 
ENDROOT
TORSDOF 0
ENDMDL
