MODEL 1
REMARK minimizedAffinity -3.58406568
REMARK minimizedRMSD -1
REMARK  0 active torsions:
REMARK  status: ('A' for Active; 'I' for Inactive)
ROOT
ATOM      1  C   UNL d   1      -0.272  -2.582   1.031  0.00  0.00     0.077 C 
ATOM      2  C1  UNL d   1       0.144  -1.329   0.319  0.00  0.00    -0.074 A 
ATOM      3  C2  UNL d   1      -0.031  -0.074   0.911  0.00  0.00    -0.005 A 
ATOM      4  C3  UNL d   1       0.369   1.082   0.240  0.00  0.00     0.006 A 
ATOM      5  C4  UNL d   1       0.946   0.994  -1.027  0.00  0.00    -0.005 A 
ATOM      6  C5  UNL d   1       1.130  -0.252  -1.635  0.00  0.00    -0.074 A 
ATOM      7  C6  UNL d   1       1.758  -0.364  -2.992  0.00  0.00     0.077 C 
ATOM      8  C7  UNL d   1       0.732  -1.409  -0.951  0.00  0.00    -0.001 A 
ENDROOT
TORSDOF 0
ENDMDL
