MODEL 1
REMARK minimizedAffinity -5.67153931
REMARK minimizedRMSD -1
REMARK  0 active torsions:
REMARK  status: ('A' for Active; 'I' for Inactive)
ROOT
ATOM      1  C   UNL d   1       1.112   2.965  -0.843  0.00  0.00     0.077 C 
ATOM      2  C1  UNL d   1       0.886   1.490  -1.000  0.00  0.00    -0.074 A 
ATOM      3  C2  UNL d   1       1.259   0.827  -2.173  0.00  0.00    -0.005 A 
ATOM      4  C3  UNL d   1       1.052  -0.547  -2.301  0.00  0.00     0.006 A 
ATOM      5  C4  UNL d   1       0.470  -1.269  -1.258  0.00  0.00    -0.005 A 
ATOM      6  C5  UNL d   1       0.092  -0.623  -0.077  0.00  0.00    -0.074 A 
ATOM      7  C6  UNL d   1      -0.526  -1.386   1.057  0.00  0.00     0.077 C 
ATOM      8  C7  UNL d   1       0.310   0.756   0.046  0.00  0.00    -0.001 A 
ENDROOT
TORSDOF 0
ENDMDL
