MODEL 1
REMARK minimizedAffinity -3.26254249
REMARK minimizedRMSD -1
REMARK  0 active torsions:
REMARK  status: ('A' for Active; 'I' for Inactive)
ROOT
ATOM      1  C   UNL d   1      -1.229   0.645   2.171  0.00  0.00     0.077 C 
ATOM      2  C1  UNL d   1      -0.456  -0.007   1.063  0.00  0.00    -0.074 A 
ATOM      3  C2  UNL d   1      -0.343  -1.399   0.988  0.00  0.00    -0.005 A 
ATOM      4  C3  UNL d   1       0.371  -1.992  -0.053  0.00  0.00     0.006 A 
ATOM      5  C4  UNL d   1       0.978  -1.200  -1.028  0.00  0.00    -0.005 A 
ATOM      6  C5  UNL d   1       0.876   0.194  -0.970  0.00  0.00    -0.074 A 
ATOM      7  C6  UNL d   1       1.515   1.059  -2.015  0.00  0.00     0.077 C 
ATOM      8  C7  UNL d   1       0.151   0.781   0.076  0.00  0.00    -0.001 A 
ENDROOT
TORSDOF 0
ENDMDL
