MODEL 1
REMARK minimizedAffinity -4.03437901
REMARK minimizedRMSD -1
REMARK  0 active torsions:
REMARK  status: ('A' for Active; 'I' for Inactive)
ROOT
ATOM      1  C   UNL d   1       1.454  -0.395  -3.296  0.00  0.00     0.077 C 
ATOM      2  C1  UNL d   1       1.228   0.169  -1.925  0.00  0.00    -0.074 A 
ATOM      3  C2  UNL d   1       1.965   1.267  -1.469  0.00  0.00    -0.005 A 
ATOM      4  C3  UNL d   1       1.738   1.787  -0.195  0.00  0.00     0.006 A 
ATOM      5  C4  UNL d   1       0.772   1.216   0.635  0.00  0.00    -0.005 A 
ATOM      6  C5  UNL d   1       0.024   0.118   0.195  0.00  0.00    -0.074 A 
ATOM      7  C6  UNL d   1      -1.024  -0.501   1.071  0.00  0.00     0.077 C 
ATOM      8  C7  UNL d   1       0.254  -0.394  -1.089  0.00  0.00    -0.001 A 
ENDROOT
TORSDOF 0
ENDMDL
