MODEL 1
REMARK minimizedAffinity -3.88376832
REMARK minimizedRMSD -1
REMARK  0 active torsions:
REMARK  status: ('A' for Active; 'I' for Inactive)
ROOT
ATOM      1  C   UNL d   1       2.796   1.446  -1.712  0.00  0.00     0.077 C 
ATOM      2  C1  UNL d   1       1.525   0.654  -1.631  0.00  0.00    -0.074 A 
ATOM      3  C2  UNL d   1       0.788   0.358  -2.782  0.00  0.00    -0.005 A 
ATOM      4  C3  UNL d   1      -0.387  -0.387  -2.693  0.00  0.00     0.006 A 
ATOM      5  C4  UNL d   1      -0.837  -0.844  -1.453  0.00  0.00    -0.005 A 
ATOM      6  C5  UNL d   1      -0.113  -0.559  -0.291  0.00  0.00    -0.074 A 
ATOM      7  C6  UNL d   1      -0.577  -1.050   1.048  0.00  0.00     0.077 C 
ATOM      8  C7  UNL d   1       1.071   0.185  -0.390  0.00  0.00    -0.001 A 
ENDROOT
TORSDOF 0
ENDMDL
