MODEL 1
REMARK minimizedAffinity -1.78727877
REMARK minimizedRMSD -1
REMARK  0 active torsions:
REMARK  status: ('A' for Active; 'I' for Inactive)
ROOT
ATOM      1  C   UNL d   1      -3.870   1.821   1.610  0.00  0.00     0.077 C 
ATOM      2  C1  UNL d   1      -2.656   0.949   1.485  0.00  0.00    -0.074 A 
ATOM      3  C2  UNL d   1      -2.532  -0.223   2.238  0.00  0.00    -0.005 A 
ATOM      4  C3  UNL d   1      -1.402  -1.029   2.104  0.00  0.00     0.006 A 
ATOM      5  C4  UNL d   1      -0.386  -0.673   1.216  0.00  0.00    -0.005 A 
ATOM      6  C5  UNL d   1      -0.493   0.495   0.453  0.00  0.00    -0.074 A 
ATOM      7  C6  UNL d   1       0.585   0.887  -0.513  0.00  0.00     0.077 C 
ATOM      8  C7  UNL d   1      -1.635   1.296   0.589  0.00  0.00    -0.001 A 
ENDROOT
TORSDOF 0
ENDMDL
