MODEL 1
REMARK minimizedAffinity -4.24126625
REMARK minimizedRMSD -1
REMARK  0 active torsions:
REMARK  status: ('A' for Active; 'I' for Inactive)
ROOT
ATOM      1  C   UNL d   1       1.049   0.326  -2.106  0.00  0.00     0.077 C 
ATOM      2  C1  UNL d   1       0.516  -0.418  -0.917  0.00  0.00    -0.074 A 
ATOM      3  C2  UNL d   1       0.755  -1.787  -0.760  0.00  0.00    -0.005 A 
ATOM      4  C3  UNL d   1       0.261  -2.463   0.355  0.00  0.00     0.006 A 
ATOM      5  C4  UNL d   1      -0.475  -1.779   1.323  0.00  0.00    -0.005 A 
ATOM      6  C5  UNL d   1      -0.723  -0.409   1.184  0.00  0.00    -0.074 A 
ATOM      7  C6  UNL d   1      -1.503   0.343   2.220  0.00  0.00     0.077 C 
ATOM      8  C7  UNL d   1      -0.217   0.265   0.064  0.00  0.00    -0.001 A 
ENDROOT
TORSDOF 0
ENDMDL
