MODEL 1
REMARK minimizedAffinity -3.1507678
REMARK minimizedRMSD -1
REMARK  0 active torsions:
REMARK  status: ('A' for Active; 'I' for Inactive)
ROOT
ATOM      1  C   UNL d   1      -1.948   2.931   4.870  0.00  0.00     0.077 C 
ATOM      2  C1  UNL d   1      -2.373   2.058   3.727  0.00  0.00    -0.074 A 
ATOM      3  C2  UNL d   1      -3.600   2.259   3.087  0.00  0.00    -0.005 A 
ATOM      4  C3  UNL d   1      -3.978   1.445   2.019  0.00  0.00     0.006 A 
ATOM      5  C4  UNL d   1      -3.135   0.423   1.581  0.00  0.00    -0.005 A 
ATOM      6  C5  UNL d   1      -1.904   0.207   2.209  0.00  0.00    -0.074 A 
ATOM      7  C6  UNL d   1      -0.981  -0.880   1.745  0.00  0.00     0.077 C 
ATOM      8  C7  UNL d   1      -1.528   1.034   3.277  0.00  0.00    -0.001 A 
ENDROOT
TORSDOF 0
ENDMDL
