MODEL 1
REMARK minimizedAffinity 0.947030962
REMARK minimizedRMSD -1
REMARK  0 active torsions:
REMARK  status: ('A' for Active; 'I' for Inactive)
ROOT
ATOM      1  C   UNL d   1      -0.346  -2.842   0.472  0.00  0.00     0.077 C 
ATOM      2  C1  UNL d   1       0.011  -1.398   0.280  0.00  0.00    -0.074 A 
ATOM      3  C2  UNL d   1      -0.523  -0.408   1.111  0.00  0.00    -0.005 A 
ATOM      4  C3  UNL d   1      -0.174   0.930   0.926  0.00  0.00     0.006 A 
ATOM      5  C4  UNL d   1       0.711   1.291  -0.090  0.00  0.00    -0.005 A 
ATOM      6  C5  UNL d   1       1.255   0.315  -0.931  0.00  0.00    -0.074 A 
ATOM      7  C6  UNL d   1       2.215   0.685  -2.023  0.00  0.00     0.077 C 
ATOM      8  C7  UNL d   1       0.905  -1.028  -0.735  0.00  0.00    -0.001 A 
ENDROOT
TORSDOF 0
ENDMDL
