MODEL 1
REMARK minimizedAffinity -2.05742025
REMARK minimizedRMSD -1
REMARK  0 active torsions:
REMARK  status: ('A' for Active; 'I' for Inactive)
ROOT
ATOM      1  C   UNL d   1      -1.794   1.454  -5.986  0.00  0.00     0.077 C 
ATOM      2  C1  UNL d   1      -3.261   1.767  -5.994  0.00  0.00    -0.074 A 
ATOM      3  C2  UNL d   1      -4.215   0.745  -5.986  0.00  0.00    -0.005 A 
ATOM      4  C3  UNL d   1      -5.575   1.052  -5.984  0.00  0.00     0.006 A 
ATOM      5  C4  UNL d   1      -5.995   2.383  -5.989  0.00  0.00    -0.005 A 
ATOM      6  C5  UNL d   1      -5.056   3.419  -5.995  0.00  0.00    -0.074 A 
ATOM      7  C6  UNL d   1      -5.490   4.855  -5.991  0.00  0.00     0.077 C 
ATOM      8  C7  UNL d   1      -3.690   3.102  -5.991  0.00  0.00    -0.001 A 
ENDROOT
TORSDOF 0
ENDMDL
