MODEL 1
REMARK minimizedAffinity -4.76202536
REMARK minimizedRMSD -1
REMARK  0 active torsions:
REMARK  status: ('A' for Active; 'I' for Inactive)
ROOT
ATOM      1  C   UNL d   1       2.229   0.798  -3.055  0.00  0.00     0.077 C 
ATOM      2  C1  UNL d   1       1.514  -0.209  -2.205  0.00  0.00    -0.074 A 
ATOM      3  C2  UNL d   1       1.682  -1.581  -2.420  0.00  0.00    -0.005 A 
ATOM      4  C3  UNL d   1       1.018  -2.506  -1.615  0.00  0.00     0.006 A 
ATOM      5  C4  UNL d   1       0.180  -2.070  -0.588  0.00  0.00    -0.005 A 
ATOM      6  C5  UNL d   1      -0.000  -0.702  -0.357  0.00  0.00    -0.074 A 
ATOM      7  C6  UNL d   1      -0.889  -0.217   0.749  0.00  0.00     0.077 C 
ATOM      8  C7  UNL d   1       0.676   0.221  -1.166  0.00  0.00    -0.001 A 
ENDROOT
TORSDOF 0
ENDMDL
