MODEL 1
REMARK minimizedAffinity 0.957870901
REMARK minimizedRMSD -1
REMARK  0 active torsions:
REMARK  status: ('A' for Active; 'I' for Inactive)
ROOT
ATOM      1  C   UNL d   1      -0.517   0.618   2.830  0.00  0.00     0.078 C 
ATOM      2  C1  UNL d   1       0.252   0.133   1.638  0.00  0.00    -0.077 A 
ATOM      3  C2  UNL d   1       1.541  -0.396   1.778  0.00  0.00    -0.001 A 
ATOM      4  C3  UNL d   1       2.249  -0.834   0.658  0.00  0.00     0.003 A 
ATOM      5  C4  UNL d   1       1.678  -0.748  -0.610  0.00  0.00    -0.005 A 
ATOM      6  C5  UNL d   1       0.397  -0.221  -0.759  0.00  0.00     0.003 A 
ATOM      7  C6  UNL d   1      -0.313   0.218   0.359  0.00  0.00    -0.001 A 
ENDROOT
TORSDOF 0
ENDMDL
