MODEL 1
REMARK minimizedAffinity -4.3344059
REMARK minimizedRMSD -1
REMARK  0 active torsions:
REMARK  status: ('A' for Active; 'I' for Inactive)
ROOT
ATOM      1  C   UNL d   1      -3.301  -1.408   2.974  0.00  0.00     0.078 C 
ATOM      2  C1  UNL d   1      -2.292  -0.590   2.224  0.00  0.00    -0.077 A 
ATOM      3  C2  UNL d   1      -2.249  -0.605   0.824  0.00  0.00    -0.001 A 
ATOM      4  C3  UNL d   1      -1.298   0.153   0.139  0.00  0.00     0.003 A 
ATOM      5  C4  UNL d   1      -0.383   0.931   0.845  0.00  0.00    -0.005 A 
ATOM      6  C5  UNL d   1      -0.417   0.950   2.238  0.00  0.00     0.003 A 
ATOM      7  C6  UNL d   1      -1.367   0.193   2.925  0.00  0.00    -0.001 A 
ENDROOT
TORSDOF 0
ENDMDL
