MODEL 1
REMARK minimizedAffinity -4.96906805
REMARK minimizedRMSD -1
REMARK  0 active torsions:
REMARK  status: ('A' for Active; 'I' for Inactive)
ROOT
ATOM      1  C   UNL d   1       0.123  -0.342  -1.262  0.00  0.00     0.078 C 
ATOM      2  C1  UNL d   1      -0.332   0.135   0.085  0.00  0.00    -0.077 A 
ATOM      3  C2  UNL d   1       0.592   0.551   1.052  0.00  0.00    -0.001 A 
ATOM      4  C3  UNL d   1       0.155   0.983   2.305  0.00  0.00     0.003 A 
ATOM      5  C4  UNL d   1      -1.206   1.003   2.603  0.00  0.00    -0.005 A 
ATOM      6  C5  UNL d   1      -2.132   0.589   1.648  0.00  0.00     0.003 A 
ATOM      7  C6  UNL d   1      -1.697   0.157   0.394  0.00  0.00    -0.001 A 
ENDROOT
TORSDOF 0
ENDMDL
