MODEL 1
REMARK minimizedAffinity -3.97152901
REMARK minimizedRMSD -1
REMARK  0 active torsions:
REMARK  status: ('A' for Active; 'I' for Inactive)
ROOT
ATOM      1  C   UNL d   1       0.364   1.462   1.815  0.00  0.00     0.078 C 
ATOM      2  C1  UNL d   1       0.749   0.367   0.866  0.00  0.00    -0.077 A 
ATOM      3  C2  UNL d   1       1.908  -0.392   1.071  0.00  0.00    -0.001 A 
ATOM      4  C3  UNL d   1       2.259  -1.402   0.175  0.00  0.00     0.003 A 
ATOM      5  C4  UNL d   1       1.457  -1.663  -0.935  0.00  0.00    -0.005 A 
ATOM      6  C5  UNL d   1       0.303  -0.912  -1.149  0.00  0.00     0.003 A 
ATOM      7  C6  UNL d   1      -0.050   0.099  -0.253  0.00  0.00    -0.001 A 
ENDROOT
TORSDOF 0
ENDMDL
