MODEL 1
REMARK minimizedAffinity -2.46743941
REMARK minimizedRMSD -1
REMARK  0 active torsions:
REMARK  status: ('A' for Active; 'I' for Inactive)
ROOT
ATOM      1  C   UNL d   1      -0.427   1.391   2.574  0.00  0.00     0.078 C 
ATOM      2  C1  UNL d   1       0.015   0.624   1.363  0.00  0.00    -0.077 A 
ATOM      3  C2  UNL d   1       1.298   0.068   1.291  0.00  0.00    -0.001 A 
ATOM      4  C3  UNL d   1       1.700  -0.635   0.153  0.00  0.00     0.003 A 
ATOM      5  C4  UNL d   1       0.825  -0.786  -0.921  0.00  0.00    -0.005 A 
ATOM      6  C5  UNL d   1      -0.453  -0.234  -0.858  0.00  0.00     0.003 A 
ATOM      7  C6  UNL d   1      -0.856   0.469   0.278  0.00  0.00    -0.001 A 
ENDROOT
TORSDOF 0
ENDMDL
