MODEL 1
REMARK minimizedAffinity -2.94692278
REMARK minimizedRMSD -1
REMARK  0 active torsions:
REMARK  status: ('A' for Active; 'I' for Inactive)
ROOT
ATOM      1  C   UNL d   1      -0.695   1.379   2.462  0.00  0.00     0.078 C 
ATOM      2  C1  UNL d   1      -0.595   0.585   1.194  0.00  0.00    -0.077 A 
ATOM      3  C2  UNL d   1       0.646   0.327   0.600  0.00  0.00    -0.001 A 
ATOM      4  C3  UNL d   1       0.723  -0.406  -0.586  0.00  0.00     0.003 A 
ATOM      5  C4  UNL d   1      -0.438  -0.886  -1.188  0.00  0.00    -0.005 A 
ATOM      6  C5  UNL d   1      -1.678  -0.633  -0.606  0.00  0.00     0.003 A 
ATOM      7  C6  UNL d   1      -1.757   0.100   0.580  0.00  0.00    -0.001 A 
ENDROOT
TORSDOF 0
ENDMDL
