MODEL 1
REMARK minimizedAffinity -4.28850698
REMARK minimizedRMSD -1
REMARK  0 active torsions:
REMARK  status: ('A' for Active; 'I' for Inactive)
ROOT
ATOM      1  C   UNL d   1      -2.871  -0.567   3.242  0.00  0.00     0.078 C 
ATOM      2  C1  UNL d   1      -1.801   0.221   2.547  0.00  0.00    -0.077 A 
ATOM      3  C2  UNL d   1      -1.116   1.247   3.209  0.00  0.00    -0.001 A 
ATOM      4  C3  UNL d   1      -0.129   1.979   2.546  0.00  0.00     0.003 A 
ATOM      5  C4  UNL d   1       0.180   1.693   1.218  0.00  0.00    -0.005 A 
ATOM      6  C5  UNL d   1      -0.498   0.676   0.550  0.00  0.00     0.003 A 
ATOM      7  C6  UNL d   1      -1.485  -0.057   1.211  0.00  0.00    -0.001 A 
ENDROOT
TORSDOF 0
ENDMDL
