MODEL 1
REMARK minimizedAffinity -5.41137314
REMARK minimizedRMSD -1
REMARK  3 active torsions:
REMARK  status: ('A' for Active; 'I' for Inactive)
REMARK    1  A    between atoms: C3'_2  and  C2'_3 
REMARK    2  A    between atoms: C2'_3  and  C1'_4 
REMARK    3  A    between atoms: C1'_4  and  C1_5 
ROOT
ATOM      1  C1  N4B d   1       0.892   0.224  -1.769  0.00  0.00    -0.075 A 
ATOM      2  C2  N4B d   1       0.060  -0.517  -0.900  0.00  0.00     0.002 A 
ATOM      3  C3  N4B d   1      -0.122  -0.102   0.396  0.00  0.00     0.002 A 
ATOM      4  C4  N4B d   1       0.528   1.035   0.850  0.00  0.00    -0.004 A 
ATOM      5  C5  N4B d   1       1.309   1.760  -0.003  0.00  0.00     0.002 A 
ATOM      6  C6  N4B d   1       1.499   1.356  -1.309  0.00  0.00     0.002 A 
ENDROOT
BRANCH   1   7
ATOM      7  C1' N4B d   1       1.190  -0.238  -3.169  0.00  0.00     0.057 C 
BRANCH   7   8
ATOM      8  C2' N4B d   1       2.330  -1.252  -3.130  0.00  0.00     0.009 C 
BRANCH   8   9
ATOM      9  C3' N4B d   1       1.856  -2.622  -2.677  0.00  0.00     0.004 C 
ATOM     10  C4' N4B d   1       2.610  -3.132  -1.485  0.00  0.00     0.003 C 
ENDBRANCH   8   9
ENDBRANCH   7   8
ENDBRANCH   1   7
TORSDOF 3
ENDMDL
