MODEL 1
REMARK minimizedAffinity -5.911448
REMARK minimizedRMSD -1
REMARK  3 active torsions:
REMARK  status: ('A' for Active; 'I' for Inactive)
REMARK    1  A    between atoms: C3'_2  and  C2'_3 
REMARK    2  A    between atoms: C2'_3  and  C1'_4 
REMARK    3  A    between atoms: C1'_4  and  C1_5 
ROOT
ATOM      1  C1  N4B d   1       0.316  -0.335   0.054  0.00  0.00    -0.075 A 
ATOM      2  C2  N4B d   1       0.675   1.030   0.036  0.00  0.00     0.002 A 
ATOM      3  C3  N4B d   1       1.450   1.523  -0.985  0.00  0.00     0.002 A 
ATOM      4  C4  N4B d   1       1.893   0.668  -1.984  0.00  0.00    -0.004 A 
ATOM      5  C5  N4B d   1       1.521  -0.644  -1.972  0.00  0.00     0.002 A 
ATOM      6  C6  N4B d   1       0.738  -1.152  -0.954  0.00  0.00     0.002 A 
ENDROOT
BRANCH   1   7
ATOM      7  C1' N4B d   1      -0.458  -0.938   1.195  0.00  0.00     0.057 C 
BRANCH   7   8
ATOM      8  C2' N4B d   1      -1.471   0.082   1.706  0.00  0.00     0.009 C 
BRANCH   8   9
ATOM      9  C3' N4B d   1      -2.870  -0.195   1.183  0.00  0.00     0.004 C 
ATOM     10  C4' N4B d   1      -3.838   0.905   1.502  0.00  0.00     0.003 C 
ENDBRANCH   8   9
ENDBRANCH   7   8
ENDBRANCH   1   7
TORSDOF 3
ENDMDL
