MODEL 1
REMARK minimizedAffinity -6.44783878
REMARK minimizedRMSD -1
REMARK  3 active torsions:
REMARK  status: ('A' for Active; 'I' for Inactive)
REMARK    1  A    between atoms: C3'_2  and  C2'_3 
REMARK    2  A    between atoms: C2'_3  and  C1'_4 
REMARK    3  A    between atoms: C1'_4  and  C1_5 
ROOT
ATOM      1  C1  N4B d   1       0.273   0.150  -0.120  0.00  0.00    -0.075 A 
ATOM      2  C2  N4B d   1       0.812   1.365  -0.597  0.00  0.00     0.002 A 
ATOM      3  C3  N4B d   1       1.603   1.371  -1.720  0.00  0.00     0.002 A 
ATOM      4  C4  N4B d   1       1.884   0.178  -2.368  0.00  0.00    -0.004 A 
ATOM      5  C5  N4B d   1       1.339  -0.988  -1.915  0.00  0.00     0.002 A 
ATOM      6  C6  N4B d   1       0.539  -1.009  -0.790  0.00  0.00     0.002 A 
ENDROOT
BRANCH   1   7
ATOM      7  C1' N4B d   1      -0.526   0.081   1.153  0.00  0.00     0.057 C 
BRANCH   7   8
ATOM      8  C2' N4B d   1      -0.861  -1.376   1.455  0.00  0.00     0.009 C 
BRANCH   8   9
ATOM      9  C3' N4B d   1      -2.343  -1.574   1.728  0.00  0.00     0.004 C 
ATOM     10  C4' N4B d   1      -3.123  -0.295   1.654  0.00  0.00     0.003 C 
ENDBRANCH   8   9
ENDBRANCH   7   8
ENDBRANCH   1   7
TORSDOF 3
ENDMDL
