MODEL 1
REMARK minimizedAffinity -3.35900927
REMARK minimizedRMSD -1
REMARK  3 active torsions:
REMARK  status: ('A' for Active; 'I' for Inactive)
REMARK    1  A    between atoms: C3'_2  and  C2'_3 
REMARK    2  A    between atoms: C2'_3  and  C1'_4 
REMARK    3  A    between atoms: C1'_4  and  C1_5 
ROOT
ATOM      1  C1  N4B d   1       0.448   0.054  -0.369  0.00  0.00    -0.075 A 
ATOM      2  C2  N4B d   1       0.717  -1.331  -0.421  0.00  0.00     0.002 A 
ATOM      3  C3  N4B d   1       1.767  -1.799  -1.172  0.00  0.00     0.002 A 
ATOM      4  C4  N4B d   1       2.547  -0.906  -1.891  0.00  0.00    -0.004 A 
ATOM      5  C5  N4B d   1       2.296   0.433  -1.815  0.00  0.00     0.002 A 
ATOM      6  C6  N4B d   1       1.246   0.917  -1.061  0.00  0.00     0.002 A 
ENDROOT
BRANCH   1   7
ATOM      7  C1' N4B d   1      -0.741   0.605   0.370  0.00  0.00     0.057 C 
BRANCH   7   8
ATOM      8  C2' N4B d   1      -1.266  -0.454   1.335  0.00  0.00     0.009 C 
BRANCH   8   9
ATOM      9  C3' N4B d   1      -2.454   0.047   2.137  0.00  0.00     0.004 C 
ATOM     10  C4' N4B d   1      -3.727  -0.673   1.801  0.00  0.00     0.003 C 
ENDBRANCH   8   9
ENDBRANCH   7   8
ENDBRANCH   1   7
TORSDOF 3
ENDMDL
