MODEL 1
REMARK minimizedAffinity -5.51092243
REMARK minimizedRMSD -1
REMARK  3 active torsions:
REMARK  status: ('A' for Active; 'I' for Inactive)
REMARK    1  A    between atoms: C3'_2  and  C2'_3 
REMARK    2  A    between atoms: C2'_3  and  C1'_4 
REMARK    3  A    between atoms: C1'_4  and  C1_5 
ROOT
ATOM      1  C1  N4B d   1       0.405  -0.120  -0.398  0.00  0.00    -0.075 A 
ATOM      2  C2  N4B d   1       0.695   0.776  -1.450  0.00  0.00     0.002 A 
ATOM      3  C3  N4B d   1       1.163   0.299  -2.650  0.00  0.00     0.002 A 
ATOM      4  C4  N4B d   1       1.366  -1.064  -2.814  0.00  0.00    -0.004 A 
ATOM      5  C5  N4B d   1       1.059  -1.925  -1.801  0.00  0.00     0.002 A 
ATOM      6  C6  N4B d   1       0.584  -1.460  -0.592  0.00  0.00     0.002 A 
ENDROOT
BRANCH   1   7
ATOM      7  C1' N4B d   1      -0.028   0.362   0.959  0.00  0.00     0.057 C 
BRANCH   7   8
ATOM      8  C2' N4B d   1      -1.434  -0.154   1.249  0.00  0.00     0.009 C 
BRANCH   8   9
ATOM      9  C3' N4B d   1      -2.469   0.465   0.325  0.00  0.00     0.004 C 
ATOM     10  C4' N4B d   1      -3.837   0.516   0.937  0.00  0.00     0.003 C 
ENDBRANCH   8   9
ENDBRANCH   7   8
ENDBRANCH   1   7
TORSDOF 3
ENDMDL
