MODEL 1
REMARK minimizedAffinity -4.68783283
REMARK minimizedRMSD -1
REMARK  0 active torsions:
REMARK  status: ('A' for Active; 'I' for Inactive)
ROOT
ATOM      1  C   UNL d   1      -1.928   1.099   2.255  0.00  0.00     0.023 A 
ATOM      2  C1  UNL d   1      -1.367  -0.146   1.967  0.00  0.00     0.003 A 
ATOM      3  C2  UNL d   1      -0.192  -0.227   1.217  0.00  0.00     0.048 A 
ATOM      4  C3  UNL d   1       0.419   0.941   0.760  0.00  0.00     0.023 A 
ATOM      5  C4  UNL d   1      -0.138   2.188   1.047  0.00  0.00     0.048 A 
ATOM      6  C5  UNL d   1      -1.314   2.264   1.796  0.00  0.00     0.003 A 
ATOM      7  I   UNL d   1       2.169   0.823  -0.355  0.00  0.00    -0.146 I 
ENDROOT
TORSDOF 0
ENDMDL
