MODEL 1
REMARK minimizedAffinity -0.623040438
REMARK minimizedRMSD -1
REMARK  0 active torsions:
REMARK  status: ('A' for Active; 'I' for Inactive)
ROOT
ATOM      1  C   UNL d   1      -0.043   0.371   1.279  0.00  0.00     0.023 A 
ATOM      2  C1  UNL d   1      -1.124  -0.467   1.552  0.00  0.00     0.003 A 
ATOM      3  C2  UNL d   1      -2.230   0.023   2.250  0.00  0.00     0.048 A 
ATOM      4  C3  UNL d   1      -2.247   1.351   2.673  0.00  0.00     0.023 A 
ATOM      5  C4  UNL d   1      -1.168   2.194   2.402  0.00  0.00     0.048 A 
ATOM      6  C5  UNL d   1      -0.064   1.699   1.704  0.00  0.00     0.003 A 
ATOM      7  I   UNL d   1      -3.892   2.083   3.713  0.00  0.00    -0.146 I 
ENDROOT
TORSDOF 0
ENDMDL
