MODEL 1
REMARK minimizedAffinity 0.0855353549
REMARK minimizedRMSD -1
REMARK  0 active torsions:
REMARK  status: ('A' for Active; 'I' for Inactive)
ROOT
ATOM      1  C   UNL d   1       0.478   0.877   0.866  0.00  0.00     0.023 A 
ATOM      2  C1  UNL d   1      -0.117  -0.041   1.732  0.00  0.00     0.003 A 
ATOM      3  C2  UNL d   1      -1.183   0.352   2.544  0.00  0.00     0.048 A 
ATOM      4  C3  UNL d   1      -1.649   1.664   2.485  0.00  0.00     0.023 A 
ATOM      5  C4  UNL d   1      -1.058   2.586   1.619  0.00  0.00     0.048 A 
ATOM      6  C5  UNL d   1       0.008   2.189   0.810  0.00  0.00     0.003 A 
ATOM      7  I   UNL d   1      -3.236   2.252   3.692  0.00  0.00    -0.146 I 
ENDROOT
TORSDOF 0
ENDMDL
