MODEL 1
REMARK minimizedAffinity -4.78759289
REMARK minimizedRMSD -1
REMARK  0 active torsions:
REMARK  status: ('A' for Active; 'I' for Inactive)
ROOT
ATOM      1  C   UNL d   1      -3.422   0.914   3.271  0.00  0.00     0.023 A 
ATOM      2  C1  UNL d   1      -2.984  -0.258   2.654  0.00  0.00     0.003 A 
ATOM      3  C2  UNL d   1      -1.802  -0.258   1.911  0.00  0.00     0.048 A 
ATOM      4  C3  UNL d   1      -1.062   0.918   1.789  0.00  0.00     0.023 A 
ATOM      5  C4  UNL d   1      -1.496   2.093   2.405  0.00  0.00     0.048 A 
ATOM      6  C5  UNL d   1      -2.679   2.088   3.146  0.00  0.00     0.003 A 
ATOM      7  I   UNL d   1       0.698   0.920   0.684  0.00  0.00    -0.146 I 
ENDROOT
TORSDOF 0
ENDMDL
