MODEL 1
REMARK minimizedAffinity 3.33895493
REMARK minimizedRMSD -1
REMARK  0 active torsions:
REMARK  status: ('A' for Active; 'I' for Inactive)
ROOT
ATOM      1  C   UNL d   1      -0.002   2.582   1.432  0.00  0.00     0.023 A 
ATOM      2  C1  UNL d   1       0.690   1.468   0.957  0.00  0.00     0.003 A 
ATOM      3  C2  UNL d   1       0.255   0.182   1.285  0.00  0.00     0.048 A 
ATOM      4  C3  UNL d   1      -0.874   0.017   2.086  0.00  0.00     0.023 A 
ATOM      5  C4  UNL d   1      -1.570   1.129   2.563  0.00  0.00     0.048 A 
ATOM      6  C5  UNL d   1      -1.131   2.413   2.234  0.00  0.00     0.003 A 
ATOM      7  I   UNL d   1      -1.523  -1.896   2.575  0.00  0.00    -0.146 I 
ENDROOT
TORSDOF 0
ENDMDL
