MODEL 1
REMARK minimizedAffinity 0.888264477
REMARK minimizedRMSD -1
REMARK  0 active torsions:
REMARK  status: ('A' for Active; 'I' for Inactive)
ROOT
ATOM      1  C   UNL d   1       1.156  -0.056   0.768  0.00  0.00     0.023 A 
ATOM      2  C1  UNL d   1       0.409   1.017   0.281  0.00  0.00     0.003 A 
ATOM      3  C2  UNL d   1      -0.782   1.384   0.912  0.00  0.00     0.048 A 
ATOM      4  C3  UNL d   1      -1.219   0.674   2.030  0.00  0.00     0.023 A 
ATOM      5  C4  UNL d   1      -0.475  -0.399   2.521  0.00  0.00     0.048 A 
ATOM      6  C5  UNL d   1       0.715  -0.763   1.886  0.00  0.00     0.003 A 
ATOM      7  I   UNL d   1      -2.991   1.219   2.971  0.00  0.00    -0.146 I 
ENDROOT
TORSDOF 0
ENDMDL
