MODEL 1
REMARK minimizedAffinity 2.98231936
REMARK minimizedRMSD -1
REMARK  0 active torsions:
REMARK  status: ('A' for Active; 'I' for Inactive)
ROOT
ATOM      1  C   UNL d   1      -2.140   1.269   2.664  0.00  0.00     0.023 A 
ATOM      2  C1  UNL d   1      -1.880  -0.011   2.172  0.00  0.00     0.003 A 
ATOM      3  C2  UNL d   1      -0.671  -0.280   1.528  0.00  0.00     0.048 A 
ATOM      4  C3  UNL d   1       0.275   0.734   1.380  0.00  0.00     0.023 A 
ATOM      5  C4  UNL d   1       0.020   2.015   1.871  0.00  0.00     0.048 A 
ATOM      6  C5  UNL d   1      -1.191   2.280   2.514  0.00  0.00     0.003 A 
ATOM      7  I   UNL d   1       2.076   0.335   0.422  0.00  0.00    -0.146 I 
ENDROOT
TORSDOF 0
ENDMDL
