MODEL 1
REMARK minimizedAffinity 0.456999302
REMARK minimizedRMSD -1
REMARK  0 active torsions:
REMARK  status: ('A' for Active; 'I' for Inactive)
ROOT
ATOM      1  C   UNL d   1       3.473  -0.470  -1.151  0.00  0.00     0.023 A 
ATOM      2  C1  UNL d   1       3.049   0.835  -1.403  0.00  0.00     0.003 A 
ATOM      3  C2  UNL d   1       2.079   1.424  -0.591  0.00  0.00     0.048 A 
ATOM      4  C3  UNL d   1       1.537   0.704   0.473  0.00  0.00     0.023 A 
ATOM      5  C4  UNL d   1       1.959  -0.601   0.730  0.00  0.00     0.048 A 
ATOM      6  C5  UNL d   1       2.929  -1.187  -0.085  0.00  0.00     0.003 A 
ATOM      7  I   UNL d   1       0.092   1.580   1.684  0.00  0.00    -0.146 I 
ENDROOT
TORSDOF 0
ENDMDL
