MODEL 1
REMARK minimizedAffinity 0.5635553
REMARK minimizedRMSD -1
REMARK  0 active torsions:
REMARK  status: ('A' for Active; 'I' for Inactive)
ROOT
ATOM      1  C   UNL d   1      -5.350   3.098   5.852  0.00  0.00     0.023 A 
ATOM      2  C1  UNL d   1      -5.999   2.365   4.858  0.00  0.00     0.003 A 
ATOM      3  C2  UNL d   1      -5.264   1.536   4.009  0.00  0.00     0.048 A 
ATOM      4  C3  UNL d   1      -3.880   1.443   4.160  0.00  0.00     0.023 A 
ATOM      5  C4  UNL d   1      -3.227   2.174   5.153  0.00  0.00     0.048 A 
ATOM      6  C5  UNL d   1      -3.966   3.003   5.999  0.00  0.00     0.003 A 
ATOM      7  I   UNL d   1      -2.784   0.209   2.897  0.00  0.00    -0.146 I 
ENDROOT
TORSDOF 0
ENDMDL
