MODEL 1
REMARK minimizedAffinity -4.02240419
REMARK minimizedRMSD -1
REMARK  0 active torsions:
REMARK  status: ('A' for Active; 'I' for Inactive)
ROOT
ATOM      1  C   UNL d   1       0.654   1.976   0.781  0.00  0.00     0.023 A 
ATOM      2  C1  UNL d   1      -0.028   2.627   1.809  0.00  0.00     0.003 A 
ATOM      3  C2  UNL d   1      -1.099   1.998   2.447  0.00  0.00     0.048 A 
ATOM      4  C3  UNL d   1      -1.482   0.716   2.052  0.00  0.00     0.023 A 
ATOM      5  C4  UNL d   1      -0.801   0.060   1.025  0.00  0.00     0.048 A 
ATOM      6  C5  UNL d   1       0.268   0.694   0.390  0.00  0.00     0.003 A 
ATOM      7  I   UNL d   1      -3.075  -0.223   3.000  0.00  0.00    -0.146 I 
ENDROOT
TORSDOF 0
ENDMDL
