MODEL 1
REMARK minimizedAffinity -0.931112945
REMARK minimizedRMSD -1
REMARK  0 active torsions:
REMARK  status: ('A' for Active; 'I' for Inactive)
ROOT
ATOM      1  C   UNL d   1       0.620   0.752   1.239  0.00  0.00     0.023 A 
ATOM      2  C1  UNL d   1      -0.273  -0.289   1.495  0.00  0.00     0.003 A 
ATOM      3  C2  UNL d   1      -1.456  -0.040   2.194  0.00  0.00     0.048 A 
ATOM      4  C3  UNL d   1      -1.741   1.252   2.633  0.00  0.00     0.023 A 
ATOM      5  C4  UNL d   1      -0.851   2.297   2.378  0.00  0.00     0.048 A 
ATOM      6  C5  UNL d   1       0.331   2.043   1.680  0.00  0.00     0.003 A 
ATOM      7  I   UNL d   1      -3.501   1.626   3.672  0.00  0.00    -0.146 I 
ENDROOT
TORSDOF 0
ENDMDL
