MODEL 1
REMARK minimizedAffinity 0.606275976
REMARK minimizedRMSD -1
REMARK  0 active torsions:
REMARK  status: ('A' for Active; 'I' for Inactive)
ROOT
ATOM      1  C   UNL d   1       0.916   0.666   0.810  0.00  0.00     0.023 A 
ATOM      2  C1  UNL d   1      -0.263  -0.073   0.726  0.00  0.00     0.003 A 
ATOM      3  C2  UNL d   1      -1.415   0.370   1.379  0.00  0.00     0.048 A 
ATOM      4  C3  UNL d   1      -1.381   1.554   2.114  0.00  0.00     0.023 A 
ATOM      5  C4  UNL d   1      -0.203   2.298   2.200  0.00  0.00     0.048 A 
ATOM      6  C5  UNL d   1       0.946   1.851   1.547  0.00  0.00     0.003 A 
ATOM      7  I   UNL d   1      -3.094   2.216   3.086  0.00  0.00    -0.146 I 
ENDROOT
TORSDOF 0
ENDMDL
