MODEL 1
REMARK minimizedAffinity 3.19645953
REMARK minimizedRMSD -1
REMARK  0 active torsions:
REMARK  status: ('A' for Active; 'I' for Inactive)
ROOT
ATOM      1  C   UNL d   1      -1.910   1.163   2.147  0.00  0.00     0.023 A 
ATOM      2  C1  UNL d   1      -1.784   2.407   2.766  0.00  0.00     0.003 A 
ATOM      3  C2  UNL d   1      -2.680   2.783   3.769  0.00  0.00     0.048 A 
ATOM      4  C3  UNL d   1      -3.698   1.909   4.149  0.00  0.00     0.023 A 
ATOM      5  C4  UNL d   1      -3.827   0.663   3.533  0.00  0.00     0.048 A 
ATOM      6  C5  UNL d   1      -2.930   0.293   2.530  0.00  0.00     0.003 A 
ATOM      7  I   UNL d   1      -5.033   2.466   5.642  0.00  0.00    -0.146 I 
ENDROOT
TORSDOF 0
ENDMDL
