MODEL 1
REMARK minimizedAffinity -4.35527325
REMARK minimizedRMSD -1
REMARK  1 active torsions:
REMARK  status: ('A' for Active; 'I' for Inactive)
REMARK    1  A    between atoms: N_2  and  C1_3 
ROOT
ATOM      1  C1  UNL d   1       3.178  -0.919  -0.501  0.00  0.00     0.143 A 
ATOM      2  C2  UNL d   1       2.255  -1.917  -0.170  0.00  0.00    -0.057 A 
ATOM      3  C3  UNL d   1       0.992  -1.596   0.344  0.00  0.00     0.033 A 
ATOM      4  C4  UNL d   1       0.641  -0.268   0.563  0.00  0.00    -0.042 A 
ATOM      5  C5  UNL d   1       1.552   0.738   0.265  0.00  0.00     0.033 A 
ATOM      6  C6  UNL d   1       2.809   0.412  -0.254  0.00  0.00    -0.057 A 
ENDROOT
BRANCH   1   7
ATOM      7  N   UNL d   1       4.484  -1.178  -0.923  0.00  0.00    -0.732 N 
ATOM      8  C   UNL d   1       5.036  -0.496  -2.074  0.00  0.00     0.284 C 
ATOM      9  H3  UNL d   1       5.133  -1.270  -0.144  0.00  0.00     0.395 HD
ENDBRANCH   1   7
TORSDOF 1
ENDMDL
