MODEL 1
REMARK minimizedAffinity -3.12230659
REMARK minimizedRMSD -1
REMARK  1 active torsions:
REMARK  status: ('A' for Active; 'I' for Inactive)
REMARK    1  A    between atoms: N_2  and  C1_3 
ROOT
ATOM      1  C1  UNL d   1       2.895  -1.071  -0.531  0.00  0.00     0.143 A 
ATOM      2  C2  UNL d   1       1.869  -1.950  -0.167  0.00  0.00    -0.057 A 
ATOM      3  C3  UNL d   1       0.664  -1.479   0.367  0.00  0.00     0.033 A 
ATOM      4  C4  UNL d   1       0.474  -0.117   0.576  0.00  0.00    -0.042 A 
ATOM      5  C5  UNL d   1       1.489   0.774   0.245  0.00  0.00     0.033 A 
ATOM      6  C6  UNL d   1       2.688   0.297  -0.295  0.00  0.00    -0.057 A 
ENDROOT
BRANCH   1   7
ATOM      7  N   UNL d   1       4.153  -1.484  -0.975  0.00  0.00    -0.732 N 
ATOM      8  C   UNL d   1       5.018  -0.572  -1.692  0.00  0.00     0.284 C 
ATOM      9  H3  UNL d   1       4.635  -2.064  -0.292  0.00  0.00     0.395 HD
ENDBRANCH   1   7
TORSDOF 1
ENDMDL
