MODEL 1
REMARK minimizedAffinity -4.29063177
REMARK minimizedRMSD -1
REMARK  1 active torsions:
REMARK  status: ('A' for Active; 'I' for Inactive)
REMARK    1  A    between atoms: N_2  and  C1_3 
ROOT
ATOM      1  C1  UNL d   1       1.506  -1.190   0.319  0.00  0.00     0.143 A 
ATOM      2  C2  UNL d   1       2.276  -1.929  -0.586  0.00  0.00    -0.057 A 
ATOM      3  C3  UNL d   1       3.041  -1.297  -1.574  0.00  0.00     0.033 A 
ATOM      4  C4  UNL d   1       3.027   0.089  -1.693  0.00  0.00    -0.042 A 
ATOM      5  C5  UNL d   1       2.249   0.842  -0.821  0.00  0.00     0.033 A 
ATOM      6  C6  UNL d   1       1.492   0.206   0.168  0.00  0.00    -0.057 A 
ENDROOT
BRANCH   1   7
ATOM      7  N   UNL d   1       0.647  -1.763   1.259  0.00  0.00    -0.732 N 
ATOM      8  C   UNL d   1      -0.361  -0.963   1.922  0.00  0.00     0.284 C 
ATOM      9  H3  UNL d   1       0.326  -2.688   0.980  0.00  0.00     0.395 HD
ENDBRANCH   1   7
TORSDOF 1
ENDMDL
