MODEL 1
REMARK minimizedAffinity -1.44114828
REMARK minimizedRMSD -1
REMARK  1 active torsions:
REMARK  status: ('A' for Active; 'I' for Inactive)
REMARK    1  A    between atoms: N_2  and  C1_3 
ROOT
ATOM      1  C1  UNL d   1       3.427  -0.977  -1.134  0.00  0.00     0.143 A 
ATOM      2  C2  UNL d   1       2.581  -1.795  -0.377  0.00  0.00    -0.057 A 
ATOM      3  C3  UNL d   1       1.539  -1.253   0.385  0.00  0.00     0.033 A 
ATOM      4  C4  UNL d   1       1.342   0.123   0.426  0.00  0.00    -0.042 A 
ATOM      5  C5  UNL d   1       2.186   0.957  -0.299  0.00  0.00     0.033 A 
ATOM      6  C6  UNL d   1       3.221   0.409  -1.063  0.00  0.00    -0.057 A 
ENDROOT
BRANCH   1   7
ATOM      7  N   UNL d   1       4.541  -1.447  -1.834  0.00  0.00    -0.732 N 
ATOM      8  C   UNL d   1       5.387  -0.534  -2.573  0.00  0.00     0.284 C 
ATOM      9  H3  UNL d   1       5.052  -2.161  -1.318  0.00  0.00     0.395 HD
ENDBRANCH   1   7
TORSDOF 1
ENDMDL
