MODEL 1
REMARK minimizedAffinity -1.50435972
REMARK minimizedRMSD -1
REMARK  1 active torsions:
REMARK  status: ('A' for Active; 'I' for Inactive)
REMARK    1  A    between atoms: N_2  and  C1_3 
ROOT
ATOM      1  C1  UNL d   1       2.457   0.072  -0.721  0.00  0.00     0.143 A 
ATOM      2  C2  UNL d   1       2.928  -1.080  -0.082  0.00  0.00    -0.057 A 
ATOM      3  C3  UNL d   1       2.223  -1.662   0.978  0.00  0.00     0.033 A 
ATOM      4  C4  UNL d   1       1.043  -1.085   1.437  0.00  0.00    -0.042 A 
ATOM      5  C5  UNL d   1       0.569   0.073   0.832  0.00  0.00     0.033 A 
ATOM      6  C6  UNL d   1       1.275   0.647  -0.230  0.00  0.00    -0.057 A 
ENDROOT
BRANCH   1   7
ATOM      7  N   UNL d   1       3.163   0.754  -1.715  0.00  0.00    -0.732 N 
ATOM      8  C   UNL d   1       4.428   0.247  -2.201  0.00  0.00     0.284 C 
ATOM      9  H3  UNL d   1       2.554   1.118  -2.444  0.00  0.00     0.395 HD
ENDBRANCH   1   7
TORSDOF 1
ENDMDL
