MODEL 1
REMARK minimizedAffinity 0.350202858
REMARK minimizedRMSD -1
REMARK  1 active torsions:
REMARK  status: ('A' for Active; 'I' for Inactive)
REMARK    1  A    between atoms: N_2  and  C1_3 
ROOT
ATOM      1  C1  UNL d   1       3.366  -0.752  -1.610  0.00  0.00     0.143 A 
ATOM      2  C2  UNL d   1       2.604  -1.534  -0.736  0.00  0.00    -0.057 A 
ATOM      3  C3  UNL d   1       1.543  -0.983  -0.006  0.00  0.00     0.033 A 
ATOM      4  C4  UNL d   1       1.244   0.370  -0.116  0.00  0.00    -0.042 A 
ATOM      5  C5  UNL d   1       2.005   1.172  -0.960  0.00  0.00     0.033 A 
ATOM      6  C6  UNL d   1       3.058   0.615  -1.691  0.00  0.00    -0.057 A 
ENDROOT
BRANCH   1   7
ATOM      7  N   UNL d   1       4.495  -1.218  -2.288  0.00  0.00    -0.732 N 
ATOM      8  C   UNL d   1       5.230  -0.349  -3.181  0.00  0.00     0.284 C 
ATOM      9  H3  UNL d   1       5.084  -1.807  -1.703  0.00  0.00     0.395 HD
ENDBRANCH   1   7
TORSDOF 1
ENDMDL
