MODEL 1
REMARK minimizedAffinity -3.02740908
REMARK minimizedRMSD -1
REMARK  1 active torsions:
REMARK  status: ('A' for Active; 'I' for Inactive)
REMARK    1  A    between atoms: N_2  and  C1_3 
ROOT
ATOM      1  C1  UNL d   1       3.352  -0.842  -1.234  0.00  0.00     0.143 A 
ATOM      2  C2  UNL d   1       2.471  -1.814  -0.747  0.00  0.00    -0.057 A 
ATOM      3  C3  UNL d   1       1.287  -1.457  -0.091  0.00  0.00     0.033 A 
ATOM      4  C4  UNL d   1       0.976  -0.117   0.116  0.00  0.00    -0.042 A 
ATOM      5  C5  UNL d   1       1.850   0.866  -0.337  0.00  0.00     0.033 A 
ATOM      6  C6  UNL d   1       3.027   0.503  -0.997  0.00  0.00    -0.057 A 
ENDROOT
BRANCH   1   7
ATOM      7  N   UNL d   1       4.592  -1.134  -1.807  0.00  0.00    -0.732 N 
ATOM      8  C   UNL d   1       5.319  -0.123  -2.545  0.00  0.00     0.284 C 
ATOM      9  H3  UNL d   1       5.176  -1.706  -1.201  0.00  0.00     0.395 HD
ENDBRANCH   1   7
TORSDOF 1
ENDMDL
