MODEL 1
REMARK minimizedAffinity -0.513756812
REMARK minimizedRMSD -1
REMARK  1 active torsions:
REMARK  status: ('A' for Active; 'I' for Inactive)
REMARK    1  A    between atoms: N_2  and  C1_3 
ROOT
ATOM      1  C1  UNL d   1       3.641  -0.408  -1.935  0.00  0.00     0.143 A 
ATOM      2  C2  UNL d   1       3.375  -1.588  -1.233  0.00  0.00    -0.057 A 
ATOM      3  C3  UNL d   1       2.459  -1.613  -0.175  0.00  0.00     0.033 A 
ATOM      4  C4  UNL d   1       1.813  -0.447   0.221  0.00  0.00    -0.042 A 
ATOM      5  C5  UNL d   1       2.081   0.744  -0.445  0.00  0.00     0.033 A 
ATOM      6  C6  UNL d   1       2.991   0.761  -1.506  0.00  0.00    -0.057 A 
ENDROOT
BRANCH   1   7
ATOM      7  N   UNL d   1       4.614  -0.298  -2.932  0.00  0.00    -0.732 N 
ATOM      8  C   UNL d   1       5.995  -0.629  -2.654  0.00  0.00     0.284 C 
ATOM      9  H3  UNL d   1       4.281  -0.624  -3.836  0.00  0.00     0.395 HD
ENDBRANCH   1   7
TORSDOF 1
ENDMDL
