MODEL 1
REMARK minimizedAffinity -2.03296113
REMARK minimizedRMSD -1
REMARK  1 active torsions:
REMARK  status: ('A' for Active; 'I' for Inactive)
REMARK    1  A    between atoms: N_2  and  C1_3 
ROOT
ATOM      1  C1  UNL d   1       3.059  -0.749  -1.050  0.00  0.00     0.143 A 
ATOM      2  C2  UNL d   1       2.168   0.307  -1.271  0.00  0.00    -0.057 A 
ATOM      3  C3  UNL d   1       1.130   0.582  -0.372  0.00  0.00     0.033 A 
ATOM      4  C4  UNL d   1       0.947  -0.216   0.753  0.00  0.00    -0.042 A 
ATOM      5  C5  UNL d   1       1.805  -1.286   0.980  0.00  0.00     0.033 A 
ATOM      6  C6  UNL d   1       2.844  -1.551   0.082  0.00  0.00    -0.057 A 
ENDROOT
BRANCH   1   7
ATOM      7  N   UNL d   1       4.050  -1.133  -1.956  0.00  0.00    -0.732 N 
ATOM      8  C   UNL d   1       5.076  -0.198  -2.367  0.00  0.00     0.284 C 
ATOM      9  H3  UNL d   1       4.393  -2.075  -1.781  0.00  0.00     0.395 HD
ENDBRANCH   1   7
TORSDOF 1
ENDMDL
