MODEL 1
REMARK minimizedAffinity -3.41312289
REMARK minimizedRMSD -1
REMARK  1 active torsions:
REMARK  status: ('A' for Active; 'I' for Inactive)
REMARK    1  A    between atoms: N_2  and  C1_3 
ROOT
ATOM      1  C1  UNL d   1       3.428  -0.806  -1.013  0.00  0.00     0.143 A 
ATOM      2  C2  UNL d   1       2.703  -1.793  -0.337  0.00  0.00    -0.057 A 
ATOM      3  C3  UNL d   1       1.500  -1.493   0.314  0.00  0.00     0.033 A 
ATOM      4  C4  UNL d   1       1.014  -0.190   0.324  0.00  0.00    -0.042 A 
ATOM      5  C5  UNL d   1       1.730   0.812  -0.321  0.00  0.00     0.033 A 
ATOM      6  C6  UNL d   1       2.928   0.505  -0.974  0.00  0.00    -0.057 A 
ENDROOT
BRANCH   1   7
ATOM      7  N   UNL d   1       4.680  -1.022  -1.594  0.00  0.00    -0.732 N 
ATOM      8  C   UNL d   1       5.105  -0.242  -2.737  0.00  0.00     0.284 C 
ATOM      9  H3  UNL d   1       5.408  -1.176  -0.902  0.00  0.00     0.395 HD
ENDBRANCH   1   7
TORSDOF 1
ENDMDL
