MODEL 1
REMARK minimizedAffinity -5.0994463
REMARK minimizedRMSD -1
REMARK  1 active torsions:
REMARK  status: ('A' for Active; 'I' for Inactive)
REMARK    1  A    between atoms: N_2  and  C1_3 
ROOT
ATOM      1  C1  UNL d   1       3.148  -0.744  -1.144  0.00  0.00     0.143 A 
ATOM      2  C2  UNL d   1       2.513   0.489  -0.961  0.00  0.00    -0.057 A 
ATOM      3  C3  UNL d   1       1.437   0.627  -0.076  0.00  0.00     0.033 A 
ATOM      4  C4  UNL d   1       0.956  -0.476   0.622  0.00  0.00    -0.042 A 
ATOM      5  C5  UNL d   1       1.555  -1.717   0.437  0.00  0.00     0.033 A 
ATOM      6  C6  UNL d   1       2.634  -1.847  -0.443  0.00  0.00    -0.057 A 
ENDROOT
BRANCH   1   7
ATOM      7  N   UNL d   1       4.159  -0.967  -2.082  0.00  0.00    -0.732 N 
ATOM      8  C   UNL d   1       5.134   0.062  -2.373  0.00  0.00     0.284 C 
ATOM      9  H3  UNL d   1       4.550  -1.904  -2.017  0.00  0.00     0.395 HD
ENDBRANCH   1   7
TORSDOF 1
ENDMDL
