MODEL 1
REMARK minimizedAffinity -2.6003089
REMARK minimizedRMSD -1
REMARK  1 active torsions:
REMARK  status: ('A' for Active; 'I' for Inactive)
REMARK    1  A    between atoms: N_2  and  C1_3 
ROOT
ATOM      1  C1  UNL d   1       3.655  -0.610  -0.844  0.00  0.00     0.143 A 
ATOM      2  C2  UNL d   1       3.246   0.723  -0.727  0.00  0.00    -0.057 A 
ATOM      3  C3  UNL d   1       2.023   1.058  -0.132  0.00  0.00     0.033 A 
ATOM      4  C4  UNL d   1       1.172   0.061   0.332  0.00  0.00    -0.042 A 
ATOM      5  C5  UNL d   1       1.547  -1.272   0.204  0.00  0.00     0.033 A 
ATOM      6  C6  UNL d   1       2.772  -1.600  -0.385  0.00  0.00    -0.057 A 
ENDROOT
BRANCH   1   7
ATOM      7  N   UNL d   1       4.812  -1.012  -1.513  0.00  0.00    -0.732 N 
ATOM      8  C   UNL d   1       5.503  -0.104  -2.404  0.00  0.00     0.284 C 
ATOM      9  H3  UNL d   1       5.430  -1.566  -0.924  0.00  0.00     0.395 HD
ENDBRANCH   1   7
TORSDOF 1
ENDMDL
