MODEL 1
REMARK minimizedAffinity -2.8199501
REMARK minimizedRMSD -1
REMARK  1 active torsions:
REMARK  status: ('A' for Active; 'I' for Inactive)
REMARK    1  A    between atoms: N_2  and  C1_3 
ROOT
ATOM      1  C1  UNL d   1       2.525  -0.001  -1.206  0.00  0.00     0.143 A 
ATOM      2  C2  UNL d   1       2.686  -1.262  -0.622  0.00  0.00    -0.057 A 
ATOM      3  C3  UNL d   1       1.751  -1.765   0.291  0.00  0.00     0.033 A 
ATOM      4  C4  UNL d   1       0.649  -1.001   0.659  0.00  0.00    -0.042 A 
ATOM      5  C5  UNL d   1       0.481   0.266   0.110  0.00  0.00     0.033 A 
ATOM      6  C6  UNL d   1       1.415   0.760  -0.806  0.00  0.00    -0.057 A 
ENDROOT
BRANCH   1   7
ATOM      7  N   UNL d   1       3.470   0.594  -2.044  0.00  0.00    -0.732 N 
ATOM      8  C   UNL d   1       4.708  -0.086  -2.361  0.00  0.00     0.284 C 
ATOM      9  H3  UNL d   1       3.043   1.070  -2.836  0.00  0.00     0.395 HD
ENDBRANCH   1   7
TORSDOF 1
ENDMDL
