MODEL 1
REMARK minimizedAffinity -1.28073943
REMARK minimizedRMSD -1
REMARK  1 active torsions:
REMARK  status: ('A' for Active; 'I' for Inactive)
REMARK    1  A    between atoms: N_2  and  C1_3 
ROOT
ATOM      1  C1  UNL d   1       2.287   0.018  -1.153  0.00  0.00     0.143 A 
ATOM      2  C2  UNL d   1       2.672  -1.240  -0.678  0.00  0.00    -0.057 A 
ATOM      3  C3  UNL d   1       2.119  -1.775   0.491  0.00  0.00     0.033 A 
ATOM      4  C4  UNL d   1       1.188  -1.046   1.224  0.00  0.00    -0.042 A 
ATOM      5  C5  UNL d   1       0.808   0.217   0.784  0.00  0.00     0.033 A 
ATOM      6  C6  UNL d   1       1.359   0.743  -0.388  0.00  0.00    -0.057 A 
ENDROOT
BRANCH   1   7
ATOM      7  N   UNL d   1       2.872   0.647  -2.255  0.00  0.00    -0.732 N 
ATOM      8  C   UNL d   1       4.079   0.115  -2.852  0.00  0.00     0.284 C 
ATOM      9  H3  UNL d   1       2.183   0.970  -2.930  0.00  0.00     0.395 HD
ENDBRANCH   1   7
TORSDOF 1
ENDMDL
