MODEL 1
REMARK minimizedAffinity 3.05029368
REMARK minimizedRMSD -1
REMARK  0 active torsions:
REMARK  status: ('A' for Active; 'I' for Inactive)
ROOT
ATOM      1  C   UNL d   1       1.878  -1.125   2.771  0.00  0.00     0.078 C 
ATOM      2  C1  UNL d   1       2.276  -2.204   3.734  0.00  0.00    -0.077 A 
ATOM      3  C2  UNL d   1       2.295  -1.968   5.114  0.00  0.00    -0.001 A 
ATOM      4  C3  UNL d   1       2.677  -2.979   5.998  0.00  0.00     0.003 A 
ATOM      5  C4  UNL d   1       3.044  -4.232   5.511  0.00  0.00    -0.005 A 
ATOM      6  C5  UNL d   1       3.030  -4.475   4.139  0.00  0.00     0.003 A 
ATOM      7  C6  UNL d   1       2.648  -3.466   3.254  0.00  0.00    -0.001 A 
ENDROOT
TORSDOF 0
ENDMDL
