MODEL 1
REMARK minimizedAffinity 5.51782894
REMARK minimizedRMSD -1
REMARK  0 active torsions:
REMARK  status: ('A' for Active; 'I' for Inactive)
ROOT
ATOM      1  C   UNL d   1      -5.348   1.972  -0.581  0.00  0.00     0.078 C 
ATOM      2  C1  UNL d   1      -5.305   2.281  -2.048  0.00  0.00    -0.077 A 
ATOM      3  C2  UNL d   1      -4.567   1.483  -2.931  0.00  0.00    -0.001 A 
ATOM      4  C3  UNL d   1      -4.527   1.788  -4.292  0.00  0.00     0.003 A 
ATOM      5  C4  UNL d   1      -5.223   2.891  -4.783  0.00  0.00    -0.005 A 
ATOM      6  C5  UNL d   1      -5.958   3.692  -3.911  0.00  0.00     0.003 A 
ATOM      7  C6  UNL d   1      -5.999   3.389  -2.550  0.00  0.00    -0.001 A 
ENDROOT
TORSDOF 0
ENDMDL
