MODEL 1
REMARK minimizedAffinity 3.0642848
REMARK minimizedRMSD -1
REMARK  0 active torsions:
REMARK  status: ('A' for Active; 'I' for Inactive)
ROOT
ATOM      1  C   UNL d   1       2.290   2.189   4.097  0.00  0.00     0.078 C 
ATOM      2  C1  UNL d   1       2.155   0.796   3.559  0.00  0.00    -0.077 A 
ATOM      3  C2  UNL d   1       1.776  -0.265   4.392  0.00  0.00    -0.001 A 
ATOM      4  C3  UNL d   1       1.664  -1.558   3.880  0.00  0.00     0.003 A 
ATOM      5  C4  UNL d   1       1.929  -1.804   2.534  0.00  0.00    -0.005 A 
ATOM      6  C5  UNL d   1       2.308  -0.755   1.698  0.00  0.00     0.003 A 
ATOM      7  C6  UNL d   1       2.421   0.539   2.209  0.00  0.00    -0.001 A 
ENDROOT
TORSDOF 0
ENDMDL
