MODEL 1
REMARK minimizedAffinity 0.556120694
REMARK minimizedRMSD -1
REMARK  0 active torsions:
REMARK  status: ('A' for Active; 'I' for Inactive)
ROOT
ATOM      1  C   UNL d   1       1.891  -1.947   2.643  0.00  0.00     0.078 C 
ATOM      2  C1  UNL d   1       2.303  -0.527   2.389  0.00  0.00    -0.077 A 
ATOM      3  C2  UNL d   1       2.449   0.381   3.444  0.00  0.00    -0.001 A 
ATOM      4  C3  UNL d   1       2.823   1.702   3.192  0.00  0.00     0.003 A 
ATOM      5  C4  UNL d   1       3.053   2.127   1.885  0.00  0.00    -0.005 A 
ATOM      6  C5  UNL d   1       2.908   1.230   0.828  0.00  0.00     0.003 A 
ATOM      7  C6  UNL d   1       2.534  -0.091   1.078  0.00  0.00    -0.001 A 
ENDROOT
TORSDOF 0
ENDMDL
