MODEL 1
REMARK minimizedAffinity 0.775562048
REMARK minimizedRMSD -1
REMARK  0 active torsions:
REMARK  status: ('A' for Active; 'I' for Inactive)
ROOT
ATOM      1  C   UNL d   1       2.171   0.870   1.609  0.00  0.00     0.078 C 
ATOM      2  C1  UNL d   1       1.701   2.090   0.875  0.00  0.00    -0.077 A 
ATOM      3  C2  UNL d   1       0.368   2.513   0.957  0.00  0.00    -0.001 A 
ATOM      4  C3  UNL d   1      -0.058   3.645   0.261  0.00  0.00     0.003 A 
ATOM      5  C4  UNL d   1       0.842   4.363  -0.524  0.00  0.00    -0.005 A 
ATOM      6  C5  UNL d   1       2.169   3.949  -0.614  0.00  0.00     0.003 A 
ATOM      7  C6  UNL d   1       2.597   2.817   0.082  0.00  0.00    -0.001 A 
ENDROOT
TORSDOF 0
ENDMDL
