MODEL 1
REMARK minimizedAffinity 4.55330753
REMARK minimizedRMSD -1
REMARK  0 active torsions:
REMARK  status: ('A' for Active; 'I' for Inactive)
ROOT
ATOM      1  N1  IND d   1      -0.145  -1.323   3.505  0.00  0.00    -0.196 N 
ATOM      2  C2  IND d   1      -1.064  -1.444   4.510  0.00  0.00     0.054 A 
ATOM      3  C3  IND d   1      -2.253  -0.929   4.124  0.00  0.00    -0.031 A 
ATOM      4  C4  IND d   1      -2.943   0.070   1.854  0.00  0.00     0.051 A 
ATOM      5  C5  IND d   1      -2.436   0.427   0.635  0.00  0.00    -0.031 A 
ATOM      6  C6  IND d   1      -1.114   0.211   0.304  0.00  0.00     0.015 A 
ATOM      7  C7  IND d   1      -0.248  -0.382   1.178  0.00  0.00    -0.016 A 
ATOM      8  C8  IND d   1      -0.757  -0.739   2.419  0.00  0.00    -0.047 A 
ATOM      9  C9  IND d   1      -2.087  -0.484   2.776  0.00  0.00    -0.096 A 
ATOM     10  HN1 IND d   1       0.678  -1.571   3.546  0.00  0.00     0.298 HD
ENDROOT
TORSDOF 0
ENDMDL
