MODEL 1
REMARK minimizedAffinity 19.852066
REMARK minimizedRMSD -1
REMARK  0 active torsions:
REMARK  status: ('A' for Active; 'I' for Inactive)
ROOT
ATOM      1  N1  IND d   1       4.008   4.094   4.080  0.00  0.00    -0.196 N 
ATOM      2  C2  IND d   1       4.459   2.954   4.684  0.00  0.00     0.054 A 
ATOM      3  C3  IND d   1       4.292   1.891   3.867  0.00  0.00    -0.031 A 
ATOM      4  C4  IND d   1       3.394   1.807   1.455  0.00  0.00     0.051 A 
ATOM      5  C5  IND d   1       2.826   2.589   0.490  0.00  0.00    -0.031 A 
ATOM      6  C6  IND d   1       2.621   3.941   0.674  0.00  0.00     0.015 A 
ATOM      7  C7  IND d   1       2.989   4.566   1.832  0.00  0.00    -0.016 A 
ATOM      8  C8  IND d   1       3.560   3.773   2.817  0.00  0.00    -0.047 A 
ATOM      9  C9  IND d   1       3.731   2.393   2.652  0.00  0.00    -0.096 A 
ATOM     10  HN1 IND d   1       4.005   4.880   4.429  0.00  0.00     0.298 HD
ENDROOT
TORSDOF 0
ENDMDL
