MODEL 1
REMARK minimizedAffinity 3.47664618
REMARK minimizedRMSD -1
REMARK  0 active torsions:
REMARK  status: ('A' for Active; 'I' for Inactive)
ROOT
ATOM      1  N1  IND d   1       2.968   1.985  -0.995  0.00  0.00    -0.196 N 
ATOM      2  C2  IND d   1       3.420   2.247   0.268  0.00  0.00     0.054 A 
ATOM      3  C3  IND d   1       2.610   1.673   1.186  0.00  0.00    -0.031 A 
ATOM      4  C4  IND d   1       0.547   0.174   0.836  0.00  0.00     0.051 A 
ATOM      5  C5  IND d   1      -0.274  -0.319  -0.139  0.00  0.00    -0.031 A 
ATOM      6  C6  IND d   1      -0.050  -0.066  -1.477  0.00  0.00     0.015 A 
ATOM      7  C7  IND d   1       1.015   0.683  -1.892  0.00  0.00    -0.016 A 
ATOM      8  C8  IND d   1       1.846   1.191  -0.903  0.00  0.00    -0.047 A 
ATOM      9  C9  IND d   1       1.599   0.973   0.458  0.00  0.00    -0.096 A 
ATOM     10  HN1 IND d   1       3.324   2.269  -1.724  0.00  0.00     0.298 HD
ENDROOT
TORSDOF 0
ENDMDL
