MODEL 1
REMARK minimizedAffinity 9.4221983
REMARK minimizedRMSD -1
REMARK  0 active torsions:
REMARK  status: ('A' for Active; 'I' for Inactive)
ROOT
ATOM      1  N1  IND d   1       0.889  -0.348   0.341  0.00  0.00    -0.196 N 
ATOM      2  C2  IND d   1       0.205  -0.034  -0.801  0.00  0.00     0.054 A 
ATOM      3  C3  IND d   1      -1.082   0.263  -0.511  0.00  0.00    -0.031 A 
ATOM      4  C4  IND d   1      -2.255   0.398   1.777  0.00  0.00     0.051 A 
ATOM      5  C5  IND d   1      -2.050   0.162   3.107  0.00  0.00    -0.031 A 
ATOM      6  C6  IND d   1      -0.830  -0.261   3.594  0.00  0.00     0.015 A 
ATOM      7  C7  IND d   1       0.238  -0.455   2.766  0.00  0.00    -0.016 A 
ATOM      8  C8  IND d   1       0.033  -0.224   1.413  0.00  0.00    -0.047 A 
ATOM      9  C9  IND d   1      -1.215   0.165   0.908  0.00  0.00    -0.096 A 
ATOM     10  HN1 IND d   1       1.715  -0.583   0.382  0.00  0.00     0.298 HD
ENDROOT
TORSDOF 0
ENDMDL
