MODEL 1
REMARK minimizedAffinity 3.05238318
REMARK minimizedRMSD -1
REMARK  0 active torsions:
REMARK  status: ('A' for Active; 'I' for Inactive)
ROOT
ATOM      1  N1  IND d   1       1.150  -0.028   1.316  0.00  0.00    -0.196 N 
ATOM      2  C2  IND d   1       1.498  -0.284   0.019  0.00  0.00     0.054 A 
ATOM      3  C3  IND d   1       0.397  -0.309  -0.766  0.00  0.00    -0.031 A 
ATOM      4  C4  IND d   1      -2.061   0.145  -0.152  0.00  0.00     0.051 A 
ATOM      5  C5  IND d   1      -2.877   0.387   0.918  0.00  0.00    -0.031 A 
ATOM      6  C6  IND d   1      -2.382   0.507   2.200  0.00  0.00     0.015 A 
ATOM      7  C7  IND d   1      -1.045   0.401   2.460  0.00  0.00    -0.016 A 
ATOM      8  C8  IND d   1      -0.214   0.149   1.378  0.00  0.00    -0.047 A 
ATOM      9  C9  IND d   1      -0.715  -0.016   0.080  0.00  0.00    -0.096 A 
ATOM     10  HN1 IND d   1       1.693   0.014   1.982  0.00  0.00     0.298 HD
ENDROOT
TORSDOF 0
ENDMDL
