MODEL 1
REMARK minimizedAffinity 10.9079256
REMARK minimizedRMSD -1
REMARK  0 active torsions:
REMARK  status: ('A' for Active; 'I' for Inactive)
ROOT
ATOM      1  N1  IND d   1      -1.157   0.458   0.897  0.00  0.00    -0.196 N 
ATOM      2  C2  IND d   1      -2.267   0.926   0.250  0.00  0.00     0.054 A 
ATOM      3  C3  IND d   1      -3.388   0.540   0.900  0.00  0.00    -0.031 A 
ATOM      4  C4  IND d   1      -3.632  -0.778   3.098  0.00  0.00     0.051 A 
ATOM      5  C5  IND d   1      -2.902  -1.452   4.037  0.00  0.00    -0.031 A 
ATOM      6  C6  IND d   1      -1.525  -1.522   3.977  0.00  0.00     0.015 A 
ATOM      7  C7  IND d   1      -0.823  -0.909   2.978  0.00  0.00    -0.016 A 
ATOM      8  C8  IND d   1      -1.561  -0.231   2.019  0.00  0.00    -0.047 A 
ATOM      9  C9  IND d   1      -2.961  -0.192   2.051  0.00  0.00    -0.096 A 
ATOM     10  HN1 IND d   1      -0.343   0.574   0.644  0.00  0.00     0.298 HD
ENDROOT
TORSDOF 0
ENDMDL
