MODEL 1
REMARK minimizedAffinity 4.05518293
REMARK minimizedRMSD -1
REMARK  0 active torsions:
REMARK  status: ('A' for Active; 'I' for Inactive)
ROOT
ATOM      1  N1  IND d   1       0.264  -0.198   0.306  0.00  0.00    -0.196 N 
ATOM      2  C2  IND d   1      -0.835   0.151  -0.428  0.00  0.00     0.054 A 
ATOM      3  C3  IND d   1      -1.935   0.180   0.357  0.00  0.00    -0.031 A 
ATOM      4  C4  IND d   1      -2.146  -0.212   2.892  0.00  0.00     0.051 A 
ATOM      5  C5  IND d   1      -1.423  -0.594   3.987  0.00  0.00    -0.031 A 
ATOM      6  C6  IND d   1      -0.072  -0.867   3.910  0.00  0.00     0.015 A 
ATOM      7  C7  IND d   1       0.611  -0.756   2.731  0.00  0.00    -0.016 A 
ATOM      8  C8  IND d   1      -0.122  -0.375   1.616  0.00  0.00    -0.047 A 
ATOM      9  C9  IND d   1      -1.501  -0.138   1.680  0.00  0.00    -0.096 A 
ATOM     10  HN1 IND d   1       1.062  -0.292   0.000  0.00  0.00     0.298 HD
ENDROOT
TORSDOF 0
ENDMDL
