MODEL 1
REMARK minimizedAffinity 13.2019691
REMARK minimizedRMSD -1
REMARK  0 active torsions:
REMARK  status: ('A' for Active; 'I' for Inactive)
ROOT
ATOM      1  N1  IND d   1       4.451   3.854   3.979  0.00  0.00    -0.196 N 
ATOM      2  C2  IND d   1       4.876   2.630   4.415  0.00  0.00     0.054 A 
ATOM      3  C3  IND d   1       4.670   1.694   3.462  0.00  0.00    -0.031 A 
ATOM      4  C4  IND d   1       3.744   1.965   1.075  0.00  0.00     0.051 A 
ATOM      5  C5  IND d   1       3.188   2.887   0.234  0.00  0.00    -0.031 A 
ATOM      6  C6  IND d   1       3.023   4.206   0.604  0.00  0.00     0.015 A 
ATOM      7  C7  IND d   1       3.421   4.656   1.831  0.00  0.00    -0.016 A 
ATOM      8  C8  IND d   1       3.980   3.721   2.691  0.00  0.00    -0.047 A 
ATOM      9  C9  IND d   1       4.110   2.372   2.336  0.00  0.00    -0.096 A 
ATOM     10  HN1 IND d   1       4.474   4.584   4.432  0.00  0.00     0.298 HD
ENDROOT
TORSDOF 0
ENDMDL
