MODEL 1
REMARK minimizedAffinity -1.62901998
REMARK minimizedRMSD -1
REMARK  0 active torsions:
REMARK  status: ('A' for Active; 'I' for Inactive)
ROOT
ATOM      1  C   UNL d   1      -0.658  -2.597  -0.616  0.00  0.00     0.124 A 
ATOM      2  C1  UNL d   1      -0.183  -1.851  -1.685  0.00  0.00     0.062 A 
ATOM      3  C2  UNL d   1       0.198  -0.525  -1.500  0.00  0.00     0.162 A 
ATOM      4  C3  UNL d   1       0.106   0.064  -0.239  0.00  0.00    -0.034 A 
ATOM      5  C4  UNL d   1      -0.374  -0.692   0.832  0.00  0.00     0.162 A 
ATOM      6  C5  UNL d   1      -0.753  -2.017   0.642  0.00  0.00     0.062 A 
ATOM      7  F   UNL d   1      -1.213  -2.736   1.676  0.00  0.00    -0.097 F 
ATOM      8  F1  UNL d   1      -0.476  -0.157   2.058  0.00  0.00    -0.096 F 
ATOM      9  I   UNL d   1       0.674   2.046   0.043  0.00  0.00    -0.060 I 
ATOM     10  F2  UNL d   1       0.654   0.172  -2.551  0.00  0.00    -0.096 F 
ATOM     11  F3  UNL d   1      -0.091  -2.408  -2.901  0.00  0.00    -0.097 F 
ATOM     12  F4  UNL d   1      -1.025  -3.872  -0.797  0.00  0.00    -0.092 F 
ENDROOT
TORSDOF 0
ENDMDL
