MODEL 1
REMARK minimizedAffinity 0.707449436
REMARK minimizedRMSD -1
REMARK  0 active torsions:
REMARK  status: ('A' for Active; 'I' for Inactive)
ROOT
ATOM      1  C   UNL d   1      -0.286  -1.708  -0.071  0.00  0.00     0.124 A 
ATOM      2  C1  UNL d   1      -0.088  -1.350   1.255  0.00  0.00     0.062 A 
ATOM      3  C2  UNL d   1       0.535  -0.145   1.569  0.00  0.00     0.162 A 
ATOM      4  C3  UNL d   1       0.965   0.711   0.555  0.00  0.00    -0.034 A 
ATOM      5  C4  UNL d   1       0.763   0.343  -0.777  0.00  0.00     0.162 A 
ATOM      6  C5  UNL d   1       0.140  -0.862  -1.085  0.00  0.00     0.062 A 
ATOM      7  F   UNL d   1      -0.051  -1.207  -2.367  0.00  0.00    -0.097 F 
ATOM      8  F1  UNL d   1       1.163   1.142  -1.777  0.00  0.00    -0.096 F 
ATOM      9  I   UNL d   1       1.897   2.512   1.020  0.00  0.00    -0.060 I 
ATOM     10  F2  UNL d   1       0.714   0.176   2.859  0.00  0.00    -0.096 F 
ATOM     11  F3  UNL d   1      -0.497  -2.166   2.237  0.00  0.00    -0.097 F 
ATOM     12  F4  UNL d   1      -0.884  -2.868  -0.370  0.00  0.00    -0.092 F 
ENDROOT
TORSDOF 0
ENDMDL
