MODEL 1
REMARK minimizedAffinity -0.0722301006
REMARK minimizedRMSD -1
REMARK  0 active torsions:
REMARK  status: ('A' for Active; 'I' for Inactive)
ROOT
ATOM      1  C   UNL d   1      -0.469  -2.130  -0.523  0.00  0.00     0.124 A 
ATOM      2  C1  UNL d   1      -0.667  -1.695   0.780  0.00  0.00     0.062 A 
ATOM      3  C2  UNL d   1      -0.412  -0.370   1.121  0.00  0.00     0.162 A 
ATOM      4  C3  UNL d   1       0.043   0.530   0.158  0.00  0.00    -0.034 A 
ATOM      5  C4  UNL d   1       0.240   0.085  -1.151  0.00  0.00     0.162 A 
ATOM      6  C5  UNL d   1      -0.016  -1.240  -1.487  0.00  0.00     0.062 A 
ATOM      7  F   UNL d   1       0.175  -1.659  -2.747  0.00  0.00    -0.097 F 
ATOM      8  F1  UNL d   1       0.676   0.924  -2.102  0.00  0.00    -0.096 F 
ATOM      9  I   UNL d   1       0.425   2.512   0.664  0.00  0.00    -0.060 I 
ATOM     10  F2  UNL d   1      -0.611   0.023   2.388  0.00  0.00    -0.096 F 
ATOM     11  F3  UNL d   1      -1.103  -2.553   1.713  0.00  0.00    -0.097 F 
ATOM     12  F4  UNL d   1      -0.714  -3.406  -0.849  0.00  0.00    -0.092 F 
ENDROOT
TORSDOF 0
ENDMDL
