MODEL 1
REMARK minimizedAffinity -2.50491714
REMARK minimizedRMSD -1
REMARK  0 active torsions:
REMARK  status: ('A' for Active; 'I' for Inactive)
ROOT
ATOM      1  C   UNL d   1       0.928  -1.317  -0.123  0.00  0.00     0.124 A 
ATOM      2  C1  UNL d   1       0.593   0.025  -0.238  0.00  0.00     0.062 A 
ATOM      3  C2  UNL d   1      -0.567   0.511   0.359  0.00  0.00     0.162 A 
ATOM      4  C3  UNL d   1      -1.400  -0.345   1.078  0.00  0.00    -0.034 A 
ATOM      5  C4  UNL d   1      -1.057  -1.694   1.189  0.00  0.00     0.162 A 
ATOM      6  C5  UNL d   1       0.103  -2.175   0.590  0.00  0.00     0.062 A 
ATOM      7  F   UNL d   1       0.424  -3.472   0.703  0.00  0.00    -0.097 F 
ATOM      8  F1  UNL d   1      -1.836  -2.545   1.873  0.00  0.00    -0.096 F 
ATOM      9  I   UNL d   1      -3.135   0.378   1.973  0.00  0.00    -0.060 I 
ATOM     10  F2  UNL d   1      -0.865   1.813   0.232  0.00  0.00    -0.096 F 
ATOM     11  F3  UNL d   1       1.388   0.856  -0.927  0.00  0.00    -0.097 F 
ATOM     12  F4  UNL d   1       2.043  -1.782  -0.699  0.00  0.00    -0.092 F 
ENDROOT
TORSDOF 0
ENDMDL
