MODEL 1
REMARK minimizedAffinity 1.92868936
REMARK minimizedRMSD -1
REMARK  0 active torsions:
REMARK  status: ('A' for Active; 'I' for Inactive)
ROOT
ATOM      1  C   UNL d   1      -1.008  -1.556   0.834  0.00  0.00     0.124 A 
ATOM      2  C1  UNL d   1      -0.157  -1.763  -0.243  0.00  0.00     0.062 A 
ATOM      3  C2  UNL d   1       0.515  -0.690  -0.821  0.00  0.00     0.162 A 
ATOM      4  C3  UNL d   1       0.340   0.601  -0.322  0.00  0.00    -0.034 A 
ATOM      5  C4  UNL d   1      -0.518   0.802   0.760  0.00  0.00     0.162 A 
ATOM      6  C5  UNL d   1      -1.188  -0.274   1.335  0.00  0.00     0.062 A 
ATOM      7  F   UNL d   1      -2.009  -0.072   2.375  0.00  0.00    -0.097 F 
ATOM      8  F1  UNL d   1      -0.710   2.030   1.265  0.00  0.00    -0.096 F 
ATOM      9  I   UNL d   1       1.343   2.208  -1.184  0.00  0.00    -0.060 I 
ATOM     10  F2  UNL d   1       1.330  -0.920  -1.860  0.00  0.00    -0.096 F 
ATOM     11  F3  UNL d   1       0.017  -3.001  -0.728  0.00  0.00    -0.097 F 
ATOM     12  F4  UNL d   1      -1.654  -2.590   1.388  0.00  0.00    -0.092 F 
ENDROOT
TORSDOF 0
ENDMDL
