MODEL 1
REMARK minimizedAffinity -2.11414933
REMARK minimizedRMSD -1
REMARK  0 active torsions:
REMARK  status: ('A' for Active; 'I' for Inactive)
ROOT
ATOM      1  C   UNL d   1      -0.867  -2.775  -0.962  0.00  0.00     0.124 A 
ATOM      2  C1  UNL d   1      -0.425  -1.976  -2.007  0.00  0.00     0.062 A 
ATOM      3  C2  UNL d   1      -0.122  -0.636  -1.784  0.00  0.00     0.162 A 
ATOM      4  C3  UNL d   1      -0.259  -0.086  -0.509  0.00  0.00    -0.034 A 
ATOM      5  C4  UNL d   1      -0.705  -0.896   0.537  0.00  0.00     0.162 A 
ATOM      6  C5  UNL d   1      -1.007  -2.235   0.308  0.00  0.00     0.062 A 
ATOM      7  F   UNL d   1      -1.434  -3.005   1.319  0.00  0.00    -0.097 F 
ATOM      8  F1  UNL d   1      -0.848  -0.400   1.774  0.00  0.00    -0.096 F 
ATOM      9  I   UNL d   1       0.194   1.917  -0.172  0.00  0.00    -0.060 I 
ATOM     10  F2  UNL d   1       0.304   0.113  -2.813  0.00  0.00    -0.096 F 
ATOM     11  F3  UNL d   1      -0.290  -2.496  -3.236  0.00  0.00    -0.097 F 
ATOM     12  F4  UNL d   1      -1.160  -4.064  -1.180  0.00  0.00    -0.092 F 
ENDROOT
TORSDOF 0
ENDMDL
