MODEL 1
REMARK minimizedAffinity -0.825568616
REMARK minimizedRMSD -1
REMARK  0 active torsions:
REMARK  status: ('A' for Active; 'I' for Inactive)
ROOT
ATOM      1  C   UNL d   1      -0.729  -3.186  -0.215  0.00  0.00     0.124 A 
ATOM      2  C1  UNL d   1       0.098  -2.575  -1.147  0.00  0.00     0.062 A 
ATOM      3  C2  UNL d   1       0.395  -1.220  -1.037  0.00  0.00     0.162 A 
ATOM      4  C3  UNL d   1      -0.135  -0.466   0.011  0.00  0.00    -0.034 A 
ATOM      5  C4  UNL d   1      -0.967  -1.088   0.944  0.00  0.00     0.162 A 
ATOM      6  C5  UNL d   1      -1.260  -2.442   0.829  0.00  0.00     0.062 A 
ATOM      7  F   UNL d   1      -2.060  -3.032   1.730  0.00  0.00    -0.097 F 
ATOM      8  F1  UNL d   1      -1.493  -0.393   1.963  0.00  0.00    -0.096 F 
ATOM      9  I   UNL d   1       0.307   1.561   0.179  0.00  0.00    -0.060 I 
ATOM     10  F2  UNL d   1       1.197  -0.655  -1.951  0.00  0.00    -0.096 F 
ATOM     11  F3  UNL d   1       0.612  -3.291  -2.157  0.00  0.00    -0.097 F 
ATOM     12  F4  UNL d   1      -1.014  -4.490  -0.324  0.00  0.00    -0.092 F 
ENDROOT
TORSDOF 0
ENDMDL
