MODEL 1
REMARK minimizedAffinity -2.97641754
REMARK minimizedRMSD -1
REMARK  0 active torsions:
REMARK  status: ('A' for Active; 'I' for Inactive)
ROOT
ATOM      1  C   UNL d   1      -0.751   0.384   0.203  0.00  0.00     0.124 A 
ATOM      2  C1  UNL d   1      -0.024  -0.144  -0.854  0.00  0.00     0.062 A 
ATOM      3  C2  UNL d   1       0.143  -1.521  -0.971  0.00  0.00     0.162 A 
ATOM      4  C3  UNL d   1      -0.421  -2.380  -0.028  0.00  0.00    -0.034 A 
ATOM      5  C4  UNL d   1      -1.150  -1.842   1.034  0.00  0.00     0.162 A 
ATOM      6  C5  UNL d   1      -1.313  -0.465   1.146  0.00  0.00     0.062 A 
ATOM      7  F   UNL d   1      -2.017   0.044   2.168  0.00  0.00    -0.097 F 
ATOM      8  F1  UNL d   1      -1.705  -2.639   1.959  0.00  0.00    -0.096 F 
ATOM      9  I   UNL d   1      -0.174  -4.440  -0.198  0.00  0.00    -0.060 I 
ATOM     10  F2  UNL d   1       0.850  -2.004  -2.003  0.00  0.00    -0.096 F 
ATOM     11  F3  UNL d   1       0.522   0.674  -1.766  0.00  0.00    -0.097 F 
ATOM     12  F4  UNL d   1      -0.909   1.709   0.314  0.00  0.00    -0.092 F 
ENDROOT
TORSDOF 0
ENDMDL
