MODEL 1
REMARK minimizedAffinity 2.59174061
REMARK minimizedRMSD -1
REMARK  0 active torsions:
REMARK  status: ('A' for Active; 'I' for Inactive)
ROOT
ATOM      1  C   UNL d   1      -0.230  -1.129   1.391  0.00  0.00     0.124 A 
ATOM      2  C1  UNL d   1       0.354  -0.227   2.270  0.00  0.00     0.062 A 
ATOM      3  C2  UNL d   1       0.694   1.052   1.837  0.00  0.00     0.162 A 
ATOM      4  C3  UNL d   1       0.450   1.437   0.519  0.00  0.00    -0.034 A 
ATOM      5  C4  UNL d   1      -0.137   0.524  -0.359  0.00  0.00     0.162 A 
ATOM      6  C5  UNL d   1      -0.475  -0.753   0.078  0.00  0.00     0.062 A 
ATOM      7  F   UNL d   1      -1.038  -1.623  -0.773  0.00  0.00    -0.097 F 
ATOM      8  F1  UNL d   1      -0.386   0.862  -1.633  0.00  0.00    -0.096 F 
ATOM      9  I   UNL d   1       0.956   3.348  -0.131  0.00  0.00    -0.060 I 
ATOM     10  F2  UNL d   1       1.257   1.903   2.708  0.00  0.00    -0.096 F 
ATOM     11  F3  UNL d   1       0.593  -0.588   3.539  0.00  0.00    -0.097 F 
ATOM     12  F4  UNL d   1      -0.555  -2.359   1.809  0.00  0.00    -0.092 F 
ENDROOT
TORSDOF 0
ENDMDL
