MODEL 1
REMARK minimizedAffinity -3.66036797
REMARK minimizedRMSD -1
REMARK  0 active torsions:
REMARK  status: ('A' for Active; 'I' for Inactive)
ROOT
ATOM      1  C   UNL d   1      -0.095  -2.633  -0.896  0.00  0.00     0.124 A 
ATOM      2  C1  UNL d   1      -0.286  -1.607  -1.810  0.00  0.00     0.062 A 
ATOM      3  C2  UNL d   1      -0.078  -0.284  -1.431  0.00  0.00     0.162 A 
ATOM      4  C3  UNL d   1       0.324   0.020  -0.130  0.00  0.00    -0.034 A 
ATOM      5  C4  UNL d   1       0.513  -1.018   0.784  0.00  0.00     0.162 A 
ATOM      6  C5  UNL d   1       0.304  -2.338   0.400  0.00  0.00     0.062 A 
ATOM      7  F   UNL d   1       0.488  -3.329   1.285  0.00  0.00    -0.097 F 
ATOM      8  F1  UNL d   1       0.899  -0.761   2.043  0.00  0.00    -0.096 F 
ATOM      9  I   UNL d   1       0.636   1.997   0.441  0.00  0.00    -0.060 I 
ATOM     10  F2  UNL d   1      -0.270   0.688  -2.335  0.00  0.00    -0.096 F 
ATOM     11  F3  UNL d   1      -0.672  -1.889  -3.063  0.00  0.00    -0.097 F 
ATOM     12  F4  UNL d   1      -0.297  -3.905  -1.264  0.00  0.00    -0.092 F 
ENDROOT
TORSDOF 0
ENDMDL
