MODEL 1
REMARK minimizedAffinity 3.93965578
REMARK minimizedRMSD -1
REMARK  0 active torsions:
REMARK  status: ('A' for Active; 'I' for Inactive)
ROOT
ATOM      1  C   UNL d   1      -0.571  -2.708  -0.507  0.00  0.00     0.124 A 
ATOM      2  C1  UNL d   1      -0.564  -2.166   0.771  0.00  0.00     0.062 A 
ATOM      3  C2  UNL d   1      -0.312  -0.810   0.954  0.00  0.00     0.162 A 
ATOM      4  C3  UNL d   1      -0.067   0.015  -0.143  0.00  0.00    -0.034 A 
ATOM      5  C4  UNL d   1      -0.076  -0.537  -1.425  0.00  0.00     0.162 A 
ATOM      6  C5  UNL d   1      -0.327  -1.893  -1.604  0.00  0.00     0.062 A 
ATOM      7  F   UNL d   1      -0.334  -2.415  -2.839  0.00  0.00    -0.097 F 
ATOM      8  F1  UNL d   1       0.156   0.228  -2.502  0.00  0.00    -0.096 F 
ATOM      9  I   UNL d   1       0.309   2.044   0.127  0.00  0.00    -0.060 I 
ATOM     10  F2  UNL d   1      -0.311  -0.313   2.200  0.00  0.00    -0.096 F 
ATOM     11  F3  UNL d   1      -0.798  -2.952   1.832  0.00  0.00    -0.097 F 
ATOM     12  F4  UNL d   1      -0.812  -4.014  -0.681  0.00  0.00    -0.092 F 
ENDROOT
TORSDOF 0
ENDMDL
