MODEL 1
REMARK minimizedAffinity -4.17762184
REMARK minimizedRMSD -1
REMARK  0 active torsions:
REMARK  status: ('A' for Active; 'I' for Inactive)
ROOT
ATOM      1  C   UNL d   1      -0.694  -1.078   0.859  0.00  0.00     0.124 A 
ATOM      2  C1  UNL d   1      -1.147   0.201   1.148  0.00  0.00     0.062 A 
ATOM      3  C2  UNL d   1      -0.370   1.309   0.823  0.00  0.00     0.162 A 
ATOM      4  C3  UNL d   1       0.869   1.142   0.205  0.00  0.00    -0.034 A 
ATOM      5  C4  UNL d   1       1.319  -0.148  -0.081  0.00  0.00     0.162 A 
ATOM      6  C5  UNL d   1       0.538  -1.252   0.245  0.00  0.00     0.062 A 
ATOM      7  F   UNL d   1       0.978  -2.487  -0.035  0.00  0.00    -0.097 F 
ATOM      8  F1  UNL d   1       2.505  -0.344  -0.675  0.00  0.00    -0.096 F 
ATOM      9  I   UNL d   1       2.035   2.796  -0.282  0.00  0.00    -0.060 I 
ATOM     10  F2  UNL d   1      -0.833   2.534   1.114  0.00  0.00    -0.096 F 
ATOM     11  F3  UNL d   1      -2.337   0.371   1.742  0.00  0.00    -0.097 F 
ATOM     12  F4  UNL d   1      -1.444  -2.143   1.174  0.00  0.00    -0.092 F 
ENDROOT
TORSDOF 0
ENDMDL
