MODEL 1
REMARK minimizedAffinity -2.73022556
REMARK minimizedRMSD -1
REMARK  0 active torsions:
REMARK  status: ('A' for Active; 'I' for Inactive)
ROOT
ATOM      1  C   UNL d   1       1.469   1.926   0.032  0.00  0.00     0.124 A 
ATOM      2  C1  UNL d   1       0.913   1.227  -1.030  0.00  0.00     0.062 A 
ATOM      3  C2  UNL d   1       0.544  -0.106  -0.874  0.00  0.00     0.162 A 
ATOM      4  C3  UNL d   1       0.729  -0.749   0.350  0.00  0.00    -0.034 A 
ATOM      5  C4  UNL d   1       1.290  -0.039   1.413  0.00  0.00     0.162 A 
ATOM      6  C5  UNL d   1       1.658   1.293   1.252  0.00  0.00     0.062 A 
ATOM      7  F   UNL d   1       2.195   1.967   2.279  0.00  0.00    -0.097 F 
ATOM      8  F1  UNL d   1       1.482  -0.626   2.604  0.00  0.00    -0.096 F 
ATOM      9  I   UNL d   1       0.178  -2.742   0.588  0.00  0.00    -0.060 I 
ATOM     10  F2  UNL d   1       0.008  -0.757  -1.917  0.00  0.00    -0.096 F 
ATOM     11  F3  UNL d   1       0.731   1.836  -2.211  0.00  0.00    -0.097 F 
ATOM     12  F4  UNL d   1       1.825   3.208  -0.122  0.00  0.00    -0.092 F 
ENDROOT
TORSDOF 0
ENDMDL
