MODEL 1
REMARK minimizedAffinity -5.23417425
REMARK minimizedRMSD -1
REMARK  0 active torsions:
REMARK  status: ('A' for Active; 'I' for Inactive)
ROOT
ATOM      1  O1  BZF d   1      -0.120   2.774   1.741  0.00  0.00    -0.204 OA
ATOM      2  C2  BZF d   1       0.733   1.868   1.140  0.00  0.00     0.174 A 
ATOM      3  C3  BZF d   1       0.247   0.614   1.241  0.00  0.00    -0.012 A 
ATOM      4  C3A BZF d   1      -1.031   0.755   1.868  0.00  0.00    -0.107 A 
ATOM      5  C4  BZF d   1      -2.005  -0.133   2.226  0.00  0.00     0.055 A 
ATOM      6  C5  BZF d   1      -3.102   0.320   2.888  0.00  0.00    -0.016 A 
ATOM      7  C6  BZF d   1      -3.255   1.652   3.213  0.00  0.00     0.022 A 
ATOM      8  C7  BZF d   1      -2.318   2.572   2.875  0.00  0.00     0.029 A 
ATOM      9  C7A BZF d   1      -1.224   2.122   2.177  0.00  0.00     0.058 A 
ENDROOT
TORSDOF 0
ENDMDL
