MODEL 1
REMARK minimizedAffinity -5.16168833
REMARK minimizedRMSD -1
REMARK  0 active torsions:
REMARK  status: ('A' for Active; 'I' for Inactive)
ROOT
ATOM      1  O1  BZF d   1      -2.648   0.042   2.277  0.00  0.00    -0.204 OA
ATOM      2  C2  BZF d   1      -3.050   1.168   2.968  0.00  0.00     0.174 A 
ATOM      3  C3  BZF d   1      -2.113   2.135   2.895  0.00  0.00    -0.012 A 
ATOM      4  C3A BZF d   1      -1.099   1.612   2.032  0.00  0.00    -0.107 A 
ATOM      5  C4  BZF d   1       0.082   2.110   1.561  0.00  0.00     0.055 A 
ATOM      6  C5  BZF d   1       0.875   1.316   0.794  0.00  0.00    -0.016 A 
ATOM      7  C6  BZF d   1       0.521   0.019   0.484  0.00  0.00     0.022 A 
ATOM      8  C7  BZF d   1      -0.644  -0.517   0.924  0.00  0.00     0.029 A 
ATOM      9  C7A BZF d   1      -1.462   0.294   1.671  0.00  0.00     0.058 A 
ENDROOT
TORSDOF 0
ENDMDL
