MODEL 1
REMARK minimizedAffinity 1.1506393
REMARK minimizedRMSD -1
REMARK  0 active torsions:
REMARK  status: ('A' for Active; 'I' for Inactive)
ROOT
ATOM      1  O1  BZF d   1      -0.684   2.974   1.769  0.00  0.00    -0.204 OA
ATOM      2  C2  BZF d   1       0.455   2.337   1.315  0.00  0.00     0.174 A 
ATOM      3  C3  BZF d   1       0.306   0.997   1.367  0.00  0.00    -0.012 A 
ATOM      4  C3A BZF d   1      -1.041   0.784   1.798  0.00  0.00    -0.107 A 
ATOM      5  C4  BZF d   1      -1.788  -0.336   2.025  0.00  0.00     0.055 A 
ATOM      6  C5  BZF d   1      -3.050  -0.201   2.512  0.00  0.00    -0.016 A 
ATOM      7  C6  BZF d   1      -3.594   1.037   2.787  0.00  0.00     0.022 A 
ATOM      8  C7  BZF d   1      -2.893   2.177   2.573  0.00  0.00     0.029 A 
ATOM      9  C7A BZF d   1      -1.629   2.045   2.051  0.00  0.00     0.058 A 
ENDROOT
TORSDOF 0
ENDMDL
