MODEL 1
REMARK minimizedAffinity -3.97040606
REMARK minimizedRMSD -1
REMARK  0 active torsions:
REMARK  status: ('A' for Active; 'I' for Inactive)
ROOT
ATOM      1  O1  BZF d   1      -0.773   2.744   2.011  0.00  0.00    -0.204 OA
ATOM      2  C2  BZF d   1       0.276   2.213   1.285  0.00  0.00     0.174 A 
ATOM      3  C3  BZF d   1       0.170   0.872   1.201  0.00  0.00    -0.012 A 
ATOM      4  C3A BZF d   1      -1.069   0.551   1.842  0.00  0.00    -0.107 A 
ATOM      5  C4  BZF d   1      -1.735  -0.620   2.064  0.00  0.00     0.055 A 
ATOM      6  C5  BZF d   1      -2.887  -0.597   2.785  0.00  0.00    -0.016 A 
ATOM      7  C6  BZF d   1      -3.398   0.576   3.301  0.00  0.00     0.022 A 
ATOM      8  C7  BZF d   1      -2.775   1.763   3.102  0.00  0.00     0.029 A 
ATOM      9  C7A BZF d   1      -1.628   1.748   2.347  0.00  0.00     0.058 A 
ENDROOT
TORSDOF 0
ENDMDL
