MODEL 1
REMARK minimizedAffinity 0.818337083
REMARK minimizedRMSD -1
REMARK  0 active torsions:
REMARK  status: ('A' for Active; 'I' for Inactive)
ROOT
ATOM      1  O1  BZF d   1      -3.850   0.231   3.409  0.00  0.00    -0.204 OA
ATOM      2  C2  BZF d   1      -4.398   1.281   4.120  0.00  0.00     0.174 A 
ATOM      3  C3  BZF d   1      -3.686   2.410   3.930  0.00  0.00    -0.012 A 
ATOM      4  C3A BZF d   1      -2.681   2.065   2.972  0.00  0.00    -0.107 A 
ATOM      5  C4  BZF d   1      -1.678   2.769   2.369  0.00  0.00     0.055 A 
ATOM      6  C5  BZF d   1      -0.824   2.119   1.536  0.00  0.00    -0.016 A 
ATOM      7  C6  BZF d   1      -0.940   0.767   1.287  0.00  0.00     0.022 A 
ATOM      8  C7  BZF d   1      -1.922   0.028   1.858  0.00  0.00     0.029 A 
ATOM      9  C7A BZF d   1      -2.807   0.688   2.675  0.00  0.00     0.058 A 
ENDROOT
TORSDOF 0
ENDMDL
