MODEL 1
REMARK minimizedAffinity -3.6116662
REMARK minimizedRMSD -1
REMARK  0 active torsions:
REMARK  status: ('A' for Active; 'I' for Inactive)
ROOT
ATOM      1  O1  BZF d   1       0.241   1.522   1.153  0.00  0.00    -0.204 OA
ATOM      2  C2  BZF d   1       0.644   0.255   0.777  0.00  0.00     0.174 A 
ATOM      3  C3  BZF d   1      -0.189  -0.680   1.277  0.00  0.00    -0.012 A 
ATOM      4  C3A BZF d   1      -1.227   0.053   1.935  0.00  0.00    -0.107 A 
ATOM      5  C4  BZF d   1      -2.354  -0.317   2.611  0.00  0.00     0.055 A 
ATOM      6  C5  BZF d   1      -3.118   0.642   3.197  0.00  0.00    -0.016 A 
ATOM      7  C6  BZF d   1      -2.782   1.978   3.131  0.00  0.00     0.022 A 
ATOM      8  C7  BZF d   1      -1.676   2.394   2.467  0.00  0.00     0.029 A 
ATOM      9  C7A BZF d   1      -0.920   1.430   1.846  0.00  0.00     0.058 A 
ENDROOT
TORSDOF 0
ENDMDL
