MODEL 1
REMARK minimizedAffinity -1.90741253
REMARK minimizedRMSD -1
REMARK  0 active torsions:
REMARK  status: ('A' for Active; 'I' for Inactive)
ROOT
ATOM      1  O1  BZF d   1       0.323   3.015   0.913  0.00  0.00    -0.204 OA
ATOM      2  C2  BZF d   1      -0.741   3.684   1.486  0.00  0.00     0.174 A 
ATOM      3  C3  BZF d   1      -1.691   2.816   1.889  0.00  0.00    -0.012 A 
ATOM      4  C3A BZF d   1      -1.149   1.518   1.630  0.00  0.00    -0.107 A 
ATOM      5  C4  BZF d   1      -1.614   0.249   1.830  0.00  0.00     0.055 A 
ATOM      6  C5  BZF d   1      -0.870  -0.803   1.398  0.00  0.00    -0.016 A 
ATOM      7  C6  BZF d   1       0.340  -0.623   0.760  0.00  0.00     0.022 A 
ATOM      8  C7  BZF d   1       0.845   0.616   0.544  0.00  0.00     0.029 A 
ATOM      9  C7A BZF d   1       0.111   1.680   1.008  0.00  0.00     0.058 A 
ENDROOT
TORSDOF 0
ENDMDL
