MODEL 1
REMARK minimizedAffinity -3.53717685
REMARK minimizedRMSD -1
REMARK  0 active torsions:
REMARK  status: ('A' for Active; 'I' for Inactive)
ROOT
ATOM      1  O1  BZF d   1      -2.342   2.275   3.076  0.00  0.00    -0.204 OA
ATOM      2  C2  BZF d   1      -3.342   1.322   3.093  0.00  0.00     0.174 A 
ATOM      3  C3  BZF d   1      -2.997   0.253   2.347  0.00  0.00    -0.012 A 
ATOM      4  C3A BZF d   1      -1.662   0.516   1.907  0.00  0.00    -0.107 A 
ATOM      5  C4  BZF d   1      -0.770  -0.182   1.144  0.00  0.00     0.055 A 
ATOM      6  C5  BZF d   1       0.425   0.387   0.838  0.00  0.00    -0.016 A 
ATOM      7  C6  BZF d   1       0.759   1.653   1.272  0.00  0.00     0.022 A 
ATOM      8  C7  BZF d   1      -0.091   2.383   2.035  0.00  0.00     0.029 A 
ATOM      9  C7A BZF d   1      -1.286   1.797   2.374  0.00  0.00     0.058 A 
ENDROOT
TORSDOF 0
ENDMDL
