MODEL 1
REMARK minimizedAffinity 2.60315204
REMARK minimizedRMSD -1
REMARK  0 active torsions:
REMARK  status: ('A' for Active; 'I' for Inactive)
ROOT
ATOM      1  O1  BZF d   1      -2.012   2.691   2.527  0.00  0.00    -0.204 OA
ATOM      2  C2  BZF d   1      -2.833   2.005   3.400  0.00  0.00     0.174 A 
ATOM      3  C3  BZF d   1      -2.558   0.685   3.379  0.00  0.00    -0.012 A 
ATOM      4  C3A BZF d   1      -1.435   0.549   2.503  0.00  0.00    -0.107 A 
ATOM      5  C4  BZF d   1      -0.691  -0.519   2.089  0.00  0.00     0.055 A 
ATOM      6  C5  BZF d   1       0.292  -0.323   1.171  0.00  0.00    -0.016 A 
ATOM      7  C6  BZF d   1       0.554   0.924   0.643  0.00  0.00     0.022 A 
ATOM      8  C7  BZF d   1      -0.154   2.014   1.027  0.00  0.00     0.029 A 
ATOM      9  C7A BZF d   1      -1.126   1.825   1.979  0.00  0.00     0.058 A 
ENDROOT
TORSDOF 0
ENDMDL
