MODEL 1
REMARK minimizedAffinity 0.614949465
REMARK minimizedRMSD -1
REMARK  0 active torsions:
REMARK  status: ('A' for Active; 'I' for Inactive)
ROOT
ATOM      1  O1  BZF d   1      -2.649   3.021   2.881  0.00  0.00    -0.204 OA
ATOM      2  C2  BZF d   1      -3.671   2.324   3.496  0.00  0.00     0.174 A 
ATOM      3  C3  BZF d   1      -3.537   0.998   3.291  0.00  0.00    -0.012 A 
ATOM      4  C3A BZF d   1      -2.307   0.850   2.576  0.00  0.00    -0.107 A 
ATOM      5  C4  BZF d   1      -1.623  -0.231   2.098  0.00  0.00     0.055 A 
ATOM      6  C5  BZF d   1      -0.487  -0.029   1.379  0.00  0.00    -0.016 A 
ATOM      7  C6  BZF d   1      -0.011   1.239   1.114  0.00  0.00     0.022 A 
ATOM      8  C7  BZF d   1      -0.653   2.341   1.572  0.00  0.00     0.029 A 
ATOM      9  C7A BZF d   1      -1.782   2.139   2.327  0.00  0.00     0.058 A 
ENDROOT
TORSDOF 0
ENDMDL
