MODEL 1
REMARK minimizedAffinity -5.57028103
REMARK minimizedRMSD -1
REMARK  0 active torsions:
REMARK  status: ('A' for Active; 'I' for Inactive)
ROOT
ATOM      1  O1  BZF d   1      -2.547   1.175   2.811  0.00  0.00    -0.204 OA
ATOM      2  C2  BZF d   1      -2.556   2.555   2.876  0.00  0.00     0.174 A 
ATOM      3  C3  BZF d   1      -1.520   3.073   2.185  0.00  0.00    -0.012 A 
ATOM      4  C3A BZF d   1      -0.874   1.951   1.578  0.00  0.00    -0.107 A 
ATOM      5  C4  BZF d   1       0.209   1.823   0.755  0.00  0.00     0.055 A 
ATOM      6  C5  BZF d   1       0.625   0.579   0.400  0.00  0.00    -0.016 A 
ATOM      7  C6  BZF d   1      -0.014  -0.557   0.852  0.00  0.00     0.022 A 
ATOM      8  C7  BZF d   1      -1.095  -0.480   1.665  0.00  0.00     0.029 A 
ATOM      9  C7A BZF d   1      -1.538   0.776   2.000  0.00  0.00     0.058 A 
ENDROOT
TORSDOF 0
ENDMDL
