MODEL 1
REMARK minimizedAffinity -1.08910799
REMARK minimizedRMSD -1
REMARK  0 active torsions:
REMARK  status: ('A' for Active; 'I' for Inactive)
ROOT
ATOM      1  O1  BZF d   1      -1.508   2.913   2.509  0.00  0.00    -0.204 OA
ATOM      2  C2  BZF d   1      -2.632   2.287   3.013  0.00  0.00     0.174 A 
ATOM      3  C3  BZF d   1      -2.599   0.964   2.753  0.00  0.00    -0.012 A 
ATOM      4  C3A BZF d   1      -1.335   0.735   2.123  0.00  0.00    -0.107 A 
ATOM      5  C4  BZF d   1      -0.714  -0.383   1.644  0.00  0.00     0.055 A 
ATOM      6  C5  BZF d   1       0.487  -0.255   1.021  0.00  0.00    -0.016 A 
ATOM      7  C6  BZF d   1       1.092   0.973   0.855  0.00  0.00     0.022 A 
ATOM      8  C7  BZF d   1       0.516   2.110   1.318  0.00  0.00     0.029 A 
ATOM      9  C7A BZF d   1      -0.682   1.980   1.977  0.00  0.00     0.058 A 
ENDROOT
TORSDOF 0
ENDMDL
