MODEL 1
REMARK minimizedAffinity -2.81605458
REMARK minimizedRMSD -1
REMARK  0 active torsions:
REMARK  status: ('A' for Active; 'I' for Inactive)
ROOT
ATOM      1  O1  BZF d   1      -1.545   2.977   2.170  0.00  0.00    -0.204 OA
ATOM      2  C2  BZF d   1      -2.628   2.596   2.939  0.00  0.00     0.174 A 
ATOM      3  C3  BZF d   1      -2.798   1.259   2.895  0.00  0.00    -0.012 A 
ATOM      4  C3A BZF d   1      -1.702   0.765   2.120  0.00  0.00    -0.107 A 
ATOM      5  C4  BZF d   1      -1.312  -0.487   1.737  0.00  0.00     0.055 A 
ATOM      6  C5  BZF d   1      -0.234  -0.621   0.920  0.00  0.00    -0.016 A 
ATOM      7  C6  BZF d   1       0.472   0.473   0.463  0.00  0.00     0.022 A 
ATOM      8  C7  BZF d   1       0.126   1.733   0.821  0.00  0.00     0.029 A 
ATOM      9  C7A BZF d   1      -0.943   1.870   1.673  0.00  0.00     0.058 A 
ENDROOT
TORSDOF 0
ENDMDL
