MODEL 1
REMARK minimizedAffinity 6.48146343
REMARK minimizedRMSD -1
REMARK  0 active torsions:
REMARK  status: ('A' for Active; 'I' for Inactive)
ROOT
ATOM      1  O1  BZF d   1      -1.872   3.696   1.685  0.00  0.00    -0.204 OA
ATOM      2  C2  BZF d   1      -2.771   3.230   2.625  0.00  0.00     0.174 A 
ATOM      3  C3  BZF d   1      -2.495   1.953   2.959  0.00  0.00    -0.012 A 
ATOM      4  C3A BZF d   1      -1.295   1.629   2.249  0.00  0.00    -0.107 A 
ATOM      5  C4  BZF d   1      -0.516   0.510   2.184  0.00  0.00     0.055 A 
ATOM      6  C5  BZF d   1       0.548   0.494   1.339  0.00  0.00    -0.016 A 
ATOM      7  C6  BZF d   1       0.858   1.577   0.542  0.00  0.00     0.022 A 
ATOM      8  C7  BZF d   1       0.117   2.711   0.575  0.00  0.00     0.029 A 
ATOM      9  C7A BZF d   1      -0.939   2.742   1.453  0.00  0.00     0.058 A 
ENDROOT
TORSDOF 0
ENDMDL
