MODEL 1
REMARK minimizedAffinity 0.351930261
REMARK minimizedRMSD -1
REMARK  0 active torsions:
REMARK  status: ('A' for Active; 'I' for Inactive)
ROOT
ATOM      1  O1  BZF d   1      -0.576   2.513   3.069  0.00  0.00    -0.204 OA
ATOM      2  C2  BZF d   1      -1.828   2.200   3.562  0.00  0.00     0.174 A 
ATOM      3  C3  BZF d   1      -2.292   1.064   3.004  0.00  0.00    -0.012 A 
ATOM      4  C3A BZF d   1      -1.227   0.590   2.173  0.00  0.00    -0.107 A 
ATOM      5  C4  BZF d   1      -1.077  -0.505   1.371  0.00  0.00     0.055 A 
ATOM      6  C5  BZF d   1       0.059  -0.636   0.638  0.00  0.00    -0.016 A 
ATOM      7  C6  BZF d   1       1.063   0.310   0.678  0.00  0.00     0.022 A 
ATOM      8  C7  BZF d   1       0.962   1.410   1.463  0.00  0.00     0.029 A 
ATOM      9  C7A BZF d   1      -0.171   1.529   2.230  0.00  0.00     0.058 A 
ENDROOT
TORSDOF 0
ENDMDL
