MODEL 1
REMARK minimizedAffinity 2.75534296
REMARK minimizedRMSD -1
REMARK  0 active torsions:
REMARK  status: ('A' for Active; 'I' for Inactive)
ROOT
ATOM      1  O1  BZF d   1       2.264   1.393  -0.707  0.00  0.00    -0.204 OA
ATOM      2  C2  BZF d   1       3.062   0.269  -0.799  0.00  0.00     0.174 A 
ATOM      3  C3  BZF d   1       2.755  -0.617   0.170  0.00  0.00    -0.012 A 
ATOM      4  C3A BZF d   1       1.636  -0.050   0.858  0.00  0.00    -0.107 A 
ATOM      5  C4  BZF d   1       0.870  -0.467   1.909  0.00  0.00     0.055 A 
ATOM      6  C5  BZF d   1      -0.101   0.356   2.386  0.00  0.00    -0.016 A 
ATOM      7  C6  BZF d   1      -0.329   1.602   1.840  0.00  0.00     0.022 A 
ATOM      8  C7  BZF d   1       0.402   2.057   0.794  0.00  0.00     0.029 A 
ATOM      9  C7A BZF d   1       1.362   1.215   0.288  0.00  0.00     0.058 A 
ENDROOT
TORSDOF 0
ENDMDL
