MODEL 1
REMARK minimizedAffinity -3.9472096
REMARK minimizedRMSD -1
REMARK  0 active torsions:
REMARK  status: ('A' for Active; 'I' for Inactive)
ROOT
ATOM      1  O1  BZF d   1      -3.080   0.241   2.731  0.00  0.00    -0.204 OA
ATOM      2  C2  BZF d   1      -3.593   1.364   3.350  0.00  0.00     0.174 A 
ATOM      3  C3  BZF d   1      -2.754   2.411   3.214  0.00  0.00    -0.012 A 
ATOM      4  C3A BZF d   1      -1.690   1.936   2.384  0.00  0.00    -0.107 A 
ATOM      5  C4  BZF d   1      -0.561   2.516   1.880  0.00  0.00     0.055 A 
ATOM      6  C5  BZF d   1       0.308   1.756   1.164  0.00  0.00    -0.016 A 
ATOM      7  C6  BZF d   1       0.083   0.414   0.937  0.00  0.00     0.022 A 
ATOM      8  C7  BZF d   1      -1.025  -0.204   1.412  0.00  0.00     0.029 A 
ATOM      9  C7A BZF d   1      -1.922   0.568   2.108  0.00  0.00     0.058 A 
ENDROOT
TORSDOF 0
ENDMDL
