MODEL 1
REMARK minimizedAffinity -1.68732154
REMARK minimizedRMSD -1
REMARK  0 active torsions:
REMARK  status: ('A' for Active; 'I' for Inactive)
ROOT
ATOM      1  C   UNL d   1      -3.726   5.999  -2.208  0.00  0.00     0.172 C 
ATOM      2  N   UNL d   1      -2.610   5.999  -3.125  0.00  0.00    -0.070 N 
ATOM      3  C1  UNL d   1      -2.701   5.998  -4.492  0.00  0.00    -0.004 A 
ATOM      4  C2  UNL d   1      -1.419   5.999  -4.999  0.00  0.00    -0.047 A 
ATOM      5  C3  UNL d   1      -0.528   6.000  -3.900  0.00  0.00    -0.047 A 
ATOM      6  C4  UNL d   1      -1.292   6.000  -2.752  0.00  0.00    -0.004 A 
ENDROOT
TORSDOF 0
ENDMDL
