MODEL 1
REMARK minimizedAffinity -2.72225261
REMARK minimizedRMSD -1
REMARK  0 active torsions:
REMARK  status: ('A' for Active; 'I' for Inactive)
ROOT
ATOM      1  C   UNL d   1      -2.064  -1.980  -4.586  0.00  0.00     0.172 C 
ATOM      2  N   UNL d   1      -0.624  -1.864  -4.587  0.00  0.00    -0.070 N 
ATOM      3  C1  UNL d   1       0.237  -2.611  -3.828  0.00  0.00    -0.004 A 
ATOM      4  C2  UNL d   1       1.520  -2.199  -4.117  0.00  0.00    -0.047 A 
ATOM      5  C3  UNL d   1       1.426  -1.168  -5.082  0.00  0.00    -0.047 A 
ATOM      6  C4  UNL d   1       0.088  -0.981  -5.354  0.00  0.00    -0.004 A 
ENDROOT
TORSDOF 0
ENDMDL
