MODEL 1
REMARK minimizedAffinity -2.11072254
REMARK minimizedRMSD -1
REMARK  0 active torsions:
REMARK  status: ('A' for Active; 'I' for Inactive)
ROOT
ATOM      1  C   UNL d   1       5.631   5.883  -4.080  0.00  0.00     0.172 C 
ATOM      2  N   UNL d   1       4.338   5.588  -4.651  0.00  0.00    -0.070 N 
ATOM      3  C1  UNL d   1       4.115   4.863  -5.792  0.00  0.00    -0.004 A 
ATOM      4  C2  UNL d   1       2.754   4.808  -5.998  0.00  0.00    -0.047 A 
ATOM      5  C3  UNL d   1       2.137   5.525  -4.945  0.00  0.00    -0.047 A 
ATOM      6  C4  UNL d   1       3.141   5.997  -4.126  0.00  0.00    -0.004 A 
ENDROOT
TORSDOF 0
ENDMDL
