MODEL 1
REMARK minimizedAffinity 0.537914515
REMARK minimizedRMSD -1
REMARK  0 active torsions:
REMARK  status: ('A' for Active; 'I' for Inactive)
ROOT
ATOM      1  C   UNL d   1      -2.316  -0.939  -4.528  0.00  0.00     0.172 C 
ATOM      2  N   UNL d   1      -0.888  -1.140  -4.589  0.00  0.00    -0.070 N 
ATOM      3  C1  UNL d   1      -0.054  -0.653  -5.560  0.00  0.00    -0.004 A 
ATOM      4  C2  UNL d   1       1.227  -1.062  -5.261  0.00  0.00    -0.047 A 
ATOM      5  C3  UNL d   1       1.161  -1.822  -4.069  0.00  0.00    -0.047 A 
ATOM      6  C4  UNL d   1      -0.160  -1.855  -3.675  0.00  0.00    -0.004 A 
ENDROOT
TORSDOF 0
ENDMDL
