MODEL 1
REMARK minimizedAffinity 1.68870962
REMARK minimizedRMSD -1
REMARK  0 active torsions:
REMARK  status: ('A' for Active; 'I' for Inactive)
ROOT
ATOM      1  C   UNL d   1       0.613   5.991  -4.880  0.00  0.00     0.172 C 
ATOM      2  N   UNL d   1      -0.757   5.994  -4.423  0.00  0.00    -0.070 N 
ATOM      3  C1  UNL d   1      -1.866   5.999  -5.226  0.00  0.00    -0.004 A 
ATOM      4  C2  UNL d   1      -2.977   6.000  -4.410  0.00  0.00    -0.047 A 
ATOM      5  C3  UNL d   1      -2.520   5.996  -3.071  0.00  0.00    -0.047 A 
ATOM      6  C4  UNL d   1      -1.141   5.992  -3.108  0.00  0.00    -0.004 A 
ENDROOT
TORSDOF 0
ENDMDL
