MODEL 1
REMARK minimizedAffinity -1.70558751
REMARK minimizedRMSD -1
REMARK  0 active torsions:
REMARK  status: ('A' for Active; 'I' for Inactive)
ROOT
ATOM      1  C   UNL d   1       3.814   5.809  -4.515  0.00  0.00     0.172 C 
ATOM      2  N   UNL d   1       2.392   5.866  -4.759  0.00  0.00    -0.070 N 
ATOM      3  C1  UNL d   1       1.421   5.972  -3.799  0.00  0.00    -0.004 A 
ATOM      4  C2  UNL d   1       0.199   5.995  -4.436  0.00  0.00    -0.047 A 
ATOM      5  C3  UNL d   1       0.444   5.899  -5.827  0.00  0.00    -0.047 A 
ATOM      6  C4  UNL d   1       1.810   5.820  -5.998  0.00  0.00    -0.004 A 
ENDROOT
TORSDOF 0
ENDMDL
