MODEL 1
REMARK minimizedAffinity -0.444184452
REMARK minimizedRMSD -1
REMARK  0 active torsions:
REMARK  status: ('A' for Active; 'I' for Inactive)
ROOT
ATOM      1  C   UNL d   1       5.976   2.899  -3.442  0.00  0.00     0.172 C 
ATOM      2  N   UNL d   1       5.637   4.042  -4.256  0.00  0.00    -0.070 N 
ATOM      3  C1  UNL d   1       4.910   5.128  -3.844  0.00  0.00    -0.004 A 
ATOM      4  C2  UNL d   1       4.807   5.995  -4.910  0.00  0.00    -0.047 A 
ATOM      5  C3  UNL d   1       5.496   5.411  -6.000  0.00  0.00    -0.047 A 
ATOM      6  C4  UNL d   1       5.999   4.203  -5.567  0.00  0.00    -0.004 A 
ENDROOT
TORSDOF 0
ENDMDL
