MODEL 1
REMARK minimizedAffinity -0.764864087
REMARK minimizedRMSD -1
REMARK  0 active torsions:
REMARK  status: ('A' for Active; 'I' for Inactive)
ROOT
ATOM      1  C   UNL d   1       0.302   5.996  -4.542  0.00  0.00     0.172 C 
ATOM      2  N   UNL d   1      -0.856   5.998  -3.679  0.00  0.00    -0.070 N 
ATOM      3  C1  UNL d   1      -0.831   5.998  -2.309  0.00  0.00    -0.004 A 
ATOM      4  C2  UNL d   1      -2.134   6.000  -1.863  0.00  0.00    -0.047 A 
ATOM      5  C3  UNL d   1      -2.972   6.000  -3.003  0.00  0.00    -0.047 A 
ATOM      6  C4  UNL d   1      -2.155   5.998  -4.114  0.00  0.00    -0.004 A 
ENDROOT
TORSDOF 0
ENDMDL
