MODEL 1
REMARK minimizedAffinity -1.62200725
REMARK minimizedRMSD -1
REMARK  0 active torsions:
REMARK  status: ('A' for Active; 'I' for Inactive)
ROOT
ATOM      1  C   UNL d   1       0.018   6.000  -5.836  0.00  0.00     0.172 C 
ATOM      2  N   UNL d   1      -0.575   5.994  -4.519  0.00  0.00    -0.070 N 
ATOM      3  C1  UNL d   1      -1.917   5.982  -4.248  0.00  0.00    -0.004 A 
ATOM      4  C2  UNL d   1      -2.071   5.979  -2.878  0.00  0.00    -0.047 A 
ATOM      5  C3  UNL d   1      -0.776   5.991  -2.307  0.00  0.00    -0.047 A 
ATOM      6  C4  UNL d   1       0.131   6.000  -3.345  0.00  0.00    -0.004 A 
ENDROOT
TORSDOF 0
ENDMDL
