MODEL 1
REMARK minimizedAffinity -2.16130447
REMARK minimizedRMSD -1
REMARK  0 active torsions:
REMARK  status: ('A' for Active; 'I' for Inactive)
ROOT
ATOM      1  C   UNL d   1       2.035   5.603  -4.809  0.00  0.00     0.172 C 
ATOM      2  N   UNL d   1       3.473   5.543  -4.929  0.00  0.00    -0.070 N 
ATOM      3  C1  UNL d   1       4.205   5.993  -5.995  0.00  0.00    -0.004 A 
ATOM      4  C2  UNL d   1       5.535   5.755  -5.725  0.00  0.00    -0.047 A 
ATOM      5  C3  UNL d   1       5.605   5.139  -4.452  0.00  0.00    -0.047 A 
ATOM      6  C4  UNL d   1       4.314   5.020  -3.983  0.00  0.00    -0.004 A 
ENDROOT
TORSDOF 0
ENDMDL
