MODEL 1
REMARK minimizedAffinity 4.03636169
REMARK minimizedRMSD -1
REMARK  0 active torsions:
REMARK  status: ('A' for Active; 'I' for Inactive)
ROOT
ATOM      1  C   UNL d   1      -1.915   5.829  -4.477  0.00  0.00     0.172 C 
ATOM      2  N   UNL d   1      -2.848   5.892  -3.377  0.00  0.00    -0.070 N 
ATOM      3  C1  UNL d   1      -4.213   5.926  -3.489  0.00  0.00    -0.004 A 
ATOM      4  C2  UNL d   1      -4.739   5.983  -2.217  0.00  0.00    -0.047 A 
ATOM      5  C3  UNL d   1      -3.654   5.983  -1.309  0.00  0.00    -0.047 A 
ATOM      6  C4  UNL d   1      -2.495   5.926  -2.054  0.00  0.00    -0.004 A 
ENDROOT
TORSDOF 0
ENDMDL
