MODEL 1
REMARK minimizedAffinity 0.715800583
REMARK minimizedRMSD -1
REMARK  0 active torsions:
REMARK  status: ('A' for Active; 'I' for Inactive)
ROOT
ATOM      1  C   UNL d   1       1.321   5.765  -5.924  0.00  0.00     0.172 C 
ATOM      2  N   UNL d   1       2.660   5.439  -5.491  0.00  0.00    -0.070 N 
ATOM      3  C1  UNL d   1       2.986   4.534  -4.517  0.00  0.00    -0.004 A 
ATOM      4  C2  UNL d   1       4.359   4.513  -4.403  0.00  0.00    -0.047 A 
ATOM      5  C3  UNL d   1       4.876   5.439  -5.339  0.00  0.00    -0.047 A 
ATOM      6  C4  UNL d   1       3.803   5.998  -6.000  0.00  0.00    -0.004 A 
ENDROOT
TORSDOF 0
ENDMDL
