MODEL 1
REMARK minimizedAffinity -1.89142442
REMARK minimizedRMSD -1
REMARK  0 active torsions:
REMARK  status: ('A' for Active; 'I' for Inactive)
ROOT
ATOM      1  C   UNL d   1      -1.491   5.620  -1.205  0.00  0.00     0.172 C 
ATOM      2  N   UNL d   1      -1.923   5.736  -2.579  0.00  0.00    -0.070 N 
ATOM      3  C1  UNL d   1      -3.209   5.952  -2.996  0.00  0.00    -0.004 A 
ATOM      4  C2  UNL d   1      -3.203   6.000  -4.373  0.00  0.00    -0.047 A 
ATOM      5  C3  UNL d   1      -1.867   5.806  -4.798  0.00  0.00    -0.047 A 
ATOM      6  C4  UNL d   1      -1.096   5.645  -3.667  0.00  0.00    -0.004 A 
ENDROOT
TORSDOF 0
ENDMDL
