MODEL 1
REMARK minimizedAffinity 1.55007672
REMARK minimizedRMSD -1
REMARK  0 active torsions:
REMARK  status: ('A' for Active; 'I' for Inactive)
ROOT
ATOM      1  C   UNL d   1      -0.354  -0.620   0.721  0.00  0.00     0.172 C 
ATOM      2  N   UNL d   1       0.270   0.679   0.812  0.00  0.00    -0.070 N 
ATOM      3  C1  UNL d   1       0.412   1.570  -0.218  0.00  0.00    -0.004 A 
ATOM      4  C2  UNL d   1       1.054   2.686   0.274  0.00  0.00    -0.047 A 
ATOM      5  C3  UNL d   1       1.308   2.457   1.648  0.00  0.00    -0.047 A 
ATOM      6  C4  UNL d   1       0.812   1.207   1.954  0.00  0.00    -0.004 A 
ENDROOT
TORSDOF 0
ENDMDL
