MODEL 1
REMARK minimizedAffinity 0.626539767
REMARK minimizedRMSD -1
REMARK  0 active torsions:
REMARK  status: ('A' for Active; 'I' for Inactive)
ROOT
ATOM      1  C   UNL d   1       0.276  -0.522   0.609  0.00  0.00     0.172 C 
ATOM      2  N   UNL d   1       1.065   0.685   0.529  0.00  0.00    -0.070 N 
ATOM      3  C1  UNL d   1       1.106   1.543  -0.537  0.00  0.00    -0.004 A 
ATOM      4  C2  UNL d   1       1.972   2.567  -0.221  0.00  0.00    -0.047 A 
ATOM      5  C3  UNL d   1       2.470   2.315   1.079  0.00  0.00    -0.047 A 
ATOM      6  C4  UNL d   1       1.892   1.143   1.520  0.00  0.00    -0.004 A 
ENDROOT
TORSDOF 0
ENDMDL
