MODEL 1
REMARK minimizedAffinity -2.36733818
REMARK minimizedRMSD -1
REMARK  1 active torsions:
REMARK  status: ('A' for Active; 'I' for Inactive)
REMARK    1  A    between atoms: C1_2  and  C2_3 
ROOT
ATOM      1  C2  UNL d   1       0.682  -0.457  -0.820  0.00  0.00    -0.076 A 
ATOM      2  C3  UNL d   1       0.971  -0.258  -2.182  0.00  0.00     0.004 A 
ATOM      3  C4  UNL d   1       0.547   0.893  -2.844  0.00  0.00    -0.003 A 
ATOM      4  C5  UNL d   1      -0.171   1.864  -2.156  0.00  0.00     0.000 A 
ATOM      5  C6  UNL d   1      -0.451   1.692  -0.801  0.00  0.00     0.000 A 
ATOM      6  C7  UNL d   1      -0.017   0.545  -0.114  0.00  0.00    -0.073 A 
ATOM      7  C8  UNL d   1      -0.352   0.408   1.346  0.00  0.00     0.078 C 
ENDROOT
BRANCH   1   8
ATOM      8  C1  UNL d   1       1.144  -1.737  -0.162  0.00  0.00     0.053 C 
ATOM      9  C   UNL d   1       0.850  -2.966  -1.008  0.00  0.00     0.018 C 
ENDBRANCH   1   8
TORSDOF 1
ENDMDL
