MODEL 1
REMARK minimizedAffinity -5.53818274
REMARK minimizedRMSD -1
REMARK  1 active torsions:
REMARK  status: ('A' for Active; 'I' for Inactive)
REMARK    1  A    between atoms: C1_2  and  C2_3 
ROOT
ATOM      1  C2  UNL d   1       0.072   0.960  -0.425  0.00  0.00    -0.076 A 
ATOM      2  C3  UNL d   1       0.070   0.565   0.924  0.00  0.00     0.004 A 
ATOM      3  C4  UNL d   1      -0.483   1.382   1.909  0.00  0.00    -0.003 A 
ATOM      4  C5  UNL d   1      -1.044   2.605   1.561  0.00  0.00     0.000 A 
ATOM      5  C6  UNL d   1      -1.067   3.005   0.225  0.00  0.00     0.000 A 
ATOM      6  C7  UNL d   1      -0.528   2.186  -0.783  0.00  0.00    -0.073 A 
ATOM      7  C8  UNL d   1      -0.575   2.669  -2.206  0.00  0.00     0.078 C 
ENDROOT
BRANCH   1   8
ATOM      8  C1  UNL d   1       0.710   0.045  -1.446  0.00  0.00     0.053 C 
ATOM      9  C   UNL d   1       0.445  -1.425  -1.158  0.00  0.00     0.018 C 
ENDBRANCH   1   8
TORSDOF 1
ENDMDL
