MODEL 1
REMARK minimizedAffinity -1.6983999
REMARK minimizedRMSD -1
REMARK  1 active torsions:
REMARK  status: ('A' for Active; 'I' for Inactive)
REMARK    1  A    between atoms: C1_2  and  C2_3 
ROOT
ATOM      1  C2  UNL d   1       0.690  -3.442  -0.797  0.00  0.00    -0.076 A 
ATOM      2  C3  UNL d   1       1.657  -3.607   0.210  0.00  0.00     0.004 A 
ATOM      3  C4  UNL d   1       1.953  -4.869   0.721  0.00  0.00    -0.003 A 
ATOM      4  C5  UNL d   1       1.286  -5.988   0.233  0.00  0.00     0.000 A 
ATOM      5  C6  UNL d   1       0.337  -5.845  -0.778  0.00  0.00     0.000 A 
ATOM      6  C7  UNL d   1       0.039  -4.581  -1.316  0.00  0.00    -0.073 A 
ATOM      7  C8  UNL d   1      -0.999  -4.485  -2.401  0.00  0.00     0.078 C 
ENDROOT
BRANCH   1   8
ATOM      8  C1  UNL d   1       0.393  -2.045  -1.294  0.00  0.00     0.053 C 
ATOM      9  C   UNL d   1       0.375  -1.019  -0.171  0.00  0.00     0.018 C 
ENDBRANCH   1   8
TORSDOF 1
ENDMDL
