MODEL 1
REMARK minimizedAffinity -1.32701707
REMARK minimizedRMSD -1
REMARK  1 active torsions:
REMARK  status: ('A' for Active; 'I' for Inactive)
REMARK    1  A    between atoms: C1_2  and  C2_3 
ROOT
ATOM      1  C2  UNL d   1       0.678  -0.745  -0.416  0.00  0.00    -0.076 A 
ATOM      2  C3  UNL d   1       0.650  -0.702   0.989  0.00  0.00     0.004 A 
ATOM      3  C4  UNL d   1       0.150   0.411   1.663  0.00  0.00    -0.003 A 
ATOM      4  C5  UNL d   1      -0.332   1.499   0.943  0.00  0.00     0.000 A 
ATOM      5  C6  UNL d   1      -0.329   1.466  -0.451  0.00  0.00     0.000 A 
ATOM      6  C7  UNL d   1       0.157   0.345  -1.146  0.00  0.00    -0.073 A 
ATOM      7  C8  UNL d   1       0.142   0.366  -2.650  0.00  0.00     0.078 C 
ENDROOT
BRANCH   1   8
ATOM      8  C1  UNL d   1       1.257  -1.967  -1.092  0.00  0.00     0.053 C 
ATOM      9  C   UNL d   1       0.516  -3.243  -0.724  0.00  0.00     0.018 C 
ENDBRANCH   1   8
TORSDOF 1
ENDMDL
