MODEL 1
REMARK minimizedAffinity -6.05268002
REMARK minimizedRMSD -1
REMARK  1 active torsions:
REMARK  status: ('A' for Active; 'I' for Inactive)
REMARK    1  A    between atoms: C1_2  and  C2_3 
ROOT
ATOM      1  C2  UNL d   1       0.123   1.257  -0.095  0.00  0.00    -0.076 A 
ATOM      2  C3  UNL d   1      -0.450   1.854  -1.232  0.00  0.00     0.004 A 
ATOM      3  C4  UNL d   1      -1.268   2.976  -1.118  0.00  0.00    -0.003 A 
ATOM      4  C5  UNL d   1      -1.528   3.521   0.134  0.00  0.00     0.000 A 
ATOM      5  C6  UNL d   1      -0.954   2.953   1.271  0.00  0.00     0.000 A 
ATOM      6  C7  UNL d   1      -0.113   1.831   1.173  0.00  0.00    -0.073 A 
ATOM      7  C8  UNL d   1       0.474   1.256   2.432  0.00  0.00     0.078 C 
ENDROOT
BRANCH   1   8
ATOM      8  C1  UNL d   1       0.980   0.026  -0.278  0.00  0.00     0.053 C 
ATOM      9  C   UNL d   1       0.199  -1.150  -0.843  0.00  0.00     0.018 C 
ENDBRANCH   1   8
TORSDOF 1
ENDMDL
