MODEL 1
REMARK minimizedAffinity -4.54660273
REMARK minimizedRMSD -1
REMARK  1 active torsions:
REMARK  status: ('A' for Active; 'I' for Inactive)
REMARK    1  A    between atoms: C1_2  and  C2_3 
ROOT
ATOM      1  C2  UNL d   1       0.517   0.364  -0.258  0.00  0.00    -0.076 A 
ATOM      2  C3  UNL d   1       0.307   0.521   1.123  0.00  0.00     0.004 A 
ATOM      3  C4  UNL d   1      -0.074   1.751   1.656  0.00  0.00    -0.003 A 
ATOM      4  C5  UNL d   1      -0.252   2.845   0.816  0.00  0.00     0.000 A 
ATOM      5  C6  UNL d   1      -0.065   2.704  -0.559  0.00  0.00     0.000 A 
ATOM      6  C7  UNL d   1       0.304   1.466  -1.114  0.00  0.00    -0.073 A 
ATOM      7  C8  UNL d   1       0.497   1.372  -2.603  0.00  0.00     0.078 C 
ENDROOT
BRANCH   1   8
ATOM      8  C1  UNL d   1       0.956  -0.987  -0.775  0.00  0.00     0.053 C 
ATOM      9  C   UNL d   1      -0.209  -1.949  -0.953  0.00  0.00     0.018 C 
ENDBRANCH   1   8
TORSDOF 1
ENDMDL
