MODEL 1
REMARK minimizedAffinity -2.53008246
REMARK minimizedRMSD -1
REMARK  1 active torsions:
REMARK  status: ('A' for Active; 'I' for Inactive)
REMARK    1  A    between atoms: C1_2  and  C2_3 
ROOT
ATOM      1  C2  UNL d   1      -0.942   1.137   0.049  0.00  0.00    -0.076 A 
ATOM      2  C3  UNL d   1      -0.155   0.034   0.422  0.00  0.00     0.004 A 
ATOM      3  C4  UNL d   1       0.866  -0.431  -0.405  0.00  0.00    -0.003 A 
ATOM      4  C5  UNL d   1       1.117   0.200  -1.618  0.00  0.00     0.000 A 
ATOM      5  C6  UNL d   1       0.357   1.306  -1.996  0.00  0.00     0.000 A 
ATOM      6  C7  UNL d   1      -0.665   1.798  -1.167  0.00  0.00    -0.073 A 
ATOM      7  C8  UNL d   1      -1.457   2.991  -1.627  0.00  0.00     0.078 C 
ENDROOT
BRANCH   1   8
ATOM      8  C1  UNL d   1      -2.053   1.580   0.974  0.00  0.00     0.053 C 
ATOM      9  C   UNL d   1      -1.616   2.687   1.921  0.00  0.00     0.018 C 
ENDBRANCH   1   8
TORSDOF 1
ENDMDL
