MODEL 1
REMARK minimizedAffinity 1.47529221
REMARK minimizedRMSD -1
REMARK  1 active torsions:
REMARK  status: ('A' for Active; 'I' for Inactive)
REMARK    1  A    between atoms: C1_2  and  C2_3 
ROOT
ATOM      1  C2  UNL d   1       0.358   0.579   0.189  0.00  0.00    -0.076 A 
ATOM      2  C3  UNL d   1       0.480   0.684   1.586  0.00  0.00     0.004 A 
ATOM      3  C4  UNL d   1       0.517   1.929   2.212  0.00  0.00    -0.003 A 
ATOM      4  C5  UNL d   1       0.432   3.089   1.451  0.00  0.00     0.000 A 
ATOM      5  C6  UNL d   1       0.294   3.004   0.066  0.00  0.00     0.000 A 
ATOM      6  C7  UNL d   1       0.238   1.757  -0.579  0.00  0.00    -0.073 A 
ATOM      7  C8  UNL d   1       0.094   1.724  -2.076  0.00  0.00     0.078 C 
ENDROOT
BRANCH   1   8
ATOM      8  C1  UNL d   1       0.351  -0.798  -0.436  0.00  0.00     0.053 C 
ATOM      9  C   UNL d   1      -0.777  -1.671   0.091  0.00  0.00     0.018 C 
ENDBRANCH   1   8
TORSDOF 1
ENDMDL
