MODEL 1
REMARK minimizedAffinity 13.0415201
REMARK minimizedRMSD -1
REMARK  0 active torsions:
REMARK  status: ('A' for Active; 'I' for Inactive)
ROOT
ATOM      1  C1  DEN d   1      -2.181   1.425  -5.243  0.00  0.00     0.130 A 
ATOM      2  C2  DEN d   1      -3.483   1.625  -5.874  0.00  0.00    -0.031 A 
ATOM      3  C3  DEN d   1      -4.479   0.832  -5.125  0.00  0.00     0.027 A 
ATOM      4  C4  DEN d   1      -4.135  -0.673  -3.060  0.00  0.00     0.027 A 
ATOM      5  C5  DEN d   1      -3.203  -1.166  -2.172  0.00  0.00    -0.003 A 
ATOM      6  C6  DEN d   1      -1.872  -0.859  -2.266  0.00  0.00     0.001 A 
ATOM      7  C7  DEN d   1      -1.440  -0.000  -3.242  0.00  0.00     0.017 A 
ATOM      8  C8  DEN d   1      -2.372   0.494  -4.145  0.00  0.00    -0.094 A 
ATOM      9  C9  DEN d   1      -3.716   0.182  -4.026  0.00  0.00    -0.072 A 
ENDROOT
TORSDOF 0
ENDMDL
