MODEL 1
REMARK minimizedAffinity 17.357666
REMARK minimizedRMSD -1
REMARK  0 active torsions:
REMARK  status: ('A' for Active; 'I' for Inactive)
ROOT
ATOM      1  C1  DEN d   1      -4.339   1.522  -5.636  0.00  0.00     0.130 A 
ATOM      2  C2  DEN d   1      -5.198   0.345  -5.551  0.00  0.00    -0.031 A 
ATOM      3  C3  DEN d   1      -6.000   0.453  -4.315  0.00  0.00     0.027 A 
ATOM      4  C4  DEN d   1      -5.997   2.322  -2.538  0.00  0.00     0.027 A 
ATOM      5  C5  DEN d   1      -5.428   3.521  -2.171  0.00  0.00    -0.003 A 
ATOM      6  C6  DEN d   1      -4.440   4.117  -2.910  0.00  0.00     0.001 A 
ATOM      7  C7  DEN d   1      -4.023   3.536  -4.078  0.00  0.00     0.017 A 
ATOM      8  C8  DEN d   1      -4.586   2.323  -4.451  0.00  0.00    -0.094 A 
ATOM      9  C9  DEN d   1      -5.593   1.743  -3.697  0.00  0.00    -0.072 A 
ENDROOT
TORSDOF 0
ENDMDL
