MODEL 1
REMARK minimizedAffinity 8.60198689
REMARK minimizedRMSD -1
REMARK  0 active torsions:
REMARK  status: ('A' for Active; 'I' for Inactive)
ROOT
ATOM      1  C1  DEN d   1      -0.829  -5.770   4.198  0.00  0.00     0.130 A 
ATOM      2  C2  DEN d   1      -1.906  -5.999   5.157  0.00  0.00    -0.031 A 
ATOM      3  C3  DEN d   1      -2.033  -4.793   6.000  0.00  0.00     0.027 A 
ATOM      4  C4  DEN d   1      -0.676  -2.602   5.910  0.00  0.00     0.027 A 
ATOM      5  C5  DEN d   1       0.352  -1.943   5.271  0.00  0.00    -0.003 A 
ATOM      6  C6  DEN d   1       1.075  -2.522   4.262  0.00  0.00     0.001 A 
ATOM      7  C7  DEN d   1       0.750  -3.781   3.830  0.00  0.00     0.017 A 
ATOM      8  C8  DEN d   1      -0.281  -4.454   4.474  0.00  0.00    -0.094 A 
ATOM      9  C9  DEN d   1      -1.007  -3.847   5.484  0.00  0.00    -0.072 A 
ENDROOT
TORSDOF 0
ENDMDL
