MODEL 1
REMARK minimizedAffinity 10.4082632
REMARK minimizedRMSD -1
REMARK  0 active torsions:
REMARK  status: ('A' for Active; 'I' for Inactive)
ROOT
ATOM      1  C1  DEN d   1       2.477   3.556   3.198  0.00  0.00     0.130 A 
ATOM      2  C2  DEN d   1       2.214   4.974   3.429  0.00  0.00    -0.031 A 
ATOM      3  C3  DEN d   1       0.918   5.306   2.804  0.00  0.00     0.027 A 
ATOM      4  C4  DEN d   1      -0.702   3.769   1.514  0.00  0.00     0.027 A 
ATOM      5  C5  DEN d   1      -0.905   2.487   1.052  0.00  0.00    -0.003 A 
ATOM      6  C6  DEN d   1       0.013   1.489   1.241  0.00  0.00     0.001 A 
ATOM      7  C7  DEN d   1       1.157   1.744   1.950  0.00  0.00     0.017 A 
ATOM      8  C8  DEN d   1       1.372   3.036   2.413  0.00  0.00    -0.094 A 
ATOM      9  C9  DEN d   1       0.426   4.028   2.222  0.00  0.00    -0.072 A 
ENDROOT
TORSDOF 0
ENDMDL
