MODEL 1
REMARK minimizedAffinity 15.8208113
REMARK minimizedRMSD -1
REMARK  0 active torsions:
REMARK  status: ('A' for Active; 'I' for Inactive)
ROOT
ATOM      1  C1  DEN d   1       2.732  -1.812  -2.251  0.00  0.00     0.130 A 
ATOM      2  C2  DEN d   1       2.308  -2.610  -1.104  0.00  0.00    -0.031 A 
ATOM      3  C3  DEN d   1       2.782  -1.936   0.121  0.00  0.00     0.027 A 
ATOM      4  C4  DEN d   1       4.120   0.257   0.353  0.00  0.00     0.027 A 
ATOM      5  C5  DEN d   1       4.719   1.284  -0.341  0.00  0.00    -0.003 A 
ATOM      6  C6  DEN d   1       4.728   1.334  -1.710  0.00  0.00     0.001 A 
ATOM      7  C7  DEN d   1       4.086   0.360  -2.428  0.00  0.00     0.017 A 
ATOM      8  C8  DEN d   1       3.485  -0.683  -1.736  0.00  0.00    -0.094 A 
ATOM      9  C9  DEN d   1       3.477  -0.709  -0.351  0.00  0.00    -0.072 A 
ENDROOT
TORSDOF 0
ENDMDL
