MODEL 1
REMARK minimizedAffinity -5.06091881
REMARK minimizedRMSD -1
REMARK  1 active torsions:
REMARK  status: ('A' for Active; 'I' for Inactive)
REMARK    1  A    between atoms: C3_4  and  O_7 
ROOT
ATOM      1  C   UNL d   1       1.155  -1.145   2.940  0.00  0.00    -0.033 A 
ATOM      2  C1  UNL d   1      -0.173  -0.731   2.825  0.00  0.00     0.039 A 
ATOM      3  C2  UNL d   1      -0.664  -0.288   1.596  0.00  0.00    -0.080 A 
ATOM      4  C3  UNL d   1       0.182  -0.264   0.490  0.00  0.00     0.150 A 
ATOM      5  C4  UNL d   1       1.506  -0.678   0.597  0.00  0.00    -0.007 A 
ATOM      6  C5  UNL d   1       1.994  -1.120   1.826  0.00  0.00     0.039 A 
ENDROOT
BRANCH   4   7
ATOM      7  O   UNL d   1      -0.250   0.166  -0.729  0.00  0.00    -0.526 OA
ATOM      8  H5  UNL d   1      -1.176   0.448  -0.645  0.00  0.00     0.418 HD
ENDBRANCH   4   7
TORSDOF 1
ENDMDL
