MODEL 1
REMARK minimizedAffinity 0.637585402
REMARK minimizedRMSD -1
REMARK  1 active torsions:
REMARK  status: ('A' for Active; 'I' for Inactive)
REMARK    1  A    between atoms: C3_4  and  O_7 
ROOT
ATOM      1  C   UNL d   1       0.712   0.372   1.282  0.00  0.00    -0.033 A 
ATOM      2  C1  UNL d   1       2.041  -0.056   1.264  0.00  0.00     0.039 A 
ATOM      3  C2  UNL d   1       2.542  -0.736   0.153  0.00  0.00    -0.080 A 
ATOM      4  C3  UNL d   1       1.706  -0.980  -0.933  0.00  0.00     0.150 A 
ATOM      5  C4  UNL d   1       0.382  -0.553  -0.924  0.00  0.00    -0.007 A 
ATOM      6  C5  UNL d   1      -0.117   0.125   0.188  0.00  0.00     0.039 A 
ENDROOT
BRANCH   4   7
ATOM      7  O   UNL d   1       2.149  -1.644  -2.039  0.00  0.00    -0.526 OA
ATOM      8  H5  UNL d   1       3.074  -1.903  -1.892  0.00  0.00     0.418 HD
ENDBRANCH   4   7
TORSDOF 1
ENDMDL
