MODEL 1
REMARK minimizedAffinity 2.42339468
REMARK minimizedRMSD -1
REMARK  1 active torsions:
REMARK  status: ('A' for Active; 'I' for Inactive)
REMARK    1  A    between atoms: C3_4  and  O_7 
ROOT
ATOM      1  C   UNL d   1      -0.623   3.676  -2.082  0.00  0.00    -0.033 A 
ATOM      2  C1  UNL d   1      -0.887   2.486  -2.761  0.00  0.00     0.039 A 
ATOM      3  C2  UNL d   1      -0.141   2.144  -3.891  0.00  0.00    -0.080 A 
ATOM      4  C3  UNL d   1       0.866   3.000  -4.329  0.00  0.00     0.150 A 
ATOM      5  C4  UNL d   1       1.137   4.186  -3.655  0.00  0.00    -0.007 A 
ATOM      6  C5  UNL d   1       0.390   4.526  -2.527  0.00  0.00     0.039 A 
ENDROOT
BRANCH   4   7
ATOM      7  O   UNL d   1       1.618   2.712  -5.430  0.00  0.00    -0.526 OA
ATOM      8  H5  UNL d   1       1.299   1.876  -5.810  0.00  0.00     0.418 HD
ENDBRANCH   4   7
TORSDOF 1
ENDMDL
