MODEL 1
REMARK minimizedAffinity -1.76699245
REMARK minimizedRMSD -1
REMARK  1 active torsions:
REMARK  status: ('A' for Active; 'I' for Inactive)
REMARK    1  A    between atoms: C3_4  and  O_7 
ROOT
ATOM      1  C   UNL d   1       0.401  -0.280  -1.585  0.00  0.00    -0.033 A 
ATOM      2  C1  UNL d   1      -0.106   0.620  -0.646  0.00  0.00     0.039 A 
ATOM      3  C2  UNL d   1       0.506   0.747   0.603  0.00  0.00    -0.080 A 
ATOM      4  C3  UNL d   1       1.622  -0.030   0.899  0.00  0.00     0.150 A 
ATOM      5  C4  UNL d   1       2.134  -0.927  -0.033  0.00  0.00    -0.007 A 
ATOM      6  C5  UNL d   1       1.522  -1.053  -1.279  0.00  0.00     0.039 A 
ENDROOT
BRANCH   4   7
ATOM      7  O   UNL d   1       2.250   0.055   2.106  0.00  0.00    -0.526 OA
ATOM      8  H5  UNL d   1       1.769   0.694   2.659  0.00  0.00     0.418 HD
ENDBRANCH   4   7
TORSDOF 1
ENDMDL
