MODEL 1
REMARK minimizedAffinity -4.93627167
REMARK minimizedRMSD -1
REMARK  1 active torsions:
REMARK  status: ('A' for Active; 'I' for Inactive)
REMARK    1  A    between atoms: C3_4  and  O_7 
ROOT
ATOM      1  C   UNL d   1       0.930   0.250   0.861  0.00  0.00    -0.033 A 
ATOM      2  C1  UNL d   1       1.537  -0.347   1.967  0.00  0.00     0.039 A 
ATOM      3  C2  UNL d   1       0.766  -1.052   2.894  0.00  0.00    -0.080 A 
ATOM      4  C3  UNL d   1      -0.609  -1.153   2.702  0.00  0.00     0.150 A 
ATOM      5  C4  UNL d   1      -1.220  -0.564   1.600  0.00  0.00    -0.007 A 
ATOM      6  C5  UNL d   1      -0.449   0.140   0.676  0.00  0.00     0.039 A 
ENDROOT
BRANCH   4   7
ATOM      7  O   UNL d   1      -1.403  -1.826   3.582  0.00  0.00    -0.526 OA
ATOM      8  H5  UNL d   1      -0.848  -2.155   4.308  0.00  0.00     0.418 HD
ENDBRANCH   4   7
TORSDOF 1
ENDMDL
