MODEL 1
REMARK minimizedAffinity -4.77395105
REMARK minimizedRMSD -1
REMARK  1 active torsions:
REMARK  status: ('A' for Active; 'I' for Inactive)
REMARK    1  A    between atoms: C3_4  and  O_7 
ROOT
ATOM      1  C   UNL d   1       1.173   0.198   1.127  0.00  0.00    -0.033 A 
ATOM      2  C1  UNL d   1      -0.213   0.366   1.110  0.00  0.00     0.039 A 
ATOM      3  C2  UNL d   1      -1.019  -0.382   1.971  0.00  0.00    -0.080 A 
ATOM      4  C3  UNL d   1      -0.428  -1.292   2.842  0.00  0.00     0.150 A 
ATOM      5  C4  UNL d   1       0.952  -1.461   2.867  0.00  0.00    -0.007 A 
ATOM      6  C5  UNL d   1       1.756  -0.714   2.007  0.00  0.00     0.039 A 
ENDROOT
BRANCH   4   7
ATOM      7  O   UNL d   1      -1.174  -2.048   3.697  0.00  0.00    -0.526 OA
ATOM      8  H5  UNL d   1      -2.113  -1.845   3.549  0.00  0.00     0.418 HD
ENDBRANCH   4   7
TORSDOF 1
ENDMDL
