MODEL 1
REMARK minimizedAffinity -2.27989173
REMARK minimizedRMSD -1
REMARK  1 active torsions:
REMARK  status: ('A' for Active; 'I' for Inactive)
REMARK    1  A    between atoms: C3_4  and  O_7 
ROOT
ATOM      1  C   UNL d   1       2.019  -0.505   0.819  0.00  0.00    -0.033 A 
ATOM      2  C1  UNL d   1       0.931   0.264   1.238  0.00  0.00     0.039 A 
ATOM      3  C2  UNL d   1      -0.221   0.332   0.453  0.00  0.00    -0.080 A 
ATOM      4  C3  UNL d   1      -0.275  -0.374  -0.746  0.00  0.00     0.150 A 
ATOM      5  C4  UNL d   1       0.803  -1.145  -1.167  0.00  0.00    -0.007 A 
ATOM      6  C5  UNL d   1       1.954  -1.211  -0.383  0.00  0.00     0.039 A 
ENDROOT
BRANCH   4   7
ATOM      7  O   UNL d   1      -1.376  -0.335  -1.548  0.00  0.00    -0.526 OA
ATOM      8  H5  UNL d   1      -2.030   0.260  -1.144  0.00  0.00     0.418 HD
ENDBRANCH   4   7
TORSDOF 1
ENDMDL
