MODEL 1
REMARK minimizedAffinity 0.200327396
REMARK minimizedRMSD -1
REMARK  1 active torsions:
REMARK  status: ('A' for Active; 'I' for Inactive)
REMARK    1  A    between atoms: C3_4  and  O_7 
ROOT
ATOM      1  C   UNL d   1       1.478   3.705  -4.466  0.00  0.00    -0.033 A 
ATOM      2  C1  UNL d   1       1.490   4.605  -3.398  0.00  0.00     0.039 A 
ATOM      3  C2  UNL d   1       0.475   4.568  -2.440  0.00  0.00    -0.080 A 
ATOM      4  C3  UNL d   1      -0.545   3.628  -2.561  0.00  0.00     0.150 A 
ATOM      5  C4  UNL d   1      -0.562   2.727  -3.620  0.00  0.00    -0.007 A 
ATOM      6  C5  UNL d   1       0.452   2.766  -4.576  0.00  0.00     0.039 A 
ENDROOT
BRANCH   4   7
ATOM      7  O   UNL d   1      -1.560   3.557  -1.654  0.00  0.00    -0.526 OA
ATOM      8  H5  UNL d   1      -1.432   4.259  -0.994  0.00  0.00     0.418 HD
ENDBRANCH   4   7
TORSDOF 1
ENDMDL
