MODEL 1
REMARK minimizedAffinity 9.3977375
REMARK minimizedRMSD -1
REMARK  0 active torsions:
REMARK  status: ('A' for Active; 'I' for Inactive)
ROOT
ATOM      1  C   UNL d   1       4.531   5.529  -5.776  0.00  0.00     0.020 A 
ATOM      2  C1  UNL d   1       4.750   4.239  -5.295  0.00  0.00     0.020 A 
ATOM      3  C2  UNL d   1       3.664   3.413  -4.995  0.00  0.00     0.034 A 
ATOM      4  C3  UNL d   1       2.356   3.876  -5.176  0.00  0.00     0.017 A 
ATOM      5  C4  UNL d   1       2.138   5.171  -5.659  0.00  0.00     0.017 A 
ATOM      6  C5  UNL d   1       3.228   5.994  -5.958  0.00  0.00     0.034 A 
ATOM      7 Cl   UNL d   1       0.552   5.813  -5.908  0.00  0.00    -0.070 Cl
ATOM      8 Cl1  UNL d   1       1.062   2.800  -4.785  0.00  0.00    -0.070 Cl
ENDROOT
TORSDOF 0
ENDMDL
