MODEL 1
REMARK minimizedAffinity 4.20971012
REMARK minimizedRMSD -1
REMARK  0 active torsions:
REMARK  status: ('A' for Active; 'I' for Inactive)
ROOT
ATOM      1  C   UNL d   1       2.048  -2.765   0.139  0.00  0.00     0.020 A 
ATOM      2  C1  UNL d   1       3.059  -3.633   0.551  0.00  0.00     0.020 A 
ATOM      3  C2  UNL d   1       3.573  -3.542   1.846  0.00  0.00     0.034 A 
ATOM      4  C3  UNL d   1       3.076  -2.580   2.734  0.00  0.00     0.017 A 
ATOM      5  C4  UNL d   1       2.062  -1.709   2.319  0.00  0.00     0.017 A 
ATOM      6  C5  UNL d   1       1.551  -1.805   1.021  0.00  0.00     0.034 A 
ATOM      7 Cl   UNL d   1       1.399  -0.497   3.358  0.00  0.00    -0.070 Cl
ATOM      8 Cl1  UNL d   1       3.758  -2.524   4.320  0.00  0.00    -0.070 Cl
ENDROOT
TORSDOF 0
ENDMDL
