MODEL 1
REMARK minimizedAffinity 6.91573286
REMARK minimizedRMSD -1
REMARK  0 active torsions:
REMARK  status: ('A' for Active; 'I' for Inactive)
ROOT
ATOM      1  C   UNL d   1      -3.991   3.022  -3.980  0.00  0.00     0.020 A 
ATOM      2  C1  UNL d   1      -3.155   2.921  -2.869  0.00  0.00     0.020 A 
ATOM      3  C2  UNL d   1      -3.022   1.701  -2.203  0.00  0.00     0.034 A 
ATOM      4  C3  UNL d   1      -3.727   0.576  -2.648  0.00  0.00     0.017 A 
ATOM      5  C4  UNL d   1      -4.567   0.679  -3.763  0.00  0.00     0.017 A 
ATOM      6  C5  UNL d   1      -4.695   1.903  -4.426  0.00  0.00     0.034 A 
ATOM      7 Cl   UNL d   1      -5.469  -0.665  -4.371  0.00  0.00    -0.070 Cl
ATOM      8 Cl1  UNL d   1      -3.516  -0.901  -1.777  0.00  0.00    -0.070 Cl
ENDROOT
TORSDOF 0
ENDMDL
