MODEL 1
REMARK minimizedAffinity 7.73582697
REMARK minimizedRMSD -1
REMARK  0 active torsions:
REMARK  status: ('A' for Active; 'I' for Inactive)
ROOT
ATOM      1  C   UNL d   1       1.380   3.287   1.975  0.00  0.00     0.020 A 
ATOM      2  C1  UNL d   1       0.196   3.989   1.753  0.00  0.00     0.020 A 
ATOM      3  C2  UNL d   1      -1.035   3.344   1.896  0.00  0.00     0.034 A 
ATOM      4  C3  UNL d   1      -1.083   1.994   2.261  0.00  0.00     0.017 A 
ATOM      5  C4  UNL d   1       0.106   1.291   2.484  0.00  0.00     0.017 A 
ATOM      6  C5  UNL d   1       1.335   1.941   2.339  0.00  0.00     0.034 A 
ATOM      7 Cl   UNL d   1       0.126  -0.377   2.937  0.00  0.00    -0.070 Cl
ATOM      8 Cl1  UNL d   1      -2.640   1.260   2.420  0.00  0.00    -0.070 Cl
ENDROOT
TORSDOF 0
ENDMDL
