MODEL 1
REMARK minimizedAffinity 12.9431362
REMARK minimizedRMSD -1
REMARK  0 active torsions:
REMARK  status: ('A' for Active; 'I' for Inactive)
ROOT
ATOM      1  C   UNL d   1       2.527   5.622   6.000  0.00  0.00     0.020 A 
ATOM      2  C1  UNL d   1       1.185   5.999   5.996  0.00  0.00     0.020 A 
ATOM      3  C2  UNL d   1       0.317   5.482   5.033  0.00  0.00     0.034 A 
ATOM      4  C3  UNL d   1       0.790   4.584   4.068  0.00  0.00     0.017 A 
ATOM      5  C4  UNL d   1       2.137   4.206   4.073  0.00  0.00     0.017 A 
ATOM      6  C5  UNL d   1       3.002   4.727   5.040  0.00  0.00     0.034 A 
ATOM      7 Cl   UNL d   1       2.794   3.103   2.915  0.00  0.00    -0.070 Cl
ATOM      8 Cl1  UNL d   1      -0.340   3.984   2.907  0.00  0.00    -0.070 Cl
ENDROOT
TORSDOF 0
ENDMDL
