MODEL 1
REMARK minimizedAffinity 6.11128283
REMARK minimizedRMSD -1
REMARK  0 active torsions:
REMARK  status: ('A' for Active; 'I' for Inactive)
ROOT
ATOM      1  C   UNL d   1      -5.999   4.395  -5.653  0.00  0.00     0.020 A 
ATOM      2  C1  UNL d   1      -4.876   5.017  -5.109  0.00  0.00     0.020 A 
ATOM      3  C2  UNL d   1      -3.730   4.270  -4.831  0.00  0.00     0.034 A 
ATOM      4  C3  UNL d   1      -3.703   2.896  -5.098  0.00  0.00     0.017 A 
ATOM      5  C4  UNL d   1      -4.831   2.272  -5.644  0.00  0.00     0.017 A 
ATOM      6  C5  UNL d   1      -5.977   3.026  -5.920  0.00  0.00     0.034 A 
ATOM      7 Cl   UNL d   1      -4.874   0.582  -6.000  0.00  0.00    -0.070 Cl
ATOM      8 Cl1  UNL d   1      -2.252   2.034  -4.730  0.00  0.00    -0.070 Cl
ENDROOT
TORSDOF 0
ENDMDL
