MODEL 1
REMARK minimizedAffinity 8.42389488
REMARK minimizedRMSD -1
REMARK  0 active torsions:
REMARK  status: ('A' for Active; 'I' for Inactive)
ROOT
ATOM      1  C   UNL d   1       2.711  -4.234   0.295  0.00  0.00     0.020 A 
ATOM      2  C1  UNL d   1       1.668  -3.405  -0.115  0.00  0.00     0.020 A 
ATOM      3  C2  UNL d   1       1.336  -2.276   0.638  0.00  0.00     0.034 A 
ATOM      4  C3  UNL d   1       2.049  -1.973   1.803  0.00  0.00     0.017 A 
ATOM      5  C4  UNL d   1       3.097  -2.806   2.214  0.00  0.00     0.017 A 
ATOM      6  C5  UNL d   1       3.424  -3.935   1.457  0.00  0.00     0.034 A 
ATOM      7 Cl   UNL d   1       4.022  -2.497   3.641  0.00  0.00    -0.070 Cl
ATOM      8 Cl1  UNL d   1       1.585  -0.561   2.685  0.00  0.00    -0.070 Cl
ENDROOT
TORSDOF 0
ENDMDL
