MODEL 1
REMARK minimizedAffinity 8.63438892
REMARK minimizedRMSD -1
REMARK  0 active torsions:
REMARK  status: ('A' for Active; 'I' for Inactive)
ROOT
ATOM      1  C   UNL d   1       2.266  -3.550   0.457  0.00  0.00     0.020 A 
ATOM      2  C1  UNL d   1       3.409  -4.211   0.907  0.00  0.00     0.020 A 
ATOM      3  C2  UNL d   1       4.023  -3.813   2.097  0.00  0.00     0.034 A 
ATOM      4  C3  UNL d   1       3.494  -2.752   2.841  0.00  0.00     0.017 A 
ATOM      5  C4  UNL d   1       2.348  -2.089   2.388  0.00  0.00     0.017 A 
ATOM      6  C5  UNL d   1       1.737  -2.491   1.196  0.00  0.00     0.034 A 
ATOM      7 Cl   UNL d   1       1.638  -0.771   3.251  0.00  0.00    -0.070 Cl
ATOM      8 Cl1  UNL d   1       4.305  -2.313   4.303  0.00  0.00    -0.070 Cl
ENDROOT
TORSDOF 0
ENDMDL
