MODEL 1
REMARK minimizedAffinity 4.71692514
REMARK minimizedRMSD -1
REMARK  0 active torsions:
REMARK  status: ('A' for Active; 'I' for Inactive)
ROOT
ATOM      1  C   UNL d   1       4.865  -3.782   3.200  0.00  0.00     0.020 A 
ATOM      2  C1  UNL d   1       5.672  -3.991   2.082  0.00  0.00     0.020 A 
ATOM      3  C2  UNL d   1       5.174  -3.733   0.804  0.00  0.00     0.034 A 
ATOM      4  C3  UNL d   1       3.865  -3.263   0.640  0.00  0.00     0.017 A 
ATOM      5  C4  UNL d   1       3.057  -3.053   1.762  0.00  0.00     0.017 A 
ATOM      6  C5  UNL d   1       3.561  -3.313   3.040  0.00  0.00     0.034 A 
ATOM      7 Cl   UNL d   1       1.432  -2.475   1.640  0.00  0.00    -0.070 Cl
ATOM      8 Cl1  UNL d   1       3.315  -2.965  -0.971  0.00  0.00    -0.070 Cl
ENDROOT
TORSDOF 0
ENDMDL
