MODEL 1
REMARK minimizedAffinity 1.05876577
REMARK minimizedRMSD -1
REMARK  2 active torsions:
REMARK  status: ('A' for Active; 'I' for Inactive)
REMARK    1  A    between atoms: C2'_3  and  C1'_4 
REMARK    2  A    between atoms: C1'_4  and  C1_5 
ROOT
ATOM      1  C1  I4B d   1       0.140   3.150  -1.968  0.00  0.00    -0.075 A 
ATOM      2  C2  I4B d   1       0.305   4.497  -2.177  0.00  0.00     0.003 A 
ATOM      3  C3  I4B d   1       0.741   4.974  -3.437  0.00  0.00     0.002 A 
ATOM      4  C4  I4B d   1       1.046   4.073  -4.437  0.00  0.00    -0.004 A 
ATOM      5  C5  I4B d   1       0.856   2.710  -4.230  0.00  0.00     0.002 A 
ATOM      6  C6  I4B d   1       0.389   2.246  -2.992  0.00  0.00     0.003 A 
ENDROOT
BRANCH   1   7
ATOM      7  C1' I4B d   1      -0.290   2.678  -0.615  0.00  0.00     0.060 C 
BRANCH   7   8
ATOM      8  C2' I4B d   1      -0.412   1.169  -0.664  0.00  0.00    -0.013 C 
ATOM      9  C4' I4B d   1       0.738   0.506   0.047  0.00  0.00     0.013 C 
ATOM     10  C3' I4B d   1      -1.723   0.790  -0.044  0.00  0.00     0.013 C 
ENDBRANCH   7   8
ENDBRANCH   1   7
TORSDOF 2
ENDMDL
