MODEL 1
REMARK minimizedAffinity 8.40791798
REMARK minimizedRMSD -1
REMARK  2 active torsions:
REMARK  status: ('A' for Active; 'I' for Inactive)
REMARK    1  A    between atoms: C2'_3  and  C1'_4 
REMARK    2  A    between atoms: C1'_4  and  C1_5 
ROOT
ATOM      1  C1  I4B d   1       0.913   2.379  -3.007  0.00  0.00    -0.075 A 
ATOM      2  C2  I4B d   1      -0.363   1.872  -2.988  0.00  0.00     0.003 A 
ATOM      3  C3  I4B d   1      -1.450   2.659  -3.441  0.00  0.00     0.002 A 
ATOM      4  C4  I4B d   1      -1.224   3.956  -3.853  0.00  0.00    -0.004 A 
ATOM      5  C5  I4B d   1       0.073   4.461  -3.893  0.00  0.00     0.002 A 
ATOM      6  C6  I4B d   1       1.150   3.663  -3.479  0.00  0.00     0.003 A 
ENDROOT
BRANCH   1   7
ATOM      7  C1' I4B d   1       2.033   1.532  -2.491  0.00  0.00     0.060 C 
BRANCH   7   8
ATOM      8  C2' I4B d   1       1.950   0.182  -3.175  0.00  0.00    -0.013 C 
ATOM      9  C4' I4B d   1       3.223  -0.132  -3.915  0.00  0.00     0.013 C 
ATOM     10  C3' I4B d   1       1.665  -0.851  -2.126  0.00  0.00     0.013 C 
ENDBRANCH   7   8
ENDBRANCH   1   7
TORSDOF 2
ENDMDL
