MODEL 1
REMARK minimizedAffinity 0.0757702738
REMARK minimizedRMSD -1
REMARK  2 active torsions:
REMARK  status: ('A' for Active; 'I' for Inactive)
REMARK    1  A    between atoms: C2'_3  and  C1'_4 
REMARK    2  A    between atoms: C1'_4  and  C1_5 
ROOT
ATOM      1  C1  I4B d   1      -4.156   1.373  -5.353  0.00  0.00    -0.075 A 
ATOM      2  C2  I4B d   1      -3.030   1.822  -4.707  0.00  0.00     0.003 A 
ATOM      3  C3  I4B d   1      -3.010   3.111  -4.122  0.00  0.00     0.002 A 
ATOM      4  C4  I4B d   1      -4.112   3.932  -4.248  0.00  0.00    -0.004 A 
ATOM      5  C5  I4B d   1      -5.260   3.467  -4.883  0.00  0.00     0.002 A 
ATOM      6  C6  I4B d   1      -5.287   2.175  -5.428  0.00  0.00     0.003 A 
ENDROOT
BRANCH   1   7
ATOM      7  C1' I4B d   1      -4.131   0.020  -5.988  0.00  0.00     0.060 C 
BRANCH   7   8
ATOM      8  C2' I4B d   1      -4.863  -0.940  -5.072  0.00  0.00    -0.013 C 
ATOM      9  C4' I4B d   1      -3.938  -1.512  -4.031  0.00  0.00     0.013 C 
ATOM     10  C3' I4B d   1      -6.000  -0.196  -4.437  0.00  0.00     0.013 C 
ENDBRANCH   7   8
ENDBRANCH   1   7
TORSDOF 2
ENDMDL
