MODEL 1
REMARK minimizedAffinity 10.8471622
REMARK minimizedRMSD -1
REMARK  2 active torsions:
REMARK  status: ('A' for Active; 'I' for Inactive)
REMARK    1  A    between atoms: C2'_3  and  C1'_4 
REMARK    2  A    between atoms: C1'_4  and  C1_5 
ROOT
ATOM      1  C1  I4B d   1       2.301   0.241  -0.553  0.00  0.00    -0.075 A 
ATOM      2  C2  I4B d   1       2.672   1.549  -0.364  0.00  0.00     0.003 A 
ATOM      3  C3  I4B d   1       2.223   2.554  -1.255  0.00  0.00     0.002 A 
ATOM      4  C4  I4B d   1       1.451   2.201  -2.343  0.00  0.00    -0.004 A 
ATOM      5  C5  I4B d   1       1.057   0.878  -2.521  0.00  0.00     0.002 A 
ATOM      6  C6  I4B d   1       1.475  -0.107  -1.614  0.00  0.00     0.003 A 
ENDROOT
BRANCH   1   7
ATOM      7  C1' I4B d   1       2.821  -0.799   0.388  0.00  0.00     0.060 C 
BRANCH   7   8
ATOM      8  C2' I4B d   1       1.693  -1.188   1.323  0.00  0.00    -0.013 C 
ATOM      9  C4' I4B d   1       1.473  -2.677   1.321  0.00  0.00     0.013 C 
ATOM     10  C3' I4B d   1       2.039  -0.693   2.695  0.00  0.00     0.013 C 
ENDBRANCH   7   8
ENDBRANCH   1   7
TORSDOF 2
ENDMDL
