MODEL 1
REMARK minimizedAffinity 8.24201393
REMARK minimizedRMSD -1
REMARK  2 active torsions:
REMARK  status: ('A' for Active; 'I' for Inactive)
REMARK    1  A    between atoms: C2'_3  and  C1'_4 
REMARK    2  A    between atoms: C1'_4  and  C1_5 
ROOT
ATOM      1  C1  I4B d   1       1.355   1.954  -1.951  0.00  0.00    -0.075 A 
ATOM      2  C2  I4B d   1       0.047   2.243  -1.654  0.00  0.00     0.003 A 
ATOM      3  C3  I4B d   1      -0.789   2.843  -2.626  0.00  0.00     0.002 A 
ATOM      4  C4  I4B d   1      -0.266   3.181  -3.857  0.00  0.00    -0.004 A 
ATOM      5  C5  I4B d   1       1.055   2.867  -4.165  0.00  0.00     0.002 A 
ATOM      6  C6  I4B d   1       1.868   2.238  -3.211  0.00  0.00     0.003 A 
ENDROOT
BRANCH   1   7
ATOM      7  C1' I4B d   1       2.220   1.350  -0.890  0.00  0.00     0.060 C 
BRANCH   7   8
ATOM      8  C2' I4B d   1       2.993   2.471  -0.224  0.00  0.00    -0.013 C 
ATOM      9  C4' I4B d   1       2.659   2.568   1.241  0.00  0.00     0.013 C 
ATOM     10  C3' I4B d   1       4.455   2.210  -0.430  0.00  0.00     0.013 C 
ENDBRANCH   7   8
ENDBRANCH   1   7
TORSDOF 2
ENDMDL
