MODEL 1
REMARK minimizedAffinity 0.93292743
REMARK minimizedRMSD -1
REMARK  2 active torsions:
REMARK  status: ('A' for Active; 'I' for Inactive)
REMARK    1  A    between atoms: C2'_3  and  C1'_4 
REMARK    2  A    between atoms: C1'_4  and  C1_5 
ROOT
ATOM      1  C1  I4B d   1      -0.851  -1.017   2.055  0.00  0.00    -0.075 A 
ATOM      2  C2  I4B d   1      -1.395  -0.135   2.954  0.00  0.00     0.003 A 
ATOM      3  C3  I4B d   1      -2.485   0.687   2.577  0.00  0.00     0.002 A 
ATOM      4  C4  I4B d   1      -2.962   0.630   1.283  0.00  0.00    -0.004 A 
ATOM      5  C5  I4B d   1      -2.424  -0.281   0.379  0.00  0.00     0.002 A 
ATOM      6  C6  I4B d   1      -1.369  -1.119   0.770  0.00  0.00     0.003 A 
ENDROOT
BRANCH   1   7
ATOM      7  C1' I4B d   1       0.321  -1.846   2.477  0.00  0.00     0.060 C 
BRANCH   7   8
ATOM      8  C2' I4B d   1       1.572  -1.010   2.301  0.00  0.00    -0.013 C 
ATOM      9  C4' I4B d   1       2.515  -1.189   3.462  0.00  0.00     0.013 C 
ATOM     10  C3' I4B d   1       2.220  -1.412   1.010  0.00  0.00     0.013 C 
ENDBRANCH   7   8
ENDBRANCH   1   7
TORSDOF 2
ENDMDL
