MODEL 1
REMARK minimizedAffinity 8.34967995
REMARK minimizedRMSD -1
REMARK  2 active torsions:
REMARK  status: ('A' for Active; 'I' for Inactive)
REMARK    1  A    between atoms: C2'_3  and  C1'_4 
REMARK    2  A    between atoms: C1'_4  and  C1_5 
ROOT
ATOM      1  C1  I4B d   1       1.552  -1.126   0.440  0.00  0.00    -0.075 A 
ATOM      2  C2  I4B d   1       2.799  -0.739   0.863  0.00  0.00     0.003 A 
ATOM      3  C3  I4B d   1       3.107  -0.710   2.245  0.00  0.00     0.002 A 
ATOM      4  C4  I4B d   1       2.128  -1.025   3.165  0.00  0.00    -0.004 A 
ATOM      5  C5  I4B d   1       0.871  -1.438   2.735  0.00  0.00     0.002 A 
ATOM      6  C6  I4B d   1       0.584  -1.501   1.363  0.00  0.00     0.003 A 
ENDROOT
BRANCH   1   7
ATOM      7  C1' I4B d   1       1.251  -1.113  -1.025  0.00  0.00     0.060 C 
BRANCH   7   8
ATOM      8  C2' I4B d   1      -0.017  -0.311  -1.234  0.00  0.00    -0.013 C 
ATOM      9  C4' I4B d   1       0.209   0.826  -2.196  0.00  0.00     0.013 C 
ATOM     10  C3' I4B d   1      -1.078  -1.243  -1.738  0.00  0.00     0.013 C 
ENDBRANCH   7   8
ENDBRANCH   1   7
TORSDOF 2
ENDMDL
