MODEL 1
REMARK minimizedAffinity 1.99753261
REMARK minimizedRMSD -1
REMARK  2 active torsions:
REMARK  status: ('A' for Active; 'I' for Inactive)
REMARK    1  A    between atoms: C2'_3  and  C1'_4 
REMARK    2  A    between atoms: C1'_4  and  C1_5 
ROOT
ATOM      1  C1  I4B d   1       1.932   0.247  -1.930  0.00  0.00    -0.075 A 
ATOM      2  C2  I4B d   1       3.178  -0.263  -1.660  0.00  0.00     0.003 A 
ATOM      3  C3  I4B d   1       3.353  -1.200  -0.613  0.00  0.00     0.002 A 
ATOM      4  C4  I4B d   1       2.272  -1.560   0.165  0.00  0.00    -0.004 A 
ATOM      5  C5  I4B d   1       1.005  -1.060  -0.125  0.00  0.00     0.002 A 
ATOM      6  C6  I4B d   1       0.832  -0.160  -1.187  0.00  0.00     0.003 A 
ENDROOT
BRANCH   1   7
ATOM      7  C1' I4B d   1       1.789   1.260  -3.021  0.00  0.00     0.060 C 
BRANCH   7   8
ATOM      8  C2' I4B d   1       1.487   2.598  -2.378  0.00  0.00    -0.013 C 
ATOM      9  C4' I4B d   1       0.015   2.911  -2.439  0.00  0.00     0.013 C 
ATOM     10  C3' I4B d   1       1.973   2.552  -0.960  0.00  0.00     0.013 C 
ENDBRANCH   7   8
ENDBRANCH   1   7
TORSDOF 2
ENDMDL
