MODEL 1
REMARK minimizedAffinity 7.58712959
REMARK minimizedRMSD -1
REMARK  2 active torsions:
REMARK  status: ('A' for Active; 'I' for Inactive)
REMARK    1  A    between atoms: C2'_3  and  C1'_4 
REMARK    2  A    between atoms: C1'_4  and  C1_5 
ROOT
ATOM      1  C1  I4B d   1      -0.067  -0.479   3.251  0.00  0.00    -0.075 A 
ATOM      2  C2  I4B d   1       1.050   0.224   3.625  0.00  0.00     0.003 A 
ATOM      3  C3  I4B d   1       2.334  -0.203   3.209  0.00  0.00     0.002 A 
ATOM      4  C4  I4B d   1       2.458  -1.359   2.466  0.00  0.00    -0.004 A 
ATOM      5  C5  I4B d   1       1.322  -2.059   2.068  0.00  0.00     0.002 A 
ATOM      6  C6  I4B d   1       0.050  -1.609   2.452  0.00  0.00     0.003 A 
ENDROOT
BRANCH   1   7
ATOM      7  C1' I4B d   1      -1.405  -0.018   3.736  0.00  0.00     0.060 C 
BRANCH   7   8
ATOM      8  C2' I4B d   1      -2.074   0.743   2.608  0.00  0.00    -0.013 C 
ATOM      9  C4' I4B d   1      -2.244  -0.126   1.390  0.00  0.00     0.013 C 
ATOM     10  C3' I4B d   1      -3.397   1.241   3.107  0.00  0.00     0.013 C 
ENDBRANCH   7   8
ENDBRANCH   1   7
TORSDOF 2
ENDMDL
