MODEL 1
REMARK minimizedAffinity 8.18827343
REMARK minimizedRMSD -1
REMARK  2 active torsions:
REMARK  status: ('A' for Active; 'I' for Inactive)
REMARK    1  A    between atoms: C2'_3  and  C1'_4 
REMARK    2  A    between atoms: C1'_4  and  C1_5 
ROOT
ATOM      1  C1  I4B d   1       1.993  -1.164   0.220  0.00  0.00    -0.075 A 
ATOM      2  C2  I4B d   1       0.769  -0.738  -0.235  0.00  0.00     0.003 A 
ATOM      3  C3  I4B d   1       0.460  -0.803  -1.615  0.00  0.00     0.002 A 
ATOM      4  C4  I4B d   1       1.415  -1.250  -2.505  0.00  0.00    -0.004 A 
ATOM      5  C5  I4B d   1       2.646  -1.703  -2.040  0.00  0.00     0.002 A 
ATOM      6  C6  I4B d   1       2.933  -1.671  -0.668  0.00  0.00     0.003 A 
ENDROOT
BRANCH   1   7
ATOM      7  C1' I4B d   1       2.298  -1.050   1.680  0.00  0.00     0.060 C 
BRANCH   7   8
ATOM      8  C2' I4B d   1       1.028  -0.632   2.392  0.00  0.00    -0.013 C 
ATOM      9  C4' I4B d   1       0.389  -1.798   3.098  0.00  0.00     0.013 C 
ATOM     10  C3' I4B d   1       1.377   0.461   3.357  0.00  0.00     0.013 C 
ENDBRANCH   7   8
ENDBRANCH   1   7
TORSDOF 2
ENDMDL
