MODEL 1
REMARK minimizedAffinity 8.02811527
REMARK minimizedRMSD -1
REMARK  2 active torsions:
REMARK  status: ('A' for Active; 'I' for Inactive)
REMARK    1  A    between atoms: C2'_3  and  C1'_4 
REMARK    2  A    between atoms: C1'_4  and  C1_5 
ROOT
ATOM      1  C1  I4B d   1      -1.829  -1.333   1.595  0.00  0.00    -0.075 A 
ATOM      2  C2  I4B d   1      -1.409  -2.623   1.810  0.00  0.00     0.003 A 
ATOM      3  C3  I4B d   1      -0.165  -2.872   2.438  0.00  0.00     0.002 A 
ATOM      4  C4  I4B d   1       0.645  -1.811   2.787  0.00  0.00    -0.004 A 
ATOM      5  C5  I4B d   1       0.208  -0.505   2.589  0.00  0.00     0.002 A 
ATOM      6  C6  I4B d   1      -1.042  -0.263   2.001  0.00  0.00     0.003 A 
ENDROOT
BRANCH   1   7
ATOM      7  C1' I4B d   1      -3.133  -1.106   0.899  0.00  0.00     0.060 C 
BRANCH   7   8
ATOM      8  C2' I4B d   1      -2.975  -1.541  -0.544  0.00  0.00    -0.013 C 
ATOM      9  C4' I4B d   1      -4.138  -1.081  -1.383  0.00  0.00     0.013 C 
ATOM     10  C3' I4B d   1      -1.682  -0.981  -1.057  0.00  0.00     0.013 C 
ENDBRANCH   7   8
ENDBRANCH   1   7
TORSDOF 2
ENDMDL
