MODEL 1
REMARK minimizedAffinity -2.00198627
REMARK minimizedRMSD -1
REMARK  2 active torsions:
REMARK  status: ('A' for Active; 'I' for Inactive)
REMARK    1  A    between atoms: C2'_3  and  C1'_4 
REMARK    2  A    between atoms: C1'_4  and  C1_5 
ROOT
ATOM      1  C1  I4B d   1       1.744  -0.746  -1.079  0.00  0.00    -0.075 A 
ATOM      2  C2  I4B d   1       2.895  -1.492  -1.039  0.00  0.00     0.003 A 
ATOM      3  C3  I4B d   1       3.069  -2.480  -0.039  0.00  0.00     0.002 A 
ATOM      4  C4  I4B d   1       2.095  -2.652   0.923  0.00  0.00    -0.004 A 
ATOM      5  C5  I4B d   1       0.919  -1.910   0.867  0.00  0.00     0.002 A 
ATOM      6  C6  I4B d   1       0.737  -0.959  -0.147  0.00  0.00     0.003 A 
ENDROOT
BRANCH   1   7
ATOM      7  C1' I4B d   1       1.607   0.312  -2.128  0.00  0.00     0.060 C 
BRANCH   7   8
ATOM      8  C2' I4B d   1       1.169   1.592  -1.446  0.00  0.00    -0.013 C 
ATOM      9  C4' I4B d   1       2.322   2.258  -0.742  0.00  0.00     0.013 C 
ATOM     10  C3' I4B d   1       0.578   2.493  -2.489  0.00  0.00     0.013 C 
ENDBRANCH   7   8
ENDBRANCH   1   7
TORSDOF 2
ENDMDL
