MODEL 1
REMARK minimizedAffinity 0.442125678
REMARK minimizedRMSD -1
REMARK  0 active torsions:
REMARK  status: ('A' for Active; 'I' for Inactive)
ROOT
ATOM      1  N1  IND d   1       2.062  -1.579  -1.193  0.00  0.00    -0.196 N 
ATOM      2  C2  IND d   1       2.939  -2.036  -0.250  0.00  0.00     0.054 A 
ATOM      3  C3  IND d   1       3.469  -1.001   0.440  0.00  0.00    -0.031 A 
ATOM      4  C4  IND d   1       2.962   1.517   0.256  0.00  0.00     0.051 A 
ATOM      5  C5  IND d   1       2.257   2.422  -0.486  0.00  0.00    -0.031 A 
ATOM      6  C6  IND d   1       1.432   2.032  -1.521  0.00  0.00     0.015 A 
ATOM      7  C7  IND d   1       1.272   0.715  -1.846  0.00  0.00    -0.016 A 
ATOM      8  C8  IND d   1       1.992  -0.207  -1.099  0.00  0.00    -0.047 A 
ATOM      9  C9  IND d   1       2.863   0.186  -0.076  0.00  0.00    -0.096 A 
ATOM     10  HN1 IND d   1       1.626  -2.067  -1.752  0.00  0.00     0.298 HD
ENDROOT
TORSDOF 0
ENDMDL
