MODEL 1
REMARK minimizedAffinity 8.98124599
REMARK minimizedRMSD -1
REMARK  0 active torsions:
REMARK  status: ('A' for Active; 'I' for Inactive)
ROOT
ATOM      1  N1  IND d   1       3.096   1.995  -0.509  0.00  0.00    -0.196 N 
ATOM      2  C2  IND d   1       2.885   2.202  -1.844  0.00  0.00     0.054 A 
ATOM      3  C3  IND d   1       2.219   1.155  -2.382  0.00  0.00    -0.031 A 
ATOM      4  C4  IND d   1       1.288  -0.954  -1.237  0.00  0.00     0.051 A 
ATOM      5  C5  IND d   1       1.264  -1.606  -0.036  0.00  0.00    -0.031 A 
ATOM      6  C6  IND d   1       1.858  -1.079   1.092  0.00  0.00     0.015 A 
ATOM      7  C7  IND d   1       2.493   0.131   1.064  0.00  0.00    -0.016 A 
ATOM      8  C8  IND d   1       2.526   0.792  -0.156  0.00  0.00    -0.047 A 
ATOM      9  C9  IND d   1       1.961   0.242  -1.314  0.00  0.00    -0.096 A 
ATOM     10  HN1 IND d   1       3.515   2.528   0.021  0.00  0.00     0.298 HD
ENDROOT
TORSDOF 0
ENDMDL
