MODEL 1
REMARK minimizedAffinity 2.94453049
REMARK minimizedRMSD -1
REMARK  0 active torsions:
REMARK  status: ('A' for Active; 'I' for Inactive)
ROOT
ATOM      1  N1  IND d   1       0.111   0.067   2.546  0.00  0.00    -0.196 N 
ATOM      2  C2  IND d   1      -0.633  -0.574   3.497  0.00  0.00     0.054 A 
ATOM      3  C3  IND d   1      -0.296  -1.882   3.555  0.00  0.00    -0.031 A 
ATOM      4  C4  IND d   1       1.519  -3.163   2.253  0.00  0.00     0.051 A 
ATOM      5  C5  IND d   1       2.432  -3.012   1.248  0.00  0.00    -0.031 A 
ATOM      6  C6  IND d   1       2.624  -1.802   0.613  0.00  0.00     0.015 A 
ATOM      7  C7  IND d   1       1.915  -0.690   0.969  0.00  0.00    -0.016 A 
ATOM      8  C8  IND d   1       0.982  -0.841   1.985  0.00  0.00    -0.047 A 
ATOM      9  C9  IND d   1       0.752  -2.077   2.604  0.00  0.00    -0.096 A 
ATOM     10  HN1 IND d   1       0.046   0.898   2.335  0.00  0.00     0.298 HD
ENDROOT
TORSDOF 0
ENDMDL
