MODEL 1
REMARK minimizedAffinity 2.08580637
REMARK minimizedRMSD -1
REMARK  0 active torsions:
REMARK  status: ('A' for Active; 'I' for Inactive)
ROOT
ATOM      1  N1  IND d   1       2.115  -1.834  -0.050  0.00  0.00    -0.196 N 
ATOM      2  C2  IND d   1       3.079  -2.466   0.684  0.00  0.00     0.054 A 
ATOM      3  C3  IND d   1       2.825  -2.336   2.006  0.00  0.00    -0.031 A 
ATOM      4  C4  IND d   1       0.831  -1.215   3.186  0.00  0.00     0.051 A 
ATOM      5  C5  IND d   1      -0.288  -0.470   2.937  0.00  0.00    -0.031 A 
ATOM      6  C6  IND d   1      -0.672  -0.137   1.654  0.00  0.00     0.015 A 
ATOM      7  C7  IND d   1       0.045  -0.548   0.567  0.00  0.00    -0.016 A 
ATOM      8  C8  IND d   1       1.185  -1.299   0.815  0.00  0.00    -0.047 A 
ATOM      9  C9  IND d   1       1.604  -1.604   2.117  0.00  0.00    -0.096 A 
ATOM     10  HN1 IND d   1       2.092  -1.779  -0.908  0.00  0.00     0.298 HD
ENDROOT
TORSDOF 0
ENDMDL
