MODEL 1
REMARK minimizedAffinity 10.9175291
REMARK minimizedRMSD -1
REMARK  0 active torsions:
REMARK  status: ('A' for Active; 'I' for Inactive)
ROOT
ATOM      1  N1  IND d   1       2.207  -1.821   0.809  0.00  0.00    -0.196 N 
ATOM      2  C2  IND d   1       1.944  -1.283  -0.419  0.00  0.00     0.054 A 
ATOM      3  C3  IND d   1       0.783  -0.590  -0.391  0.00  0.00    -0.031 A 
ATOM      4  C4  IND d   1      -0.795  -0.123   1.589  0.00  0.00     0.051 A 
ATOM      5  C5  IND d   1      -0.995  -0.436   2.904  0.00  0.00    -0.031 A 
ATOM      6  C6  IND d   1      -0.118  -1.240   3.603  0.00  0.00     0.015 A 
ATOM      7  C7  IND d   1       1.002  -1.755   3.014  0.00  0.00    -0.016 A 
ATOM      8  C8  IND d   1       1.204  -1.446   1.676  0.00  0.00    -0.047 A 
ATOM      9  C9  IND d   1       0.296  -0.665   0.950  0.00  0.00    -0.096 A 
ATOM     10  HN1 IND d   1       2.884  -2.312   1.008  0.00  0.00     0.298 HD
ENDROOT
TORSDOF 0
ENDMDL
