MODEL 1
REMARK minimizedAffinity 6.95692062
REMARK minimizedRMSD -1
REMARK  0 active torsions:
REMARK  status: ('A' for Active; 'I' for Inactive)
ROOT
ATOM      1  N1  IND d   1      -0.974  -0.528  -0.090  0.00  0.00    -0.196 N 
ATOM      2  C2  IND d   1      -0.283  -0.556  -1.269  0.00  0.00     0.054 A 
ATOM      3  C3  IND d   1       1.034  -0.753  -1.039  0.00  0.00    -0.031 A 
ATOM      4  C4  IND d   1       2.262  -1.157   1.188  0.00  0.00     0.051 A 
ATOM      5  C5  IND d   1       2.061  -1.185   2.539  0.00  0.00    -0.031 A 
ATOM      6  C6  IND d   1       0.812  -0.995   3.095  0.00  0.00     0.015 A 
ATOM      7  C7  IND d   1      -0.289  -0.779   2.315  0.00  0.00    -0.016 A 
ATOM      8  C8  IND d   1      -0.087  -0.743   0.942  0.00  0.00    -0.047 A 
ATOM      9  C9  IND d   1       1.185  -0.893   0.375  0.00  0.00    -0.096 A 
ATOM     10  HN1 IND d   1      -1.820  -0.398  -0.007  0.00  0.00     0.298 HD
ENDROOT
TORSDOF 0
ENDMDL
