MODEL 1
REMARK minimizedAffinity 1.41597474
REMARK minimizedRMSD -1
REMARK  0 active torsions:
REMARK  status: ('A' for Active; 'I' for Inactive)
ROOT
ATOM      1  N1  IND d   1       1.062  -1.455   2.872  0.00  0.00    -0.196 N 
ATOM      2  C2  IND d   1      -0.107  -0.758   3.004  0.00  0.00     0.054 A 
ATOM      3  C3  IND d   1      -0.549  -0.348   1.794  0.00  0.00    -0.031 A 
ATOM      4  C4  IND d   1       0.433  -0.795  -0.544  0.00  0.00     0.051 A 
ATOM      5  C5  IND d   1       1.512  -1.353  -1.170  0.00  0.00    -0.031 A 
ATOM      6  C6  IND d   1       2.515  -1.989  -0.467  0.00  0.00     0.015 A 
ATOM      7  C7  IND d   1       2.470  -2.101   0.893  0.00  0.00    -0.016 A 
ATOM      8  C8  IND d   1       1.380  -1.529   1.534  0.00  0.00    -0.047 A 
ATOM      9  C9  IND d   1       0.381  -0.845   0.829  0.00  0.00    -0.096 A 
ATOM     10  HN1 IND d   1       1.522  -1.791   3.517  0.00  0.00     0.298 HD
ENDROOT
TORSDOF 0
ENDMDL
