MODEL 1
REMARK minimizedAffinity 11.1931324
REMARK minimizedRMSD -1
REMARK  0 active torsions:
REMARK  status: ('A' for Active; 'I' for Inactive)
ROOT
ATOM      1  N1  IND d   1       0.448  -0.832  -0.172  0.00  0.00    -0.196 N 
ATOM      2  C2  IND d   1       1.633  -1.338  -0.631  0.00  0.00     0.054 A 
ATOM      3  C3  IND d   1       2.489  -1.538   0.396  0.00  0.00    -0.031 A 
ATOM      4  C4  IND d   1       2.120  -1.202   2.922  0.00  0.00     0.051 A 
ATOM      5  C5  IND d   1       1.211  -0.724   3.823  0.00  0.00    -0.031 A 
ATOM      6  C6  IND d   1      -0.025  -0.251   3.432  0.00  0.00     0.015 A 
ATOM      7  C7  IND d   1      -0.403  -0.248   2.119  0.00  0.00    -0.016 A 
ATOM      8  C8  IND d   1       0.520  -0.726   1.200  0.00  0.00    -0.047 A 
ATOM      9  C9  IND d   1       1.791  -1.169   1.587  0.00  0.00    -0.096 A 
ATOM     10  HN1 IND d   1      -0.227  -0.617  -0.658  0.00  0.00     0.298 HD
ENDROOT
TORSDOF 0
ENDMDL
