MODEL 1
REMARK minimizedAffinity 8.165061
REMARK minimizedRMSD -1
REMARK  0 active torsions:
REMARK  status: ('A' for Active; 'I' for Inactive)
ROOT
ATOM      1  N1  IND d   1       1.862  -2.074   0.440  0.00  0.00    -0.196 N 
ATOM      2  C2  IND d   1       2.980  -2.442   1.135  0.00  0.00     0.054 A 
ATOM      3  C3  IND d   1       2.876  -2.064   2.429  0.00  0.00    -0.031 A 
ATOM      4  C4  IND d   1       0.916  -0.920   3.645  0.00  0.00     0.051 A 
ATOM      5  C5  IND d   1      -0.308  -0.355   3.421  0.00  0.00    -0.031 A 
ATOM      6  C6  IND d   1      -0.885  -0.337   2.167  0.00  0.00     0.015 A 
ATOM      7  C7  IND d   1      -0.260  -0.895   1.088  0.00  0.00    -0.016 A 
ATOM      8  C8  IND d   1       0.986  -1.463   1.310  0.00  0.00    -0.047 A 
ATOM      9  C9  IND d   1       1.595  -1.447   2.572  0.00  0.00    -0.096 A 
ATOM     10  HN1 IND d   1       1.728  -2.203  -0.400  0.00  0.00     0.298 HD
ENDROOT
TORSDOF 0
ENDMDL
