MODEL 1
REMARK minimizedAffinity -3.42726731
REMARK minimizedRMSD -1
REMARK  0 active torsions:
REMARK  status: ('A' for Active; 'I' for Inactive)
ROOT
ATOM      1  C   UNL d   1      -2.484   3.278  -5.982  0.00  0.00     0.077 C 
ATOM      2  C1  UNL d   1      -3.463   2.142  -5.981  0.00  0.00    -0.074 A 
ATOM      3  C2  UNL d   1      -4.841   2.381  -5.991  0.00  0.00    -0.005 A 
ATOM      4  C3  UNL d   1      -5.740   1.314  -6.000  0.00  0.00     0.006 A 
ATOM      5  C4  UNL d   1      -5.270   0.000  -5.999  0.00  0.00    -0.005 A 
ATOM      6  C5  UNL d   1      -3.896  -0.258  -5.991  0.00  0.00    -0.074 A 
ATOM      7  C6  UNL d   1      -3.374  -1.664  -6.000  0.00  0.00     0.077 C 
ATOM      8  C7  UNL d   1      -2.999   0.819  -5.989  0.00  0.00    -0.001 A 
ENDROOT
TORSDOF 0
ENDMDL
