MODEL 1
REMARK minimizedAffinity 1.88841724
REMARK minimizedRMSD -1
REMARK  0 active torsions:
REMARK  status: ('A' for Active; 'I' for Inactive)
ROOT
ATOM      1  C   UNL d   1      -4.557  -3.733  -5.999  0.00  0.00     0.077 C 
ATOM      2  C1  UNL d   1      -4.627  -2.374  -5.368  0.00  0.00    -0.074 A 
ATOM      3  C2  UNL d   1      -5.369  -2.159  -4.203  0.00  0.00    -0.005 A 
ATOM      4  C3  UNL d   1      -5.417  -0.892  -3.622  0.00  0.00     0.006 A 
ATOM      5  C4  UNL d   1      -4.723   0.172  -4.200  0.00  0.00    -0.005 A 
ATOM      6  C5  UNL d   1      -3.975  -0.024  -5.365  0.00  0.00    -0.074 A 
ATOM      7  C6  UNL d   1      -3.215   1.107  -5.994  0.00  0.00     0.077 C 
ATOM      8  C7  UNL d   1      -3.926  -1.302  -5.939  0.00  0.00    -0.001 A 
ENDROOT
TORSDOF 0
ENDMDL
