MODEL 1
REMARK minimizedAffinity 0.249811038
REMARK minimizedRMSD -1
REMARK  0 active torsions:
REMARK  status: ('A' for Active; 'I' for Inactive)
ROOT
ATOM      1  C   UNL d   1      -5.189   4.142  -5.988  0.00  0.00     0.077 C 
ATOM      2  C1  UNL d   1      -4.447   2.839  -5.999  0.00  0.00    -0.074 A 
ATOM      3  C2  UNL d   1      -3.048   2.809  -5.999  0.00  0.00    -0.005 A 
ATOM      4  C3  UNL d   1      -2.371   1.589  -6.000  0.00  0.00     0.006 A 
ATOM      5  C4  UNL d   1      -3.085   0.390  -6.000  0.00  0.00    -0.005 A 
ATOM      6  C5  UNL d   1      -4.483   0.401  -5.999  0.00  0.00    -0.074 A 
ATOM      7  C6  UNL d   1      -5.265  -0.879  -5.989  0.00  0.00     0.077 C 
ATOM      8  C7  UNL d   1      -5.156   1.630  -5.991  0.00  0.00    -0.001 A 
ENDROOT
TORSDOF 0
ENDMDL
