MODEL 1
REMARK minimizedAffinity -3.02054834
REMARK minimizedRMSD -1
REMARK  0 active torsions:
REMARK  status: ('A' for Active; 'I' for Inactive)
ROOT
ATOM      1  C   UNL d   1      -6.000   4.234  -6.000  0.00  0.00     0.077 C 
ATOM      2  C1  UNL d   1      -4.961   3.154  -5.942  0.00  0.00    -0.074 A 
ATOM      3  C2  UNL d   1      -3.601   3.468  -5.854  0.00  0.00    -0.005 A 
ATOM      4  C3  UNL d   1      -2.648   2.452  -5.791  0.00  0.00     0.006 A 
ATOM      5  C4  UNL d   1      -3.043   1.114  -5.815  0.00  0.00    -0.005 A 
ATOM      6  C5  UNL d   1      -4.399   0.781  -5.901  0.00  0.00    -0.074 A 
ATOM      7  C6  UNL d   1      -4.842  -0.652  -5.917  0.00  0.00     0.077 C 
ATOM      8  C7  UNL d   1      -5.352   1.807  -5.957  0.00  0.00    -0.001 A 
ENDROOT
TORSDOF 0
ENDMDL
