MODEL 1
REMARK minimizedAffinity -2.20297456
REMARK minimizedRMSD -1
REMARK  0 active torsions:
REMARK  status: ('A' for Active; 'I' for Inactive)
ROOT
ATOM      1  C   UNL d   1      -2.418   3.390  -5.964  0.00  0.00     0.077 C 
ATOM      2  C1  UNL d   1      -3.412   2.268  -5.957  0.00  0.00    -0.074 A 
ATOM      3  C2  UNL d   1      -4.786   2.525  -5.998  0.00  0.00    -0.005 A 
ATOM      4  C3  UNL d   1      -5.699   1.471  -6.000  0.00  0.00     0.006 A 
ATOM      5  C4  UNL d   1      -5.248   0.151  -5.962  0.00  0.00    -0.005 A 
ATOM      6  C5  UNL d   1      -3.878  -0.126  -5.922  0.00  0.00    -0.074 A 
ATOM      7  C6  UNL d   1      -3.376  -1.539  -5.890  0.00  0.00     0.077 C 
ATOM      8  C7  UNL d   1      -2.967   0.939  -5.927  0.00  0.00    -0.001 A 
ENDROOT
TORSDOF 0
ENDMDL
