MODEL 1
REMARK minimizedAffinity -2.29104495
REMARK minimizedRMSD -1
REMARK  0 active torsions:
REMARK  status: ('A' for Active; 'I' for Inactive)
ROOT
ATOM      1  C   UNL d   1      -1.478   0.001  -5.983  0.00  0.00     0.077 C 
ATOM      2  C1  UNL d   1      -2.863   0.576  -5.996  0.00  0.00    -0.074 A 
ATOM      3  C2  UNL d   1      -3.987  -0.257  -5.997  0.00  0.00    -0.005 A 
ATOM      4  C3  UNL d   1      -5.269   0.293  -5.999  0.00  0.00     0.006 A 
ATOM      5  C4  UNL d   1      -5.440   1.678  -6.000  0.00  0.00    -0.005 A 
ATOM      6  C5  UNL d   1      -4.328   2.526  -5.997  0.00  0.00    -0.074 A 
ATOM      7  C6  UNL d   1      -4.494   4.016  -5.987  0.00  0.00     0.077 C 
ATOM      8  C7  UNL d   1      -3.043   1.966  -5.988  0.00  0.00    -0.001 A 
ENDROOT
TORSDOF 0
ENDMDL
