MODEL 1
REMARK minimizedAffinity -1.40006971
REMARK minimizedRMSD -1
REMARK  0 active torsions:
REMARK  status: ('A' for Active; 'I' for Inactive)
ROOT
ATOM      1  C   UNL d   1      -5.896   3.743  -5.978  0.00  0.00     0.077 C 
ATOM      2  C1  UNL d   1      -4.789   2.731  -5.991  0.00  0.00    -0.074 A 
ATOM      3  C2  UNL d   1      -3.449   3.131  -5.987  0.00  0.00    -0.005 A 
ATOM      4  C3  UNL d   1      -2.431   2.178  -5.990  0.00  0.00     0.006 A 
ATOM      5  C4  UNL d   1      -2.741   0.818  -5.996  0.00  0.00    -0.005 A 
ATOM      6  C5  UNL d   1      -4.076   0.399  -6.000  0.00  0.00    -0.074 A 
ATOM      7  C6  UNL d   1      -4.427  -1.059  -5.997  0.00  0.00     0.077 C 
ATOM      8  C7  UNL d   1      -5.093   1.363  -5.990  0.00  0.00    -0.001 A 
ENDROOT
TORSDOF 0
ENDMDL
