MODEL 1
REMARK minimizedAffinity -2.50219655
REMARK minimizedRMSD -1
REMARK  0 active torsions:
REMARK  status: ('A' for Active; 'I' for Inactive)
ROOT
ATOM      1  C   UNL d   1      -2.392   0.358  -5.992  0.00  0.00     0.077 C 
ATOM      2  C1  UNL d   1      -3.122   1.668  -6.000  0.00  0.00    -0.074 A 
ATOM      3  C2  UNL d   1      -4.520   1.713  -5.996  0.00  0.00    -0.005 A 
ATOM      4  C3  UNL d   1      -5.185   2.939  -5.994  0.00  0.00     0.006 A 
ATOM      5  C4  UNL d   1      -4.460   4.131  -5.996  0.00  0.00    -0.005 A 
ATOM      6  C5  UNL d   1      -3.062   4.107  -6.000  0.00  0.00    -0.074 A 
ATOM      7  C6  UNL d   1      -2.267   5.379  -5.993  0.00  0.00     0.077 C 
ATOM      8  C7  UNL d   1      -2.401   2.871  -5.995  0.00  0.00    -0.001 A 
ENDROOT
TORSDOF 0
ENDMDL
