MODEL 1
REMARK minimizedAffinity -1.96942604
REMARK minimizedRMSD -1
REMARK  0 active torsions:
REMARK  status: ('A' for Active; 'I' for Inactive)
ROOT
ATOM      1  C   UNL d   1      -5.115  -0.685  -6.000  0.00  0.00     0.077 C 
ATOM      2  C1  UNL d   1      -4.387   0.626  -5.992  0.00  0.00    -0.074 A 
ATOM      3  C2  UNL d   1      -2.989   0.671  -5.998  0.00  0.00    -0.005 A 
ATOM      4  C3  UNL d   1      -2.325   1.897  -6.000  0.00  0.00     0.006 A 
ATOM      5  C4  UNL d   1      -3.050   3.089  -5.997  0.00  0.00    -0.005 A 
ATOM      6  C5  UNL d   1      -4.449   3.064  -5.993  0.00  0.00    -0.074 A 
ATOM      7  C6  UNL d   1      -5.244   4.335  -5.999  0.00  0.00     0.077 C 
ATOM      8  C7  UNL d   1      -5.109   1.827  -5.997  0.00  0.00    -0.001 A 
ENDROOT
TORSDOF 0
ENDMDL
