MODEL 1
REMARK minimizedAffinity -2.23589277
REMARK minimizedRMSD -1
REMARK  0 active torsions:
REMARK  status: ('A' for Active; 'I' for Inactive)
ROOT
ATOM      1  C   UNL d   1      -5.966   5.050  -5.990  0.00  0.00     0.077 C 
ATOM      2  C1  UNL d   1      -4.943   3.952  -5.999  0.00  0.00    -0.074 A 
ATOM      3  C2  UNL d   1      -3.575   4.244  -5.995  0.00  0.00    -0.005 A 
ATOM      4  C3  UNL d   1      -2.636   3.213  -5.995  0.00  0.00     0.006 A 
ATOM      5  C4  UNL d   1      -3.055   1.882  -5.997  0.00  0.00    -0.005 A 
ATOM      6  C5  UNL d   1      -4.418   1.571  -6.000  0.00  0.00    -0.074 A 
ATOM      7  C6  UNL d   1      -4.885   0.145  -5.993  0.00  0.00     0.077 C 
ATOM      8  C7  UNL d   1      -5.356   2.613  -5.994  0.00  0.00    -0.001 A 
ENDROOT
TORSDOF 0
ENDMDL
