MODEL 1
REMARK minimizedAffinity -1.67780817
REMARK minimizedRMSD -1
REMARK  0 active torsions:
REMARK  status: ('A' for Active; 'I' for Inactive)
ROOT
ATOM      1  C   UNL d   1      -5.763   2.685  -5.925  0.00  0.00     0.077 C 
ATOM      2  C1  UNL d   1      -4.806   1.531  -5.957  0.00  0.00    -0.074 A 
ATOM      3  C2  UNL d   1      -3.424   1.744  -5.963  0.00  0.00    -0.005 A 
ATOM      4  C3  UNL d   1      -2.545   0.661  -5.984  0.00  0.00     0.006 A 
ATOM      5  C4  UNL d   1      -3.040  -0.644  -5.999  0.00  0.00    -0.005 A 
ATOM      6  C5  UNL d   1      -4.419  -0.876  -5.993  0.00  0.00    -0.074 A 
ATOM      7  C6  UNL d   1      -4.966  -2.273  -5.999  0.00  0.00     0.077 C 
ATOM      8  C7  UNL d   1      -5.295   0.217  -5.965  0.00  0.00    -0.001 A 
ENDROOT
TORSDOF 0
ENDMDL
