MODEL 1
REMARK minimizedAffinity -1.08665466
REMARK minimizedRMSD -1
REMARK  0 active torsions:
REMARK  status: ('A' for Active; 'I' for Inactive)
ROOT
ATOM      1  C   UNL d   1      -4.614   5.860  -5.893  0.00  0.00     0.077 C 
ATOM      2  C1  UNL d   1      -4.695   4.363  -5.920  0.00  0.00    -0.074 A 
ATOM      3  C2  UNL d   1      -5.932   3.710  -5.939  0.00  0.00    -0.005 A 
ATOM      4  C3  UNL d   1      -5.992   2.317  -5.974  0.00  0.00     0.006 A 
ATOM      5  C4  UNL d   1      -4.817   1.564  -5.990  0.00  0.00    -0.005 A 
ATOM      6  C5  UNL d   1      -3.571   2.199  -5.973  0.00  0.00    -0.074 A 
ATOM      7  C6  UNL d   1      -2.299   1.405  -6.000  0.00  0.00     0.077 C 
ATOM      8  C7  UNL d   1      -3.520   3.599  -5.945  0.00  0.00    -0.001 A 
ENDROOT
TORSDOF 0
ENDMDL
