MODEL 1
REMARK minimizedAffinity 0.375077158
REMARK minimizedRMSD -1
REMARK  0 active torsions:
REMARK  status: ('A' for Active; 'I' for Inactive)
ROOT
ATOM      1  C   UNL d   1      -1.139   1.606  -5.997  0.00  0.00     0.077 C 
ATOM      2  C1  UNL d   1      -2.598   1.259  -5.995  0.00  0.00    -0.074 A 
ATOM      3  C2  UNL d   1      -3.020  -0.074  -5.970  0.00  0.00    -0.005 A 
ATOM      4  C3  UNL d   1      -4.381  -0.381  -5.958  0.00  0.00     0.006 A 
ATOM      5  C4  UNL d   1      -5.332   0.640  -5.971  0.00  0.00    -0.005 A 
ATOM      6  C5  UNL d   1      -4.929   1.979  -5.995  0.00  0.00    -0.074 A 
ATOM      7  C6  UNL d   1      -5.938   3.089  -5.999  0.00  0.00     0.077 C 
ATOM      8  C7  UNL d   1      -3.560   2.280  -6.000  0.00  0.00    -0.001 A 
ENDROOT
TORSDOF 0
ENDMDL
