MODEL 1
REMARK minimizedAffinity -2.36896038
REMARK minimizedRMSD -1
REMARK  0 active torsions:
REMARK  status: ('A' for Active; 'I' for Inactive)
ROOT
ATOM      1  C   UNL d   1      -1.000   4.137  -5.994  0.00  0.00     0.077 C 
ATOM      2  C1  UNL d   1      -2.480   3.897  -5.989  0.00  0.00    -0.074 A 
ATOM      3  C2  UNL d   1      -3.382   4.966  -5.995  0.00  0.00    -0.005 A 
ATOM      4  C3  UNL d   1      -4.756   4.727  -6.000  0.00  0.00     0.006 A 
ATOM      5  C4  UNL d   1      -5.242   3.419  -5.998  0.00  0.00    -0.005 A 
ATOM      6  C5  UNL d   1      -4.356   2.337  -5.992  0.00  0.00    -0.074 A 
ATOM      7  C6  UNL d   1      -4.861   0.925  -6.000  0.00  0.00     0.077 C 
ATOM      8  C7  UNL d   1      -2.976   2.586  -5.995  0.00  0.00    -0.001 A 
ENDROOT
TORSDOF 0
ENDMDL
