MODEL 1
REMARK minimizedAffinity 0.271308333
REMARK minimizedRMSD -1
REMARK  0 active torsions:
REMARK  status: ('A' for Active; 'I' for Inactive)
ROOT
ATOM      1  C   UNL d   1      -3.224   0.063  -5.995  0.00  0.00     0.077 C 
ATOM      2  C1  UNL d   1      -3.940  -1.255  -5.981  0.00  0.00    -0.074 A 
ATOM      3  C2  UNL d   1      -5.337  -1.315  -5.985  0.00  0.00    -0.005 A 
ATOM      4  C3  UNL d   1      -5.988  -2.548  -5.982  0.00  0.00     0.006 A 
ATOM      5  C4  UNL d   1      -5.250  -3.732  -5.973  0.00  0.00    -0.005 A 
ATOM      6  C5  UNL d   1      -3.853  -3.692  -5.969  0.00  0.00    -0.074 A 
ATOM      7  C6  UNL d   1      -3.044  -4.956  -5.970  0.00  0.00     0.077 C 
ATOM      8  C7  UNL d   1      -3.205  -2.449  -5.980  0.00  0.00    -0.001 A 
ENDROOT
TORSDOF 0
ENDMDL
