MODEL 1
REMARK minimizedAffinity -0.019907089
REMARK minimizedRMSD -1
REMARK  0 active torsions:
REMARK  status: ('A' for Active; 'I' for Inactive)
ROOT
ATOM      1  C   UNL d   1      -1.957  -5.347  -5.836  0.00  0.00     0.077 C 
ATOM      2  C1  UNL d   1      -3.246  -4.583  -5.900  0.00  0.00    -0.074 A 
ATOM      3  C2  UNL d   1      -4.476  -5.249  -5.922  0.00  0.00    -0.005 A 
ATOM      4  C3  UNL d   1      -5.667  -4.525  -5.972  0.00  0.00     0.006 A 
ATOM      5  C4  UNL d   1      -5.641  -3.130  -6.000  0.00  0.00    -0.005 A 
ATOM      6  C5  UNL d   1      -4.421  -2.447  -5.977  0.00  0.00    -0.074 A 
ATOM      7  C6  UNL d   1      -4.375  -0.948  -5.997  0.00  0.00     0.077 C 
ATOM      8  C7  UNL d   1      -3.228  -3.181  -5.920  0.00  0.00    -0.001 A 
ENDROOT
TORSDOF 0
ENDMDL
