MODEL 1
REMARK minimizedAffinity 4.10546255
REMARK minimizedRMSD -1
REMARK  0 active torsions:
REMARK  status: ('A' for Active; 'I' for Inactive)
ROOT
ATOM      1  C   UNL d   1      -5.899  -0.188  -5.986  0.00  0.00     0.077 C 
ATOM      2  C1  UNL d   1      -5.237   1.158  -5.996  0.00  0.00    -0.074 A 
ATOM      3  C2  UNL d   1      -5.996   2.332  -5.992  0.00  0.00    -0.005 A 
ATOM      4  C3  UNL d   1      -5.367   3.577  -5.992  0.00  0.00     0.006 A 
ATOM      5  C4  UNL d   1      -3.974   3.660  -5.996  0.00  0.00    -0.005 A 
ATOM      6  C5  UNL d   1      -3.198   2.496  -5.999  0.00  0.00    -0.074 A 
ATOM      7  C6  UNL d   1      -1.700   2.567  -5.993  0.00  0.00     0.077 C 
ATOM      8  C7  UNL d   1      -3.838   1.249  -5.992  0.00  0.00    -0.001 A 
ENDROOT
TORSDOF 0
ENDMDL
