MODEL 1
REMARK minimizedAffinity 4.87589264
REMARK minimizedRMSD -1
REMARK  0 active torsions:
REMARK  status: ('A' for Active; 'I' for Inactive)
ROOT
ATOM      1  N1  IND d   1      -0.623   2.301  -1.303  0.00  0.00    -0.196 N 
ATOM      2  C2  IND d   1      -0.120   3.469  -1.804  0.00  0.00     0.054 A 
ATOM      3  C3  IND d   1       0.311   4.264  -0.799  0.00  0.00    -0.031 A 
ATOM      4  C4  IND d   1       0.382   3.807   1.734  0.00  0.00     0.051 A 
ATOM      5  C5  IND d   1      -0.001   2.892   2.674  0.00  0.00    -0.031 A 
ATOM      6  C6  IND d   1      -0.620   1.708   2.330  0.00  0.00     0.015 A 
ATOM      7  C7  IND d   1      -0.871   1.388   1.025  0.00  0.00    -0.016 A 
ATOM      8  C8  IND d   1      -0.491   2.318   0.068  0.00  0.00    -0.047 A 
ATOM      9  C9  IND d   1       0.100   3.540   0.415  0.00  0.00    -0.096 A 
ATOM     10  HN1 IND d   1      -0.965   1.662  -1.766  0.00  0.00     0.298 HD
ENDROOT
TORSDOF 0
ENDMDL
