MODEL 1
REMARK minimizedAffinity 2.63177156
REMARK minimizedRMSD -1
REMARK  0 active torsions:
REMARK  status: ('A' for Active; 'I' for Inactive)
ROOT
ATOM      1  N1  IND d   1      -1.564   1.636  -1.814  0.00  0.00    -0.196 N 
ATOM      2  C2  IND d   1      -1.606   2.335  -2.988  0.00  0.00     0.054 A 
ATOM      3  C3  IND d   1      -0.973   3.522  -2.852  0.00  0.00    -0.031 A 
ATOM      4  C4  IND d   1       0.290   4.478  -0.822  0.00  0.00     0.051 A 
ATOM      5  C5  IND d   1       0.571   4.221   0.490  0.00  0.00    -0.031 A 
ATOM      6  C6  IND d   1       0.148   3.065   1.114  0.00  0.00     0.015 A 
ATOM      7  C7  IND d   1      -0.565   2.113   0.442  0.00  0.00    -0.016 A 
ATOM      8  C8  IND d   1      -0.858   2.374  -0.890  0.00  0.00    -0.047 A 
ATOM      9  C9  IND d   1      -0.468   3.564  -1.516  0.00  0.00    -0.096 A 
ATOM     10  HN1 IND d   1      -1.920   0.865  -1.676  0.00  0.00     0.298 HD
ENDROOT
TORSDOF 0
ENDMDL
