MODEL 1
REMARK minimizedAffinity 6.77284765
REMARK minimizedRMSD -1
REMARK  0 active torsions:
REMARK  status: ('A' for Active; 'I' for Inactive)
ROOT
ATOM      1  N1  IND d   1      -0.563   3.833  -3.792  0.00  0.00    -0.196 N 
ATOM      2  C2  IND d   1      -1.810   3.272  -3.825  0.00  0.00     0.054 A 
ATOM      3  C3  IND d   1      -2.195   2.910  -2.581  0.00  0.00    -0.031 A 
ATOM      4  C4  IND d   1      -0.984   3.236  -0.333  0.00  0.00     0.051 A 
ATOM      5  C5  IND d   1       0.198   3.667   0.201  0.00  0.00    -0.031 A 
ATOM      6  C6  IND d   1       1.206   4.189  -0.584  0.00  0.00     0.015 A 
ATOM      7  C7  IND d   1       1.064   4.310  -1.938  0.00  0.00    -0.016 A 
ATOM      8  C8  IND d   1      -0.132   3.866  -2.484  0.00  0.00    -0.047 A 
ATOM      9  C9  IND d   1      -1.141   3.297  -1.698  0.00  0.00    -0.096 A 
ATOM     10  HN1 IND d   1      -0.123   4.117  -4.474  0.00  0.00     0.298 HD
ENDROOT
TORSDOF 0
ENDMDL
