MODEL 1
REMARK minimizedAffinity 3.05768633
REMARK minimizedRMSD -1
REMARK  0 active torsions:
REMARK  status: ('A' for Active; 'I' for Inactive)
ROOT
ATOM      1  N1  IND d   1      -1.571   2.331  -2.771  0.00  0.00    -0.196 N 
ATOM      2  C2  IND d   1      -2.083   1.232  -2.140  0.00  0.00     0.054 A 
ATOM      3  C3  IND d   1      -1.625   1.163  -0.869  0.00  0.00    -0.031 A 
ATOM      4  C4  IND d   1      -0.108   2.799   0.414  0.00  0.00     0.051 A 
ATOM      5  C5  IND d   1       0.641   3.930   0.247  0.00  0.00    -0.031 A 
ATOM      6  C6  IND d   1       0.689   4.601  -0.958  0.00  0.00     0.015 A 
ATOM      7  C7  IND d   1      -0.021   4.171  -2.043  0.00  0.00    -0.016 A 
ATOM      8  C8  IND d   1      -0.777   3.018  -1.879  0.00  0.00    -0.047 A 
ATOM      9  C9  IND d   1      -0.796   2.309  -0.671  0.00  0.00    -0.096 A 
ATOM     10  HN1 IND d   1      -1.719   2.555  -3.587  0.00  0.00     0.298 HD
ENDROOT
TORSDOF 0
ENDMDL
