MODEL 1
REMARK minimizedAffinity 11.8172169
REMARK minimizedRMSD -1
REMARK  0 active torsions:
REMARK  status: ('A' for Active; 'I' for Inactive)
ROOT
ATOM      1  N1  IND d   1      -0.114   1.897  -0.151  0.00  0.00    -0.196 N 
ATOM      2  C2  IND d   1      -0.913   1.669   0.935  0.00  0.00     0.054 A 
ATOM      3  C3  IND d   1      -1.381   2.838   1.428  0.00  0.00    -0.031 A 
ATOM      4  C4  IND d   1      -1.044   5.235   0.550  0.00  0.00     0.051 A 
ATOM      5  C5  IND d   1      -0.364   5.950  -0.395  0.00  0.00    -0.031 A 
ATOM      6  C6  IND d   1       0.449   5.339  -1.327  0.00  0.00     0.015 A 
ATOM      7  C7  IND d   1       0.603   3.981  -1.356  0.00  0.00    -0.016 A 
ATOM      8  C8  IND d   1      -0.081   3.252  -0.394  0.00  0.00    -0.047 A 
ATOM      9  C9  IND d   1      -0.874   3.871   0.581  0.00  0.00    -0.096 A 
ATOM     10  HN1 IND d   1       0.298   1.294  -0.605  0.00  0.00     0.298 HD
ENDROOT
TORSDOF 0
ENDMDL
