MODEL 1
REMARK minimizedAffinity 7.59848356
REMARK minimizedRMSD -1
REMARK  0 active torsions:
REMARK  status: ('A' for Active; 'I' for Inactive)
ROOT
ATOM      1  N1  IND d   1      -0.373   2.808  -2.703  0.00  0.00    -0.196 N 
ATOM      2  C2  IND d   1      -1.415   3.418  -3.345  0.00  0.00     0.054 A 
ATOM      3  C3  IND d   1      -1.884   4.448  -2.606  0.00  0.00    -0.031 A 
ATOM      4  C4  IND d   1      -1.026   5.376  -0.363  0.00  0.00     0.051 A 
ATOM      5  C5  IND d   1      -0.119   5.129   0.629  0.00  0.00    -0.031 A 
ATOM      6  C6  IND d   1       0.770   4.075   0.558  0.00  0.00     0.015 A 
ATOM      7  C7  IND d   1       0.792   3.233  -0.518  0.00  0.00    -0.016 A 
ATOM      8  C8  IND d   1      -0.133   3.477  -1.523  0.00  0.00    -0.047 A 
ATOM      9  C9  IND d   1      -1.065   4.519  -1.437  0.00  0.00    -0.096 A 
ATOM     10  HN1 IND d   1       0.060   2.122  -2.989  0.00  0.00     0.298 HD
ENDROOT
TORSDOF 0
ENDMDL
