MODEL 1
REMARK minimizedAffinity 10.4846506
REMARK minimizedRMSD -1
REMARK  0 active torsions:
REMARK  status: ('A' for Active; 'I' for Inactive)
ROOT
ATOM      1  N1  IND d   1      -1.461   5.758  -2.563  0.00  0.00    -0.196 N 
ATOM      2  C2  IND d   1      -1.507   4.890  -3.617  0.00  0.00     0.054 A 
ATOM      3  C3  IND d   1      -0.921   3.717  -3.286  0.00  0.00    -0.031 A 
ATOM      4  C4  IND d   1       0.087   2.969  -1.039  0.00  0.00     0.051 A 
ATOM      5  C5  IND d   1       0.392   3.429   0.211  0.00  0.00    -0.031 A 
ATOM      6  C6  IND d   1       0.086   4.714   0.610  0.00  0.00     0.015 A 
ATOM      7  C7  IND d   1      -0.549   5.587  -0.227  0.00  0.00    -0.016 A 
ATOM      8  C8  IND d   1      -0.854   5.126  -1.500  0.00  0.00    -0.047 A 
ATOM      9  C9  IND d   1      -0.508   3.837  -1.924  0.00  0.00    -0.096 A 
ATOM     10  HN1 IND d   1      -1.761   6.564  -2.563  0.00  0.00     0.298 HD
ENDROOT
TORSDOF 0
ENDMDL
