MODEL 1
REMARK minimizedAffinity 7.41670322
REMARK minimizedRMSD -1
REMARK  0 active torsions:
REMARK  status: ('A' for Active; 'I' for Inactive)
ROOT
ATOM      1  N1  IND d   1      -0.381   0.820   2.657  0.00  0.00    -0.196 N 
ATOM      2  C2  IND d   1      -1.560   1.501   2.539  0.00  0.00     0.054 A 
ATOM      3  C3  IND d   1      -2.587   0.744   2.985  0.00  0.00    -0.031 A 
ATOM      4  C4  IND d   1      -2.550  -1.603   4.044  0.00  0.00     0.051 A 
ATOM      5  C5  IND d   1      -1.710  -2.642   4.330  0.00  0.00    -0.031 A 
ATOM      6  C6  IND d   1      -0.356  -2.579   4.069  0.00  0.00     0.015 A 
ATOM      7  C7  IND d   1       0.212  -1.463   3.522  0.00  0.00    -0.016 A 
ATOM      8  C8  IND d   1      -0.639  -0.408   3.224  0.00  0.00    -0.047 A 
ATOM      9  C9  IND d   1      -2.020  -0.483   3.447  0.00  0.00    -0.096 A 
ATOM     10  HN1 IND d   1       0.392   1.111   2.417  0.00  0.00     0.298 HD
ENDROOT
TORSDOF 0
ENDMDL
