MODEL 1
REMARK minimizedAffinity 9.33455276
REMARK minimizedRMSD -1
REMARK  0 active torsions:
REMARK  status: ('A' for Active; 'I' for Inactive)
ROOT
ATOM      1  N1  IND d   1      -0.288   2.434   0.352  0.00  0.00    -0.196 N 
ATOM      2  C2  IND d   1       0.419   3.560   0.034  0.00  0.00     0.054 A 
ATOM      3  C3  IND d   1       0.089   3.989  -1.205  0.00  0.00    -0.031 A 
ATOM      4  C4  IND d   1      -1.658   3.054  -2.848  0.00  0.00     0.051 A 
ATOM      5  C5  IND d   1      -2.528   2.014  -3.018  0.00  0.00    -0.031 A 
ATOM      6  C6  IND d   1      -2.702   1.042  -2.053  0.00  0.00     0.015 A 
ATOM      7  C7  IND d   1      -2.016   1.081  -0.872  0.00  0.00    -0.016 A 
ATOM      8  C8  IND d   1      -1.127   2.132  -0.698  0.00  0.00    -0.047 A 
ATOM      9  C9  IND d   1      -0.915   3.097  -1.692  0.00  0.00    -0.096 A 
ATOM     10  HN1 IND d   1      -0.220   1.989   1.084  0.00  0.00     0.298 HD
ENDROOT
TORSDOF 0
ENDMDL
