MODEL 1
REMARK minimizedAffinity 12.5348024
REMARK minimizedRMSD -1
REMARK  0 active torsions:
REMARK  status: ('A' for Active; 'I' for Inactive)
ROOT
ATOM      1  N1  IND d   1      -0.135   4.690  -3.027  0.00  0.00    -0.196 N 
ATOM      2  C2  IND d   1      -0.931   3.722  -3.574  0.00  0.00     0.054 A 
ATOM      3  C3  IND d   1      -1.122   2.716  -2.691  0.00  0.00    -0.031 A 
ATOM      4  C4  IND d   1      -0.307   2.498  -0.259  0.00  0.00     0.051 A 
ATOM      5  C5  IND d   1       0.483   3.113   0.672  0.00  0.00    -0.031 A 
ATOM      6  C6  IND d   1       1.117   4.311   0.413  0.00  0.00     0.015 A 
ATOM      7  C7  IND d   1       0.976   4.946  -0.788  0.00  0.00    -0.016 A 
ATOM      8  C8  IND d   1       0.181   4.321  -1.738  0.00  0.00    -0.047 A 
ATOM      9  C9  IND d   1      -0.431   3.085  -1.496  0.00  0.00    -0.096 A 
ATOM     10  HN1 IND d   1       0.125   5.408  -3.423  0.00  0.00     0.298 HD
ENDROOT
TORSDOF 0
ENDMDL
