MODEL 1
REMARK minimizedAffinity 15.9739504
REMARK minimizedRMSD -1
REMARK  0 active torsions:
REMARK  status: ('A' for Active; 'I' for Inactive)
ROOT
ATOM      1  N1  IND d   1       0.131   2.145  -1.234  0.00  0.00    -0.196 N 
ATOM      2  C2  IND d   1      -0.161   1.688   0.021  0.00  0.00     0.054 A 
ATOM      3  C3  IND d   1       0.031   2.666   0.934  0.00  0.00    -0.031 A 
ATOM      4  C4  IND d   1       0.723   5.120   0.581  0.00  0.00     0.051 A 
ATOM      5  C5  IND d   1       1.132   5.996  -0.385  0.00  0.00    -0.031 A 
ATOM      6  C6  IND d   1       1.228   5.626  -1.711  0.00  0.00     0.015 A 
ATOM      7  C7  IND d   1       0.905   4.364  -2.123  0.00  0.00    -0.016 A 
ATOM      8  C8  IND d   1       0.496   3.470  -1.144  0.00  0.00    -0.047 A 
ATOM      9  C9  IND d   1       0.438   3.828   0.209  0.00  0.00    -0.096 A 
ATOM     10  HN1 IND d   1       0.093   1.683  -1.958  0.00  0.00     0.298 HD
ENDROOT
TORSDOF 0
ENDMDL
