MODEL 1
REMARK minimizedAffinity 12.6435976
REMARK minimizedRMSD -1
REMARK  0 active torsions:
REMARK  status: ('A' for Active; 'I' for Inactive)
ROOT
ATOM      1  N1  IND d   1       0.016   4.114  -3.779  0.00  0.00    -0.196 N 
ATOM      2  C2  IND d   1      -1.260   3.729  -4.082  0.00  0.00     0.054 A 
ATOM      3  C3  IND d   1      -1.919   3.362  -2.961  0.00  0.00    -0.031 A 
ATOM      4  C4  IND d   1      -1.133   3.412  -0.510  0.00  0.00     0.051 A 
ATOM      5  C5  IND d   1      -0.032   3.654   0.263  0.00  0.00    -0.031 A 
ATOM      6  C6  IND d   1       1.164   4.073  -0.282  0.00  0.00     0.015 A 
ATOM      7  C7  IND d   1       1.302   4.277  -1.626  0.00  0.00    -0.016 A 
ATOM      8  C8  IND d   1       0.188   4.025  -2.415  0.00  0.00    -0.047 A 
ATOM      9  C9  IND d   1      -1.016   3.559  -1.872  0.00  0.00    -0.096 A 
ATOM     10  HN1 IND d   1       0.612   4.369  -4.345  0.00  0.00     0.298 HD
ENDROOT
TORSDOF 0
ENDMDL
