MODEL 1
REMARK minimizedAffinity 9.65859985
REMARK minimizedRMSD -1
REMARK  0 active torsions:
REMARK  status: ('A' for Active; 'I' for Inactive)
ROOT
ATOM      1  N1  IND d   1      -1.663   0.554   3.522  0.00  0.00    -0.196 N 
ATOM      2  C2  IND d   1      -0.443   1.021   3.118  0.00  0.00     0.054 A 
ATOM      3  C3  IND d   1       0.457   0.013   3.079  0.00  0.00    -0.031 A 
ATOM      4  C4  IND d   1       0.123  -2.497   3.540  0.00  0.00     0.051 A 
ATOM      5  C5  IND d   1      -0.808  -3.398   3.976  0.00  0.00    -0.031 A 
ATOM      6  C6  IND d   1      -2.099  -3.020   4.287  0.00  0.00     0.015 A 
ATOM      7  C7  IND d   1      -2.511  -1.723   4.162  0.00  0.00    -0.016 A 
ATOM      8  C8  IND d   1      -1.566  -0.805   3.726  0.00  0.00    -0.047 A 
ATOM      9  C9  IND d   1      -0.244  -1.175   3.450  0.00  0.00    -0.096 A 
ATOM     10  HN1 IND d   1      -2.371   1.029   3.631  0.00  0.00     0.298 HD
ENDROOT
TORSDOF 0
ENDMDL
