MODEL 1
REMARK minimizedAffinity -0.343040735
REMARK minimizedRMSD -1
REMARK  0 active torsions:
REMARK  status: ('A' for Active; 'I' for Inactive)
ROOT
ATOM      1  N1  IND d   1      -5.045  -1.952   5.592  0.00  0.00    -0.196 N 
ATOM      2  C2  IND d   1      -5.997  -2.902   5.839  0.00  0.00     0.054 A 
ATOM      3  C3  IND d   1      -5.421  -4.114   6.000  0.00  0.00    -0.031 A 
ATOM      4  C4  IND d   1      -2.927  -4.754   6.000  0.00  0.00     0.051 A 
ATOM      5  C5  IND d   1      -1.682  -4.235   5.780  0.00  0.00    -0.031 A 
ATOM      6  C6  IND d   1      -1.491  -2.901   5.482  0.00  0.00     0.015 A 
ATOM      7  C7  IND d   1      -2.541  -2.030   5.405  0.00  0.00    -0.016 A 
ATOM      8  C8  IND d   1      -3.807  -2.555   5.621  0.00  0.00    -0.047 A 
ATOM      9  C9  IND d   1      -4.011  -3.916   5.881  0.00  0.00    -0.096 A 
ATOM     10  HN1 IND d   1      -5.195  -1.119   5.443  0.00  0.00     0.298 HD
ENDROOT
TORSDOF 0
ENDMDL
