MODEL 1
REMARK minimizedAffinity 8.12063217
REMARK minimizedRMSD -1
REMARK  0 active torsions:
REMARK  status: ('A' for Active; 'I' for Inactive)
ROOT
ATOM      1  N1  IND d   1       0.473   5.987   1.027  0.00  0.00    -0.196 N 
ATOM      2  C2  IND d   1      -0.369   5.999  -0.050  0.00  0.00     0.054 A 
ATOM      3  C3  IND d   1      -0.833   4.753  -0.297  0.00  0.00    -0.031 A 
ATOM      4  C4  IND d   1      -0.423   2.568   1.001  0.00  0.00     0.051 A 
ATOM      5  C5  IND d   1       0.304   2.050   2.036  0.00  0.00    -0.031 A 
ATOM      6  C6  IND d   1       1.139   2.834   2.805  0.00  0.00     0.015 A 
ATOM      7  C7  IND d   1       1.270   4.174   2.573  0.00  0.00    -0.016 A 
ATOM      8  C8  IND d   1       0.539   4.702   1.519  0.00  0.00    -0.047 A 
ATOM      9  C9  IND d   1      -0.278   3.903   0.708  0.00  0.00    -0.096 A 
ATOM     10  HN1 IND d   1       0.891   6.669   1.344  0.00  0.00     0.298 HD
ENDROOT
TORSDOF 0
ENDMDL
