MODEL 1
REMARK minimizedAffinity -5.19542694
REMARK minimizedRMSD -1
REMARK  2 active torsions:
REMARK  status: ('A' for Active; 'I' for Inactive)
REMARK    1  A    between atoms: C1_2  and  C2_3 
REMARK    2  A    between atoms: C2_3  and  C3_4 
ROOT
ATOM      1  C3  UNL d   1      -0.539  -0.159   0.313  0.00  0.00    -0.075 A 
ATOM      2  C4  UNL d   1       0.737  -0.417  -0.211  0.00  0.00     0.002 A 
ATOM      3  C5  UNL d   1       1.446  -1.553   0.179  0.00  0.00     0.002 A 
ATOM      4  C6  UNL d   1       0.895  -2.439   1.103  0.00  0.00    -0.004 A 
ATOM      5  C7  UNL d   1      -0.364  -2.184   1.642  0.00  0.00     0.002 A 
ATOM      6  C8  UNL d   1      -1.078  -1.050   1.250  0.00  0.00     0.002 A 
ENDROOT
BRANCH   1   7
ATOM      7  C2  UNL d   1      -1.324   1.053  -0.127  0.00  0.00     0.056 C 
BRANCH   7   8
ATOM      8  C1  UNL d   1      -1.304   1.294  -1.640  0.00  0.00     0.007 C 
ATOM      9  C   UNL d   1      -2.660   1.086  -2.299  0.00  0.00     0.009 C 
ENDBRANCH   7   8
ENDBRANCH   1   7
TORSDOF 2
ENDMDL
