MODEL 1
REMARK minimizedAffinity -6.40754986
REMARK minimizedRMSD -1
REMARK  2 active torsions:
REMARK  status: ('A' for Active; 'I' for Inactive)
REMARK    1  A    between atoms: C1_2  and  C2_3 
REMARK    2  A    between atoms: C2_3  and  C3_4 
ROOT
ATOM      1  C3  UNL d   1       0.690  -1.377   0.782  0.00  0.00    -0.075 A 
ATOM      2  C4  UNL d   1      -0.516  -0.922   1.336  0.00  0.00     0.002 A 
ATOM      3  C5  UNL d   1      -0.972  -1.428   2.553  0.00  0.00     0.002 A 
ATOM      4  C6  UNL d   1      -0.236  -2.400   3.227  0.00  0.00    -0.004 A 
ATOM      5  C7  UNL d   1       0.955  -2.871   2.678  0.00  0.00     0.002 A 
ATOM      6  C8  UNL d   1       1.416  -2.363   1.462  0.00  0.00     0.002 A 
ENDROOT
BRANCH   1   7
ATOM      7  C2  UNL d   1       1.203  -0.811  -0.520  0.00  0.00     0.056 C 
BRANCH   7   8
ATOM      8  C1  UNL d   1       1.443   0.702  -0.492  0.00  0.00     0.007 C 
ATOM      9  C   UNL d   1       0.155   1.514  -0.532  0.00  0.00     0.009 C 
ENDBRANCH   7   8
ENDBRANCH   1   7
TORSDOF 2
ENDMDL
