MODEL 1
REMARK minimizedAffinity -5.4344492
REMARK minimizedRMSD -1
REMARK  2 active torsions:
REMARK  status: ('A' for Active; 'I' for Inactive)
REMARK    1  A    between atoms: C1_2  and  C2_3 
REMARK    2  A    between atoms: C2_3  and  C3_4 
ROOT
ATOM      1  C3  UNL d   1       0.113  -1.965   1.280  0.00  0.00    -0.075 A 
ATOM      2  C4  UNL d   1       1.196  -2.815   1.551  0.00  0.00     0.002 A 
ATOM      3  C5  UNL d   1       1.258  -3.523   2.751  0.00  0.00     0.002 A 
ATOM      4  C6  UNL d   1       0.246  -3.384   3.698  0.00  0.00    -0.004 A 
ATOM      5  C7  UNL d   1      -0.826  -2.530   3.447  0.00  0.00     0.002 A 
ATOM      6  C8  UNL d   1      -0.892  -1.824   2.245  0.00  0.00     0.002 A 
ENDROOT
BRANCH   1   7
ATOM      7  C2  UNL d   1       0.026  -1.219  -0.030  0.00  0.00     0.056 C 
BRANCH   7   8
ATOM      8  C1  UNL d   1       0.330   0.279   0.085  0.00  0.00     0.007 C 
ATOM      9  C   UNL d   1       1.742   0.640  -0.355  0.00  0.00     0.009 C 
ENDBRANCH   7   8
ENDBRANCH   1   7
TORSDOF 2
ENDMDL
