MODEL 1
REMARK minimizedAffinity -5.37041616
REMARK minimizedRMSD -1
REMARK  2 active torsions:
REMARK  status: ('A' for Active; 'I' for Inactive)
REMARK    1  A    between atoms: C1_2  and  C2_3 
REMARK    2  A    between atoms: C2_3  and  C3_4 
ROOT
ATOM      1  C3  UNL d   1       0.424  -1.481   0.870  0.00  0.00    -0.075 A 
ATOM      2  C4  UNL d   1       1.798  -1.757   0.877  0.00  0.00     0.002 A 
ATOM      3  C5  UNL d   1       2.688  -0.942   0.176  0.00  0.00     0.002 A 
ATOM      4  C6  UNL d   1       2.215   0.150  -0.547  0.00  0.00    -0.004 A 
ATOM      5  C7  UNL d   1       0.849   0.424  -0.575  0.00  0.00     0.002 A 
ATOM      6  C8  UNL d   1      -0.043  -0.387   0.129  0.00  0.00     0.002 A 
ENDROOT
BRANCH   1   7
ATOM      7  C2  UNL d   1      -0.541  -2.341   1.651  0.00  0.00     0.056 C 
BRANCH   7   8
ATOM      8  C1  UNL d   1      -0.965  -1.741   2.995  0.00  0.00     0.007 C 
ATOM      9  C   UNL d   1      -2.277  -0.971   2.921  0.00  0.00     0.009 C 
ENDBRANCH   7   8
ENDBRANCH   1   7
TORSDOF 2
ENDMDL
