MODEL 1
REMARK minimizedAffinity -3.92423081
REMARK minimizedRMSD -1
REMARK  2 active torsions:
REMARK  status: ('A' for Active; 'I' for Inactive)
REMARK    1  A    between atoms: C1_2  and  C2_3 
REMARK    2  A    between atoms: C2_3  and  C3_4 
ROOT
ATOM      1  C3  UNL d   1      -0.061   0.294  -0.571  0.00  0.00    -0.075 A 
ATOM      2  C4  UNL d   1      -0.433  -1.028  -0.857  0.00  0.00     0.002 A 
ATOM      3  C5  UNL d   1       0.492  -2.065  -0.739  0.00  0.00     0.002 A 
ATOM      4  C6  UNL d   1       1.801  -1.794  -0.347  0.00  0.00    -0.004 A 
ATOM      5  C7  UNL d   1       2.186  -0.483  -0.077  0.00  0.00     0.002 A 
ATOM      6  C8  UNL d   1       1.261   0.556  -0.189  0.00  0.00     0.002 A 
ENDROOT
BRANCH   1   7
ATOM      7  C2  UNL d   1      -1.066   1.417  -0.667  0.00  0.00     0.056 C 
BRANCH   7   8
ATOM      8  C1  UNL d   1      -1.192   2.022  -2.070  0.00  0.00     0.007 C 
ATOM      9  C   UNL d   1      -2.338   1.428  -2.879  0.00  0.00     0.009 C 
ENDBRANCH   7   8
ENDBRANCH   1   7
TORSDOF 2
ENDMDL
