MODEL 1
REMARK minimizedAffinity -3.4040339
REMARK minimizedRMSD -1
REMARK  2 active torsions:
REMARK  status: ('A' for Active; 'I' for Inactive)
REMARK    1  A    between atoms: C1_2  and  C2_3 
REMARK    2  A    between atoms: C2_3  and  C3_4 
ROOT
ATOM      1  C3  UNL d   1      -0.855   0.423  -1.209  0.00  0.00    -0.075 A 
ATOM      2  C4  UNL d   1      -1.014   1.814  -1.122  0.00  0.00     0.002 A 
ATOM      3  C5  UNL d   1      -1.854   2.487  -2.010  0.00  0.00     0.002 A 
ATOM      4  C6  UNL d   1      -2.535   1.782  -3.000  0.00  0.00    -0.004 A 
ATOM      5  C7  UNL d   1      -2.371   0.403  -3.106  0.00  0.00     0.002 A 
ATOM      6  C8  UNL d   1      -1.535  -0.274  -2.216  0.00  0.00     0.002 A 
ENDROOT
BRANCH   1   7
ATOM      7  C2  UNL d   1       0.030  -0.315  -0.233  0.00  0.00     0.056 C 
BRANCH   7   8
ATOM      8  C1  UNL d   1       1.520  -0.273  -0.586  0.00  0.00     0.007 C 
ATOM      9  C   UNL d   1       2.250  -1.571  -0.268  0.00  0.00     0.009 C 
ENDBRANCH   7   8
ENDBRANCH   1   7
TORSDOF 2
ENDMDL
