MODEL 1
REMARK minimizedAffinity -0.976041973
REMARK minimizedRMSD -1
REMARK  2 active torsions:
REMARK  status: ('A' for Active; 'I' for Inactive)
REMARK    1  A    between atoms: C1_2  and  C2_3 
REMARK    2  A    between atoms: C2_3  and  C3_4 
ROOT
ATOM      1  C3  UNL d   1       0.645  -0.598   0.530  0.00  0.00    -0.075 A 
ATOM      2  C4  UNL d   1      -0.260  -0.775   1.586  0.00  0.00     0.002 A 
ATOM      3  C5  UNL d   1       0.045  -1.633   2.644  0.00  0.00     0.002 A 
ATOM      4  C6  UNL d   1       1.251  -2.330   2.654  0.00  0.00    -0.004 A 
ATOM      5  C7  UNL d   1       2.150  -2.175   1.601  0.00  0.00     0.002 A 
ATOM      6  C8  UNL d   1       1.850  -1.314   0.544  0.00  0.00     0.002 A 
ENDROOT
BRANCH   1   7
ATOM      7  C2  UNL d   1       0.334   0.351  -0.603  0.00  0.00     0.056 C 
BRANCH   7   8
ATOM      8  C1  UNL d   1      -1.067   0.968  -0.533  0.00  0.00     0.007 C 
ATOM      9  C   UNL d   1      -1.598   1.407  -1.891  0.00  0.00     0.009 C 
ENDBRANCH   7   8
ENDBRANCH   1   7
TORSDOF 2
ENDMDL
