MODEL 1
REMARK minimizedAffinity -4.204638
REMARK minimizedRMSD -1
REMARK  2 active torsions:
REMARK  status: ('A' for Active; 'I' for Inactive)
REMARK    1  A    between atoms: C1_2  and  C2_3 
REMARK    2  A    between atoms: C2_3  and  C3_4 
ROOT
ATOM      1  C3  UNL d   1       0.096   0.182   0.331  0.00  0.00    -0.075 A 
ATOM      2  C4  UNL d   1      -0.383  -0.212   1.589  0.00  0.00     0.002 A 
ATOM      3  C5  UNL d   1       0.357  -1.084   2.387  0.00  0.00     0.002 A 
ATOM      4  C6  UNL d   1       1.578  -1.580   1.936  0.00  0.00    -0.004 A 
ATOM      5  C7  UNL d   1       2.056  -1.209   0.681  0.00  0.00     0.002 A 
ATOM      6  C8  UNL d   1       1.319  -0.333  -0.119  0.00  0.00     0.002 A 
ENDROOT
BRANCH   1   7
ATOM      7  C2  UNL d   1      -0.686   1.149  -0.526  0.00  0.00     0.056 C 
BRANCH   7   8
ATOM      8  C1  UNL d   1      -0.876   0.687  -1.974  0.00  0.00     0.007 C 
ATOM      9  C   UNL d   1      -1.815   1.581  -2.772  0.00  0.00     0.009 C 
ENDBRANCH   7   8
ENDBRANCH   1   7
TORSDOF 2
ENDMDL
