MODEL 1
REMARK minimizedAffinity -4.5470624
REMARK minimizedRMSD -1
REMARK  2 active torsions:
REMARK  status: ('A' for Active; 'I' for Inactive)
REMARK    1  A    between atoms: C1_2  and  C2_3 
REMARK    2  A    between atoms: C2_3  and  C3_4 
ROOT
ATOM      1  C3  UNL d   1       0.002   0.215   0.012  0.00  0.00    -0.075 A 
ATOM      2  C4  UNL d   1      -0.013  -0.455   1.244  0.00  0.00     0.002 A 
ATOM      3  C5  UNL d   1       1.008  -1.345   1.579  0.00  0.00     0.002 A 
ATOM      4  C6  UNL d   1       2.049  -1.583   0.684  0.00  0.00    -0.004 A 
ATOM      5  C7  UNL d   1       2.066  -0.936  -0.549  0.00  0.00     0.002 A 
ATOM      6  C8  UNL d   1       1.047  -0.042  -0.885  0.00  0.00     0.002 A 
ENDROOT
BRANCH   1   7
ATOM      7  C2  UNL d   1      -1.085   1.201  -0.344  0.00  0.00     0.056 C 
BRANCH   7   8
ATOM      8  C1  UNL d   1      -2.072   0.688  -1.397  0.00  0.00     0.007 C 
ATOM      9  C   UNL d   1      -2.198   1.611  -2.602  0.00  0.00     0.009 C 
ENDBRANCH   7   8
ENDBRANCH   1   7
TORSDOF 2
ENDMDL
