MODEL 1
REMARK minimizedAffinity -4.40614367
REMARK minimizedRMSD -1
REMARK  2 active torsions:
REMARK  status: ('A' for Active; 'I' for Inactive)
REMARK    1  A    between atoms: C1_2  and  C2_3 
REMARK    2  A    between atoms: C2_3  and  C3_4 
ROOT
ATOM      1  C3  UNL d   1       0.845  -1.334   1.145  0.00  0.00    -0.075 A 
ATOM      2  C4  UNL d   1       2.026  -1.283   0.389  0.00  0.00     0.002 A 
ATOM      3  C5  UNL d   1       2.109  -0.466  -0.739  0.00  0.00     0.002 A 
ATOM      4  C6  UNL d   1       1.014   0.300  -1.130  0.00  0.00    -0.004 A 
ATOM      5  C7  UNL d   1      -0.169   0.245  -0.396  0.00  0.00     0.002 A 
ATOM      6  C8  UNL d   1      -0.254  -0.568   0.735  0.00  0.00     0.002 A 
ENDROOT
BRANCH   1   7
ATOM      7  C2  UNL d   1       0.758  -2.193   2.384  0.00  0.00     0.056 C 
BRANCH   7   8
ATOM      8  C1  UNL d   1      -0.348  -1.773   3.358  0.00  0.00     0.007 C 
ATOM      9  C   UNL d   1       0.178  -1.395   4.736  0.00  0.00     0.009 C 
ENDBRANCH   7   8
ENDBRANCH   1   7
TORSDOF 2
ENDMDL
