MODEL 1
REMARK minimizedAffinity -2.52242374
REMARK minimizedRMSD -1
REMARK  2 active torsions:
REMARK  status: ('A' for Active; 'I' for Inactive)
REMARK    1  A    between atoms: C1_2  and  C2_3 
REMARK    2  A    between atoms: C2_3  and  C3_4 
ROOT
ATOM      1  C3  UNL d   1      -0.148   0.127   0.168  0.00  0.00    -0.075 A 
ATOM      2  C4  UNL d   1       1.028  -0.517  -0.243  0.00  0.00     0.002 A 
ATOM      3  C5  UNL d   1       1.553  -1.575   0.501  0.00  0.00     0.002 A 
ATOM      4  C6  UNL d   1       0.917  -1.994   1.667  0.00  0.00    -0.004 A 
ATOM      5  C7  UNL d   1      -0.243  -1.350   2.093  0.00  0.00     0.002 A 
ATOM      6  C8  UNL d   1      -0.773  -0.295   1.349  0.00  0.00     0.002 A 
ENDROOT
BRANCH   1   7
ATOM      7  C2  UNL d   1      -0.737   1.253  -0.647  0.00  0.00     0.056 C 
BRANCH   7   8
ATOM      8  C1  UNL d   1      -1.867   0.818  -1.586  0.00  0.00     0.007 C 
ATOM      9  C   UNL d   1      -2.026   1.728  -2.796  0.00  0.00     0.009 C 
ENDBRANCH   7   8
ENDBRANCH   1   7
TORSDOF 2
ENDMDL
