MODEL 1
REMARK minimizedAffinity -3.38284922
REMARK minimizedRMSD -1
REMARK  0 active torsions:
REMARK  status: ('A' for Active; 'I' for Inactive)
ROOT
ATOM      1  C1  BNZ d   1      -5.723  -1.152  -5.104  0.00  0.00     0.000 A 
ATOM      2  C2  BNZ d   1      -4.688  -1.208  -6.000  0.00  0.00     0.000 A 
ATOM      3  C3  BNZ d   1      -3.816  -2.260  -5.998  0.00  0.00     0.000 A 
ATOM      4  C4  BNZ d   1      -3.955  -3.235  -5.076  0.00  0.00     0.000 A 
ATOM      5  C5  BNZ d   1      -4.988  -3.188  -4.160  0.00  0.00     0.000 A 
ATOM      6  C6  BNZ d   1      -5.887  -2.147  -4.190  0.00  0.00     0.000 A 
ENDROOT
TORSDOF 0
ENDMDL
