MODEL 1
REMARK minimizedAffinity -2.64911771
REMARK minimizedRMSD -1
REMARK  0 active torsions:
REMARK  status: ('A' for Active; 'I' for Inactive)
ROOT
ATOM      1  C1  BNZ d   1      -4.503  -5.100  -5.984  0.00  0.00     0.000 A 
ATOM      2  C2  BNZ d   1      -5.749  -4.532  -5.978  0.00  0.00     0.000 A 
ATOM      3  C3  BNZ d   1      -5.999  -3.401  -5.251  0.00  0.00     0.000 A 
ATOM      4  C4  BNZ d   1      -5.015  -2.865  -4.500  0.00  0.00     0.000 A 
ATOM      5  C5  BNZ d   1      -3.757  -3.432  -4.488  0.00  0.00     0.000 A 
ATOM      6  C6  BNZ d   1      -3.498  -4.547  -5.252  0.00  0.00     0.000 A 
ENDROOT
TORSDOF 0
ENDMDL
