MODEL 1
REMARK minimizedAffinity -1.84371293
REMARK minimizedRMSD -1
REMARK  0 active torsions:
REMARK  status: ('A' for Active; 'I' for Inactive)
ROOT
ATOM      1  C1  BNZ d   1      -3.642  -5.173  -4.906  0.00  0.00     0.000 A 
ATOM      2  C2  BNZ d   1      -4.007  -4.422  -3.821  0.00  0.00     0.000 A 
ATOM      3  C3  BNZ d   1      -5.193  -3.741  -3.808  0.00  0.00     0.000 A 
ATOM      4  C4  BNZ d   1      -5.991  -3.781  -4.895  0.00  0.00     0.000 A 
ATOM      5  C5  BNZ d   1      -5.632  -4.526  -6.000  0.00  0.00     0.000 A 
ATOM      6  C6  BNZ d   1      -4.456  -5.241  -5.994  0.00  0.00     0.000 A 
ENDROOT
TORSDOF 0
ENDMDL
