MODEL 1
REMARK minimizedAffinity -2.63572264
REMARK minimizedRMSD -1
REMARK  0 active torsions:
REMARK  status: ('A' for Active; 'I' for Inactive)
ROOT
ATOM      1  C1  BNZ d   1      -2.550  -4.911  -6.000  0.00  0.00     0.000 A 
ATOM      2  C2  BNZ d   1      -3.080  -3.649  -6.000  0.00  0.00     0.000 A 
ATOM      3  C3  BNZ d   1      -4.434  -3.458  -5.975  0.00  0.00     0.000 A 
ATOM      4  C4  BNZ d   1      -5.254  -4.528  -5.990  0.00  0.00     0.000 A 
ATOM      5  C5  BNZ d   1      -4.735  -5.808  -5.999  0.00  0.00     0.000 A 
ATOM      6  C6  BNZ d   1      -3.372  -5.996  -5.985  0.00  0.00     0.000 A 
ENDROOT
TORSDOF 0
ENDMDL
