MODEL 1
REMARK minimizedAffinity 0.94299221
REMARK minimizedRMSD -1
REMARK  0 active torsions:
REMARK  status: ('A' for Active; 'I' for Inactive)
ROOT
ATOM      1  C1  BNZ d   1      -0.553  -1.878   1.159  0.00  0.00     0.000 A 
ATOM      2  C2  BNZ d   1      -1.640  -2.679   0.933  0.00  0.00     0.000 A 
ATOM      3  C3  BNZ d   1      -2.711  -2.220   0.218  0.00  0.00     0.000 A 
ATOM      4  C4  BNZ d   1      -2.711  -0.950  -0.235  0.00  0.00     0.000 A 
ATOM      5  C5  BNZ d   1      -1.626  -0.127  -0.006  0.00  0.00     0.000 A 
ATOM      6  C6  BNZ d   1      -0.534  -0.605   0.680  0.00  0.00     0.000 A 
ENDROOT
TORSDOF 0
ENDMDL
