MODEL 1
REMARK minimizedAffinity -1.57969463
REMARK minimizedRMSD -1
REMARK  0 active torsions:
REMARK  status: ('A' for Active; 'I' for Inactive)
ROOT
ATOM      1  C1  BNZ d   1      -4.874  -4.556  -6.000  0.00  0.00     0.000 A 
ATOM      2  C2  BNZ d   1      -3.713  -4.487  -5.277  0.00  0.00     0.000 A 
ATOM      3  C3  BNZ d   1      -3.668  -3.817  -4.087  0.00  0.00     0.000 A 
ATOM      4  C4  BNZ d   1      -4.772  -3.184  -3.640  0.00  0.00     0.000 A 
ATOM      5  C5  BNZ d   1      -5.948  -3.236  -4.362  0.00  0.00     0.000 A 
ATOM      6  C6  BNZ d   1      -6.000  -3.944  -5.540  0.00  0.00     0.000 A 
ENDROOT
TORSDOF 0
ENDMDL
