MODEL 1
REMARK minimizedAffinity -2.28892303
REMARK minimizedRMSD -1
REMARK  0 active torsions:
REMARK  status: ('A' for Active; 'I' for Inactive)
ROOT
ATOM      1  C1  BNZ d   1      -2.319  -4.815  -5.716  0.00  0.00     0.000 A 
ATOM      2  C2  BNZ d   1      -3.028  -3.646  -5.642  0.00  0.00     0.000 A 
ATOM      3  C3  BNZ d   1      -4.393  -3.648  -5.721  0.00  0.00     0.000 A 
ATOM      4  C4  BNZ d   1      -5.044  -4.813  -5.913  0.00  0.00     0.000 A 
ATOM      5  C5  BNZ d   1      -4.343  -6.000  -5.999  0.00  0.00     0.000 A 
ATOM      6  C6  BNZ d   1      -2.972  -5.998  -5.881  0.00  0.00     0.000 A 
ENDROOT
TORSDOF 0
ENDMDL
