MODEL 1
REMARK minimizedAffinity -2.75147414
REMARK minimizedRMSD -1
REMARK  0 active torsions:
REMARK  status: ('A' for Active; 'I' for Inactive)
ROOT
ATOM      1  C1  BNZ d   1      -4.823  -4.127  -4.809  0.00  0.00     0.000 A 
ATOM      2  C2  BNZ d   1      -4.897  -5.041  -5.825  0.00  0.00     0.000 A 
ATOM      3  C3  BNZ d   1      -3.914  -5.975  -6.000  0.00  0.00     0.000 A 
ATOM      4  C4  BNZ d   1      -2.840  -5.967  -5.185  0.00  0.00     0.000 A 
ATOM      5  C5  BNZ d   1      -2.746  -5.045  -4.161  0.00  0.00     0.000 A 
ATOM      6  C6  BNZ d   1      -3.756  -4.132  -3.964  0.00  0.00     0.000 A 
ENDROOT
TORSDOF 0
ENDMDL
