MODEL 1
REMARK minimizedAffinity -1.70642781
REMARK minimizedRMSD -1
REMARK  0 active torsions:
REMARK  status: ('A' for Active; 'I' for Inactive)
ROOT
ATOM      1  C1  BNZ d   1      -3.868  -5.961  -5.684  0.00  0.00     0.000 A 
ATOM      2  C2  BNZ d   1      -5.200  -5.998  -6.000  0.00  0.00     0.000 A 
ATOM      3  C3  BNZ d   1      -5.996  -4.904  -5.804  0.00  0.00     0.000 A 
ATOM      4  C4  BNZ d   1      -5.469  -3.790  -5.258  0.00  0.00     0.000 A 
ATOM      5  C5  BNZ d   1      -4.130  -3.740  -4.926  0.00  0.00     0.000 A 
ATOM      6  C6  BNZ d   1      -3.323  -4.830  -5.160  0.00  0.00     0.000 A 
ENDROOT
TORSDOF 0
ENDMDL
