MODEL 1
REMARK minimizedAffinity 2.26898766
REMARK minimizedRMSD -1
REMARK  0 active torsions:
REMARK  status: ('A' for Active; 'I' for Inactive)
ROOT
ATOM      1  C1  BNZ d   1      -5.366  -3.647  -3.668  0.00  0.00     0.000 A 
ATOM      2  C2  BNZ d   1      -4.036  -3.319  -3.686  0.00  0.00     0.000 A 
ATOM      3  C3  BNZ d   1      -3.331  -3.321  -4.856  0.00  0.00     0.000 A 
ATOM      4  C4  BNZ d   1      -3.944  -3.688  -6.000  0.00  0.00     0.000 A 
ATOM      5  C5  BNZ d   1      -5.281  -4.030  -5.997  0.00  0.00     0.000 A 
ATOM      6  C6  BNZ d   1      -5.998  -3.990  -4.823  0.00  0.00     0.000 A 
ENDROOT
TORSDOF 0
ENDMDL
