MODEL 1
REMARK minimizedAffinity -1.79762852
REMARK minimizedRMSD -1
REMARK  0 active torsions:
REMARK  status: ('A' for Active; 'I' for Inactive)
ROOT
ATOM      1  C1  BNZ d   1      -0.899  -5.999  -4.801  0.00  0.00     0.000 A 
ATOM      2  C2  BNZ d   1      -1.499  -5.630  -5.975  0.00  0.00     0.000 A 
ATOM      3  C3  BNZ d   1      -2.806  -5.231  -5.999  0.00  0.00     0.000 A 
ATOM      4  C4  BNZ d   1      -3.523  -5.240  -4.856  0.00  0.00     0.000 A 
ATOM      5  C5  BNZ d   1      -2.935  -5.618  -3.666  0.00  0.00     0.000 A 
ATOM      6  C6  BNZ d   1      -1.608  -5.982  -3.639  0.00  0.00     0.000 A 
ENDROOT
TORSDOF 0
ENDMDL
