MODEL 1
REMARK minimizedAffinity -2.36970592
REMARK minimizedRMSD -1
REMARK  0 active torsions:
REMARK  status: ('A' for Active; 'I' for Inactive)
ROOT
ATOM      1  C1  BNZ d   1      -4.877  -5.997  -6.000  0.00  0.00     0.000 A 
ATOM      2  C2  BNZ d   1      -5.577  -4.828  -5.862  0.00  0.00     0.000 A 
ATOM      3  C3  BNZ d   1      -4.930  -3.652  -5.605  0.00  0.00     0.000 A 
ATOM      4  C4  BNZ d   1      -3.591  -3.652  -5.447  0.00  0.00     0.000 A 
ATOM      5  C5  BNZ d   1      -2.872  -4.824  -5.573  0.00  0.00     0.000 A 
ATOM      6  C6  BNZ d   1      -3.522  -6.000  -5.871  0.00  0.00     0.000 A 
ENDROOT
TORSDOF 0
ENDMDL
