MODEL 1
REMARK minimizedAffinity -1.28565788
REMARK minimizedRMSD -1
REMARK  0 active torsions:
REMARK  status: ('A' for Active; 'I' for Inactive)
ROOT
ATOM      1  C1  BNZ d   1      -5.905  -1.822  -3.514  0.00  0.00     0.000 A 
ATOM      2  C2  BNZ d   1      -5.853  -3.182  -3.666  0.00  0.00     0.000 A 
ATOM      3  C3  BNZ d   1      -5.847  -3.748  -4.910  0.00  0.00     0.000 A 
ATOM      4  C4  BNZ d   1      -5.932  -2.956  -5.999  0.00  0.00     0.000 A 
ATOM      5  C5  BNZ d   1      -5.994  -1.584  -5.862  0.00  0.00     0.000 A 
ATOM      6  C6  BNZ d   1      -5.961  -1.016  -4.609  0.00  0.00     0.000 A 
ENDROOT
TORSDOF 0
ENDMDL
