MODEL 1
REMARK minimizedAffinity -2.55454326
REMARK minimizedRMSD -1
REMARK  0 active torsions:
REMARK  status: ('A' for Active; 'I' for Inactive)
ROOT
ATOM      1  C1  BNZ d   1      -3.283  -4.577  -5.698  0.00  0.00     0.000 A 
ATOM      2  C2  BNZ d   1      -4.131  -3.553  -5.374  0.00  0.00     0.000 A 
ATOM      3  C3  BNZ d   1      -5.483  -3.749  -5.336  0.00  0.00     0.000 A 
ATOM      4  C4  BNZ d   1      -5.987  -4.957  -5.661  0.00  0.00     0.000 A 
ATOM      5  C5  BNZ d   1      -5.145  -5.998  -6.000  0.00  0.00     0.000 A 
ATOM      6  C6  BNZ d   1      -3.782  -5.807  -5.999  0.00  0.00     0.000 A 
ENDROOT
TORSDOF 0
ENDMDL
