MODEL 1
REMARK minimizedAffinity -2.67990899
REMARK minimizedRMSD -1
REMARK  0 active torsions:
REMARK  status: ('A' for Active; 'I' for Inactive)
ROOT
ATOM      1  C1  BNZ d   1      -4.711  -3.845  -4.510  0.00  0.00     0.000 A 
ATOM      2  C2  BNZ d   1      -3.405  -4.258  -4.516  0.00  0.00     0.000 A 
ATOM      3  C3  BNZ d   1      -3.010  -5.322  -5.277  0.00  0.00     0.000 A 
ATOM      4  C4  BNZ d   1      -3.927  -5.997  -6.000  0.00  0.00     0.000 A 
ATOM      5  C5  BNZ d   1      -5.249  -5.599  -5.997  0.00  0.00     0.000 A 
ATOM      6  C6  BNZ d   1      -5.636  -4.504  -5.260  0.00  0.00     0.000 A 
ENDROOT
TORSDOF 0
ENDMDL
