MODEL 1
REMARK minimizedAffinity -3.00199032
REMARK minimizedRMSD -1
REMARK  0 active torsions:
REMARK  status: ('A' for Active; 'I' for Inactive)
ROOT
ATOM      1  C1  BNZ d   1      -3.164  -5.999  -6.000  0.00  0.00     0.000 A 
ATOM      2  C2  BNZ d   1      -4.256  -5.244  -5.666  0.00  0.00     0.000 A 
ATOM      3  C3  BNZ d   1      -4.257  -4.476  -4.535  0.00  0.00     0.000 A 
ATOM      4  C4  BNZ d   1      -3.183  -4.496  -3.719  0.00  0.00     0.000 A 
ATOM      5  C5  BNZ d   1      -2.077  -5.259  -4.038  0.00  0.00     0.000 A 
ATOM      6  C6  BNZ d   1      -2.065  -6.000  -5.197  0.00  0.00     0.000 A 
ENDROOT
TORSDOF 0
ENDMDL
