MODEL 1
REMARK minimizedAffinity -3.62433457
REMARK minimizedRMSD -1
REMARK  2 active torsions:
REMARK  status: ('A' for Active; 'I' for Inactive)
REMARK    1  A    between atoms: C2'_3  and  C1'_4 
REMARK    2  A    between atoms: C1'_4  and  C1_5 
ROOT
ATOM      1  C1  I4B d   1      -0.178   0.218  -0.222  0.00  0.00    -0.075 A 
ATOM      2  C2  I4B d   1      -0.045  -1.077  -0.657  0.00  0.00     0.003 A 
ATOM      3  C3  I4B d   1       1.029  -1.877  -0.197  0.00  0.00     0.002 A 
ATOM      4  C4  I4B d   1       1.968  -1.330   0.652  0.00  0.00    -0.004 A 
ATOM      5  C5  I4B d   1       1.819  -0.024   1.111  0.00  0.00     0.002 A 
ATOM      6  C6  I4B d   1       0.733   0.751   0.681  0.00  0.00     0.003 A 
ENDROOT
BRANCH   1   7
ATOM      7  C1' I4B d   1      -1.306   1.045  -0.753  0.00  0.00     0.060 C 
BRANCH   7   8
ATOM      8  C2' I4B d   1      -2.596   0.503  -0.173  0.00  0.00    -0.013 C 
ATOM      9  C4' I4B d   1      -3.272   1.524   0.703  0.00  0.00     0.013 C 
ATOM     10  C3' I4B d   1      -3.482   0.098  -1.314  0.00  0.00     0.013 C 
ENDBRANCH   7   8
ENDBRANCH   1   7
TORSDOF 2
ENDMDL
