MODEL 1
REMARK minimizedAffinity -4.92905807
REMARK minimizedRMSD -1
REMARK  2 active torsions:
REMARK  status: ('A' for Active; 'I' for Inactive)
REMARK    1  A    between atoms: C2'_3  and  C1'_4 
REMARK    2  A    between atoms: C1'_4  and  C1_5 
ROOT
ATOM      1  C1  I4B d   1      -0.016   0.340  -0.079  0.00  0.00    -0.075 A 
ATOM      2  C2  I4B d   1      -0.111  -0.852  -0.753  0.00  0.00     0.003 A 
ATOM      3  C3  I4B d   1       0.865  -1.859  -0.560  0.00  0.00     0.002 A 
ATOM      4  C4  I4B d   1       1.939  -1.615   0.271  0.00  0.00    -0.004 A 
ATOM      5  C5  I4B d   1       2.021  -0.415   0.972  0.00  0.00     0.002 A 
ATOM      6  C6  I4B d   1       1.031   0.564   0.806  0.00  0.00     0.003 A 
ENDROOT
BRANCH   1   7
ATOM      7  C1' I4B d   1      -1.047   1.395  -0.331  0.00  0.00     0.060 C 
BRANCH   7   8
ATOM      8  C2' I4B d   1      -2.345   0.941   0.305  0.00  0.00    -0.013 C 
ATOM      9  C4' I4B d   1      -2.704   1.804   1.486  0.00  0.00     0.013 C 
ATOM     10  C3' I4B d   1      -3.415   0.985  -0.744  0.00  0.00     0.013 C 
ENDBRANCH   7   8
ENDBRANCH   1   7
TORSDOF 2
ENDMDL
