MODEL 1
REMARK minimizedAffinity -5.04665089
REMARK minimizedRMSD -1
REMARK  2 active torsions:
REMARK  status: ('A' for Active; 'I' for Inactive)
REMARK    1  A    between atoms: C2'_3  and  C1'_4 
REMARK    2  A    between atoms: C1'_4  and  C1_5 
ROOT
ATOM      1  C1  I4B d   1      -0.017   0.161  -0.166  0.00  0.00    -0.075 A 
ATOM      2  C2  I4B d   1       1.084   0.614   0.517  0.00  0.00     0.003 A 
ATOM      3  C3  I4B d   1       2.182  -0.249   0.753  0.00  0.00     0.002 A 
ATOM      4  C4  I4B d   1       2.115  -1.563   0.335  0.00  0.00    -0.004 A 
ATOM      5  C5  I4B d   1       1.008  -2.014  -0.377  0.00  0.00     0.002 A 
ATOM      6  C6  I4B d   1      -0.060  -1.144  -0.640  0.00  0.00     0.003 A 
ENDROOT
BRANCH   1   7
ATOM      7  C1' I4B d   1      -1.172   1.090  -0.369  0.00  0.00     0.060 C 
BRANCH   7   8
ATOM      8  C2' I4B d   1      -2.325   0.592   0.478  0.00  0.00    -0.013 C 
ATOM      9  C4' I4B d   1      -2.592   1.519   1.635  0.00  0.00     0.013 C 
ATOM     10  C3' I4B d   1      -3.530   0.469  -0.407  0.00  0.00     0.013 C 
ENDBRANCH   7   8
ENDBRANCH   1   7
TORSDOF 2
ENDMDL
