MODEL 1
REMARK minimizedAffinity -3.81287646
REMARK minimizedRMSD -1
REMARK  2 active torsions:
REMARK  status: ('A' for Active; 'I' for Inactive)
REMARK    1  A    between atoms: C2'_3  and  C1'_4 
REMARK    2  A    between atoms: C1'_4  and  C1_5 
ROOT
ATOM      1  C1  I4B d   1      -1.295   0.433   0.186  0.00  0.00    -0.075 A 
ATOM      2  C2  I4B d   1      -2.232   1.104  -0.560  0.00  0.00     0.003 A 
ATOM      3  C3  I4B d   1      -3.567   1.208  -0.101  0.00  0.00     0.002 A 
ATOM      4  C4  I4B d   1      -3.932   0.587   1.076  0.00  0.00    -0.004 A 
ATOM      5  C5  I4B d   1      -2.975  -0.073   1.843  0.00  0.00     0.002 A 
ATOM      6  C6  I4B d   1      -1.646  -0.140   1.402  0.00  0.00     0.003 A 
ENDROOT
BRANCH   1   7
ATOM      7  C1' I4B d   1       0.099   0.315  -0.344  0.00  0.00     0.060 C 
BRANCH   7   8
ATOM      8  C2' I4B d   1       0.541  -1.125  -0.178  0.00  0.00    -0.013 C 
ATOM      9  C4' I4B d   1      -0.144  -2.024  -1.173  0.00  0.00     0.013 C 
ATOM     10  C3' I4B d   1       2.031  -1.173  -0.340  0.00  0.00     0.013 C 
ENDBRANCH   7   8
ENDBRANCH   1   7
TORSDOF 2
ENDMDL
