MODEL 1
REMARK minimizedAffinity -6.24385023
REMARK minimizedRMSD -1
REMARK  2 active torsions:
REMARK  status: ('A' for Active; 'I' for Inactive)
REMARK    1  A    between atoms: C2'_3  and  C1'_4 
REMARK    2  A    between atoms: C1'_4  and  C1_5 
ROOT
ATOM      1  C1  I4B d   1       1.379  -0.005   0.604  0.00  0.00    -0.075 A 
ATOM      2  C2  I4B d   1       1.737   1.294   0.342  0.00  0.00     0.003 A 
ATOM      3  C3  I4B d   1       3.094   1.626   0.113  0.00  0.00     0.002 A 
ATOM      4  C4  I4B d   1       4.059   0.645   0.204  0.00  0.00    -0.004 A 
ATOM      5  C5  I4B d   1       3.692  -0.676   0.448  0.00  0.00     0.002 A 
ATOM      6  C6  I4B d   1       2.342  -1.005   0.637  0.00  0.00     0.003 A 
ENDROOT
BRANCH   1   7
ATOM      7  C1' I4B d   1      -0.059  -0.316   0.874  0.00  0.00     0.060 C 
BRANCH   7   8
ATOM      8  C2' I4B d   1      -0.834  -0.094  -0.409  0.00  0.00    -0.013 C 
ATOM      9  C4' I4B d   1      -0.857  -1.340  -1.255  0.00  0.00     0.013 C 
ATOM     10  C3' I4B d   1      -2.222   0.339  -0.043  0.00  0.00     0.013 C 
ENDBRANCH   7   8
ENDBRANCH   1   7
TORSDOF 2
ENDMDL
