MODEL 1
REMARK minimizedAffinity -0.924716949
REMARK minimizedRMSD -1
REMARK  1 active torsions:
REMARK  status: ('A' for Active; 'I' for Inactive)
REMARK    1  A    between atoms: C3_4  and  O_7 
ROOT
ATOM      1  C   UNL d   1       2.764  -1.457  -4.234  0.00  0.00    -0.033 A 
ATOM      2  C1  UNL d   1       2.503  -2.221  -5.373  0.00  0.00     0.039 A 
ATOM      3  C2  UNL d   1       3.484  -3.073  -5.884  0.00  0.00    -0.080 A 
ATOM      4  C3  UNL d   1       4.719  -3.153  -5.247  0.00  0.00     0.150 A 
ATOM      5  C4  UNL d   1       4.984  -2.398  -4.109  0.00  0.00    -0.007 A 
ATOM      6  C5  UNL d   1       4.004  -1.547  -3.601  0.00  0.00     0.039 A 
ENDROOT
BRANCH   4   7
ATOM      7  O   UNL d   1       5.709  -3.968  -5.711  0.00  0.00    -0.526 OA
ATOM      8  H5  UNL d   1       5.394  -4.406  -6.519  0.00  0.00     0.418 HD
ENDBRANCH   4   7
TORSDOF 1
ENDMDL
