MODEL 1
REMARK minimizedAffinity -0.966561973
REMARK minimizedRMSD -1
REMARK  1 active torsions:
REMARK  status: ('A' for Active; 'I' for Inactive)
REMARK    1  A    between atoms: C3_4  and  O_7 
ROOT
ATOM      1  C   UNL d   1      -5.341  -5.942   0.868  0.00  0.00    -0.033 A 
ATOM      2  C1  UNL d   1      -4.130  -5.975   0.175  0.00  0.00     0.039 A 
ATOM      3  C2  UNL d   1      -2.922  -5.996   0.876  0.00  0.00    -0.080 A 
ATOM      4  C3  UNL d   1      -2.940  -5.985   2.268  0.00  0.00     0.150 A 
ATOM      5  C4  UNL d   1      -4.143  -5.956   2.965  0.00  0.00    -0.007 A 
ATOM      6  C5  UNL d   1      -5.348  -5.934   2.264  0.00  0.00     0.039 A 
ENDROOT
BRANCH   4   7
ATOM      7  O   UNL d   1      -1.787  -6.000   2.995  0.00  0.00    -0.526 OA
ATOM      8  H5  UNL d   1      -1.035  -5.990   2.380  0.00  0.00     0.418 HD
ENDBRANCH   4   7
TORSDOF 1
ENDMDL
