MODEL 1
REMARK minimizedAffinity 13.6185026
REMARK minimizedRMSD -1
REMARK  1 active torsions:
REMARK  status: ('A' for Active; 'I' for Inactive)
REMARK    1  A    between atoms: C3_4  and  O_7 
ROOT
ATOM      1  C   UNL d   1       3.735  -2.112  -1.515  0.00  0.00    -0.033 A 
ATOM      2  C1  UNL d   1       2.914  -1.739  -0.450  0.00  0.00     0.039 A 
ATOM      3  C2  UNL d   1       3.381  -1.836   0.863  0.00  0.00    -0.080 A 
ATOM      4  C3  UNL d   1       4.670  -2.307   1.095  0.00  0.00     0.150 A 
ATOM      5  C4  UNL d   1       5.496  -2.678   0.039  0.00  0.00    -0.007 A 
ATOM      6  C5  UNL d   1       5.027  -2.581  -1.271  0.00  0.00     0.039 A 
ENDROOT
BRANCH   4   7
ATOM      7  O   UNL d   1       5.169  -2.424   2.359  0.00  0.00    -0.526 OA
ATOM      8  H5  UNL d   1       4.477  -2.160   2.988  0.00  0.00     0.418 HD
ENDBRANCH   4   7
TORSDOF 1
ENDMDL
