MODEL 1
REMARK minimizedAffinity 3.54231572
REMARK minimizedRMSD -1
REMARK  1 active torsions:
REMARK  status: ('A' for Active; 'I' for Inactive)
REMARK    1  A    between atoms: C3_4  and  O_7 
ROOT
ATOM      1  C   UNL d   1      -4.075  -2.231   1.548  0.00  0.00    -0.033 A 
ATOM      2  C1  UNL d   1      -5.450  -2.193   1.788  0.00  0.00     0.039 A 
ATOM      3  C2  UNL d   1      -5.940  -1.632   2.969  0.00  0.00    -0.080 A 
ATOM      4  C3  UNL d   1      -5.045  -1.112   3.900  0.00  0.00     0.150 A 
ATOM      5  C4  UNL d   1      -3.674  -1.143   3.666  0.00  0.00    -0.007 A 
ATOM      6  C5  UNL d   1      -3.187  -1.705   2.487  0.00  0.00     0.039 A 
ENDROOT
BRANCH   4   7
ATOM      7  O   UNL d   1      -5.475  -0.559   5.070  0.00  0.00    -0.526 OA
ATOM      8  H5  UNL d   1      -6.443  -0.633   5.107  0.00  0.00     0.418 HD
ENDBRANCH   4   7
TORSDOF 1
ENDMDL
