MODEL 1
REMARK minimizedAffinity 2.69745708
REMARK minimizedRMSD -1
REMARK  1 active torsions:
REMARK  status: ('A' for Active; 'I' for Inactive)
REMARK    1  A    between atoms: C3_4  and  O_7 
ROOT
ATOM      1  C   UNL d   1      -1.885  -2.351   2.371  0.00  0.00    -0.033 A 
ATOM      2  C1  UNL d   1      -2.186  -3.353   1.447  0.00  0.00     0.039 A 
ATOM      3  C2  UNL d   1      -1.367  -4.480   1.345  0.00  0.00    -0.080 A 
ATOM      4  C3  UNL d   1      -0.254  -4.593   2.172  0.00  0.00     0.150 A 
ATOM      5  C4  UNL d   1       0.050  -3.600   3.098  0.00  0.00    -0.007 A 
ATOM      6  C5  UNL d   1      -0.768  -2.475   3.198  0.00  0.00     0.039 A 
ENDROOT
BRANCH   4   7
ATOM      7  O   UNL d   1       0.577  -5.671   2.106  0.00  0.00    -0.526 OA
ATOM      8  H5  UNL d   1       0.260  -6.261   1.402  0.00  0.00     0.418 HD
ENDBRANCH   4   7
TORSDOF 1
ENDMDL
