MODEL 1
REMARK minimizedAffinity -0.324247003
REMARK minimizedRMSD -1
REMARK  1 active torsions:
REMARK  status: ('A' for Active; 'I' for Inactive)
REMARK    1  A    between atoms: C3_4  and  O_7 
ROOT
ATOM      1  C   UNL d   1       5.837  -0.736   5.951  0.00  0.00    -0.033 A 
ATOM      2  C1  UNL d   1       5.296  -2.018   5.824  0.00  0.00     0.039 A 
ATOM      3  C2  UNL d   1       4.909  -2.493   4.570  0.00  0.00    -0.080 A 
ATOM      4  C3  UNL d   1       5.068  -1.680   3.452  0.00  0.00     0.150 A 
ATOM      5  C4  UNL d   1       5.609  -0.404   3.570  0.00  0.00    -0.007 A 
ATOM      6  C5  UNL d   1       5.994   0.070   4.823  0.00  0.00     0.039 A 
ENDROOT
BRANCH   4   7
ATOM      7  O   UNL d   1       4.700  -2.099   2.208  0.00  0.00    -0.526 OA
ATOM      8  H5  UNL d   1       4.315  -2.988   2.284  0.00  0.00     0.418 HD
ENDBRANCH   4   7
TORSDOF 1
ENDMDL
