MODEL 1
REMARK minimizedAffinity 6.87638235
REMARK minimizedRMSD -1
REMARK  1 active torsions:
REMARK  status: ('A' for Active; 'I' for Inactive)
REMARK    1  A    between atoms: C3_4  and  O_7 
ROOT
ATOM      1  C   UNL d   1      -0.388  -4.704   2.794  0.00  0.00    -0.033 A 
ATOM      2  C1  UNL d   1       0.937  -4.266   2.768  0.00  0.00     0.039 A 
ATOM      3  C2  UNL d   1       1.834  -4.693   3.749  0.00  0.00    -0.080 A 
ATOM      4  C3  UNL d   1       1.394  -5.557   4.748  0.00  0.00     0.150 A 
ATOM      5  C4  UNL d   1       0.076  -6.000   4.778  0.00  0.00    -0.007 A 
ATOM      6  C5  UNL d   1      -0.819  -5.571   3.798  0.00  0.00     0.039 A 
ENDROOT
BRANCH   4   7
ATOM      7  O   UNL d   1       2.232  -5.997   5.729  0.00  0.00    -0.526 OA
ATOM      8  H5  UNL d   1       3.103  -5.587   5.598  0.00  0.00     0.418 HD
ENDBRANCH   4   7
TORSDOF 1
ENDMDL
