MODEL 1
REMARK minimizedAffinity 2.58631253
REMARK minimizedRMSD -1
REMARK  1 active torsions:
REMARK  status: ('A' for Active; 'I' for Inactive)
REMARK    1  A    between atoms: C3_4  and  O_7 
ROOT
ATOM      1  C   UNL d   1      -0.380  -0.708  -0.616  0.00  0.00    -0.033 A 
ATOM      2  C1  UNL d   1       0.297  -1.129  -1.763  0.00  0.00     0.039 A 
ATOM      3  C2  UNL d   1      -0.333  -1.976  -2.676  0.00  0.00    -0.080 A 
ATOM      4  C3  UNL d   1      -1.638  -2.394  -2.432  0.00  0.00     0.150 A 
ATOM      5  C4  UNL d   1      -2.320  -1.976  -1.294  0.00  0.00    -0.007 A 
ATOM      6  C5  UNL d   1      -1.689  -1.130  -0.383  0.00  0.00     0.039 A 
ENDROOT
BRANCH   4   7
ATOM      7  O   UNL d   1      -2.292  -3.225  -3.293  0.00  0.00    -0.526 OA
ATOM      8  H5  UNL d   1      -1.688  -3.455  -4.018  0.00  0.00     0.418 HD
ENDBRANCH   4   7
TORSDOF 1
ENDMDL
