MODEL 1
REMARK minimizedAffinity 1.6495105
REMARK minimizedRMSD -1
REMARK  1 active torsions:
REMARK  status: ('A' for Active; 'I' for Inactive)
REMARK    1  A    between atoms: C3_4  and  O_7 
ROOT
ATOM      1  C   UNL d   1      -2.436  -2.314  -1.622  0.00  0.00    -0.033 A 
ATOM      2  C1  UNL d   1      -2.354  -1.102  -2.309  0.00  0.00     0.039 A 
ATOM      3  C2  UNL d   1      -1.465  -0.113  -1.881  0.00  0.00    -0.080 A 
ATOM      4  C3  UNL d   1      -0.665  -0.350  -0.766  0.00  0.00     0.150 A 
ATOM      5  C4  UNL d   1      -0.739  -1.557  -0.080  0.00  0.00    -0.007 A 
ATOM      6  C5  UNL d   1      -1.627  -2.543  -0.508  0.00  0.00     0.039 A 
ENDROOT
BRANCH   4   7
ATOM      7  O   UNL d   1       0.213   0.586  -0.308  0.00  0.00    -0.526 OA
ATOM      8  H5  UNL d   1       0.135   1.380  -0.863  0.00  0.00     0.418 HD
ENDBRANCH   4   7
TORSDOF 1
ENDMDL
