MODEL 1
REMARK minimizedAffinity 0.675579369
REMARK minimizedRMSD -1
REMARK  1 active torsions:
REMARK  status: ('A' for Active; 'I' for Inactive)
REMARK    1  A    between atoms: C3_4  and  O_7 
ROOT
ATOM      1  C   UNL d   1      -1.695  -2.159   0.335  0.00  0.00    -0.033 A 
ATOM      2  C1  UNL d   1      -0.947  -1.508  -0.648  0.00  0.00     0.039 A 
ATOM      3  C2  UNL d   1      -0.234  -0.350  -0.333  0.00  0.00    -0.080 A 
ATOM      4  C3  UNL d   1      -0.275   0.145   0.968  0.00  0.00     0.150 A 
ATOM      5  C4  UNL d   1      -1.014  -0.500   1.953  0.00  0.00    -0.007 A 
ATOM      6  C5  UNL d   1      -1.727  -1.656   1.636  0.00  0.00     0.039 A 
ENDROOT
BRANCH   4   7
ATOM      7  O   UNL d   1       0.401   1.275   1.322  0.00  0.00    -0.526 OA
ATOM      8  H5  UNL d   1       0.844   1.629   0.533  0.00  0.00     0.418 HD
ENDBRANCH   4   7
TORSDOF 1
ENDMDL
