MODEL 1
REMARK minimizedAffinity 0.895385563
REMARK minimizedRMSD -1
REMARK  1 active torsions:
REMARK  status: ('A' for Active; 'I' for Inactive)
REMARK    1  A    between atoms: C3_4  and  O_7 
ROOT
ATOM      1  C   UNL d   1       5.160  -1.040   2.997  0.00  0.00    -0.033 A 
ATOM      2  C1  UNL d   1       4.867  -2.376   2.717  0.00  0.00     0.039 A 
ATOM      3  C2  UNL d   1       5.141  -3.367   3.663  0.00  0.00    -0.080 A 
ATOM      4  C3  UNL d   1       5.707  -3.008   4.883  0.00  0.00     0.150 A 
ATOM      5  C4  UNL d   1       5.999  -1.679   5.170  0.00  0.00    -0.007 A 
ATOM      6  C5  UNL d   1       5.725  -0.692   4.225  0.00  0.00     0.039 A 
ENDROOT
BRANCH   4   7
ATOM      7  O   UNL d   1       5.997  -3.940   5.835  0.00  0.00    -0.526 OA
ATOM      8  H5  UNL d   1       5.769  -4.818   5.486  0.00  0.00     0.418 HD
ENDBRANCH   4   7
TORSDOF 1
ENDMDL
