MODEL 1
REMARK minimizedAffinity 2.56525922
REMARK minimizedRMSD -1
REMARK  1 active torsions:
REMARK  status: ('A' for Active; 'I' for Inactive)
REMARK    1  A    between atoms: C3_4  and  O_7 
ROOT
ATOM      1  C   UNL d   1       2.481  -5.993   5.235  0.00  0.00    -0.033 A 
ATOM      2  C1  UNL d   1       2.411  -5.998   3.841  0.00  0.00     0.039 A 
ATOM      3  C2  UNL d   1       1.169  -5.999   3.203  0.00  0.00    -0.080 A 
ATOM      4  C3  UNL d   1       0.007  -5.992   3.969  0.00  0.00     0.150 A 
ATOM      5  C4  UNL d   1       0.070  -5.982   5.359  0.00  0.00    -0.007 A 
ATOM      6  C5  UNL d   1       1.311  -5.983   5.994  0.00  0.00     0.039 A 
ENDROOT
BRANCH   4   7
ATOM      7  O   UNL d   1      -1.228  -5.997   3.391  0.00  0.00    -0.526 OA
ATOM      8  H5  UNL d   1      -1.116  -6.033   2.427  0.00  0.00     0.418 HD
ENDBRANCH   4   7
TORSDOF 1
ENDMDL
