MODEL 1
REMARK minimizedAffinity 6.12478542
REMARK minimizedRMSD -1
REMARK  1 active torsions:
REMARK  status: ('A' for Active; 'I' for Inactive)
REMARK    1  A    between atoms: C3_4  and  O_7 
ROOT
ATOM      1  C   UNL d   1       3.225   1.145  -5.995  0.00  0.00    -0.033 A 
ATOM      2  C1  UNL d   1       3.520   1.904  -4.861  0.00  0.00     0.039 A 
ATOM      3  C2  UNL d   1       4.007   1.282  -3.710  0.00  0.00    -0.080 A 
ATOM      4  C3  UNL d   1       4.195  -0.097  -3.706  0.00  0.00     0.150 A 
ATOM      5  C4  UNL d   1       3.906  -0.860  -4.833  0.00  0.00    -0.007 A 
ATOM      6  C5  UNL d   1       3.419  -0.237  -5.982  0.00  0.00     0.039 A 
ENDROOT
BRANCH   4   7
ATOM      7  O   UNL d   1       4.664  -0.750  -2.604  0.00  0.00    -0.526 OA
ATOM      8  H5  UNL d   1       4.792  -0.100  -1.893  0.00  0.00     0.418 HD
ENDBRANCH   4   7
TORSDOF 1
ENDMDL
