MODEL 1
REMARK minimizedAffinity -0.119401485
REMARK minimizedRMSD -1
REMARK  1 active torsions:
REMARK  status: ('A' for Active; 'I' for Inactive)
REMARK    1  A    between atoms: C3_4  and  O_7 
ROOT
ATOM      1  C   UNL d   1      -2.570  -1.774  -2.256  0.00  0.00    -0.033 A 
ATOM      2  C1  UNL d   1      -2.067  -2.243  -1.041  0.00  0.00     0.039 A 
ATOM      3  C2  UNL d   1      -1.255  -1.422  -0.256  0.00  0.00    -0.080 A 
ATOM      4  C3  UNL d   1      -0.954  -0.136  -0.697  0.00  0.00     0.150 A 
ATOM      5  C4  UNL d   1      -1.455   0.338  -1.905  0.00  0.00    -0.007 A 
ATOM      6  C5  UNL d   1      -2.265  -0.483  -2.687  0.00  0.00     0.039 A 
ENDROOT
BRANCH   4   7
ATOM      7  O   UNL d   1      -0.161   0.700   0.032  0.00  0.00    -0.526 OA
ATOM      8  H5  UNL d   1       0.135   0.227   0.828  0.00  0.00     0.418 HD
ENDBRANCH   4   7
TORSDOF 1
ENDMDL
