MODEL 1
REMARK minimizedAffinity 0.344768524
REMARK minimizedRMSD -1
REMARK  1 active torsions:
REMARK  status: ('A' for Active; 'I' for Inactive)
REMARK    1  A    between atoms: C3_4  and  O_7 
ROOT
ATOM      1  C   UNL d   1      -5.483   5.353   3.989  0.00  0.00    -0.033 A 
ATOM      2  C1  UNL d   1      -4.502   4.554   3.399  0.00  0.00     0.039 A 
ATOM      3  C2  UNL d   1      -4.033   3.418   4.062  0.00  0.00    -0.080 A 
ATOM      4  C3  UNL d   1      -4.553   3.092   5.312  0.00  0.00     0.150 A 
ATOM      5  C4  UNL d   1      -5.533   3.882   5.904  0.00  0.00    -0.007 A 
ATOM      6  C5  UNL d   1      -6.000   5.016   5.241  0.00  0.00     0.039 A 
ENDROOT
BRANCH   4   7
ATOM      7  O   UNL d   1      -4.122   1.996   5.999  0.00  0.00    -0.526 OA
ATOM      8  H5  UNL d   1      -3.424   1.563   5.481  0.00  0.00     0.418 HD
ENDBRANCH   4   7
TORSDOF 1
ENDMDL
