MODEL 1
REMARK minimizedAffinity -3.11453342
REMARK minimizedRMSD -1
REMARK  1 active torsions:
REMARK  status: ('A' for Active; 'I' for Inactive)
REMARK    1  A    between atoms: C3_4  and  O_7 
ROOT
ATOM      1  C   UNL d   1      -5.251   4.797   4.117  0.00  0.00    -0.033 A 
ATOM      2  C1  UNL d   1      -5.994   5.820   3.526  0.00  0.00     0.039 A 
ATOM      3  C2  UNL d   1      -5.959   6.000   2.141  0.00  0.00    -0.080 A 
ATOM      4  C3  UNL d   1      -5.180   5.150   1.362  0.00  0.00     0.150 A 
ATOM      5  C4  UNL d   1      -4.440   4.126   1.944  0.00  0.00    -0.007 A 
ATOM      6  C5  UNL d   1      -4.476   3.949   3.327  0.00  0.00     0.039 A 
ENDROOT
BRANCH   4   7
ATOM      7  O   UNL d   1      -5.110   5.289   0.007  0.00  0.00    -0.526 OA
ATOM      8  H5  UNL d   1      -5.649   6.055  -0.252  0.00  0.00     0.418 HD
ENDBRANCH   4   7
TORSDOF 1
ENDMDL
