MODEL 1
REMARK minimizedAffinity 6.34754181
REMARK minimizedRMSD -1
REMARK  1 active torsions:
REMARK  status: ('A' for Active; 'I' for Inactive)
REMARK    1  A    between atoms: C3_4  and  O_7 
ROOT
ATOM      1  C   UNL d   1       3.384   0.616   3.088  0.00  0.00    -0.033 A 
ATOM      2  C1  UNL d   1       2.235  -0.072   3.481  0.00  0.00     0.039 A 
ATOM      3  C2  UNL d   1       1.214   0.599   4.157  0.00  0.00    -0.080 A 
ATOM      4  C3  UNL d   1       1.354   1.956   4.432  0.00  0.00     0.150 A 
ATOM      5  C4  UNL d   1       2.495   2.649   4.041  0.00  0.00    -0.007 A 
ATOM      6  C5  UNL d   1       3.514   1.977   3.366  0.00  0.00     0.039 A 
ENDROOT
BRANCH   4   7
ATOM      7  O   UNL d   1       0.387   2.652   5.094  0.00  0.00    -0.526 OA
ATOM      8  H5  UNL d   1      -0.329   2.038   5.327  0.00  0.00     0.418 HD
ENDBRANCH   4   7
TORSDOF 1
ENDMDL
