MODEL 1
REMARK minimizedAffinity -2.67228413
REMARK minimizedRMSD -1
REMARK  1 active torsions:
REMARK  status: ('A' for Active; 'I' for Inactive)
REMARK    1  A    between atoms: C3_4  and  O_7 
ROOT
ATOM      1  C   UNL d   1      -4.881   3.372   6.000  0.00  0.00    -0.033 A 
ATOM      2  C1  UNL d   1      -5.997   4.018   5.463  0.00  0.00     0.039 A 
ATOM      3  C2  UNL d   1      -5.999   4.413   4.124  0.00  0.00    -0.080 A 
ATOM      4  C3  UNL d   1      -4.883   4.156   3.333  0.00  0.00     0.150 A 
ATOM      5  C4  UNL d   1      -3.770   3.510   3.861  0.00  0.00    -0.007 A 
ATOM      6  C5  UNL d   1      -3.768   3.117   5.198  0.00  0.00     0.039 A 
ENDROOT
BRANCH   4   7
ATOM      7  O   UNL d   1      -4.837   4.527   2.022  0.00  0.00    -0.526 OA
ATOM      8  H5  UNL d   1      -5.664   4.988   1.804  0.00  0.00     0.418 HD
ENDBRANCH   4   7
TORSDOF 1
ENDMDL
