MODEL 1
REMARK minimizedAffinity -0.897993743
REMARK minimizedRMSD -1
REMARK  1 active torsions:
REMARK  status: ('A' for Active; 'I' for Inactive)
REMARK    1  A    between atoms: C3_4  and  O_7 
ROOT
ATOM      1  C   UNL d   1      -3.385  -0.329   2.387  0.00  0.00    -0.033 A 
ATOM      2  C1  UNL d   1      -2.892   0.547   3.356  0.00  0.00     0.039 A 
ATOM      3  C2  UNL d   1      -3.333   1.871   3.391  0.00  0.00    -0.080 A 
ATOM      4  C3  UNL d   1      -4.267   2.306   2.454  0.00  0.00     0.150 A 
ATOM      5  C4  UNL d   1      -4.766   1.437   1.489  0.00  0.00    -0.007 A 
ATOM      6  C5  UNL d   1      -4.323   0.115   1.455  0.00  0.00     0.039 A 
ENDROOT
BRANCH   4   7
ATOM      7  O   UNL d   1      -4.724   3.590   2.446  0.00  0.00    -0.526 OA
ATOM      8  H5  UNL d   1      -4.270   4.082   3.150  0.00  0.00     0.418 HD
ENDBRANCH   4   7
TORSDOF 1
ENDMDL
