MODEL 1
REMARK minimizedAffinity -3.00414205
REMARK minimizedRMSD -1
REMARK  1 active torsions:
REMARK  status: ('A' for Active; 'I' for Inactive)
REMARK    1  A    between atoms: C3_4  and  O_7 
ROOT
ATOM      1  C   UNL d   1      -5.996   4.800   5.532  0.00  0.00    -0.033 A 
ATOM      2  C1  UNL d   1      -6.000   5.996   4.811  0.00  0.00     0.039 A 
ATOM      3  C2  UNL d   1      -5.777   5.983   3.432  0.00  0.00    -0.080 A 
ATOM      4  C3  UNL d   1      -5.552   4.769   2.788  0.00  0.00     0.150 A 
ATOM      5  C4  UNL d   1      -5.551   3.574   3.499  0.00  0.00    -0.007 A 
ATOM      6  C5  UNL d   1      -5.773   3.589   4.876  0.00  0.00     0.039 A 
ENDROOT
BRANCH   4   7
ATOM      7  O   UNL d   1      -5.325   4.707   1.445  0.00  0.00    -0.526 OA
ATOM      8  H5  UNL d   1      -5.326   5.612   1.090  0.00  0.00     0.418 HD
ENDBRANCH   4   7
TORSDOF 1
ENDMDL
