MODEL 1
REMARK minimizedAffinity 3.62554193
REMARK minimizedRMSD -1
REMARK  1 active torsions:
REMARK  status: ('A' for Active; 'I' for Inactive)
REMARK    1  A    between atoms: C3_4  and  O_7 
ROOT
ATOM      1  C   UNL d   1       0.494   0.747  -5.660  0.00  0.00    -0.033 A 
ATOM      2  C1  UNL d   1       0.030   0.568  -4.355  0.00  0.00     0.039 A 
ATOM      3  C2  UNL d   1       0.862   0.001  -3.388  0.00  0.00    -0.080 A 
ATOM      4  C3  UNL d   1       2.154  -0.381  -3.738  0.00  0.00     0.150 A 
ATOM      5  C4  UNL d   1       2.624  -0.203  -5.035  0.00  0.00    -0.007 A 
ATOM      6  C5  UNL d   1       1.791   0.363  -6.000  0.00  0.00     0.039 A 
ENDROOT
BRANCH   4   7
ATOM      7  O   UNL d   1       3.002  -0.943  -2.830  0.00  0.00    -0.526 OA
ATOM      8  H5  UNL d   1       2.532  -1.032  -1.984  0.00  0.00     0.418 HD
ENDBRANCH   4   7
TORSDOF 1
ENDMDL
