MODEL 1
REMARK minimizedAffinity 5.3723712
REMARK minimizedRMSD -1
REMARK  1 active torsions:
REMARK  status: ('A' for Active; 'I' for Inactive)
REMARK    1  A    between atoms: C3_4  and  O_7 
ROOT
ATOM      1  C   UNL d   1       2.249   1.814   4.895  0.00  0.00    -0.033 A 
ATOM      2  C1  UNL d   1       2.797   2.019   3.627  0.00  0.00     0.039 A 
ATOM      3  C2  UNL d   1       2.851   0.967   2.711  0.00  0.00    -0.080 A 
ATOM      4  C3  UNL d   1       2.354  -0.282   3.074  0.00  0.00     0.150 A 
ATOM      5  C4  UNL d   1       1.804  -0.492   4.334  0.00  0.00    -0.007 A 
ATOM      6  C5  UNL d   1       1.752   0.560   5.248  0.00  0.00     0.039 A 
ENDROOT
BRANCH   4   7
ATOM      7  O   UNL d   1       2.390  -1.340   2.215  0.00  0.00    -0.526 OA
ATOM      8  H5  UNL d   1       2.823  -1.055   1.393  0.00  0.00     0.418 HD
ENDBRANCH   4   7
TORSDOF 1
ENDMDL
