MODEL 1
REMARK minimizedAffinity -2.79341745
REMARK minimizedRMSD -1
REMARK  1 active torsions:
REMARK  status: ('A' for Active; 'I' for Inactive)
REMARK    1  A    between atoms: C3_4  and  O_7 
ROOT
ATOM      1  C   UNL d   1      -5.628   4.009   5.050  0.00  0.00    -0.033 A 
ATOM      2  C1  UNL d   1      -6.000   5.352   4.960  0.00  0.00     0.039 A 
ATOM      3  C2  UNL d   1      -6.000   5.997   3.721  0.00  0.00    -0.080 A 
ATOM      4  C3  UNL d   1      -5.627   5.288   2.582  0.00  0.00     0.150 A 
ATOM      5  C4  UNL d   1      -5.260   3.949   2.664  0.00  0.00    -0.007 A 
ATOM      6  C5  UNL d   1      -5.259   3.308   3.902  0.00  0.00     0.039 A 
ENDROOT
BRANCH   4   7
ATOM      7  O   UNL d   1      -5.607   5.876   1.352  0.00  0.00    -0.526 OA
ATOM      8  H5  UNL d   1      -5.857   6.810   1.453  0.00  0.00     0.418 HD
ENDBRANCH   4   7
TORSDOF 1
ENDMDL
