MODEL 1
REMARK minimizedAffinity 0.481600493
REMARK minimizedRMSD -1
REMARK  1 active torsions:
REMARK  status: ('A' for Active; 'I' for Inactive)
REMARK    1  A    between atoms: C3_4  and  O_7 
ROOT
ATOM      1  C   UNL d   1      -5.992   5.254   2.067  0.00  0.00    -0.033 A 
ATOM      2  C1  UNL d   1      -5.996   3.859   2.112  0.00  0.00     0.039 A 
ATOM      3  C2  UNL d   1      -5.998   3.198   3.342  0.00  0.00    -0.080 A 
ATOM      4  C3  UNL d   1      -5.998   3.943   4.518  0.00  0.00     0.150 A 
ATOM      5  C4  UNL d   1      -5.998   5.334   4.481  0.00  0.00    -0.007 A 
ATOM      6  C5  UNL d   1      -5.995   5.992   3.252  0.00  0.00     0.039 A 
ENDROOT
BRANCH   4   7
ATOM      7  O   UNL d   1      -5.995   3.343   5.742  0.00  0.00    -0.526 OA
ATOM      8  H5  UNL d   1      -5.966   2.381   5.613  0.00  0.00     0.418 HD
ENDBRANCH   4   7
TORSDOF 1
ENDMDL
