MODEL 1
REMARK minimizedAffinity -0.616727293
REMARK minimizedRMSD -1
REMARK  1 active torsions:
REMARK  status: ('A' for Active; 'I' for Inactive)
REMARK    1  A    between atoms: C3_4  and  O_7 
ROOT
ATOM      1  C   UNL d   1      -4.874   2.996   3.854  0.00  0.00    -0.033 A 
ATOM      2  C1  UNL d   1      -3.749   3.746   3.506  0.00  0.00     0.039 A 
ATOM      3  C2  UNL d   1      -3.747   4.500   2.331  0.00  0.00    -0.080 A 
ATOM      4  C3  UNL d   1      -4.874   4.495   1.514  0.00  0.00     0.150 A 
ATOM      5  C4  UNL d   1      -6.000   3.753   1.856  0.00  0.00    -0.007 A 
ATOM      6  C5  UNL d   1      -6.000   3.000   3.030  0.00  0.00     0.039 A 
ENDROOT
BRANCH   4   7
ATOM      7  O   UNL d   1      -4.917   5.211   0.354  0.00  0.00    -0.526 OA
ATOM      8  H5  UNL d   1      -4.059   5.651   0.233  0.00  0.00     0.418 HD
ENDBRANCH   4   7
TORSDOF 1
ENDMDL
