MODEL 1
REMARK minimizedAffinity -1.78573191
REMARK minimizedRMSD -1
REMARK  1 active torsions:
REMARK  status: ('A' for Active; 'I' for Inactive)
REMARK    1  A    between atoms: C3_4  and  O_7 
ROOT
ATOM      1  C   UNL d   1      -5.161   4.891   0.745  0.00  0.00    -0.033 A 
ATOM      2  C1  UNL d   1      -4.865   6.000   1.540  0.00  0.00     0.039 A 
ATOM      3  C2  UNL d   1      -5.139   5.972   2.909  0.00  0.00    -0.080 A 
ATOM      4  C3  UNL d   1      -5.706   4.831   3.469  0.00  0.00     0.150 A 
ATOM      5  C4  UNL d   1      -6.000   3.722   2.683  0.00  0.00    -0.007 A 
ATOM      6  C5  UNL d   1      -5.727   3.752   1.316  0.00  0.00     0.039 A 
ENDROOT
BRANCH   4   7
ATOM      7  O   UNL d   1      -5.996   4.759   4.800  0.00  0.00    -0.526 OA
ATOM      8  H5  UNL d   1      -5.766   5.608   5.211  0.00  0.00     0.418 HD
ENDBRANCH   4   7
TORSDOF 1
ENDMDL
