MODEL 1
REMARK minimizedAffinity -3.24279451
REMARK minimizedRMSD -1
REMARK  1 active torsions:
REMARK  status: ('A' for Active; 'I' for Inactive)
REMARK    1  A    between atoms: C3_4  and  O_7 
ROOT
ATOM      1  C   UNL d   1      -5.843   3.385   5.373  0.00  0.00    -0.033 A 
ATOM      2  C1  UNL d   1      -5.999   4.760   5.561  0.00  0.00     0.039 A 
ATOM      3  C2  UNL d   1      -5.519   5.655   4.603  0.00  0.00    -0.080 A 
ATOM      4  C3  UNL d   1      -4.886   5.164   3.465  0.00  0.00     0.150 A 
ATOM      5  C4  UNL d   1      -4.731   3.795   3.270  0.00  0.00    -0.007 A 
ATOM      6  C5  UNL d   1      -5.211   2.903   4.227  0.00  0.00     0.039 A 
ENDROOT
BRANCH   4   7
ATOM      7  O   UNL d   1      -4.396   5.999   2.505  0.00  0.00    -0.526 OA
ATOM      8  H5  UNL d   1      -4.549   6.916   2.788  0.00  0.00     0.418 HD
ENDBRANCH   4   7
TORSDOF 1
ENDMDL
