MODEL 1
REMARK minimizedAffinity -4.10683823
REMARK minimizedRMSD -1
REMARK  1 active torsions:
REMARK  status: ('A' for Active; 'I' for Inactive)
REMARK    1  A    between atoms: C3_4  and  O_7 
ROOT
ATOM      1  C   UNL d   1      -5.685   4.325   5.100  0.00  0.00    -0.033 A 
ATOM      2  C1  UNL d   1      -5.639   5.664   4.707  0.00  0.00     0.039 A 
ATOM      3  C2  UNL d   1      -5.286   5.997   3.398  0.00  0.00    -0.080 A 
ATOM      4  C3  UNL d   1      -4.982   4.984   2.493  0.00  0.00     0.150 A 
ATOM      5  C4  UNL d   1      -5.030   3.648   2.877  0.00  0.00    -0.007 A 
ATOM      6  C5  UNL d   1      -5.382   3.317   4.185  0.00  0.00     0.039 A 
ENDROOT
BRANCH   4   7
ATOM      7  O   UNL d   1      -4.628   5.260   1.206  0.00  0.00    -0.526 OA
ATOM      8  H5  UNL d   1      -4.610   6.225   1.092  0.00  0.00     0.418 HD
ENDBRANCH   4   7
TORSDOF 1
ENDMDL
