MODEL 1
REMARK minimizedAffinity -2.91521716
REMARK minimizedRMSD -1
REMARK  1 active torsions:
REMARK  status: ('A' for Active; 'I' for Inactive)
REMARK    1  A    between atoms: C3_4  and  O_7 
ROOT
ATOM      1  C   UNL d   1      -5.630   3.539   4.554  0.00  0.00    -0.033 A 
ATOM      2  C1  UNL d   1      -5.997   2.988   3.325  0.00  0.00     0.039 A 
ATOM      3  C2  UNL d   1      -5.997   3.780   2.175  0.00  0.00    -0.080 A 
ATOM      4  C3  UNL d   1      -5.628   5.119   2.267  0.00  0.00     0.150 A 
ATOM      5  C4  UNL d   1      -5.257   5.674   3.488  0.00  0.00    -0.007 A 
ATOM      6  C5  UNL d   1      -5.258   4.882   4.635  0.00  0.00     0.039 A 
ENDROOT
BRANCH   4   7
ATOM      7  O   UNL d   1      -5.617   5.932   1.173  0.00  0.00    -0.526 OA
ATOM      8  H5  UNL d   1      -5.923   5.420   0.406  0.00  0.00     0.418 HD
ENDBRANCH   4   7
TORSDOF 1
ENDMDL
