MODEL 1
REMARK minimizedAffinity -3.79847288
REMARK minimizedRMSD -1
REMARK  1 active torsions:
REMARK  status: ('A' for Active; 'I' for Inactive)
REMARK    1  A    between atoms: C3_4  and  O_7 
ROOT
ATOM      1  C   UNL d   1      -4.935   2.688   6.000  0.00  0.00    -0.033 A 
ATOM      2  C1  UNL d   1      -3.589   2.699   5.629  0.00  0.00     0.039 A 
ATOM      3  C2  UNL d   1      -3.179   3.420   4.505  0.00  0.00    -0.080 A 
ATOM      4  C3  UNL d   1      -4.123   4.125   3.763  0.00  0.00     0.150 A 
ATOM      5  C4  UNL d   1      -5.465   4.121   4.130  0.00  0.00    -0.007 A 
ATOM      6  C5  UNL d   1      -5.873   3.400   5.251  0.00  0.00     0.039 A 
ENDROOT
BRANCH   4   7
ATOM      7  O   UNL d   1      -3.771   4.839   2.656  0.00  0.00    -0.526 OA
ATOM      8  H5  UNL d   1      -2.818   4.726   2.508  0.00  0.00     0.418 HD
ENDBRANCH   4   7
TORSDOF 1
ENDMDL
