MODEL 1
REMARK minimizedAffinity -4.16727209
REMARK minimizedRMSD -1
REMARK  1 active torsions:
REMARK  status: ('A' for Active; 'I' for Inactive)
REMARK    1  A    between atoms: C3_4  and  O_7 
ROOT
ATOM      1  C   UNL d   1      -5.623   4.112   2.264  0.00  0.00    -0.033 A 
ATOM      2  C1  UNL d   1      -5.999   5.267   1.577  0.00  0.00     0.039 A 
ATOM      3  C2  UNL d   1      -5.999   5.282   0.181  0.00  0.00    -0.080 A 
ATOM      4  C3  UNL d   1      -5.623   4.136  -0.515  0.00  0.00     0.150 A 
ATOM      5  C4  UNL d   1      -5.251   2.980   0.164  0.00  0.00    -0.007 A 
ATOM      6  C5  UNL d   1      -5.250   2.968   1.558  0.00  0.00     0.039 A 
ENDROOT
BRANCH   4   7
ATOM      7  O   UNL d   1      -5.603   4.104  -1.878  0.00  0.00    -0.526 OA
ATOM      8  H5  UNL d   1      -5.855   4.982  -2.210  0.00  0.00     0.418 HD
ENDBRANCH   4   7
TORSDOF 1
ENDMDL
