MODEL 1
REMARK minimizedAffinity 6.95812273
REMARK minimizedRMSD -1
REMARK  0 active torsions:
REMARK  status: ('A' for Active; 'I' for Inactive)
ROOT
ATOM      1  C   UNL d   1      -2.773  -2.100   0.523  0.00  0.00     0.023 A 
ATOM      2  C1  UNL d   1      -2.213  -0.939  -0.009  0.00  0.00     0.003 A 
ATOM      3  C2  UNL d   1      -2.175   0.232   0.751  0.00  0.00     0.048 A 
ATOM      4  C3  UNL d   1      -2.698   0.233   2.044  0.00  0.00     0.023 A 
ATOM      5  C4  UNL d   1      -3.258  -0.927   2.581  0.00  0.00     0.048 A 
ATOM      6  C5  UNL d   1      -3.295  -2.094   1.817  0.00  0.00     0.003 A 
ATOM      7  I   UNL d   1      -2.643   1.974   3.178  0.00  0.00    -0.146 I 
ENDROOT
TORSDOF 0
ENDMDL
