MODEL 1
REMARK minimizedAffinity 5.29446173
REMARK minimizedRMSD -1
REMARK  0 active torsions:
REMARK  status: ('A' for Active; 'I' for Inactive)
ROOT
ATOM      1  C   UNL d   1      -5.094   4.591   1.868  0.00  0.00     0.023 A 
ATOM      2  C1  UNL d   1      -3.705   4.705   1.928  0.00  0.00     0.003 A 
ATOM      3  C2  UNL d   1      -3.087   5.110   3.113  0.00  0.00     0.048 A 
ATOM      4  C3  UNL d   1      -3.864   5.398   4.235  0.00  0.00     0.023 A 
ATOM      5  C4  UNL d   1      -5.254   5.284   4.180  0.00  0.00     0.048 A 
ATOM      6  C5  UNL d   1      -5.868   4.881   2.993  0.00  0.00     0.003 A 
ATOM      7  I   UNL d   1      -2.946   6.000   6.000  0.00  0.00    -0.146 I 
ENDROOT
TORSDOF 0
ENDMDL
