MODEL 1
REMARK minimizedAffinity 1.85407221
REMARK minimizedRMSD -1
REMARK  0 active torsions:
REMARK  status: ('A' for Active; 'I' for Inactive)
ROOT
ATOM      1  C   UNL d   1      -4.801   5.969   1.785  0.00  0.00     0.023 A 
ATOM      2  C1  UNL d   1      -5.499   5.972   2.993  0.00  0.00     0.003 A 
ATOM      3  C2  UNL d   1      -4.803   5.980   4.203  0.00  0.00     0.048 A 
ATOM      4  C3  UNL d   1      -3.409   5.986   4.199  0.00  0.00     0.023 A 
ATOM      5  C4  UNL d   1      -2.706   5.984   2.993  0.00  0.00     0.048 A 
ATOM      6  C5  UNL d   1      -3.406   5.974   1.785  0.00  0.00     0.003 A 
ATOM      7  I   UNL d   1      -2.371   5.999   6.000  0.00  0.00    -0.146 I 
ENDROOT
TORSDOF 0
ENDMDL
