MODEL 1
REMARK minimizedAffinity 1.45150089
REMARK minimizedRMSD -1
REMARK  0 active torsions:
REMARK  status: ('A' for Active; 'I' for Inactive)
ROOT
ATOM      1  C   UNL d   1      -4.328   5.997   1.296  0.00  0.00     0.023 A 
ATOM      2  C1  UNL d   1      -2.982   5.998   1.661  0.00  0.00     0.003 A 
ATOM      3  C2  UNL d   1      -2.623   5.999   3.010  0.00  0.00     0.048 A 
ATOM      4  C3  UNL d   1      -3.615   5.998   3.990  0.00  0.00     0.023 A 
ATOM      5  C4  UNL d   1      -4.964   5.996   3.629  0.00  0.00     0.048 A 
ATOM      6  C5  UNL d   1      -5.318   5.996   2.279  0.00  0.00     0.003 A 
ATOM      7  I   UNL d   1      -3.084   5.999   5.999  0.00  0.00    -0.146 I 
ENDROOT
TORSDOF 0
ENDMDL
