MODEL 1
REMARK minimizedAffinity 0.277077794
REMARK minimizedRMSD -1
REMARK  0 active torsions:
REMARK  status: ('A' for Active; 'I' for Inactive)
ROOT
ATOM      1  C   UNL d   1      -4.755   5.913   5.057  0.00  0.00     0.023 A 
ATOM      2  C1  UNL d   1      -5.380   5.873   3.810  0.00  0.00     0.003 A 
ATOM      3  C2  UNL d   1      -4.614   5.898   2.643  0.00  0.00     0.048 A 
ATOM      4  C3  UNL d   1      -3.224   5.960   2.729  0.00  0.00     0.023 A 
ATOM      5  C4  UNL d   1      -2.594   5.998   3.974  0.00  0.00     0.048 A 
ATOM      6  C5  UNL d   1      -3.364   5.975   5.138  0.00  0.00     0.003 A 
ATOM      7  I   UNL d   1      -2.082   5.995   0.993  0.00  0.00    -0.146 I 
ENDROOT
TORSDOF 0
ENDMDL
