MODEL 1
REMARK minimizedAffinity 8.0343504
REMARK minimizedRMSD -1
REMARK  0 active torsions:
REMARK  status: ('A' for Active; 'I' for Inactive)
ROOT
ATOM      1  C   UNL d   1      -1.985  -0.748   0.813  0.00  0.00     0.023 A 
ATOM      2  C1  UNL d   1      -1.971   0.354   1.669  0.00  0.00     0.003 A 
ATOM      3  C2  UNL d   1      -2.766   0.359   2.816  0.00  0.00     0.048 A 
ATOM      4  C3  UNL d   1      -3.574  -0.741   3.103  0.00  0.00     0.023 A 
ATOM      5  C4  UNL d   1      -3.591  -1.846   2.250  0.00  0.00     0.048 A 
ATOM      6  C5  UNL d   1      -2.795  -1.846   1.104  0.00  0.00     0.003 A 
ATOM      7  I   UNL d   1      -4.759  -0.735   4.810  0.00  0.00    -0.146 I 
ENDROOT
TORSDOF 0
ENDMDL
