MODEL 1
REMARK minimizedAffinity 5.55411386
REMARK minimizedRMSD -1
REMARK  0 active torsions:
REMARK  status: ('A' for Active; 'I' for Inactive)
ROOT
ATOM      1  C   UNL d   1      -4.030   5.959   5.822  0.00  0.00     0.023 A 
ATOM      2  C1  UNL d   1      -4.941   5.991   4.765  0.00  0.00     0.003 A 
ATOM      3  C2  UNL d   1      -4.482   6.000   3.446  0.00  0.00     0.048 A 
ATOM      4  C3  UNL d   1      -3.112   5.976   3.191  0.00  0.00     0.023 A 
ATOM      5  C4  UNL d   1      -2.197   5.943   4.245  0.00  0.00     0.048 A 
ATOM      6  C5  UNL d   1      -2.660   5.935   5.562  0.00  0.00     0.003 A 
ATOM      7  I   UNL d   1      -2.426   5.989   1.229  0.00  0.00    -0.146 I 
ENDROOT
TORSDOF 0
ENDMDL
