MODEL 1
REMARK minimizedAffinity 6.12512445
REMARK minimizedRMSD -1
REMARK  0 active torsions:
REMARK  status: ('A' for Active; 'I' for Inactive)
ROOT
ATOM      1  C   UNL d   1      -2.485   5.945   5.849  0.00  0.00     0.023 A 
ATOM      2  C1  UNL d   1      -1.918   5.925   4.575  0.00  0.00     0.003 A 
ATOM      3  C2  UNL d   1      -2.737   5.940   3.444  0.00  0.00     0.048 A 
ATOM      4  C3  UNL d   1      -4.123   5.976   3.595  0.00  0.00     0.023 A 
ATOM      5  C4  UNL d   1      -4.695   5.996   4.868  0.00  0.00     0.048 A 
ATOM      6  C5  UNL d   1      -3.872   5.980   5.996  0.00  0.00     0.003 A 
ATOM      7  I   UNL d   1      -5.345   5.999   1.914  0.00  0.00    -0.146 I 
ENDROOT
TORSDOF 0
ENDMDL
