MODEL 1
REMARK minimizedAffinity 1.76294386
REMARK minimizedRMSD -1
REMARK  0 active torsions:
REMARK  status: ('A' for Active; 'I' for Inactive)
ROOT
ATOM      1  C   UNL d   1      -3.314   4.060   1.547  0.00  0.00     0.023 A 
ATOM      2  C1  UNL d   1      -3.496   5.432   1.724  0.00  0.00     0.003 A 
ATOM      3  C2  UNL d   1      -3.412   5.990   3.001  0.00  0.00     0.048 A 
ATOM      4  C3  UNL d   1      -3.143   5.171   4.097  0.00  0.00     0.023 A 
ATOM      5  C4  UNL d   1      -2.959   3.798   3.925  0.00  0.00     0.048 A 
ATOM      6  C5  UNL d   1      -3.046   3.244   2.646  0.00  0.00     0.003 A 
ATOM      7  I   UNL d   1      -3.016   5.999   5.999  0.00  0.00    -0.146 I 
ENDROOT
TORSDOF 0
ENDMDL
