MODEL 1
REMARK minimizedAffinity 1.21267176
REMARK minimizedRMSD -1
REMARK  0 active torsions:
REMARK  status: ('A' for Active; 'I' for Inactive)
ROOT
ATOM      1  C   UNL d   1      -5.162   5.969   5.948  0.00  0.00     0.023 A 
ATOM      2  C1  UNL d   1      -3.768   5.966   5.999  0.00  0.00     0.003 A 
ATOM      3  C2  UNL d   1      -3.026   5.973   4.816  0.00  0.00     0.048 A 
ATOM      4  C3  UNL d   1      -3.684   5.984   3.587  0.00  0.00     0.023 A 
ATOM      5  C4  UNL d   1      -5.078   5.988   3.532  0.00  0.00     0.048 A 
ATOM      6  C5  UNL d   1      -5.817   5.980   4.717  0.00  0.00     0.003 A 
ATOM      7  I   UNL d   1      -2.581   5.995   1.825  0.00  0.00    -0.146 I 
ENDROOT
TORSDOF 0
ENDMDL
