MODEL 1
REMARK minimizedAffinity 2.76229215
REMARK minimizedRMSD -1
REMARK  0 active torsions:
REMARK  status: ('A' for Active; 'I' for Inactive)
ROOT
ATOM      1  C   UNL d   1      -4.649   4.660   1.790  0.00  0.00     0.023 A 
ATOM      2  C1  UNL d   1      -5.276   5.610   2.597  0.00  0.00     0.003 A 
ATOM      3  C2  UNL d   1      -4.693   5.995   3.806  0.00  0.00     0.048 A 
ATOM      4  C3  UNL d   1      -3.482   5.428   4.201  0.00  0.00     0.023 A 
ATOM      5  C4  UNL d   1      -2.851   4.478   3.396  0.00  0.00     0.048 A 
ATOM      6  C5  UNL d   1      -3.438   4.095   2.189  0.00  0.00     0.003 A 
ATOM      7  I   UNL d   1      -2.612   6.000   6.000  0.00  0.00    -0.146 I 
ENDROOT
TORSDOF 0
ENDMDL
