MODEL 1
REMARK minimizedAffinity 0.467477143
REMARK minimizedRMSD -1
REMARK  0 active torsions:
REMARK  status: ('A' for Active; 'I' for Inactive)
ROOT
ATOM      1  C   UNL d   1      -1.800   5.999   4.356  0.00  0.00     0.023 A 
ATOM      2  C1  UNL d   1      -3.013   6.000   5.045  0.00  0.00     0.003 A 
ATOM      3  C2  UNL d   1      -4.218   5.963   4.340  0.00  0.00     0.048 A 
ATOM      4  C3  UNL d   1      -4.202   5.924   2.946  0.00  0.00     0.023 A 
ATOM      5  C4  UNL d   1      -2.991   5.922   2.253  0.00  0.00     0.048 A 
ATOM      6  C5  UNL d   1      -1.789   5.960   2.962  0.00  0.00     0.003 A 
ATOM      7  I   UNL d   1      -5.994   5.869   1.895  0.00  0.00    -0.146 I 
ENDROOT
TORSDOF 0
ENDMDL
