MODEL 1
REMARK minimizedAffinity 0.762661517
REMARK minimizedRMSD -1
REMARK  0 active torsions:
REMARK  status: ('A' for Active; 'I' for Inactive)
ROOT
ATOM      1  C   UNL d   1      -3.853   5.983   1.229  0.00  0.00     0.023 A 
ATOM      2  C1  UNL d   1      -4.884   5.995   2.169  0.00  0.00     0.003 A 
ATOM      3  C2  UNL d   1      -4.587   6.000   3.533  0.00  0.00     0.048 A 
ATOM      4  C3  UNL d   1      -3.256   5.993   3.951  0.00  0.00     0.023 A 
ATOM      5  C4  UNL d   1      -2.221   5.981   3.014  0.00  0.00     0.048 A 
ATOM      6  C5  UNL d   1      -2.524   5.976   1.651  0.00  0.00     0.003 A 
ATOM      7  I   UNL d   1      -2.811   5.999   5.981  0.00  0.00    -0.146 I 
ENDROOT
TORSDOF 0
ENDMDL
