MODEL 1
REMARK minimizedAffinity 5.44141626
REMARK minimizedRMSD -1
REMARK  0 active torsions:
REMARK  status: ('A' for Active; 'I' for Inactive)
ROOT
ATOM      1  C   UNL d   1      -4.099   5.991   5.537  0.00  0.00     0.023 A 
ATOM      2  C1  UNL d   1      -4.870   5.999   4.374  0.00  0.00     0.003 A 
ATOM      3  C2  UNL d   1      -4.250   6.000   3.123  0.00  0.00     0.048 A 
ATOM      4  C3  UNL d   1      -2.858   5.992   3.042  0.00  0.00     0.023 A 
ATOM      5  C4  UNL d   1      -2.082   5.983   4.202  0.00  0.00     0.048 A 
ATOM      6  C5  UNL d   1      -2.707   5.983   5.451  0.00  0.00     0.003 A 
ATOM      7  I   UNL d   1      -1.932   5.992   1.181  0.00  0.00    -0.146 I 
ENDROOT
TORSDOF 0
ENDMDL
