MODEL 1
REMARK minimizedAffinity 11.3876228
REMARK minimizedRMSD -1
REMARK  0 active torsions:
REMARK  status: ('A' for Active; 'I' for Inactive)
ROOT
ATOM      1  C   UNL d   1      -5.228   0.423  -1.033  0.00  0.00    -0.002 A 
ATOM      2  C1  UNL d   1      -4.237  -0.372  -1.593  0.00  0.00     0.010 A 
ATOM      3  C2  UNL d   1      -3.103  -0.717  -0.855  0.00  0.00     0.041 A 
ATOM      4  C3  UNL d   1      -2.981  -0.247   0.467  0.00  0.00    -0.075 A 
ATOM      5  S   UNL d   1      -1.680  -0.544   1.560  0.00  0.00     0.015 SA
ATOM      6  C4  UNL d   1      -2.410   0.376   2.795  0.00  0.00     0.022 A 
ATOM      7  C5  UNL d   1      -3.616   0.904   2.401  0.00  0.00     0.026 A 
ATOM      8  C6  UNL d   1      -3.966   0.553   1.053  0.00  0.00    -0.082 A 
ATOM      9  C7  UNL d   1      -5.103   0.887   0.279  0.00  0.00     0.045 A 
ENDROOT
TORSDOF 0
ENDMDL
