MODEL 1
REMARK minimizedAffinity 5.98914576
REMARK minimizedRMSD -1
REMARK  0 active torsions:
REMARK  status: ('A' for Active; 'I' for Inactive)
ROOT
ATOM      1  C   UNL d   1      -3.188   0.540   2.033  0.00  0.00    -0.002 A 
ATOM      2  C1  UNL d   1      -2.985  -0.465   1.099  0.00  0.00     0.010 A 
ATOM      3  C2  UNL d   1      -1.943  -1.382   1.257  0.00  0.00     0.041 A 
ATOM      4  C3  UNL d   1      -1.102  -1.270   2.382  0.00  0.00    -0.075 A 
ATOM      5  S   UNL d   1       0.236  -2.280   2.783  0.00  0.00     0.015 SA
ATOM      6  C4  UNL d   1       0.569  -1.401   4.205  0.00  0.00     0.022 A 
ATOM      7  C5  UNL d   1      -0.309  -0.359   4.384  0.00  0.00     0.026 A 
ATOM      8  C6  UNL d   1      -1.288  -0.267   3.337  0.00  0.00    -0.082 A 
ATOM      9  C7  UNL d   1      -2.352   0.647   3.148  0.00  0.00     0.045 A 
ENDROOT
TORSDOF 0
ENDMDL
