MODEL 1
REMARK minimizedAffinity 0.027657127
REMARK minimizedRMSD -1
REMARK  0 active torsions:
REMARK  status: ('A' for Active; 'I' for Inactive)
ROOT
ATOM      1  C   UNL d   1      -2.849  -4.851  -4.128  0.00  0.00    -0.002 A 
ATOM      2  C1  UNL d   1      -2.903  -5.547  -5.327  0.00  0.00     0.010 A 
ATOM      3  C2  UNL d   1      -1.730  -5.940  -5.974  0.00  0.00     0.041 A 
ATOM      4  C3  UNL d   1      -0.489  -5.620  -5.388  0.00  0.00    -0.075 A 
ATOM      5  S   UNL d   1       1.078  -6.000  -6.000  0.00  0.00     0.015 SA
ATOM      6  C4  UNL d   1       1.856  -5.249  -4.682  0.00  0.00     0.022 A 
ATOM      7  C5  UNL d   1       0.957  -4.716  -3.789  0.00  0.00     0.026 A 
ATOM      8  C6  UNL d   1      -0.409  -4.921  -4.180  0.00  0.00    -0.082 A 
ATOM      9  C7  UNL d   1      -1.616  -4.536  -3.550  0.00  0.00     0.045 A 
ENDROOT
TORSDOF 0
ENDMDL
