MODEL 1
REMARK minimizedAffinity 6.6285696
REMARK minimizedRMSD -1
REMARK  0 active torsions:
REMARK  status: ('A' for Active; 'I' for Inactive)
ROOT
ATOM      1  C   UNL d   1      -2.498   0.773   3.043  0.00  0.00    -0.002 A 
ATOM      2  C1  UNL d   1      -1.534  -0.130   2.618  0.00  0.00     0.010 A 
ATOM      3  C2  UNL d   1      -1.648  -0.759   1.377  0.00  0.00     0.041 A 
ATOM      4  C3  UNL d   1      -2.758  -0.462   0.562  0.00  0.00    -0.075 A 
ATOM      5  S   UNL d   1      -3.105  -1.111  -0.997  0.00  0.00     0.015 SA
ATOM      6  C4  UNL d   1      -4.542  -0.205  -1.136  0.00  0.00     0.022 A 
ATOM      7  C5  UNL d   1      -4.767   0.579  -0.029  0.00  0.00     0.026 A 
ATOM      8  C6  UNL d   1      -3.742   0.444   0.968  0.00  0.00    -0.082 A 
ATOM      9  C7  UNL d   1      -3.598   1.065   2.232  0.00  0.00     0.045 A 
ENDROOT
TORSDOF 0
ENDMDL
