MODEL 1
REMARK minimizedAffinity 12.5302229
REMARK minimizedRMSD -1
REMARK  0 active torsions:
REMARK  status: ('A' for Active; 'I' for Inactive)
ROOT
ATOM      1  C   UNL d   1       5.086   4.926  -3.166  0.00  0.00    -0.002 A 
ATOM      2  C1  UNL d   1       4.211   3.921  -3.556  0.00  0.00     0.010 A 
ATOM      3  C2  UNL d   1       3.725   3.002  -2.625  0.00  0.00     0.041 A 
ATOM      4  C3  UNL d   1       4.135   3.111  -1.281  0.00  0.00    -0.075 A 
ATOM      5  S   UNL d   1       3.668   2.098   0.033  0.00  0.00     0.015 SA
ATOM      6  C4  UNL d   1       4.618   2.975   1.144  0.00  0.00     0.022 A 
ATOM      7  C5  UNL d   1       5.282   4.019   0.543  0.00  0.00     0.026 A 
ATOM      8  C6  UNL d   1       5.014   4.115  -0.864  0.00  0.00    -0.082 A 
ATOM      9  C7  UNL d   1       5.490   5.031  -1.833  0.00  0.00     0.045 A 
ENDROOT
TORSDOF 0
ENDMDL
