MODEL 1
REMARK minimizedAffinity 8.55282879
REMARK minimizedRMSD -1
REMARK  0 active torsions:
REMARK  status: ('A' for Active; 'I' for Inactive)
ROOT
ATOM      1  C   UNL d   1       5.776   5.271  -3.221  0.00  0.00    -0.002 A 
ATOM      2  C1  UNL d   1       5.588   4.110  -3.958  0.00  0.00     0.010 A 
ATOM      3  C2  UNL d   1       4.333   3.502  -4.017  0.00  0.00     0.041 A 
ATOM      4  C3  UNL d   1       3.259   4.087  -3.318  0.00  0.00    -0.075 A 
ATOM      5  S   UNL d   1       1.632   3.519  -3.246  0.00  0.00     0.015 SA
ATOM      6  C4  UNL d   1       1.149   4.804  -2.237  0.00  0.00     0.022 A 
ATOM      7  C5  UNL d   1       2.190   5.655  -1.951  0.00  0.00     0.026 A 
ATOM      8  C6  UNL d   1       3.423   5.256  -2.570  0.00  0.00    -0.082 A 
ATOM      9  C7  UNL d   1       4.708   5.848  -2.529  0.00  0.00     0.045 A 
ENDROOT
TORSDOF 0
ENDMDL
