MODEL 1
REMARK minimizedAffinity 8.94922924
REMARK minimizedRMSD -1
REMARK  0 active torsions:
REMARK  status: ('A' for Active; 'I' for Inactive)
ROOT
ATOM      1  C   UNL d   1      -2.425   0.320   2.556  0.00  0.00    -0.002 A 
ATOM      2  C1  UNL d   1      -3.609   0.433   1.841  0.00  0.00     0.010 A 
ATOM      3  C2  UNL d   1      -4.730   1.037   2.415  0.00  0.00     0.041 A 
ATOM      4  C3  UNL d   1      -4.639   1.530   3.731  0.00  0.00    -0.075 A 
ATOM      5  S   UNL d   1      -5.883   2.308   4.637  0.00  0.00     0.015 SA
ATOM      6  C4  UNL d   1      -4.872   2.508   5.994  0.00  0.00     0.022 A 
ATOM      7  C5  UNL d   1      -3.613   2.000   5.779  0.00  0.00     0.026 A 
ATOM      8  C6  UNL d   1      -3.458   1.428   4.471  0.00  0.00    -0.082 A 
ATOM      9  C7  UNL d   1      -2.339   0.811   3.861  0.00  0.00     0.045 A 
ENDROOT
TORSDOF 0
ENDMDL
