MODEL 1
REMARK minimizedAffinity 9.99691677
REMARK minimizedRMSD -1
REMARK  0 active torsions:
REMARK  status: ('A' for Active; 'I' for Inactive)
ROOT
ATOM      1  C   UNL d   1      -3.454  -4.580  -4.423  0.00  0.00    -0.002 A 
ATOM      2  C1  UNL d   1      -3.480  -5.509  -5.454  0.00  0.00     0.010 A 
ATOM      3  C2  UNL d   1      -2.291  -6.000  -5.998  0.00  0.00     0.041 A 
ATOM      4  C3  UNL d   1      -1.064  -5.538  -5.482  0.00  0.00    -0.075 A 
ATOM      5  S   UNL d   1       0.517  -6.000  -5.991  0.00  0.00     0.015 SA
ATOM      6  C4  UNL d   1       1.264  -4.976  -4.851  0.00  0.00     0.022 A 
ATOM      7  C5  UNL d   1       0.344  -4.291  -4.093  0.00  0.00     0.026 A 
ATOM      8  C6  UNL d   1      -1.013  -4.604  -4.443  0.00  0.00    -0.082 A 
ATOM      9  C7  UNL d   1      -2.235  -4.125  -3.914  0.00  0.00     0.045 A 
ENDROOT
TORSDOF 0
ENDMDL
