MODEL 1
REMARK minimizedAffinity 4.45857716
REMARK minimizedRMSD -1
REMARK  3 active torsions:
REMARK  status: ('A' for Active; 'I' for Inactive)
REMARK    1  A    between atoms: C3'_2  and  C2'_3 
REMARK    2  A    between atoms: C2'_3  and  C1'_4 
REMARK    3  A    between atoms: C1'_4  and  C1_5 
ROOT
ATOM      1  C1  N4B d   1       0.165   1.950  -2.426  0.00  0.00    -0.075 A 
ATOM      2  C2  N4B d   1       1.022   1.240  -3.297  0.00  0.00     0.002 A 
ATOM      3  C3  N4B d   1       2.061   0.502  -2.787  0.00  0.00     0.002 A 
ATOM      4  C4  N4B d   1       2.275   0.474  -1.417  0.00  0.00    -0.004 A 
ATOM      5  C5  N4B d   1       1.428   1.141  -0.581  0.00  0.00     0.002 A 
ATOM      6  C6  N4B d   1       0.377   1.884  -1.080  0.00  0.00     0.002 A 
ENDROOT
BRANCH   1   7
ATOM      7  C1' N4B d   1      -0.932   2.839  -2.943  0.00  0.00     0.057 C 
BRANCH   7   8
ATOM      8  C2' N4B d   1      -2.283   2.241  -2.561  0.00  0.00     0.009 C 
BRANCH   8   9
ATOM      9  C3' N4B d   1      -3.440   3.111  -3.022  0.00  0.00     0.004 C 
ATOM     10  C4' N4B d   1      -4.239   2.479  -4.123  0.00  0.00     0.003 C 
ENDBRANCH   8   9
ENDBRANCH   7   8
ENDBRANCH   1   7
TORSDOF 3
ENDMDL
