MODEL 1
REMARK minimizedAffinity 2.10184264
REMARK minimizedRMSD -1
REMARK  3 active torsions:
REMARK  status: ('A' for Active; 'I' for Inactive)
REMARK    1  A    between atoms: C3'_2  and  C2'_3 
REMARK    2  A    between atoms: C2'_3  and  C1'_4 
REMARK    3  A    between atoms: C1'_4  and  C1_5 
ROOT
ATOM      1  C1  N4B d   1      -1.647   1.668  -2.209  0.00  0.00    -0.075 A 
ATOM      2  C2  N4B d   1      -0.261   1.935  -2.209  0.00  0.00     0.002 A 
ATOM      3  C3  N4B d   1       0.204   3.151  -2.646  0.00  0.00     0.002 A 
ATOM      4  C4  N4B d   1      -0.693   4.105  -3.103  0.00  0.00    -0.004 A 
ATOM      5  C5  N4B d   1      -2.032   3.849  -3.075  0.00  0.00     0.002 A 
ATOM      6  C6  N4B d   1      -2.514   2.632  -2.635  0.00  0.00     0.002 A 
ENDROOT
BRANCH   1   7
ATOM      7  C1' N4B d   1      -2.197   0.323  -1.821  0.00  0.00     0.057 C 
BRANCH   7   8
ATOM      8  C2' N4B d   1      -3.517   0.092  -2.550  0.00  0.00     0.009 C 
BRANCH   8   9
ATOM      9  C3' N4B d   1      -3.765  -1.381  -2.825  0.00  0.00     0.004 C 
ATOM     10  C4' N4B d   1      -4.894  -1.611  -3.784  0.00  0.00     0.003 C 
ENDBRANCH   8   9
ENDBRANCH   7   8
ENDBRANCH   1   7
TORSDOF 3
ENDMDL
