MODEL 1
REMARK minimizedAffinity 9.7245245
REMARK minimizedRMSD -1
REMARK  3 active torsions:
REMARK  status: ('A' for Active; 'I' for Inactive)
REMARK    1  A    between atoms: C3'_2  and  C2'_3 
REMARK    2  A    between atoms: C2'_3  and  C1'_4 
REMARK    3  A    between atoms: C1'_4  and  C1_5 
ROOT
ATOM      1  C1  N4B d   1       1.934  -2.194   1.281  0.00  0.00    -0.075 A 
ATOM      2  C2  N4B d   1       0.867  -3.114   1.188  0.00  0.00     0.002 A 
ATOM      3  C3  N4B d   1      -0.215  -2.997   2.026  0.00  0.00     0.002 A 
ATOM      4  C4  N4B d   1      -0.243  -1.984   2.972  0.00  0.00    -0.004 A 
ATOM      5  C5  N4B d   1       0.780  -1.084   3.038  0.00  0.00     0.002 A 
ATOM      6  C6  N4B d   1       1.872  -1.187   2.200  0.00  0.00     0.002 A 
ENDROOT
BRANCH   1   7
ATOM      7  C1' N4B d   1       3.177  -2.333   0.445  0.00  0.00     0.057 C 
BRANCH   7   8
ATOM      8  C2' N4B d   1       4.401  -2.272   1.354  0.00  0.00     0.009 C 
BRANCH   8   9
ATOM      9  C3' N4B d   1       5.637  -1.791   0.612  0.00  0.00     0.004 C 
ATOM     10  C4' N4B d   1       5.893  -0.325   0.800  0.00  0.00     0.003 C 
ENDBRANCH   8   9
ENDBRANCH   7   8
ENDBRANCH   1   7
TORSDOF 3
ENDMDL
