MODEL 1
REMARK minimizedAffinity 5.06301975
REMARK minimizedRMSD -1
REMARK  3 active torsions:
REMARK  status: ('A' for Active; 'I' for Inactive)
REMARK    1  A    between atoms: C3'_2  and  C2'_3 
REMARK    2  A    between atoms: C2'_3  and  C1'_4 
REMARK    3  A    between atoms: C1'_4  and  C1_5 
ROOT
ATOM      1  C1  N4B d   1      -3.970   0.790  -2.843  0.00  0.00    -0.075 A 
ATOM      2  C2  N4B d   1      -3.408  -0.105  -1.906  0.00  0.00     0.002 A 
ATOM      3  C3  N4B d   1      -3.830  -1.411  -1.866  0.00  0.00     0.002 A 
ATOM      4  C4  N4B d   1      -4.822  -1.838  -2.736  0.00  0.00    -0.004 A 
ATOM      5  C5  N4B d   1      -5.342  -0.974  -3.654  0.00  0.00     0.002 A 
ATOM      6  C6  N4B d   1      -4.924   0.341  -3.709  0.00  0.00     0.002 A 
ENDROOT
BRANCH   1   7
ATOM      7  C1' N4B d   1      -3.602   2.249  -2.867  0.00  0.00     0.057 C 
BRANCH   7   8
ATOM      8  C2' N4B d   1      -3.967   2.835  -4.228  0.00  0.00     0.009 C 
BRANCH   8   9
ATOM      9  C3' N4B d   1      -4.745   4.133  -4.097  0.00  0.00     0.004 C 
ATOM     10  C4' N4B d   1      -5.486   4.495  -5.349  0.00  0.00     0.003 C 
ENDBRANCH   8   9
ENDBRANCH   7   8
ENDBRANCH   1   7
TORSDOF 3
ENDMDL
