MODEL 1
REMARK minimizedAffinity 4.95318985
REMARK minimizedRMSD -1
REMARK  1 active torsions:
REMARK  status: ('A' for Active; 'I' for Inactive)
REMARK    1  A    between atoms: C1_2  and  C2_3 
ROOT
ATOM      1  C2  UNL d   1       0.910  -0.306   0.703  0.00  0.00    -0.073 A 
ATOM      2  C3  UNL d   1       0.529  -1.597   0.322  0.00  0.00    -0.002 A 
ATOM      3  C4  UNL d   1       0.759  -2.680   1.172  0.00  0.00     0.004 A 
ATOM      4  C5  UNL d   1       1.364  -2.482   2.413  0.00  0.00    -0.004 A 
ATOM      5  C6  UNL d   1       1.742  -1.197   2.817  0.00  0.00    -0.075 A 
ATOM      6  C7  UNL d   1       2.397  -0.968   4.147  0.00  0.00     0.076 C 
ATOM      7  C8  UNL d   1       1.510  -0.115   1.956  0.00  0.00     0.001 A 
ENDROOT
BRANCH   1   8
ATOM      8  C1  UNL d   1       0.658   0.867  -0.208  0.00  0.00     0.053 C 
ATOM      9  C   UNL d   1       0.958   2.193   0.472  0.00  0.00     0.018 C 
ENDBRANCH   1   8
TORSDOF 1
ENDMDL
