MODEL 1
REMARK minimizedAffinity 6.06165361
REMARK minimizedRMSD -1
REMARK  1 active torsions:
REMARK  status: ('A' for Active; 'I' for Inactive)
REMARK    1  A    between atoms: C1_2  and  C2_3 
ROOT
ATOM      1  C2  UNL d   1       1.036  -0.800   1.054  0.00  0.00    -0.073 A 
ATOM      2  C3  UNL d   1       0.609  -2.132   1.102  0.00  0.00    -0.002 A 
ATOM      3  C4  UNL d   1       1.012  -2.964   2.147  0.00  0.00     0.004 A 
ATOM      4  C5  UNL d   1       1.840  -2.473   3.157  0.00  0.00    -0.004 A 
ATOM      5  C6  UNL d   1       2.268  -1.141   3.132  0.00  0.00    -0.075 A 
ATOM      6  C7  UNL d   1       3.160  -0.598   4.209  0.00  0.00     0.076 C 
ATOM      7  C8  UNL d   1       1.860  -0.313   2.078  0.00  0.00     0.001 A 
ENDROOT
BRANCH   1   8
ATOM      8  C1  UNL d   1       0.598   0.104  -0.070  0.00  0.00     0.053 C 
ATOM      9  C   UNL d   1       0.651   1.571   0.326  0.00  0.00     0.018 C 
ENDBRANCH   1   8
TORSDOF 1
ENDMDL
