MODEL 1
REMARK minimizedAffinity -0.0441865176
REMARK minimizedRMSD -1
REMARK  1 active torsions:
REMARK  status: ('A' for Active; 'I' for Inactive)
REMARK    1  A    between atoms: C1_2  and  C2_3 
ROOT
ATOM      1  C2  UNL d   1      -1.357  -5.946  -2.885  0.00  0.00    -0.073 A 
ATOM      2  C3  UNL d   1      -2.267  -5.999  -3.947  0.00  0.00    -0.002 A 
ATOM      3  C4  UNL d   1      -1.810  -5.994  -5.266  0.00  0.00     0.004 A 
ATOM      4  C5  UNL d   1      -0.443  -5.945  -5.536  0.00  0.00    -0.004 A 
ATOM      5  C6  UNL d   1       0.482  -5.904  -4.487  0.00  0.00    -0.075 A 
ATOM      6  C7  UNL d   1       1.956  -5.848  -4.761  0.00  0.00     0.076 C 
ATOM      7  C8  UNL d   1       0.016  -5.906  -3.166  0.00  0.00     0.001 A 
ENDROOT
BRANCH   1   8
ATOM      8  C1  UNL d   1      -1.845  -5.957  -1.459  0.00  0.00     0.053 C 
ATOM      9  C   UNL d   1      -3.363  -5.995  -1.376  0.00  0.00     0.018 C 
ENDBRANCH   1   8
TORSDOF 1
ENDMDL
