MODEL 1
REMARK minimizedAffinity 3.90215516
REMARK minimizedRMSD -1
REMARK  1 active torsions:
REMARK  status: ('A' for Active; 'I' for Inactive)
REMARK    1  A    between atoms: C1_2  and  C2_3 
ROOT
ATOM      1  C2  UNL d   1      -1.093  -5.584  -3.922  0.00  0.00    -0.073 A 
ATOM      2  C3  UNL d   1      -0.423  -4.835  -2.948  0.00  0.00    -0.002 A 
ATOM      3  C4  UNL d   1      -1.077  -4.458  -1.774  0.00  0.00     0.004 A 
ATOM      4  C5  UNL d   1      -2.403  -4.832  -1.559  0.00  0.00    -0.004 A 
ATOM      5  C6  UNL d   1      -3.086  -5.591  -2.515  0.00  0.00    -0.075 A 
ATOM      6  C7  UNL d   1      -4.514  -5.999  -2.300  0.00  0.00     0.076 C 
ATOM      7  C8  UNL d   1      -2.423  -5.963  -3.693  0.00  0.00     0.001 A 
ENDROOT
BRANCH   1   8
ATOM      8  C1  UNL d   1      -0.389  -5.998  -5.188  0.00  0.00     0.053 C 
ATOM      9  C   UNL d   1       1.124  -5.942  -5.044  0.00  0.00     0.018 C 
ENDBRANCH   1   8
TORSDOF 1
ENDMDL
