MODEL 1
REMARK minimizedAffinity -0.916837871
REMARK minimizedRMSD -1
REMARK  1 active torsions:
REMARK  status: ('A' for Active; 'I' for Inactive)
REMARK    1  A    between atoms: C1_2  and  C2_3 
ROOT
ATOM      1  C2  UNL d   1      -1.603  -5.983  -4.035  0.00  0.00    -0.073 A 
ATOM      2  C3  UNL d   1      -1.170  -5.983  -5.365  0.00  0.00    -0.002 A 
ATOM      3  C4  UNL d   1       0.193  -5.980  -5.663  0.00  0.00     0.004 A 
ATOM      4  C5  UNL d   1       1.136  -5.985  -4.636  0.00  0.00    -0.004 A 
ATOM      5  C6  UNL d   1       0.723  -5.997  -3.300  0.00  0.00    -0.075 A 
ATOM      6  C7  UNL d   1       1.725  -5.999  -2.183  0.00  0.00     0.076 C 
ATOM      7  C8  UNL d   1      -0.647  -5.997  -3.008  0.00  0.00     0.001 A 
ENDROOT
BRANCH   1   8
ATOM      8  C1  UNL d   1      -3.074  -5.993  -3.708  0.00  0.00     0.053 C 
ATOM      9  C   UNL d   1      -3.325  -5.998  -2.208  0.00  0.00     0.018 C 
ENDBRANCH   1   8
TORSDOF 1
ENDMDL
