MODEL 1
REMARK minimizedAffinity 1.76049411
REMARK minimizedRMSD -1
REMARK  1 active torsions:
REMARK  status: ('A' for Active; 'I' for Inactive)
REMARK    1  A    between atoms: C1_2  and  C2_3 
ROOT
ATOM      1  C2  UNL d   1      -0.481  -5.983  -4.313  0.00  0.00    -0.073 A 
ATOM      2  C3  UNL d   1       0.485  -5.995  -3.300  0.00  0.00    -0.002 A 
ATOM      3  C4  UNL d   1       0.100  -5.999  -1.959  0.00  0.00     0.004 A 
ATOM      4  C5  UNL d   1      -1.252  -5.999  -1.616  0.00  0.00    -0.004 A 
ATOM      5  C6  UNL d   1      -2.233  -6.000  -2.614  0.00  0.00    -0.075 A 
ATOM      6  C7  UNL d   1      -3.691  -5.997  -2.262  0.00  0.00     0.076 C 
ATOM      7  C8  UNL d   1      -1.838  -5.993  -3.959  0.00  0.00     0.001 A 
ENDROOT
BRANCH   1   8
ATOM      8  C1  UNL d   1      -0.071  -5.985  -5.763  0.00  0.00     0.053 C 
ATOM      9  C   UNL d   1       1.440  -5.961  -5.927  0.00  0.00     0.018 C 
ENDBRANCH   1   8
TORSDOF 1
ENDMDL
