MODEL 1
REMARK minimizedAffinity 12.4318914
REMARK minimizedRMSD -1
REMARK  1 active torsions:
REMARK  status: ('A' for Active; 'I' for Inactive)
REMARK    1  A    between atoms: C1_2  and  C2_3 
ROOT
ATOM      1  C2  UNL d   1       0.417   0.080  -1.030  0.00  0.00    -0.073 A 
ATOM      2  C3  UNL d   1       1.179   0.837  -0.133  0.00  0.00    -0.002 A 
ATOM      3  C4  UNL d   1       1.562   0.298   1.096  0.00  0.00     0.004 A 
ATOM      4  C5  UNL d   1       1.194  -1.003   1.437  0.00  0.00    -0.004 A 
ATOM      5  C6  UNL d   1       0.443  -1.780   0.549  0.00  0.00    -0.075 A 
ATOM      6  C7  UNL d   1       0.037  -3.181   0.902  0.00  0.00     0.076 C 
ATOM      7  C8  UNL d   1       0.060  -1.231  -0.682  0.00  0.00     0.001 A 
ENDROOT
BRANCH   1   8
ATOM      8  C1  UNL d   1       0.007   0.655  -2.361  0.00  0.00     0.053 C 
ATOM      9  C   UNL d   1      -1.452   1.083  -2.371  0.00  0.00     0.018 C 
ENDBRANCH   1   8
TORSDOF 1
ENDMDL
