MODEL 1
REMARK minimizedAffinity 2.62008762
REMARK minimizedRMSD -1
REMARK  1 active torsions:
REMARK  status: ('A' for Active; 'I' for Inactive)
REMARK    1  A    between atoms: C1_2  and  C2_3 
ROOT
ATOM      1  C2  UNL d   1      -0.807  -5.517  -4.625  0.00  0.00    -0.073 A 
ATOM      2  C3  UNL d   1      -2.118  -6.000  -4.557  0.00  0.00    -0.002 A 
ATOM      3  C4  UNL d   1      -2.871  -5.836  -3.393  0.00  0.00     0.004 A 
ATOM      4  C5  UNL d   1      -2.323  -5.182  -2.290  0.00  0.00    -0.004 A 
ATOM      5  C6  UNL d   1      -1.018  -4.681  -2.342  0.00  0.00    -0.075 A 
ATOM      6  C7  UNL d   1      -0.414  -3.977  -1.163  0.00  0.00     0.076 C 
ATOM      7  C8  UNL d   1      -0.268  -4.853  -3.514  0.00  0.00     0.001 A 
ENDROOT
BRANCH   1   8
ATOM      8  C1  UNL d   1       0.007  -5.686  -5.881  0.00  0.00     0.053 C 
ATOM      9  C   UNL d   1       1.474  -5.952  -5.579  0.00  0.00     0.018 C 
ENDBRANCH   1   8
TORSDOF 1
ENDMDL
