MODEL 1
REMARK minimizedAffinity 5.71594095
REMARK minimizedRMSD -1
REMARK  1 active torsions:
REMARK  status: ('A' for Active; 'I' for Inactive)
REMARK    1  A    between atoms: C1_2  and  C2_3 
ROOT
ATOM      1  C2  UNL d   1      -2.057  -5.917  -3.570  0.00  0.00    -0.073 A 
ATOM      2  C3  UNL d   1      -1.784  -5.992  -4.940  0.00  0.00    -0.002 A 
ATOM      3  C4  UNL d   1      -0.467  -5.957  -5.400  0.00  0.00     0.004 A 
ATOM      4  C5  UNL d   1       0.589  -5.854  -4.496  0.00  0.00    -0.004 A 
ATOM      5  C6  UNL d   1       0.338  -5.790  -3.121  0.00  0.00    -0.075 A 
ATOM      6  C7  UNL d   1       1.463  -5.677  -2.135  0.00  0.00     0.076 C 
ATOM      7  C8  UNL d   1      -0.988  -5.823  -2.668  0.00  0.00     0.001 A 
ENDROOT
BRANCH   1   8
ATOM      8  C1  UNL d   1      -3.477  -5.961  -3.068  0.00  0.00     0.053 C 
ATOM      9  C   UNL d   1      -3.545  -5.997  -1.550  0.00  0.00     0.018 C 
ENDBRANCH   1   8
TORSDOF 1
ENDMDL
