MODEL 1
REMARK minimizedAffinity 6.74424744
REMARK minimizedRMSD -1
REMARK  1 active torsions:
REMARK  status: ('A' for Active; 'I' for Inactive)
REMARK    1  A    between atoms: C1_2  and  C2_3 
ROOT
ATOM      1  C2  UNL d   1      -0.821  -1.558   0.695  0.00  0.00    -0.073 A 
ATOM      2  C3  UNL d   1       0.271  -2.426   0.806  0.00  0.00    -0.002 A 
ATOM      3  C4  UNL d   1       1.573  -1.926   0.797  0.00  0.00     0.004 A 
ATOM      4  C5  UNL d   1       1.797  -0.554   0.684  0.00  0.00    -0.004 A 
ATOM      5  C6  UNL d   1       0.718   0.331   0.584  0.00  0.00    -0.075 A 
ATOM      6  C7  UNL d   1       0.942   1.810   0.459  0.00  0.00     0.076 C 
ATOM      7  C8  UNL d   1      -0.587  -0.180   0.591  0.00  0.00     0.001 A 
ENDROOT
BRANCH   1   8
ATOM      8  C1  UNL d   1      -2.230  -2.094   0.710  0.00  0.00     0.053 C 
ATOM      9  C   UNL d   1      -3.261  -0.983   0.833  0.00  0.00     0.018 C 
ENDBRANCH   1   8
TORSDOF 1
ENDMDL
