MODEL 1
REMARK minimizedAffinity 6.33031797
REMARK minimizedRMSD -1
REMARK  1 active torsions:
REMARK  status: ('A' for Active; 'I' for Inactive)
REMARK    1  A    between atoms: C1_2  and  C2_3 
ROOT
ATOM      1  C2  UNL d   1      -3.404  -0.962  -0.015  0.00  0.00    -0.073 A 
ATOM      2  C3  UNL d   1      -3.575  -0.044   1.027  0.00  0.00    -0.002 A 
ATOM      3  C4  UNL d   1      -4.474   1.015   0.893  0.00  0.00     0.004 A 
ATOM      4  C5  UNL d   1      -5.215   1.163  -0.279  0.00  0.00    -0.004 A 
ATOM      5  C6  UNL d   1      -5.067   0.248  -1.327  0.00  0.00    -0.075 A 
ATOM      6  C7  UNL d   1      -5.855   0.394  -2.596  0.00  0.00     0.076 C 
ATOM      7  C8  UNL d   1      -4.160  -0.811  -1.186  0.00  0.00     0.001 A 
ENDROOT
BRANCH   1   8
ATOM      8  C1  UNL d   1      -2.439  -2.111   0.128  0.00  0.00     0.053 C 
ATOM      9  C   UNL d   1      -2.966  -3.185   1.067  0.00  0.00     0.018 C 
ENDBRANCH   1   8
TORSDOF 1
ENDMDL
