MODEL 1
REMARK minimizedAffinity -2.92678976
REMARK minimizedRMSD -1
REMARK  1 active torsions:
REMARK  status: ('A' for Active; 'I' for Inactive)
REMARK    1  A    between atoms: C1_2  and  C2_3 
ROOT
ATOM      1  C2  UNL d   1       5.416  -3.754  -4.424  0.00  0.00    -0.076 A 
ATOM      2  C3  UNL d   1       5.997  -2.566  -3.947  0.00  0.00     0.004 A 
ATOM      3  C4  UNL d   1       5.655  -1.330  -4.495  0.00  0.00    -0.003 A 
ATOM      4  C5  UNL d   1       4.726  -1.263  -5.527  0.00  0.00     0.000 A 
ATOM      5  C6  UNL d   1       4.126  -2.429  -5.999  0.00  0.00     0.000 A 
ATOM      6  C7  UNL d   1       4.447  -3.681  -5.448  0.00  0.00    -0.073 A 
ATOM      7  C8  UNL d   1       3.774  -4.908  -6.000  0.00  0.00     0.078 C 
ENDROOT
BRANCH   1   8
ATOM      8  C1  UNL d   1       5.846  -5.067  -3.810  0.00  0.00     0.053 C 
ATOM      9  C   UNL d   1       4.691  -5.812  -3.159  0.00  0.00     0.018 C 
ENDBRANCH   1   8
TORSDOF 1
ENDMDL
