MODEL 1
REMARK minimizedAffinity -2.82457614
REMARK minimizedRMSD -1
REMARK  1 active torsions:
REMARK  status: ('A' for Active; 'I' for Inactive)
REMARK    1  A    between atoms: C1_2  and  C2_3 
ROOT
ATOM      1  C2  UNL d   1       4.481  -4.268  -4.416  0.00  0.00    -0.076 A 
ATOM      2  C3  UNL d   1       4.109  -2.988  -3.970  0.00  0.00     0.004 A 
ATOM      3  C4  UNL d   1       4.680  -1.842  -4.521  0.00  0.00    -0.003 A 
ATOM      4  C5  UNL d   1       5.632  -1.958  -5.529  0.00  0.00     0.000 A 
ATOM      5  C6  UNL d   1       6.000  -3.219  -5.996  0.00  0.00     0.000 A 
ATOM      6  C7  UNL d   1       5.422  -4.384  -5.462  0.00  0.00    -0.073 A 
ATOM      7  C8  UNL d   1       5.860  -5.719  -5.999  0.00  0.00     0.078 C 
ENDROOT
BRANCH   1   8
ATOM      8  C1  UNL d   1       3.848  -5.475  -3.762  0.00  0.00     0.053 C 
ATOM      9  C   UNL d   1       4.660  -5.993  -2.585  0.00  0.00     0.018 C 
ENDBRANCH   1   8
TORSDOF 1
ENDMDL
