MODEL 1
REMARK minimizedAffinity 0.264921099
REMARK minimizedRMSD -1
REMARK  1 active torsions:
REMARK  status: ('A' for Active; 'I' for Inactive)
REMARK    1  A    between atoms: C1_2  and  C2_3 
ROOT
ATOM      1  C2  UNL d   1       4.658  -3.315  -5.047  0.00  0.00    -0.076 A 
ATOM      2  C3  UNL d   1       5.858  -3.780  -5.612  0.00  0.00     0.004 A 
ATOM      3  C4  UNL d   1       6.000  -5.111  -6.000  0.00  0.00    -0.003 A 
ATOM      4  C5  UNL d   1       4.944  -5.999  -5.829  0.00  0.00     0.000 A 
ATOM      5  C6  UNL d   1       3.740  -5.551  -5.286  0.00  0.00     0.000 A 
ATOM      6  C7  UNL d   1       3.575  -4.209  -4.905  0.00  0.00    -0.073 A 
ATOM      7  C8  UNL d   1       2.257  -3.781  -4.319  0.00  0.00     0.078 C 
ENDROOT
BRANCH   1   8
ATOM      8  C1  UNL d   1       4.571  -1.867  -4.621  0.00  0.00     0.053 C 
ATOM      9  C   UNL d   1       5.938  -1.208  -4.513  0.00  0.00     0.018 C 
ENDBRANCH   1   8
TORSDOF 1
ENDMDL
