MODEL 1
REMARK minimizedAffinity 0.763731062
REMARK minimizedRMSD -1
REMARK  1 active torsions:
REMARK  status: ('A' for Active; 'I' for Inactive)
REMARK    1  A    between atoms: C1_2  and  C2_3 
ROOT
ATOM      1  C2  UNL d   1       3.895  -3.696  -4.716  0.00  0.00    -0.076 A 
ATOM      2  C3  UNL d   1       3.277  -4.806  -5.317  0.00  0.00     0.004 A 
ATOM      3  C4  UNL d   1       4.009  -5.949  -5.637  0.00  0.00    -0.003 A 
ATOM      4  C5  UNL d   1       5.371  -5.999  -5.360  0.00  0.00     0.000 A 
ATOM      5  C6  UNL d   1       5.996  -4.914  -4.747  0.00  0.00     0.000 A 
ATOM      6  C7  UNL d   1       5.269  -3.761  -4.403  0.00  0.00    -0.073 A 
ATOM      7  C8  UNL d   1       5.996  -2.618  -3.749  0.00  0.00     0.078 C 
ENDROOT
BRANCH   1   8
ATOM      8  C1  UNL d   1       3.055  -2.475  -4.416  0.00  0.00     0.053 C 
ATOM      9  C   UNL d   1       3.439  -1.279  -5.275  0.00  0.00     0.018 C 
ENDBRANCH   1   8
TORSDOF 1
ENDMDL
