MODEL 1
REMARK minimizedAffinity -1.77133358
REMARK minimizedRMSD -1
REMARK  1 active torsions:
REMARK  status: ('A' for Active; 'I' for Inactive)
REMARK    1  A    between atoms: C1_2  and  C2_3 
ROOT
ATOM      1  C2  UNL d   1       4.520  -3.400  -5.185  0.00  0.00    -0.076 A 
ATOM      2  C3  UNL d   1       4.070  -4.459  -5.993  0.00  0.00     0.004 A 
ATOM      3  C4  UNL d   1       4.581  -5.746  -5.839  0.00  0.00    -0.003 A 
ATOM      4  C5  UNL d   1       5.551  -5.996  -4.874  0.00  0.00     0.000 A 
ATOM      5  C6  UNL d   1       5.996  -4.961  -4.052  0.00  0.00     0.000 A 
ATOM      6  C7  UNL d   1       5.479  -3.661  -4.183  0.00  0.00    -0.073 A 
ATOM      7  C8  UNL d   1       6.000  -2.581  -3.274  0.00  0.00     0.078 C 
ENDROOT
BRANCH   1   8
ATOM      8  C1  UNL d   1       3.948  -2.019  -5.416  0.00  0.00     0.053 C 
ATOM      9  C   UNL d   1       4.971  -1.055  -5.998  0.00  0.00     0.018 C 
ENDBRANCH   1   8
TORSDOF 1
ENDMDL
