MODEL 1
REMARK minimizedAffinity -2.28547668
REMARK minimizedRMSD -1
REMARK  1 active torsions:
REMARK  status: ('A' for Active; 'I' for Inactive)
REMARK    1  A    between atoms: C1_2  and  C2_3 
ROOT
ATOM      1  C2  UNL d   1       4.975  -3.544  -4.195  0.00  0.00    -0.076 A 
ATOM      2  C3  UNL d   1       5.496  -4.744  -3.683  0.00  0.00     0.004 A 
ATOM      3  C4  UNL d   1       5.244  -5.963  -4.311  0.00  0.00    -0.003 A 
ATOM      4  C5  UNL d   1       4.467  -6.000  -5.464  0.00  0.00     0.000 A 
ATOM      5  C6  UNL d   1       3.956  -4.816  -5.996  0.00  0.00     0.000 A 
ATOM      6  C7  UNL d   1       4.214  -3.578  -5.384  0.00  0.00    -0.073 A 
ATOM      7  C8  UNL d   1       3.634  -2.334  -5.998  0.00  0.00     0.078 C 
ENDROOT
BRANCH   1   8
ATOM      8  C1  UNL d   1       5.259  -2.256  -3.455  0.00  0.00     0.053 C 
ATOM      9  C   UNL d   1       5.998  -1.242  -4.314  0.00  0.00     0.018 C 
ENDBRANCH   1   8
TORSDOF 1
ENDMDL
