MODEL 1
REMARK minimizedAffinity -1.81774843
REMARK minimizedRMSD -1
REMARK  1 active torsions:
REMARK  status: ('A' for Active; 'I' for Inactive)
REMARK    1  A    between atoms: C1_2  and  C2_3 
ROOT
ATOM      1  C2  UNL d   1       4.876  -4.409  -4.164  0.00  0.00    -0.076 A 
ATOM      2  C3  UNL d   1       4.528  -3.151  -3.641  0.00  0.00     0.004 A 
ATOM      3  C4  UNL d   1       4.917  -1.975  -4.281  0.00  0.00    -0.003 A 
ATOM      4  C5  UNL d   1       5.659  -2.038  -5.456  0.00  0.00     0.000 A 
ATOM      5  C6  UNL d   1       5.998  -3.278  -5.998  0.00  0.00     0.000 A 
ATOM      6  C7  UNL d   1       5.600  -4.472  -5.374  0.00  0.00    -0.073 A 
ATOM      7  C8  UNL d   1       5.998  -5.781  -6.000  0.00  0.00     0.078 C 
ENDROOT
BRANCH   1   8
ATOM      8  C1  UNL d   1       4.450  -5.649  -3.411  0.00  0.00     0.053 C 
ATOM      9  C   UNL d   1       5.404  -6.000  -2.279  0.00  0.00     0.018 C 
ENDBRANCH   1   8
TORSDOF 1
ENDMDL
