MODEL 1
REMARK minimizedAffinity -2.96600556
REMARK minimizedRMSD -1
REMARK  1 active torsions:
REMARK  status: ('A' for Active; 'I' for Inactive)
REMARK    1  A    between atoms: C1_2  and  C2_3 
ROOT
ATOM      1  C2  UNL d   1       5.334  -3.070  -4.690  0.00  0.00    -0.076 A 
ATOM      2  C3  UNL d   1       6.000  -4.175  -4.132  0.00  0.00     0.004 A 
ATOM      3  C4  UNL d   1       5.421  -5.443  -4.144  0.00  0.00    -0.003 A 
ATOM      4  C5  UNL d   1       4.166  -5.626  -4.716  0.00  0.00     0.000 A 
ATOM      5  C6  UNL d   1       3.499  -4.544  -5.290  0.00  0.00     0.000 A 
ATOM      6  C7  UNL d   1       4.076  -3.263  -5.300  0.00  0.00    -0.073 A 
ATOM      7  C8  UNL d   1       3.310  -2.131  -5.928  0.00  0.00     0.078 C 
ENDROOT
BRANCH   1   8
ATOM      8  C1  UNL d   1       6.000  -1.714  -4.624  0.00  0.00     0.053 C 
ATOM      9  C   UNL d   1       5.998  -0.998  -5.965  0.00  0.00     0.018 C 
ENDBRANCH   1   8
TORSDOF 1
ENDMDL
