MODEL 1
REMARK minimizedAffinity 15.7945633
REMARK minimizedRMSD -1
REMARK  0 active torsions:
REMARK  status: ('A' for Active; 'I' for Inactive)
ROOT
ATOM      1  C1  DEN d   1       5.988   2.572  -0.405  0.00  0.00     0.130 A 
ATOM      2  C2  DEN d   1       5.962   2.776   1.041  0.00  0.00    -0.031 A 
ATOM      3  C3  DEN d   1       5.954   1.449   1.689  0.00  0.00     0.027 A 
ATOM      4  C4  DEN d   1       5.982  -0.889   0.601  0.00  0.00     0.027 A 
ATOM      5  C5  DEN d   1       5.993  -1.570  -0.596  0.00  0.00    -0.003 A 
ATOM      6  C6  DEN d   1       5.969  -0.924  -1.804  0.00  0.00     0.001 A 
ATOM      7  C7  DEN d   1       5.978   0.446  -1.841  0.00  0.00     0.017 A 
ATOM      8  C8  DEN d   1       5.959   1.139  -0.638  0.00  0.00    -0.094 A 
ATOM      9  C9  DEN d   1       5.997   0.468   0.572  0.00  0.00    -0.072 A 
ENDROOT
TORSDOF 0
ENDMDL
