MODEL 1
REMARK minimizedAffinity 0.359890223
REMARK minimizedRMSD -1
REMARK  0 active torsions:
REMARK  status: ('A' for Active; 'I' for Inactive)
ROOT
ATOM      1  C1  DEN d   1      -0.289  -1.506   3.718  0.00  0.00     0.130 A 
ATOM      2  C2  DEN d   1      -1.167  -0.373   3.440  0.00  0.00    -0.031 A 
ATOM      3  C3  DEN d   1      -1.044  -0.042   2.006  0.00  0.00     0.027 A 
ATOM      4  C4  DEN d   1       0.409  -1.171   0.198  0.00  0.00     0.027 A 
ATOM      5  C5  DEN d   1       1.330  -2.166  -0.041  0.00  0.00    -0.003 A 
ATOM      6  C6  DEN d   1       1.798  -2.983   0.954  0.00  0.00     0.001 A 
ATOM      7  C7  DEN d   1       1.312  -2.848   2.228  0.00  0.00     0.017 A 
ATOM      8  C8  DEN d   1       0.388  -1.842   2.478  0.00  0.00    -0.094 A 
ATOM      9  C9  DEN d   1      -0.082  -1.034   1.456  0.00  0.00    -0.072 A 
ENDROOT
TORSDOF 0
ENDMDL
