MODEL 1
REMARK minimizedAffinity 13.9244013
REMARK minimizedRMSD -1
REMARK  0 active torsions:
REMARK  status: ('A' for Active; 'I' for Inactive)
ROOT
ATOM      1  C1  DEN d   1       1.603  -5.156   1.453  0.00  0.00     0.130 A 
ATOM      2  C2  DEN d   1       2.628  -5.600   0.512  0.00  0.00    -0.031 A 
ATOM      3  C3  DEN d   1       3.168  -4.408  -0.171  0.00  0.00     0.027 A 
ATOM      4  C4  DEN d   1       2.524  -1.929   0.139  0.00  0.00     0.027 A 
ATOM      5  C5  DEN d   1       1.697  -1.061   0.816  0.00  0.00    -0.003 A 
ATOM      6  C6  DEN d   1       0.765  -1.495   1.721  0.00  0.00     0.001 A 
ATOM      7  C7  DEN d   1       0.668  -2.832   2.006  0.00  0.00     0.017 A 
ATOM      8  C8  DEN d   1       1.493  -3.714   1.322  0.00  0.00    -0.094 A 
ATOM      9  C9  DEN d   1       2.438  -3.254   0.420  0.00  0.00    -0.072 A 
ENDROOT
TORSDOF 0
ENDMDL
