MODEL 1
REMARK minimizedAffinity 4.33423805
REMARK minimizedRMSD -1
REMARK  0 active torsions:
REMARK  status: ('A' for Active; 'I' for Inactive)
ROOT
ATOM      1  C1  DEN d   1      -1.077  -0.497   2.062  0.00  0.00     0.130 A 
ATOM      2  C2  DEN d   1      -1.738  -1.259   3.117  0.00  0.00    -0.031 A 
ATOM      3  C3  DEN d   1      -1.026  -2.544   3.267  0.00  0.00     0.027 A 
ATOM      4  C4  DEN d   1       1.030  -3.419   1.978  0.00  0.00     0.027 A 
ATOM      5  C5  DEN d   1       1.935  -3.132   0.980  0.00  0.00    -0.003 A 
ATOM      6  C6  DEN d   1       1.879  -1.971   0.256  0.00  0.00     0.001 A 
ATOM      7  C7  DEN d   1       0.925  -1.033   0.549  0.00  0.00     0.017 A 
ATOM      8  C8  DEN d   1       0.004  -1.319   1.549  0.00  0.00    -0.094 A 
ATOM      9  C9  DEN d   1       0.085  -2.493   2.278  0.00  0.00    -0.072 A 
ENDROOT
TORSDOF 0
ENDMDL
