MODEL 1
REMARK minimizedAffinity 3.26090527
REMARK minimizedRMSD -1
REMARK  0 active torsions:
REMARK  status: ('A' for Active; 'I' for Inactive)
ROOT
ATOM      1  C1  DEN d   1      -0.231  -2.538   2.946  0.00  0.00     0.130 A 
ATOM      2  C2  DEN d   1      -0.392  -1.122   3.267  0.00  0.00    -0.031 A 
ATOM      3  C3  DEN d   1       0.521  -0.351   2.400  0.00  0.00     0.027 A 
ATOM      4  C4  DEN d   1       2.157  -1.206   0.597  0.00  0.00     0.027 A 
ATOM      5  C5  DEN d   1       2.653  -2.329  -0.026  0.00  0.00    -0.003 A 
ATOM      6  C6  DEN d   1       2.252  -3.593   0.319  0.00  0.00     0.001 A 
ATOM      7  C7  DEN d   1       1.293  -3.761   1.283  0.00  0.00     0.017 A 
ATOM      8  C8  DEN d   1       0.793  -2.633   1.920  0.00  0.00    -0.094 A 
ATOM      9  C9  DEN d   1       1.203  -1.364   1.549  0.00  0.00    -0.072 A 
ENDROOT
TORSDOF 0
ENDMDL
