MODEL 1
REMARK minimizedAffinity 7.59072876
REMARK minimizedRMSD -1
REMARK  0 active torsions:
REMARK  status: ('A' for Active; 'I' for Inactive)
ROOT
ATOM      1  C1  DEN d   1      -0.585   2.883  -2.686  0.00  0.00     0.130 A 
ATOM      2  C2  DEN d   1      -1.519   1.849  -3.123  0.00  0.00    -0.031 A 
ATOM      3  C3  DEN d   1      -1.098   1.389  -4.461  0.00  0.00     0.027 A 
ATOM      4  C4  DEN d   1       0.901   2.170  -5.891  0.00  0.00     0.027 A 
ATOM      5  C5  DEN d   1       1.971   3.035  -5.946  0.00  0.00    -0.003 A 
ATOM      6  C6  DEN d   1       2.242   3.927  -4.942  0.00  0.00     0.001 A 
ATOM      7  C7  DEN d   1       1.459   3.942  -3.819  0.00  0.00     0.017 A 
ATOM      8  C8  DEN d   1       0.374   3.078  -3.759  0.00  0.00    -0.094 A 
ATOM      9  C9  DEN d   1       0.124   2.175  -4.779  0.00  0.00    -0.072 A 
ENDROOT
TORSDOF 0
ENDMDL
