MODEL 1
REMARK minimizedAffinity 6.30722713
REMARK minimizedRMSD -1
REMARK  0 active torsions:
REMARK  status: ('A' for Active; 'I' for Inactive)
ROOT
ATOM      1  C1  DEN d   1       5.559  -1.374   0.619  0.00  0.00     0.130 A 
ATOM      2  C2  DEN d   1       5.053  -0.036   0.323  0.00  0.00    -0.031 A 
ATOM      3  C3  DEN d   1       3.588  -0.050   0.511  0.00  0.00     0.027 A 
ATOM      4  C4  DEN d   1       2.063  -2.001   1.233  0.00  0.00     0.027 A 
ATOM      5  C5  DEN d   1       2.035  -3.333   1.583  0.00  0.00    -0.003 A 
ATOM      6  C6  DEN d   1       3.164  -4.107   1.604  0.00  0.00     0.001 A 
ATOM      7  C7  DEN d   1       4.378  -3.544   1.311  0.00  0.00     0.017 A 
ATOM      8  C8  DEN d   1       4.414  -2.204   0.950  0.00  0.00    -0.094 A 
ATOM      9  C9  DEN d   1       3.263  -1.435   0.947  0.00  0.00    -0.072 A 
ENDROOT
TORSDOF 0
ENDMDL
