MODEL 1
REMARK minimizedAffinity -3.92845392
REMARK minimizedRMSD -1
REMARK  0 active torsions:
REMARK  status: ('A' for Active; 'I' for Inactive)
ROOT
ATOM      1  C2' OXE d   1       0.482  -0.761  -1.864  0.00  0.00     0.078 C 
ATOM      2  C1' OXE d   1       2.194   0.338  -3.797  0.00  0.00     0.078 C 
ATOM      3  C1  OXE d   1       0.854  -0.178  -4.257  0.00  0.00    -0.078 A 
ATOM      4  C2  OXE d   1       0.041  -0.757  -3.312  0.00  0.00    -0.078 A 
ATOM      5  C3  OXE d   1      -1.228  -1.199  -3.672  0.00  0.00     0.003 A 
ATOM      6  C4  OXE d   1      -1.624  -1.200  -5.015  0.00  0.00    -0.002 A 
ATOM      7  C5  OXE d   1      -0.795  -0.652  -6.000  0.00  0.00    -0.002 A 
ATOM      8  C6  OXE d   1       0.426  -0.099  -5.632  0.00  0.00     0.003 A 
ENDROOT
TORSDOF 0
ENDMDL
