MODEL 1
REMARK minimizedAffinity -3.05216837
REMARK minimizedRMSD -1
REMARK  0 active torsions:
REMARK  status: ('A' for Active; 'I' for Inactive)
ROOT
ATOM      1  C2' OXE d   1       0.715  -0.512  -1.528  0.00  0.00     0.078 C 
ATOM      2  C1' OXE d   1       2.262  -1.208   0.709  0.00  0.00     0.078 C 
ATOM      3  C1  OXE d   1       0.868  -0.685   0.953  0.00  0.00    -0.078 A 
ATOM      4  C2  OXE d   1       0.136  -0.303  -0.145  0.00  0.00    -0.078 A 
ATOM      5  C3  OXE d   1      -1.176   0.134   0.019  0.00  0.00     0.003 A 
ATOM      6  C4  OXE d   1      -1.700   0.334   1.302  0.00  0.00    -0.002 A 
ATOM      7  C5  OXE d   1      -0.956  -0.011   2.435  0.00  0.00    -0.002 A 
ATOM      8  C6  OXE d   1       0.311  -0.561   2.277  0.00  0.00     0.003 A 
ENDROOT
TORSDOF 0
ENDMDL
