MODEL 1
REMARK minimizedAffinity -4.46660137
REMARK minimizedRMSD -1
REMARK  0 active torsions:
REMARK  status: ('A' for Active; 'I' for Inactive)
ROOT
ATOM      1  C2' OXE d   1       1.045  -1.266  -0.930  0.00  0.00     0.078 C 
ATOM      2  C1' OXE d   1       1.892  -0.123   1.490  0.00  0.00     0.078 C 
ATOM      3  C1  OXE d   1       0.453   0.076   1.083  0.00  0.00    -0.078 A 
ATOM      4  C2  OXE d   1       0.060  -0.447  -0.125  0.00  0.00    -0.078 A 
ATOM      5  C3  OXE d   1      -1.270  -0.339  -0.523  0.00  0.00     0.003 A 
ATOM      6  C4  OXE d   1      -2.173   0.429   0.223  0.00  0.00    -0.002 A 
ATOM      7  C5  OXE d   1      -1.782   1.004   1.437  0.00  0.00    -0.002 A 
ATOM      8  C6  OXE d   1      -0.487   0.802   1.901  0.00  0.00     0.003 A 
ENDROOT
TORSDOF 0
ENDMDL
