MODEL 1
REMARK minimizedAffinity -4.08202648
REMARK minimizedRMSD -1
REMARK  0 active torsions:
REMARK  status: ('A' for Active; 'I' for Inactive)
ROOT
ATOM      1  C2' OXE d   1       0.614  -0.947  -0.824  0.00  0.00     0.078 C 
ATOM      2  C1' OXE d   1       1.981  -0.701   1.616  0.00  0.00     0.078 C 
ATOM      3  C1  OXE d   1       0.533  -0.281   1.575  0.00  0.00    -0.078 A 
ATOM      4  C2  OXE d   1      -0.115  -0.361   0.366  0.00  0.00    -0.078 A 
ATOM      5  C3  OXE d   1      -1.466  -0.038   0.285  0.00  0.00     0.003 A 
ATOM      6  C4  OXE d   1      -2.130   0.513   1.388  0.00  0.00    -0.002 A 
ATOM      7  C5  OXE d   1      -1.478   0.640   2.619  0.00  0.00    -0.002 A 
ATOM      8  C6  OXE d   1      -0.161   0.209   2.740  0.00  0.00     0.003 A 
ENDROOT
TORSDOF 0
ENDMDL
