MODEL 1
REMARK minimizedAffinity -0.191464707
REMARK minimizedRMSD -1
REMARK  0 active torsions:
REMARK  status: ('A' for Active; 'I' for Inactive)
ROOT
ATOM      1  C2' OXE d   1       0.708  -0.117   4.093  0.00  0.00     0.078 C 
ATOM      2  C1' OXE d   1       2.317  -0.389   1.809  0.00  0.00     0.078 C 
ATOM      3  C1  OXE d   1       0.853  -0.087   1.606  0.00  0.00    -0.078 A 
ATOM      4  C2  OXE d   1       0.064  -0.002   2.728  0.00  0.00    -0.078 A 
ATOM      5  C3  OXE d   1      -1.282   0.329   2.601  0.00  0.00     0.003 A 
ATOM      6  C4  OXE d   1      -1.872   0.423   1.334  0.00  0.00    -0.002 A 
ATOM      7  C5  OXE d   1      -1.094   0.300   0.178  0.00  0.00    -0.002 A 
ATOM      8  C6  OXE d   1       0.275   0.087   0.297  0.00  0.00     0.003 A 
ENDROOT
TORSDOF 0
ENDMDL
