MODEL 1
REMARK minimizedAffinity -3.91465902
REMARK minimizedRMSD -1
REMARK  0 active torsions:
REMARK  status: ('A' for Active; 'I' for Inactive)
ROOT
ATOM      1  C2' OXE d   1       0.835  -0.824  -0.793  0.00  0.00     0.078 C 
ATOM      2  C1' OXE d   1       1.597  -0.122   1.816  0.00  0.00     0.078 C 
ATOM      3  C1  OXE d   1       0.158   0.098   1.420  0.00  0.00    -0.078 A 
ATOM      4  C2  OXE d   1      -0.195  -0.205   0.127  0.00  0.00    -0.078 A 
ATOM      5  C3  OXE d   1      -1.521  -0.072  -0.274  0.00  0.00     0.003 A 
ATOM      6  C4  OXE d   1      -2.465   0.511   0.579  0.00  0.00    -0.002 A 
ATOM      7  C5  OXE d   1      -2.117   0.863   1.888  0.00  0.00    -0.002 A 
ATOM      8  C6  OXE d   1      -0.823   0.625   2.336  0.00  0.00     0.003 A 
ENDROOT
TORSDOF 0
ENDMDL
