MODEL 1
REMARK minimizedAffinity -4.9811511
REMARK minimizedRMSD -1
REMARK  0 active torsions:
REMARK  status: ('A' for Active; 'I' for Inactive)
ROOT
ATOM      1  C2' OXE d   1      -1.791  -0.354  -0.468  0.00  0.00     0.078 C 
ATOM      2  C1' OXE d   1      -0.915   0.434   2.080  0.00  0.00     0.078 C 
ATOM      3  C1  OXE d   1       0.101  -0.169   1.142  0.00  0.00    -0.078 A 
ATOM      4  C2  OXE d   1      -0.346  -0.594  -0.086  0.00  0.00    -0.078 A 
ATOM      5  C3  OXE d   1       0.559  -1.107  -1.010  0.00  0.00     0.003 A 
ATOM      6  C4  OXE d   1       1.892  -1.335  -0.645  0.00  0.00    -0.002 A 
ATOM      7  C5  OXE d   1       2.359  -0.946   0.615  0.00  0.00    -0.002 A 
ATOM      8  C6  OXE d   1       1.489  -0.323   1.502  0.00  0.00     0.003 A 
ENDROOT
TORSDOF 0
ENDMDL
