MODEL 1
REMARK minimizedAffinity -0.662517786
REMARK minimizedRMSD -1
REMARK  0 active torsions:
REMARK  status: ('A' for Active; 'I' for Inactive)
ROOT
ATOM      1  C2' OXE d   1      -1.339   0.613   1.991  0.00  0.00     0.078 C 
ATOM      2  C1' OXE d   1      -2.498  -0.364  -0.371  0.00  0.00     0.078 C 
ATOM      3  C1  OXE d   1      -0.998  -0.451  -0.235  0.00  0.00    -0.078 A 
ATOM      4  C2  OXE d   1      -0.436   0.072   0.904  0.00  0.00    -0.078 A 
ATOM      5  C3  OXE d   1       0.938  -0.031   1.104  0.00  0.00     0.003 A 
ATOM      6  C4  OXE d   1       1.767  -0.524   0.090  0.00  0.00    -0.002 A 
ATOM      7  C5  OXE d   1       1.218  -1.025  -1.095  0.00  0.00    -0.002 A 
ATOM      8  C6  OXE d   1      -0.163  -1.035  -1.256  0.00  0.00     0.003 A 
ENDROOT
TORSDOF 0
ENDMDL
