MODEL 1
REMARK minimizedAffinity -0.866333544
REMARK minimizedRMSD -1
REMARK  0 active torsions:
REMARK  status: ('A' for Active; 'I' for Inactive)
ROOT
ATOM      1  C2' OXE d   1      -0.230  -0.268  -2.200  0.00  0.00     0.078 C 
ATOM      2  C1' OXE d   1       1.057  -1.361   0.043  0.00  0.00     0.078 C 
ATOM      3  C1  OXE d   1      -0.189  -0.542   0.276  0.00  0.00    -0.078 A 
ATOM      4  C2  OXE d   1      -0.785   0.027  -0.823  0.00  0.00    -0.078 A 
ATOM      5  C3  OXE d   1      -1.967   0.747  -0.671  0.00  0.00     0.003 A 
ATOM      6  C4  OXE d   1      -2.469   1.023   0.606  0.00  0.00    -0.002 A 
ATOM      7  C5  OXE d   1      -1.854   0.486   1.742  0.00  0.00    -0.002 A 
ATOM      8  C6  OXE d   1      -0.740  -0.333   1.591  0.00  0.00     0.003 A 
ENDROOT
TORSDOF 0
ENDMDL
