MODEL 1
REMARK minimizedAffinity -2.4722085
REMARK minimizedRMSD -1
REMARK  0 active torsions:
REMARK  status: ('A' for Active; 'I' for Inactive)
ROOT
ATOM      1  C   UNL d   1       0.931   2.645  -1.255  0.00  0.00    -0.002 A 
ATOM      2  C1  UNL d   1       0.385   3.214  -0.113  0.00  0.00     0.010 A 
ATOM      3  C2  UNL d   1      -0.258   2.419   0.839  0.00  0.00     0.041 A 
ATOM      4  C3  UNL d   1      -0.342   1.030   0.622  0.00  0.00    -0.075 A 
ATOM      5  S   UNL d   1      -1.081  -0.140   1.651  0.00  0.00     0.015 SA
ATOM      6  C4  UNL d   1      -0.689  -1.422   0.599  0.00  0.00     0.022 A 
ATOM      7  C5  UNL d   1      -0.010  -0.987  -0.515  0.00  0.00     0.026 A 
ATOM      8  C6  UNL d   1       0.201   0.434  -0.520  0.00  0.00    -0.082 A 
ATOM      9  C7  UNL d   1       0.846   1.266  -1.466  0.00  0.00     0.045 A 
ENDROOT
TORSDOF 0
ENDMDL
