MODEL 1
REMARK minimizedAffinity -3.85790539
REMARK minimizedRMSD -1
REMARK  0 active torsions:
REMARK  status: ('A' for Active; 'I' for Inactive)
ROOT
ATOM      1  C   UNL d   1       1.215   3.311  -0.025  0.00  0.00    -0.002 A 
ATOM      2  C1  UNL d   1       2.327   2.648   0.475  0.00  0.00     0.010 A 
ATOM      3  C2  UNL d   1       2.354   1.253   0.537  0.00  0.00     0.041 A 
ATOM      4  C3  UNL d   1       1.236   0.529   0.081  0.00  0.00    -0.075 A 
ATOM      5  S   UNL d   1       1.045  -1.184   0.060  0.00  0.00     0.015 SA
ATOM      6  C4  UNL d   1      -0.516  -1.077  -0.615  0.00  0.00     0.022 A 
ATOM      7  C5  UNL d   1      -0.899   0.227  -0.825  0.00  0.00     0.026 A 
ATOM      8  C6  UNL d   1       0.105   1.174  -0.428  0.00  0.00    -0.082 A 
ATOM      9  C7  UNL d   1       0.107   2.589  -0.477  0.00  0.00     0.045 A 
ENDROOT
TORSDOF 0
ENDMDL
