MODEL 1
REMARK minimizedAffinity -2.03179526
REMARK minimizedRMSD -1
REMARK  0 active torsions:
REMARK  status: ('A' for Active; 'I' for Inactive)
ROOT
ATOM      1  C   UNL d   1      -0.010   3.226   0.173  0.00  0.00    -0.002 A 
ATOM      2  C1  UNL d   1       0.809   2.815  -0.868  0.00  0.00     0.010 A 
ATOM      3  C2  UNL d   1       0.944   1.459  -1.174  0.00  0.00     0.041 A 
ATOM      4  C3  UNL d   1       0.232   0.514  -0.409  0.00  0.00    -0.075 A 
ATOM      5  S   UNL d   1       0.241  -1.199  -0.602  0.00  0.00     0.015 SA
ATOM      6  C4  UNL d   1      -0.844  -1.426   0.693  0.00  0.00     0.022 A 
ATOM      7  C5  UNL d   1      -1.214  -0.234   1.270  0.00  0.00     0.026 A 
ATOM      8  C6  UNL d   1      -0.601   0.904   0.644  0.00  0.00    -0.082 A 
ATOM      9  C7  UNL d   1      -0.715   2.286   0.930  0.00  0.00     0.045 A 
ENDROOT
TORSDOF 0
ENDMDL
