MODEL 1
REMARK minimizedAffinity -1.73644722
REMARK minimizedRMSD -1
REMARK  0 active torsions:
REMARK  status: ('A' for Active; 'I' for Inactive)
ROOT
ATOM      1  C   UNL d   1       0.386   3.120   0.376  0.00  0.00    -0.002 A 
ATOM      2  C1  UNL d   1      -0.871   2.532   0.330  0.00  0.00     0.010 A 
ATOM      3  C2  UNL d   1      -1.006   1.143   0.355  0.00  0.00     0.041 A 
ATOM      4  C3  UNL d   1       0.153   0.346   0.431  0.00  0.00    -0.075 A 
ATOM      5  S   UNL d   1       0.231  -1.375   0.475  0.00  0.00     0.015 SA
ATOM      6  C4  UNL d   1       1.933  -1.371   0.557  0.00  0.00     0.022 A 
ATOM      7  C5  UNL d   1       2.447  -0.096   0.551  0.00  0.00     0.026 A 
ATOM      8  C6  UNL d   1       1.429   0.915   0.479  0.00  0.00    -0.082 A 
ATOM      9  C7  UNL d   1       1.534   2.327   0.450  0.00  0.00     0.045 A 
ENDROOT
TORSDOF 0
ENDMDL
