MODEL 1
REMARK minimizedAffinity -1.53106821
REMARK minimizedRMSD -1
REMARK  0 active torsions:
REMARK  status: ('A' for Active; 'I' for Inactive)
ROOT
ATOM      1  C   UNL d   1      -0.001   3.377   0.434  0.00  0.00    -0.002 A 
ATOM      2  C1  UNL d   1       0.869   2.997  -0.578  0.00  0.00     0.010 A 
ATOM      3  C2  UNL d   1       0.916   1.672  -1.014  0.00  0.00     0.041 A 
ATOM      4  C3  UNL d   1       0.063   0.725  -0.412  0.00  0.00    -0.075 A 
ATOM      5  S   UNL d   1      -0.055  -0.954  -0.785  0.00  0.00     0.015 SA
ATOM      6  C4  UNL d   1      -1.264  -1.206   0.390  0.00  0.00     0.022 A 
ATOM      7  C5  UNL d   1      -1.582  -0.048   1.059  0.00  0.00     0.026 A 
ATOM      8  C6  UNL d   1      -0.823   1.084   0.608  0.00  0.00    -0.082 A 
ATOM      9  C7  UNL d   1      -0.845   2.436   1.029  0.00  0.00     0.045 A 
ENDROOT
TORSDOF 0
ENDMDL
