MODEL 1
REMARK minimizedAffinity -2.06656408
REMARK minimizedRMSD -1
REMARK  0 active torsions:
REMARK  status: ('A' for Active; 'I' for Inactive)
ROOT
ATOM      1  C   UNL d   1       0.097  -1.680  -0.758  0.00  0.00    -0.002 A 
ATOM      2  C1  UNL d   1      -0.823  -1.651   0.280  0.00  0.00     0.010 A 
ATOM      3  C2  UNL d   1      -1.129  -0.451   0.925  0.00  0.00     0.041 A 
ATOM      4  C3  UNL d   1      -0.490   0.731   0.504  0.00  0.00    -0.075 A 
ATOM      5  S   UNL d   1      -0.709   2.316   1.145  0.00  0.00     0.015 SA
ATOM      6  C4  UNL d   1       0.414   2.993   0.056  0.00  0.00     0.022 A 
ATOM      7  C5  UNL d   1       0.952   2.047  -0.784  0.00  0.00     0.026 A 
ATOM      8  C6  UNL d   1       0.440   0.728  -0.540  0.00  0.00    -0.082 A 
ATOM      9  C7  UNL d   1       0.729  -0.505  -1.173  0.00  0.00     0.045 A 
ENDROOT
TORSDOF 0
ENDMDL
