MODEL 1
REMARK minimizedAffinity -1.79215932
REMARK minimizedRMSD -1
REMARK  0 active torsions:
REMARK  status: ('A' for Active; 'I' for Inactive)
ROOT
ATOM      1  C   UNL d   1       0.289   3.440   0.722  0.00  0.00    -0.002 A 
ATOM      2  C1  UNL d   1       1.102   3.119  -0.356  0.00  0.00     0.010 A 
ATOM      3  C2  UNL d   1       1.132   1.818  -0.861  0.00  0.00     0.041 A 
ATOM      4  C3  UNL d   1       0.323   0.834  -0.258  0.00  0.00    -0.075 A 
ATOM      5  S   UNL d   1       0.196  -0.825  -0.707  0.00  0.00     0.015 SA
ATOM      6  C4  UNL d   1      -0.940  -1.148   0.521  0.00  0.00     0.022 A 
ATOM      7  C5  UNL d   1      -1.227  -0.028   1.265  0.00  0.00     0.026 A 
ATOM      8  C6  UNL d   1      -0.505   1.133   0.828  0.00  0.00    -0.082 A 
ATOM      9  C7  UNL d   1      -0.512   2.462   1.317  0.00  0.00     0.045 A 
ENDROOT
TORSDOF 0
ENDMDL
