MODEL 1
REMARK minimizedAffinity -2.60618734
REMARK minimizedRMSD -1
REMARK  0 active torsions:
REMARK  status: ('A' for Active; 'I' for Inactive)
ROOT
ATOM      1  C   UNL d   1       0.100   3.366   0.369  0.00  0.00    -0.002 A 
ATOM      2  C1  UNL d   1       1.141   3.025  -0.482  0.00  0.00     0.010 A 
ATOM      3  C2  UNL d   1       1.394   1.689  -0.796  0.00  0.00     0.041 A 
ATOM      4  C3  UNL d   1       0.573   0.690  -0.236  0.00  0.00    -0.075 A 
ATOM      5  S   UNL d   1       0.693  -1.012  -0.479  0.00  0.00     0.015 SA
ATOM      6  C4  UNL d   1      -0.636  -1.328   0.540  0.00  0.00     0.022 A 
ATOM      7  C5  UNL d   1      -1.170  -0.174   1.062  0.00  0.00     0.026 A 
ATOM      8  C6  UNL d   1      -0.483   1.008   0.623  0.00  0.00    -0.082 A 
ATOM      9  C7  UNL d   1      -0.713   2.373   0.922  0.00  0.00     0.045 A 
ENDROOT
TORSDOF 0
ENDMDL
