MODEL 1
REMARK minimizedAffinity -0.967411518
REMARK minimizedRMSD -1
REMARK  0 active torsions:
REMARK  status: ('A' for Active; 'I' for Inactive)
ROOT
ATOM      1  C   UNL d   1      -0.590   2.685   0.056  0.00  0.00    -0.002 A 
ATOM      2  C1  UNL d   1       0.786   2.793   0.199  0.00  0.00     0.010 A 
ATOM      3  C2  UNL d   1       1.577   1.651   0.333  0.00  0.00     0.041 A 
ATOM      4  C3  UNL d   1       0.957   0.386   0.319  0.00  0.00    -0.075 A 
ATOM      5  S   UNL d   1       1.725  -1.150   0.466  0.00  0.00     0.015 SA
ATOM      6  C4  UNL d   1       0.245  -1.986   0.342  0.00  0.00     0.022 A 
ATOM      7  C5  UNL d   1      -0.820  -1.129   0.192  0.00  0.00     0.026 A 
ATOM      8  C6  UNL d   1      -0.427   0.252   0.176  0.00  0.00    -0.082 A 
ATOM      9  C7  UNL d   1      -1.202   1.429   0.043  0.00  0.00     0.045 A 
ENDROOT
TORSDOF 0
ENDMDL
