MODEL 1
REMARK minimizedAffinity -0.170223206
REMARK minimizedRMSD -1
REMARK  0 active torsions:
REMARK  status: ('A' for Active; 'I' for Inactive)
ROOT
ATOM      1  C   UNL d   1      -0.006   3.454   0.472  0.00  0.00    -0.002 A 
ATOM      2  C1  UNL d   1       0.172   3.321  -0.898  0.00  0.00     0.010 A 
ATOM      3  C2  UNL d   1       0.145   2.060  -1.499  0.00  0.00     0.041 A 
ATOM      4  C3  UNL d   1      -0.069   0.925  -0.692  0.00  0.00    -0.075 A 
ATOM      5  S   UNL d   1      -0.143  -0.718  -1.208  0.00  0.00     0.015 SA
ATOM      6  C4  UNL d   1      -0.413  -1.282   0.377  0.00  0.00     0.022 A 
ATOM      7  C5  UNL d   1      -0.449  -0.255   1.291  0.00  0.00     0.026 A 
ATOM      8  C6  UNL d   1      -0.251   1.034   0.690  0.00  0.00    -0.082 A 
ATOM      9  C7  UNL d   1      -0.217   2.325   1.269  0.00  0.00     0.045 A 
ENDROOT
TORSDOF 0
ENDMDL
