MODEL 1
REMARK minimizedAffinity -3.6949985
REMARK minimizedRMSD -1
REMARK  0 active torsions:
REMARK  status: ('A' for Active; 'I' for Inactive)
ROOT
ATOM      1  C   UNL d   1       1.410   3.165  -0.542  0.00  0.00    -0.002 A 
ATOM      2  C1  UNL d   1       0.148   3.602  -0.164  0.00  0.00     0.010 A 
ATOM      3  C2  UNL d   1      -0.810   2.694   0.292  0.00  0.00     0.041 A 
ATOM      4  C3  UNL d   1      -0.476   1.328   0.363  0.00  0.00    -0.075 A 
ATOM      5  S   UNL d   1      -1.488   0.036   0.890  0.00  0.00     0.015 SA
ATOM      6  C4  UNL d   1      -0.269  -1.126   0.626  0.00  0.00     0.022 A 
ATOM      7  C5  UNL d   1       0.888  -0.560   0.147  0.00  0.00     0.026 A 
ATOM      8  C6  UNL d   1       0.789   0.864  -0.012  0.00  0.00    -0.082 A 
ATOM      9  C7  UNL d   1       1.738   1.809  -0.470  0.00  0.00     0.045 A 
ENDROOT
TORSDOF 0
ENDMDL
