MODEL 1
REMARK minimizedAffinity -1.92875648
REMARK minimizedRMSD -1
REMARK  0 active torsions:
REMARK  status: ('A' for Active; 'I' for Inactive)
ROOT
ATOM      1  C   UNL d   1       3.213  -0.549   0.907  0.00  0.00    -0.002 A 
ATOM      2  C1  UNL d   1       3.602   0.710   0.473  0.00  0.00     0.010 A 
ATOM      3  C2  UNL d   1       2.670   1.593  -0.076  0.00  0.00     0.041 A 
ATOM      4  C3  UNL d   1       1.325   1.186  -0.180  0.00  0.00    -0.075 A 
ATOM      5  S   UNL d   1       0.009   2.099  -0.817  0.00  0.00     0.015 SA
ATOM      6  C4  UNL d   1      -1.102   0.839  -0.527  0.00  0.00     0.022 A 
ATOM      7  C5  UNL d   1      -0.501  -0.259   0.041  0.00  0.00     0.026 A 
ATOM      8  C6  UNL d   1       0.908  -0.077   0.251  0.00  0.00    -0.082 A 
ATOM      9  C7  UNL d   1       1.878  -0.949   0.802  0.00  0.00     0.045 A 
ENDROOT
TORSDOF 0
ENDMDL
