MODEL 1
REMARK minimizedAffinity -0.0575884469
REMARK minimizedRMSD -1
REMARK  0 active torsions:
REMARK  status: ('A' for Active; 'I' for Inactive)
ROOT
ATOM      1  C   UNL d   1      -0.244  -3.727  -2.423  0.00  0.00    -0.002 A 
ATOM      2  C1  UNL d   1      -0.882  -4.178  -1.277  0.00  0.00     0.010 A 
ATOM      3  C2  UNL d   1      -1.067  -3.328  -0.185  0.00  0.00     0.041 A 
ATOM      4  C3  UNL d   1      -0.597  -2.003  -0.266  0.00  0.00    -0.075 A 
ATOM      5  S   UNL d   1      -0.712  -0.782   0.946  0.00  0.00     0.015 SA
ATOM      6  C4  UNL d   1       0.082   0.367  -0.029  0.00  0.00     0.022 A 
ATOM      7  C5  UNL d   1       0.435  -0.150  -1.253  0.00  0.00     0.026 A 
ATOM      8  C6  UNL d   1       0.049  -1.524  -1.410  0.00  0.00    -0.082 A 
ATOM      9  C7  UNL d   1       0.222  -2.411  -2.500  0.00  0.00     0.045 A 
ENDROOT
TORSDOF 0
ENDMDL
