MODEL 1
REMARK minimizedAffinity -2.71424317
REMARK minimizedRMSD -1
REMARK  0 active torsions:
REMARK  status: ('A' for Active; 'I' for Inactive)
ROOT
ATOM      1  C1  DEN d   1       2.157  -1.617   0.034  0.00  0.00     0.130 A 
ATOM      2  C2  DEN d   1       3.078  -2.017   1.094  0.00  0.00    -0.031 A 
ATOM      3  C3  DEN d   1       2.532  -1.538   2.379  0.00  0.00     0.027 A 
ATOM      4  C4  DEN d   1       0.357  -0.226   2.829  0.00  0.00     0.027 A 
ATOM      5  C5  DEN d   1      -0.747   0.353   2.242  0.00  0.00    -0.003 A 
ATOM      6  C6  DEN d   1      -0.941   0.345   0.886  0.00  0.00     0.001 A 
ATOM      7  C7  DEN d   1      -0.041  -0.293   0.075  0.00  0.00     0.017 A 
ATOM      8  C8  DEN d   1       1.079  -0.872   0.659  0.00  0.00    -0.094 A 
ATOM      9  C9  DEN d   1       1.251  -0.864   2.032  0.00  0.00    -0.072 A 
ENDROOT
TORSDOF 0
ENDMDL
