MODEL 1
REMARK minimizedAffinity -6.71971178
REMARK minimizedRMSD -1
REMARK  0 active torsions:
REMARK  status: ('A' for Active; 'I' for Inactive)
ROOT
ATOM      1  C1  DEN d   1      -0.449   0.395   0.613  0.00  0.00     0.130 A 
ATOM      2  C2  DEN d   1      -0.340   0.168  -0.825  0.00  0.00    -0.031 A 
ATOM      3  C3  DEN d   1       0.803  -0.737  -1.060  0.00  0.00     0.027 A 
ATOM      4  C4  DEN d   1       2.402  -1.810   0.657  0.00  0.00     0.027 A 
ATOM      5  C5  DEN d   1       2.713  -1.904   1.995  0.00  0.00    -0.003 A 
ATOM      6  C6  DEN d   1       2.019  -1.217   2.956  0.00  0.00     0.001 A 
ATOM      7  C7  DEN d   1       0.949  -0.441   2.596  0.00  0.00     0.017 A 
ATOM      8  C8  DEN d   1       0.634  -0.335   1.248  0.00  0.00    -0.094 A 
ATOM      9  C9  DEN d   1       1.340  -1.047   0.293  0.00  0.00    -0.072 A 
ENDROOT
TORSDOF 0
ENDMDL
