MODEL 1
REMARK minimizedAffinity -2.44976115
REMARK minimizedRMSD -1
REMARK  0 active torsions:
REMARK  status: ('A' for Active; 'I' for Inactive)
ROOT
ATOM      1  C1  DEN d   1       0.024  -0.339  -1.484  0.00  0.00     0.130 A 
ATOM      2  C2  DEN d   1      -1.105   0.402  -0.928  0.00  0.00    -0.031 A 
ATOM      3  C3  DEN d   1      -1.169   0.117   0.520  0.00  0.00     0.027 A 
ATOM      4  C4  DEN d   1       0.365  -1.387   1.947  0.00  0.00     0.027 A 
ATOM      5  C5  DEN d   1       1.452  -2.232   1.916  0.00  0.00    -0.003 A 
ATOM      6  C6  DEN d   1       2.114  -2.529   0.754  0.00  0.00     0.001 A 
ATOM      7  C7  DEN d   1       1.721  -1.941  -0.419  0.00  0.00     0.017 A 
ATOM      8  C8  DEN d   1       0.621  -1.094  -0.398  0.00  0.00    -0.094 A 
ATOM      9  C9  DEN d   1      -0.027  -0.797   0.789  0.00  0.00    -0.072 A 
ENDROOT
TORSDOF 0
ENDMDL
