MODEL 1
REMARK minimizedAffinity -1.85692036
REMARK minimizedRMSD -1
REMARK  0 active torsions:
REMARK  status: ('A' for Active; 'I' for Inactive)
ROOT
ATOM      1  C1  DEN d   1       2.541  -1.851   1.982  0.00  0.00     0.130 A 
ATOM      2  C2  DEN d   1       2.080  -1.851   3.367  0.00  0.00    -0.031 A 
ATOM      3  C3  DEN d   1       0.808  -1.102   3.425  0.00  0.00     0.027 A 
ATOM      4  C4  DEN d   1      -0.487   0.047   1.514  0.00  0.00     0.027 A 
ATOM      5  C5  DEN d   1      -0.484   0.326   0.165  0.00  0.00    -0.003 A 
ATOM      6  C6  DEN d   1       0.536  -0.068  -0.660  0.00  0.00     0.001 A 
ATOM      7  C7  DEN d   1       1.575  -0.803  -0.152  0.00  0.00     0.017 A 
ATOM      8  C8  DEN d   1       1.582  -1.082   1.209  0.00  0.00    -0.094 A 
ATOM      9  C9  DEN d   1       0.535  -0.686   2.023  0.00  0.00    -0.072 A 
ENDROOT
TORSDOF 0
ENDMDL
