MODEL 1
REMARK minimizedAffinity -3.34079409
REMARK minimizedRMSD -1
REMARK  1 active torsions:
REMARK  status: ('A' for Active; 'I' for Inactive)
REMARK    1  A    between atoms: C1_2  and  C2_3 
ROOT
ATOM      1  C2  UNL d   1       5.127   2.122  -0.707  0.00  0.00    -0.077 A 
ATOM      2  C3  UNL d   1       5.129   3.283  -1.492  0.00  0.00     0.002 A 
ATOM      3  C4  UNL d   1       5.562   4.498  -0.956  0.00  0.00     0.002 A 
ATOM      4  C5  UNL d   1       6.000   4.561   0.365  0.00  0.00    -0.004 A 
ATOM      5  C6  UNL d   1       6.000   3.412   1.155  0.00  0.00     0.002 A 
ATOM      6  C7  UNL d   1       5.566   2.198   0.621  0.00  0.00     0.002 A 
ENDROOT
BRANCH   1   7
ATOM      7  C1  UNL d   1       4.708   0.801  -1.298  0.00  0.00     0.055 C 
ATOM      8  C   UNL d   1       3.749   0.062  -0.376  0.00  0.00     0.019 C 
ENDBRANCH   1   7
TORSDOF 1
ENDMDL
