MODEL 1
REMARK minimizedAffinity 12.3437471
REMARK minimizedRMSD -1
REMARK  1 active torsions:
REMARK  status: ('A' for Active; 'I' for Inactive)
REMARK    1  A    between atoms: C1_2  and  C2_3 
ROOT
ATOM      1  C2  UNL d   1       1.320   0.385  -0.044  0.00  0.00    -0.077 A 
ATOM      2  C3  UNL d   1       1.295   0.663   1.330  0.00  0.00     0.002 A 
ATOM      3  C4  UNL d   1       0.231   1.374   1.888  0.00  0.00     0.002 A 
ATOM      4  C5  UNL d   1      -0.818   1.809   1.081  0.00  0.00    -0.004 A 
ATOM      5  C6  UNL d   1      -0.802   1.539  -0.287  0.00  0.00     0.002 A 
ATOM      6  C7  UNL d   1       0.262   0.830  -0.847  0.00  0.00     0.002 A 
ENDROOT
BRANCH   1   7
ATOM      7  C1  UNL d   1       2.442  -0.424  -0.639  0.00  0.00     0.055 C 
ATOM      8  C   UNL d   1       3.768   0.318  -0.548  0.00  0.00     0.019 C 
ENDBRANCH   1   7
TORSDOF 1
ENDMDL
