MODEL 1
REMARK minimizedAffinity 3.34050775
REMARK minimizedRMSD -1
REMARK  1 active torsions:
REMARK  status: ('A' for Active; 'I' for Inactive)
REMARK    1  A    between atoms: C1_2  and  C2_3 
ROOT
ATOM      1  C2  UNL d   1       3.752  -0.531  -1.035  0.00  0.00    -0.077 A 
ATOM      2  C3  UNL d   1       5.136  -0.702  -1.180  0.00  0.00     0.002 A 
ATOM      3  C4  UNL d   1       6.000   0.386  -1.046  0.00  0.00     0.002 A 
ATOM      4  C5  UNL d   1       5.491   1.652  -0.762  0.00  0.00    -0.004 A 
ATOM      5  C6  UNL d   1       4.116   1.833  -0.618  0.00  0.00     0.002 A 
ATOM      6  C7  UNL d   1       3.250   0.746  -0.753  0.00  0.00     0.002 A 
ENDROOT
BRANCH   1   7
ATOM      7  C1  UNL d   1       2.822  -1.712  -1.130  0.00  0.00     0.055 C 
ATOM      8  C   UNL d   1       3.010  -2.660   0.045  0.00  0.00     0.019 C 
ENDBRANCH   1   7
TORSDOF 1
ENDMDL
