MODEL 1
REMARK minimizedAffinity 5.85909081
REMARK minimizedRMSD -1
REMARK  1 active torsions:
REMARK  status: ('A' for Active; 'I' for Inactive)
REMARK    1  A    between atoms: C1_2  and  C2_3 
ROOT
ATOM      1  C2  UNL d   1       4.904   2.848  -0.813  0.00  0.00    -0.077 A 
ATOM      2  C3  UNL d   1       5.069   3.953  -1.659  0.00  0.00     0.002 A 
ATOM      3  C4  UNL d   1       5.480   5.184  -1.143  0.00  0.00     0.002 A 
ATOM      4  C5  UNL d   1       5.731   5.320   0.221  0.00  0.00    -0.004 A 
ATOM      5  C6  UNL d   1       5.568   4.228   1.071  0.00  0.00     0.002 A 
ATOM      6  C7  UNL d   1       5.157   2.997   0.557  0.00  0.00     0.002 A 
ENDROOT
BRANCH   1   7
ATOM      7  C1  UNL d   1       4.509   1.508  -1.375  0.00  0.00     0.055 C 
ATOM      8  C   UNL d   1       4.135   0.532  -0.269  0.00  0.00     0.019 C 
ENDBRANCH   1   7
TORSDOF 1
ENDMDL
