MODEL 1
REMARK minimizedAffinity 4.24496937
REMARK minimizedRMSD -1
REMARK  1 active torsions:
REMARK  status: ('A' for Active; 'I' for Inactive)
REMARK    1  A    between atoms: C1_2  and  C2_3 
ROOT
ATOM      1  C2  UNL d   1       1.625  -2.562  -1.319  0.00  0.00    -0.077 A 
ATOM      2  C3  UNL d   1       2.303  -3.076  -0.204  0.00  0.00     0.002 A 
ATOM      3  C4  UNL d   1       3.322  -2.341   0.403  0.00  0.00     0.002 A 
ATOM      4  C5  UNL d   1       3.670  -1.087  -0.093  0.00  0.00    -0.004 A 
ATOM      5  C6  UNL d   1       3.003  -0.568  -1.202  0.00  0.00     0.002 A 
ATOM      6  C7  UNL d   1       1.985  -1.302  -1.812  0.00  0.00     0.002 A 
ENDROOT
BRANCH   1   7
ATOM      7  C1  UNL d   1       0.492  -3.332  -1.945  0.00  0.00     0.055 C 
ATOM      8  C   UNL d   1       0.017  -4.456  -1.036  0.00  0.00     0.019 C 
ENDBRANCH   1   7
TORSDOF 1
ENDMDL
