MODEL 1
REMARK minimizedAffinity 0.370140254
REMARK minimizedRMSD -1
REMARK  0 active torsions:
REMARK  status: ('A' for Active; 'I' for Inactive)
ROOT
ATOM      1  C1  DEN d   1       0.349  -5.964  -4.851  0.00  0.00     0.130 A 
ATOM      2  C2  DEN d   1       1.319  -5.952  -3.759  0.00  0.00    -0.031 A 
ATOM      3  C3  DEN d   1       0.572  -5.961  -2.486  0.00  0.00     0.027 A 
ATOM      4  C4  DEN d   1      -1.978  -5.996  -2.100  0.00  0.00     0.027 A 
ATOM      5  C5  DEN d   1      -3.207  -5.999  -2.721  0.00  0.00    -0.003 A 
ATOM      6  C6  DEN d   1      -3.337  -5.957  -4.084  0.00  0.00     0.001 A 
ATOM      7  C7  DEN d   1      -2.217  -5.955  -4.872  0.00  0.00     0.017 A 
ATOM      8  C8  DEN d   1      -0.974  -5.944  -4.253  0.00  0.00    -0.094 A 
ATOM      9  C9  DEN d   1      -0.864  -5.999  -2.874  0.00  0.00    -0.072 A 
ENDROOT
TORSDOF 0
ENDMDL
