MODEL 1
REMARK minimizedAffinity 0.536752939
REMARK minimizedRMSD -1
REMARK  0 active torsions:
REMARK  status: ('A' for Active; 'I' for Inactive)
ROOT
ATOM      1  C1  DEN d   1       1.320  -5.978  -5.970  0.00  0.00     0.130 A 
ATOM      2  C2  DEN d   1       2.309  -5.959  -4.896  0.00  0.00    -0.031 A 
ATOM      3  C3  DEN d   1       1.586  -5.958  -3.609  0.00  0.00     0.027 A 
ATOM      4  C4  DEN d   1      -0.957  -5.988  -3.176  0.00  0.00     0.027 A 
ATOM      5  C5  DEN d   1      -2.197  -5.995  -3.775  0.00  0.00    -0.003 A 
ATOM      6  C6  DEN d   1      -2.352  -5.963  -5.135  0.00  0.00     0.001 A 
ATOM      7  C7  DEN d   1      -1.246  -5.968  -5.944  0.00  0.00     0.017 A 
ATOM      8  C8  DEN d   1       0.008  -5.953  -5.348  0.00  0.00    -0.094 A 
ATOM      9  C9  DEN d   1       0.143  -5.998  -3.971  0.00  0.00    -0.072 A 
ENDROOT
TORSDOF 0
ENDMDL
