MODEL 1
REMARK minimizedAffinity 9.23044777
REMARK minimizedRMSD -1
REMARK  0 active torsions:
REMARK  status: ('A' for Active; 'I' for Inactive)
ROOT
ATOM      1  C1  DEN d   1       0.157  -5.983  -1.855  0.00  0.00     0.130 A 
ATOM      2  C2  DEN d   1      -1.291  -5.966  -1.664  0.00  0.00    -0.031 A 
ATOM      3  C3  DEN d   1      -1.927  -5.962  -2.997  0.00  0.00     0.027 A 
ATOM      4  C4  DEN d   1      -0.817  -5.985  -5.325  0.00  0.00     0.027 A 
ATOM      5  C5  DEN d   1       0.387  -5.990  -5.994  0.00  0.00    -0.003 A 
ATOM      6  C6  DEN d   1       1.588  -5.959  -5.337  0.00  0.00     0.001 A 
ATOM      7  C7  DEN d   1       1.613  -5.967  -3.968  0.00  0.00     0.017 A 
ATOM      8  C8  DEN d   1       0.404  -5.955  -3.285  0.00  0.00    -0.094 A 
ATOM      9  C9  DEN d   1      -0.800  -5.999  -3.968  0.00  0.00    -0.072 A 
ENDROOT
TORSDOF 0
ENDMDL
