MODEL 1
REMARK minimizedAffinity 2.10147858
REMARK minimizedRMSD -1
REMARK  0 active torsions:
REMARK  status: ('A' for Active; 'I' for Inactive)
ROOT
ATOM      1  C1  DEN d   1      -1.152  -5.996  -1.825  0.00  0.00     0.130 A 
ATOM      2  C2  DEN d   1      -2.611  -5.955  -1.770  0.00  0.00    -0.031 A 
ATOM      3  C3  DEN d   1      -3.120  -5.933  -3.156  0.00  0.00     0.027 A 
ATOM      4  C4  DEN d   1      -1.798  -5.964  -5.370  0.00  0.00     0.027 A 
ATOM      5  C5  DEN d   1      -0.537  -5.986  -5.925  0.00  0.00    -0.003 A 
ATOM      6  C6  DEN d   1       0.598  -5.978  -5.158  0.00  0.00     0.001 A 
ATOM      7  C7  DEN d   1       0.495  -5.993  -3.792  0.00  0.00     0.017 A 
ATOM      8  C8  DEN d   1      -0.773  -5.964  -3.226  0.00  0.00    -0.094 A 
ATOM      9  C9  DEN d   1      -1.908  -5.984  -4.018  0.00  0.00    -0.072 A 
ENDROOT
TORSDOF 0
ENDMDL
