MODEL 1
REMARK minimizedAffinity 2.43020344
REMARK minimizedRMSD -1
REMARK  0 active torsions:
REMARK  status: ('A' for Active; 'I' for Inactive)
ROOT
ATOM      1  C1  DEN d   1      -5.268  -5.956  -2.221  0.00  0.00     0.130 A 
ATOM      2  C2  DEN d   1      -5.440  -5.981  -0.771  0.00  0.00    -0.031 A 
ATOM      3  C3  DEN d   1      -4.099  -6.000  -0.152  0.00  0.00     0.027 A 
ATOM      4  C4  DEN d   1      -1.785  -5.988  -1.293  0.00  0.00     0.027 A 
ATOM      5  C5  DEN d   1      -1.132  -5.981  -2.505  0.00  0.00    -0.003 A 
ATOM      6  C6  DEN d   1      -1.805  -5.999  -3.698  0.00  0.00     0.001 A 
ATOM      7  C7  DEN d   1      -3.174  -5.980  -3.705  0.00  0.00     0.017 A 
ATOM      8  C8  DEN d   1      -3.841  -5.994  -2.486  0.00  0.00    -0.094 A 
ATOM      9  C9  DEN d   1      -3.142  -5.963  -1.291  0.00  0.00    -0.072 A 
ENDROOT
TORSDOF 0
ENDMDL
