MODEL 1
REMARK minimizedAffinity 1.89218545
REMARK minimizedRMSD -1
REMARK  0 active torsions:
REMARK  status: ('A' for Active; 'I' for Inactive)
ROOT
ATOM      1  C1  DEN d   1      -1.562  -5.994  -2.362  0.00  0.00     0.130 A 
ATOM      2  C2  DEN d   1      -2.948  -5.975  -2.822  0.00  0.00    -0.031 A 
ATOM      3  C3  DEN d   1      -2.939  -5.963  -4.298  0.00  0.00     0.027 A 
ATOM      4  C4  DEN d   1      -0.924  -5.976  -5.909  0.00  0.00     0.027 A 
ATOM      5  C5  DEN d   1       0.451  -5.979  -5.986  0.00  0.00    -0.003 A 
ATOM      6  C6  DEN d   1       1.245  -5.953  -4.870  0.00  0.00     0.001 A 
ATOM      7  C7  DEN d   1       0.670  -5.969  -3.627  0.00  0.00     0.017 A 
ATOM      8  C8  DEN d   1      -0.716  -5.958  -3.541  0.00  0.00    -0.094 A 
ATOM      9  C9  DEN d   1      -1.502  -5.997  -4.681  0.00  0.00    -0.072 A 
ENDROOT
TORSDOF 0
ENDMDL
