MODEL 1
REMARK minimizedAffinity 5.43116379
REMARK minimizedRMSD -1
REMARK  0 active torsions:
REMARK  status: ('A' for Active; 'I' for Inactive)
ROOT
ATOM      1  C1  DEN d   1      -0.754  -1.209   0.276  0.00  0.00     0.130 A 
ATOM      2  C2  DEN d   1      -0.688  -2.420   1.088  0.00  0.00    -0.031 A 
ATOM      3  C3  DEN d   1       0.729  -2.674   1.415  0.00  0.00     0.027 A 
ATOM      4  C4  DEN d   1       2.817  -1.314   0.748  0.00  0.00     0.027 A 
ATOM      5  C5  DEN d   1       3.264  -0.213   0.052  0.00  0.00    -0.003 A 
ATOM      6  C6  DEN d   1       2.414   0.608  -0.641  0.00  0.00     0.001 A 
ATOM      7  C7  DEN d   1       1.066   0.365  -0.615  0.00  0.00     0.017 A 
ATOM      8  C8  DEN d   1       0.608  -0.748   0.078  0.00  0.00    -0.094 A 
ATOM      9  C9  DEN d   1       1.483  -1.558   0.782  0.00  0.00    -0.072 A 
ENDROOT
TORSDOF 0
ENDMDL
