MODEL 1
REMARK minimizedAffinity -0.659510076
REMARK minimizedRMSD -1
REMARK  0 active torsions:
REMARK  status: ('A' for Active; 'I' for Inactive)
ROOT
ATOM      1  C1  DEN d   1      -0.331  -2.246   0.943  0.00  0.00     0.130 A 
ATOM      2  C2  DEN d   1       0.452  -3.392   1.395  0.00  0.00    -0.031 A 
ATOM      3  C3  DEN d   1       1.873  -2.992   1.424  0.00  0.00     0.027 A 
ATOM      4  C4  DEN d   1       2.931  -0.719   0.820  0.00  0.00     0.027 A 
ATOM      5  C5  DEN d   1       2.670   0.557   0.372  0.00  0.00    -0.003 A 
ATOM      6  C6  DEN d   1       1.405   0.975   0.053  0.00  0.00     0.001 A 
ATOM      7  C7  DEN d   1       0.346   0.121   0.221  0.00  0.00     0.017 A 
ATOM      8  C8  DEN d   1       0.603  -1.169   0.665  0.00  0.00    -0.094 A 
ATOM      9  C9  DEN d   1       1.887  -1.568   0.993  0.00  0.00    -0.072 A 
ENDROOT
TORSDOF 0
ENDMDL
