MODEL 1
REMARK minimizedAffinity 2.12923694
REMARK minimizedRMSD -1
REMARK  0 active torsions:
REMARK  status: ('A' for Active; 'I' for Inactive)
ROOT
ATOM      1  C1  DEN d   1       1.639  -0.021   0.742  0.00  0.00     0.130 A 
ATOM      2  C2  DEN d   1       0.963   0.777  -0.278  0.00  0.00    -0.031 A 
ATOM      3  C3  DEN d   1      -0.166  -0.017  -0.804  0.00  0.00     0.027 A 
ATOM      4  C4  DEN d   1      -0.931  -2.389  -0.140  0.00  0.00     0.027 A 
ATOM      5  C5  DEN d   1      -0.663  -3.469   0.671  0.00  0.00    -0.003 A 
ATOM      6  C6  DEN d   1       0.403  -3.489   1.531  0.00  0.00     0.001 A 
ATOM      7  C7  DEN d   1       1.214  -2.390   1.633  0.00  0.00     0.017 A 
ATOM      8  C8  DEN d   1       0.954  -1.299   0.813  0.00  0.00    -0.094 A 
ATOM      9  C9  DEN d   1      -0.136  -1.294  -0.041  0.00  0.00    -0.072 A 
ENDROOT
TORSDOF 0
ENDMDL
