MODEL 1
REMARK minimizedAffinity -3.159024
REMARK minimizedRMSD -1
REMARK  0 active torsions:
REMARK  status: ('A' for Active; 'I' for Inactive)
ROOT
ATOM      1  C1  DEN d   1      -1.797  -5.998  -2.264  0.00  0.00     0.130 A 
ATOM      2  C2  DEN d   1      -3.216  -5.999  -2.611  0.00  0.00    -0.031 A 
ATOM      3  C3  DEN d   1      -3.330  -5.799  -4.069  0.00  0.00     0.027 A 
ATOM      4  C4  DEN d   1      -1.457  -5.496  -5.817  0.00  0.00     0.027 A 
ATOM      5  C5  DEN d   1      -0.095  -5.412  -5.999  0.00  0.00    -0.003 A 
ATOM      6  C6  DEN d   1       0.787  -5.484  -4.953  0.00  0.00     0.001 A 
ATOM      7  C7  DEN d   1       0.319  -5.689  -3.683  0.00  0.00     0.017 A 
ATOM      8  C8  DEN d   1      -1.054  -5.766  -3.490  0.00  0.00    -0.094 A 
ATOM      9  C9  DEN d   1      -1.929  -5.704  -4.562  0.00  0.00    -0.072 A 
ENDROOT
TORSDOF 0
ENDMDL
