MODEL 1
REMARK minimizedAffinity 2.0973978
REMARK minimizedRMSD -1
REMARK  0 active torsions:
REMARK  status: ('A' for Active; 'I' for Inactive)
ROOT
ATOM      1  C1  DEN d   1      -2.291  -6.000  -4.737  0.00  0.00     0.130 A 
ATOM      2  C2  DEN d   1      -2.611  -5.999  -3.313  0.00  0.00    -0.031 A 
ATOM      3  C3  DEN d   1      -1.344  -5.902  -2.560  0.00  0.00     0.027 A 
ATOM      4  C4  DEN d   1       1.069  -5.750  -3.459  0.00  0.00     0.027 A 
ATOM      5  C5  DEN d   1       1.843  -5.727  -4.597  0.00  0.00    -0.003 A 
ATOM      6  C6  DEN d   1       1.301  -5.827  -5.851  0.00  0.00     0.001 A 
ATOM      7  C7  DEN d   1      -0.058  -5.909  -5.998  0.00  0.00     0.017 A 
ATOM      8  C8  DEN d   1      -0.845  -5.940  -4.855  0.00  0.00    -0.094 A 
ATOM      9  C9  DEN d   1      -0.279  -5.826  -3.596  0.00  0.00    -0.072 A 
ENDROOT
TORSDOF 0
ENDMDL
