MODEL 1
REMARK minimizedAffinity 2.90984821
REMARK minimizedRMSD -1
REMARK  0 active torsions:
REMARK  status: ('A' for Active; 'I' for Inactive)
ROOT
ATOM      1  C1  DEN d   1       0.709  -5.878  -5.984  0.00  0.00     0.130 A 
ATOM      2  C2  DEN d   1      -0.747  -5.999  -5.983  0.00  0.00    -0.031 A 
ATOM      3  C3  DEN d   1      -1.203  -5.997  -4.578  0.00  0.00     0.027 A 
ATOM      4  C4  DEN d   1       0.194  -5.816  -2.418  0.00  0.00     0.027 A 
ATOM      5  C5  DEN d   1       1.471  -5.707  -1.913  0.00  0.00    -0.003 A 
ATOM      6  C6  DEN d   1       2.576  -5.682  -2.721  0.00  0.00     0.001 A 
ATOM      7  C7  DEN d   1       2.423  -5.722  -4.082  0.00  0.00     0.017 A 
ATOM      8  C8  DEN d   1       1.140  -5.839  -4.598  0.00  0.00    -0.094 A 
ATOM      9  C9  DEN d   1       0.034  -5.850  -3.765  0.00  0.00    -0.072 A 
ENDROOT
TORSDOF 0
ENDMDL
