MODEL 1
REMARK minimizedAffinity -0.487758875
REMARK minimizedRMSD -1
REMARK  0 active torsions:
REMARK  status: ('A' for Active; 'I' for Inactive)
ROOT
ATOM      1  C1  DEN d   1      -1.013  -5.999  -4.831  0.00  0.00     0.130 A 
ATOM      2  C2  DEN d   1      -0.001  -5.999  -5.884  0.00  0.00    -0.031 A 
ATOM      3  C3  DEN d   1       1.311  -5.744  -5.255  0.00  0.00     0.027 A 
ATOM      4  C4  DEN d   1       1.870  -5.357  -2.767  0.00  0.00     0.027 A 
ATOM      5  C5  DEN d   1       1.339  -5.255  -1.500  0.00  0.00    -0.003 A 
ATOM      6  C6  DEN d   1      -0.006  -5.359  -1.261  0.00  0.00     0.001 A 
ATOM      7  C7  DEN d   1      -0.862  -5.616  -2.299  0.00  0.00     0.017 A 
ATOM      8  C8  DEN d   1      -0.335  -5.714  -3.580  0.00  0.00    -0.094 A 
ATOM      9  C9  DEN d   1       1.029  -5.618  -3.799  0.00  0.00    -0.072 A 
ENDROOT
TORSDOF 0
ENDMDL
