MODEL 1
REMARK minimizedAffinity 7.73955297
REMARK minimizedRMSD -1
REMARK  0 active torsions:
REMARK  status: ('A' for Active; 'I' for Inactive)
ROOT
ATOM      1  N1  IND d   1      -0.211   2.412  -0.819  0.00  0.00    -0.196 N 
ATOM      2  C2  IND d   1      -0.967   3.363  -0.193  0.00  0.00     0.054 A 
ATOM      3  C3  IND d   1      -0.630   3.447   1.113  0.00  0.00    -0.031 A 
ATOM      4  C4  IND d   1       1.203   2.192   2.414  0.00  0.00     0.051 A 
ATOM      5  C5  IND d   1       2.130   1.196   2.279  0.00  0.00    -0.031 A 
ATOM      6  C6  IND d   1       2.329   0.544   1.079  0.00  0.00     0.015 A 
ATOM      7  C7  IND d   1       1.615   0.872  -0.038  0.00  0.00    -0.016 A 
ATOM      8  C8  IND d   1       0.668   1.877   0.097  0.00  0.00    -0.047 A 
ATOM      9  C9  IND d   1       0.431   2.514   1.322  0.00  0.00    -0.096 A 
ATOM     10  HN1 IND d   1      -0.274   2.185  -1.646  0.00  0.00     0.298 HD
ENDROOT
TORSDOF 0
ENDMDL
