MODEL 1
REMARK minimizedAffinity 8.59044552
REMARK minimizedRMSD -1
REMARK  0 active torsions:
REMARK  status: ('A' for Active; 'I' for Inactive)
ROOT
ATOM      1  N1  IND d   1      -3.784   2.379   2.711  0.00  0.00    -0.196 N 
ATOM      2  C2  IND d   1      -2.451   2.533   2.451  0.00  0.00     0.054 A 
ATOM      3  C3  IND d   1      -2.116   1.884   1.313  0.00  0.00    -0.031 A 
ATOM      4  C4  IND d   1      -3.613   0.592  -0.335  0.00  0.00     0.051 A 
ATOM      5  C5  IND d   1      -4.895   0.149  -0.505  0.00  0.00    -0.031 A 
ATOM      6  C6  IND d   1      -5.892   0.434   0.405  0.00  0.00     0.015 A 
ATOM      7  C7  IND d   1      -5.647   1.186   1.518  0.00  0.00    -0.016 A 
ATOM      8  C8  IND d   1      -4.345   1.633   1.698  0.00  0.00    -0.047 A 
ATOM      9  C9  IND d   1      -3.319   1.311   0.800  0.00  0.00    -0.096 A 
ATOM     10  HN1 IND d   1      -4.202   2.696   3.393  0.00  0.00     0.298 HD
ENDROOT
TORSDOF 0
ENDMDL
