MODEL 1
REMARK minimizedAffinity 7.58118963
REMARK minimizedRMSD -1
REMARK  0 active torsions:
REMARK  status: ('A' for Active; 'I' for Inactive)
ROOT
ATOM      1  N1  IND d   1       1.467   1.351  -0.571  0.00  0.00    -0.196 N 
ATOM      2  C2  IND d   1       1.721   2.297   0.383  0.00  0.00     0.054 A 
ATOM      3  C3  IND d   1       2.483   1.776   1.371  0.00  0.00    -0.031 A 
ATOM      4  C4  IND d   1       3.512  -0.575   1.576  0.00  0.00     0.051 A 
ATOM      5  C5  IND d   1       3.531  -1.799   0.969  0.00  0.00    -0.031 A 
ATOM      6  C6  IND d   1       2.851  -2.040  -0.207  0.00  0.00     0.015 A 
ATOM      7  C7  IND d   1       2.134  -1.058  -0.830  0.00  0.00    -0.016 A 
ATOM      8  C8  IND d   1       2.106   0.184  -0.212  0.00  0.00    -0.047 A 
ATOM      9  C9  IND d   1       2.759   0.423   1.004  0.00  0.00    -0.096 A 
ATOM     10  HN1 IND d   1       0.989   1.465  -1.276  0.00  0.00     0.298 HD
ENDROOT
TORSDOF 0
ENDMDL
