MODEL 1
REMARK minimizedAffinity 7.43220377
REMARK minimizedRMSD -1
REMARK  0 active torsions:
REMARK  status: ('A' for Active; 'I' for Inactive)
ROOT
ATOM      1  N1  IND d   1       0.702   1.748  -0.557  0.00  0.00    -0.196 N 
ATOM      2  C2  IND d   1       1.544   2.518   0.197  0.00  0.00     0.054 A 
ATOM      3  C3  IND d   1       2.493   1.748   0.775  0.00  0.00    -0.031 A 
ATOM      4  C4  IND d   1       2.916  -0.780   0.539  0.00  0.00     0.051 A 
ATOM      5  C5  IND d   1       2.390  -1.914  -0.013  0.00  0.00    -0.031 A 
ATOM      6  C6  IND d   1       1.252  -1.883  -0.794  0.00  0.00     0.015 A 
ATOM      7  C7  IND d   1       0.602  -0.711  -1.061  0.00  0.00    -0.016 A 
ATOM      8  C8  IND d   1       1.130   0.441  -0.495  0.00  0.00    -0.047 A 
ATOM      9  C9  IND d   1       2.260   0.410   0.332  0.00  0.00    -0.096 A 
ATOM     10  HN1 IND d   1       0.020   2.034  -0.996  0.00  0.00     0.298 HD
ENDROOT
TORSDOF 0
ENDMDL
