MODEL 1
REMARK minimizedAffinity 6.54462337
REMARK minimizedRMSD -1
REMARK  0 active torsions:
REMARK  status: ('A' for Active; 'I' for Inactive)
ROOT
ATOM      1  N1  IND d   1       1.359   2.711   0.024  0.00  0.00    -0.196 N 
ATOM      2  C2  IND d   1       2.032   1.532   0.183  0.00  0.00     0.054 A 
ATOM      3  C3  IND d   1       1.544   0.851   1.245  0.00  0.00    -0.031 A 
ATOM      4  C4  IND d   1      -0.422   1.438   2.800  0.00  0.00     0.051 A 
ATOM      5  C5  IND d   1      -1.321   2.430   3.072  0.00  0.00    -0.031 A 
ATOM      6  C6  IND d   1      -1.376   3.589   2.325  0.00  0.00     0.015 A 
ATOM      7  C7  IND d   1      -0.537   3.795   1.267  0.00  0.00    -0.016 A 
ATOM      8  C8  IND d   1       0.382   2.793   0.992  0.00  0.00    -0.047 A 
ATOM      9  C9  IND d   1       0.471   1.633   1.773  0.00  0.00    -0.096 A 
ATOM     10  HN1 IND d   1       1.519   3.303  -0.579  0.00  0.00     0.298 HD
ENDROOT
TORSDOF 0
ENDMDL
