MODEL 1
REMARK minimizedAffinity 2.52494645
REMARK minimizedRMSD -1
REMARK  0 active torsions:
REMARK  status: ('A' for Active; 'I' for Inactive)
ROOT
ATOM      1  N1  IND d   1      -2.382   1.694   2.265  0.00  0.00    -0.196 N 
ATOM      2  C2  IND d   1      -1.138   1.670   1.700  0.00  0.00     0.054 A 
ATOM      3  C3  IND d   1      -1.197   1.151   0.453  0.00  0.00    -0.031 A 
ATOM      4  C4  IND d   1      -3.245   0.370  -0.898  0.00  0.00     0.051 A 
ATOM      5  C5  IND d   1      -4.592   0.166  -0.791  0.00  0.00    -0.031 A 
ATOM      6  C6  IND d   1      -5.286   0.469   0.363  0.00  0.00     0.015 A 
ATOM      7  C7  IND d   1      -4.657   1.001   1.453  0.00  0.00    -0.016 A 
ATOM      8  C8  IND d   1      -3.288   1.203   1.350  0.00  0.00    -0.047 A 
ATOM      9  C9  IND d   1      -2.572   0.858   0.197  0.00  0.00    -0.096 A 
ATOM     10  HN1 IND d   1      -2.568   1.969   3.058  0.00  0.00     0.298 HD
ENDROOT
TORSDOF 0
ENDMDL
