MODEL 1
REMARK minimizedAffinity 8.58719254
REMARK minimizedRMSD -1
REMARK  0 active torsions:
REMARK  status: ('A' for Active; 'I' for Inactive)
ROOT
ATOM      1  N1  IND d   1       2.279   1.115  -0.640  0.00  0.00    -0.196 N 
ATOM      2  C2  IND d   1       2.404   2.120   0.278  0.00  0.00     0.054 A 
ATOM      3  C3  IND d   1       2.746   1.616   1.484  0.00  0.00    -0.031 A 
ATOM      4  C4  IND d   1       3.251  -0.817   2.156  0.00  0.00     0.051 A 
ATOM      5  C5  IND d   1       3.234  -2.095   1.671  0.00  0.00    -0.031 A 
ATOM      6  C6  IND d   1       2.894  -2.373   0.362  0.00  0.00     0.015 A 
ATOM      7  C7  IND d   1       2.568  -1.378  -0.516  0.00  0.00    -0.016 A 
ATOM      8  C8  IND d   1       2.577  -0.081  -0.024  0.00  0.00    -0.047 A 
ATOM      9  C9  IND d   1       2.880   0.204   1.314  0.00  0.00    -0.096 A 
ATOM     10  HN1 IND d   1       2.053   1.213  -1.464  0.00  0.00     0.298 HD
ENDROOT
TORSDOF 0
ENDMDL
