MODEL 1
REMARK minimizedAffinity 3.13522863
REMARK minimizedRMSD -1
REMARK  0 active torsions:
REMARK  status: ('A' for Active; 'I' for Inactive)
ROOT
ATOM      1  N1  IND d   1      -5.802   1.442  -0.984  0.00  0.00    -0.196 N 
ATOM      2  C2  IND d   1      -5.448   0.293  -0.334  0.00  0.00     0.054 A 
ATOM      3  C3  IND d   1      -4.956  -0.611  -1.211  0.00  0.00    -0.031 A 
ATOM      4  C4  IND d   1      -4.544  -0.377  -3.742  0.00  0.00     0.051 A 
ATOM      5  C5  IND d   1      -4.742   0.476  -4.791  0.00  0.00    -0.031 A 
ATOM      6  C6  IND d   1      -5.312   1.721  -4.621  0.00  0.00     0.015 A 
ATOM      7  C7  IND d   1      -5.697   2.165  -3.388  0.00  0.00    -0.016 A 
ATOM      8  C8  IND d   1      -5.504   1.299  -2.321  0.00  0.00    -0.047 A 
ATOM      9  C9  IND d   1      -4.965   0.018  -2.494  0.00  0.00    -0.096 A 
ATOM     10  HN1 IND d   1      -6.151   2.138  -0.618  0.00  0.00     0.298 HD
ENDROOT
TORSDOF 0
ENDMDL
