MODEL 1
REMARK minimizedAffinity 5.50891447
REMARK minimizedRMSD -1
REMARK  0 active torsions:
REMARK  status: ('A' for Active; 'I' for Inactive)
ROOT
ATOM      1  N1  IND d   1       0.367  -2.111  -1.442  0.00  0.00    -0.196 N 
ATOM      2  C2  IND d   1      -0.165  -3.282  -0.978  0.00  0.00     0.054 A 
ATOM      3  C3  IND d   1       0.529  -3.721   0.096  0.00  0.00    -0.031 A 
ATOM      4  C4  IND d   1       2.509  -2.625   1.323  0.00  0.00     0.051 A 
ATOM      5  C5  IND d   1       3.370  -1.566   1.248  0.00  0.00    -0.031 A 
ATOM      6  C6  IND d   1       3.269  -0.614   0.255  0.00  0.00     0.015 A 
ATOM      7  C7  IND d   1       2.293  -0.679  -0.699  0.00  0.00    -0.016 A 
ATOM      8  C8  IND d   1       1.422  -1.757  -0.631  0.00  0.00    -0.047 A 
ATOM      9  C9  IND d   1       1.545  -2.750   0.350  0.00  0.00    -0.096 A 
ATOM     10  HN1 IND d   1       0.089  -1.670  -2.126  0.00  0.00     0.298 HD
ENDROOT
TORSDOF 0
ENDMDL
