MODEL 1
REMARK minimizedAffinity 2.66300488
REMARK minimizedRMSD -1
REMARK  0 active torsions:
REMARK  status: ('A' for Active; 'I' for Inactive)
ROOT
ATOM      1  C   UNL d   1       2.659   1.480   0.197  0.00  0.00     0.124 A 
ATOM      2  C1  UNL d   1       1.775   2.337   0.837  0.00  0.00     0.062 A 
ATOM      3  C2  UNL d   1       0.485   1.913   1.143  0.00  0.00     0.162 A 
ATOM      4  C3  UNL d   1       0.071   0.624   0.808  0.00  0.00    -0.034 A 
ATOM      5  C4  UNL d   1       0.965  -0.233   0.163  0.00  0.00     0.162 A 
ATOM      6  C5  UNL d   1       2.253   0.196  -0.140  0.00  0.00     0.062 A 
ATOM      7  F   UNL d   1       3.106  -0.634  -0.759  0.00  0.00    -0.097 F 
ATOM      8  F1  UNL d   1       0.600  -1.479  -0.172  0.00  0.00    -0.096 F 
ATOM      9  I   UNL d   1      -1.857  -0.015   1.263  0.00  0.00    -0.060 I 
ATOM     10  F2  UNL d   1      -0.347   2.763   1.762  0.00  0.00    -0.096 F 
ATOM     11  F3  UNL d   1       2.164   3.579   1.163  0.00  0.00    -0.097 F 
ATOM     12  F4  UNL d   1       3.899   1.891  -0.097  0.00  0.00    -0.092 F 
ENDROOT
TORSDOF 0
ENDMDL
