MODEL 1
REMARK minimizedAffinity 11.8597937
REMARK minimizedRMSD -1
REMARK  0 active torsions:
REMARK  status: ('A' for Active; 'I' for Inactive)
ROOT
ATOM      1  C   UNL d   1      -1.780  -0.203   2.204  0.00  0.00     0.124 A 
ATOM      2  C1  UNL d   1      -1.737  -0.330   0.822  0.00  0.00     0.062 A 
ATOM      3  C2  UNL d   1      -0.519  -0.269   0.151  0.00  0.00     0.162 A 
ATOM      4  C3  UNL d   1       0.667  -0.082   0.862  0.00  0.00    -0.034 A 
ATOM      5  C4  UNL d   1       0.615   0.046   2.251  0.00  0.00     0.162 A 
ATOM      6  C5  UNL d   1      -0.605  -0.016   2.916  0.00  0.00     0.062 A 
ATOM      7  F   UNL d   1      -0.645   0.107   4.251  0.00  0.00    -0.097 F 
ATOM      8  F1  UNL d   1       1.736   0.227   2.965  0.00  0.00    -0.096 F 
ATOM      9  I   UNL d   1       2.490   0.009  -0.138  0.00  0.00    -0.060 I 
ATOM     10  F2  UNL d   1      -0.507  -0.395  -1.184  0.00  0.00    -0.096 F 
ATOM     11  F3  UNL d   1      -2.872  -0.510   0.131  0.00  0.00    -0.097 F 
ATOM     12  F4  UNL d   1      -2.954  -0.261   2.846  0.00  0.00    -0.092 F 
ENDROOT
TORSDOF 0
ENDMDL
