MODEL 1
REMARK minimizedAffinity 3.37965631
REMARK minimizedRMSD -1
REMARK  0 active torsions:
REMARK  status: ('A' for Active; 'I' for Inactive)
ROOT
ATOM      1  C   UNL d   1      -1.207   0.037   1.226  0.00  0.00     0.124 A 
ATOM      2  C1  UNL d   1       0.110  -0.381   1.355  0.00  0.00     0.062 A 
ATOM      3  C2  UNL d   1       0.731  -1.070   0.318  0.00  0.00     0.162 A 
ATOM      4  C3  UNL d   1       0.035  -1.345  -0.860  0.00  0.00    -0.034 A 
ATOM      5  C4  UNL d   1      -1.290  -0.923  -0.982  0.00  0.00     0.162 A 
ATOM      6  C5  UNL d   1      -1.906  -0.235   0.058  0.00  0.00     0.062 A 
ATOM      7  F   UNL d   1      -3.179   0.168  -0.068  0.00  0.00    -0.097 F 
ATOM      8  F1  UNL d   1      -1.988  -1.171  -2.100  0.00  0.00    -0.096 F 
ATOM      9  I   UNL d   1       0.960  -2.376  -2.414  0.00  0.00    -0.060 I 
ATOM     10  F2  UNL d   1       2.005  -1.461   0.470  0.00  0.00    -0.096 F 
ATOM     11  F3  UNL d   1       0.787  -0.121   2.483  0.00  0.00    -0.097 F 
ATOM     12  F4  UNL d   1      -1.802   0.699   2.227  0.00  0.00    -0.092 F 
ENDROOT
TORSDOF 0
ENDMDL
