MODEL 1
REMARK minimizedAffinity 8.04736042
REMARK minimizedRMSD -1
REMARK  0 active torsions:
REMARK  status: ('A' for Active; 'I' for Inactive)
ROOT
ATOM      1  C   UNL d   1      -1.330  -0.218   2.202  0.00  0.00     0.124 A 
ATOM      2  C1  UNL d   1      -2.410  -0.038   1.349  0.00  0.00     0.062 A 
ATOM      3  C2  UNL d   1      -2.242  -0.156  -0.027  0.00  0.00     0.162 A 
ATOM      4  C3  UNL d   1      -0.989  -0.458  -0.560  0.00  0.00    -0.034 A 
ATOM      5  C4  UNL d   1       0.093  -0.637   0.304  0.00  0.00     0.162 A 
ATOM      6  C5  UNL d   1      -0.080  -0.518   1.679  0.00  0.00     0.062 A 
ATOM      7  F   UNL d   1       0.965  -0.692   2.501  0.00  0.00    -0.097 F 
ATOM      8  F1  UNL d   1       1.312  -0.928  -0.175  0.00  0.00    -0.096 F 
ATOM      9  I   UNL d   1      -0.734  -0.635  -2.618  0.00  0.00    -0.060 I 
ATOM     10  F2  UNL d   1      -3.303   0.024  -0.828  0.00  0.00    -0.096 F 
ATOM     11  F3  UNL d   1      -3.618   0.252   1.852  0.00  0.00    -0.097 F 
ATOM     12  F4  UNL d   1      -1.494  -0.103   3.526  0.00  0.00    -0.092 F 
ENDROOT
TORSDOF 0
ENDMDL
