MODEL 1
REMARK minimizedAffinity 4.22664833
REMARK minimizedRMSD -1
REMARK  0 active torsions:
REMARK  status: ('A' for Active; 'I' for Inactive)
ROOT
ATOM      1  C   UNL d   1       3.529   1.268  -3.249  0.00  0.00     0.124 A 
ATOM      2  C1  UNL d   1       3.811   0.598  -2.066  0.00  0.00     0.062 A 
ATOM      3  C2  UNL d   1       2.776   0.164  -1.243  0.00  0.00     0.162 A 
ATOM      4  C3  UNL d   1       1.448   0.396  -1.601  0.00  0.00    -0.034 A 
ATOM      5  C4  UNL d   1       1.172   1.071  -2.791  0.00  0.00     0.162 A 
ATOM      6  C5  UNL d   1       2.210   1.503  -3.610  0.00  0.00     0.062 A 
ATOM      7  F   UNL d   1       1.935   2.150  -4.752  0.00  0.00    -0.097 F 
ATOM      8  F1  UNL d   1      -0.094   1.311  -3.165  0.00  0.00    -0.096 F 
ATOM      9  I   UNL d   1      -0.103  -0.252  -0.373  0.00  0.00    -0.060 I 
ATOM     10  F2  UNL d   1       3.078  -0.480  -0.106  0.00  0.00    -0.096 F 
ATOM     11  F3  UNL d   1       5.085   0.370  -1.714  0.00  0.00    -0.097 F 
ATOM     12  F4  UNL d   1       4.527   1.686  -4.038  0.00  0.00    -0.092 F 
ENDROOT
TORSDOF 0
ENDMDL
