MODEL 1
REMARK minimizedAffinity 2.75310445
REMARK minimizedRMSD -1
REMARK  0 active torsions:
REMARK  status: ('A' for Active; 'I' for Inactive)
ROOT
ATOM      1  C   UNL d   1      -0.115  -0.028   2.051  0.00  0.00     0.124 A 
ATOM      2  C1  UNL d   1      -0.075   0.264   0.695  0.00  0.00     0.062 A 
ATOM      3  C2  UNL d   1      -1.232   0.179  -0.074  0.00  0.00     0.162 A 
ATOM      4  C3  UNL d   1      -2.440  -0.198   0.512  0.00  0.00    -0.034 A 
ATOM      5  C4  UNL d   1      -2.472  -0.490   1.877  0.00  0.00     0.162 A 
ATOM      6  C5  UNL d   1      -1.313  -0.404   2.641  0.00  0.00     0.062 A 
ATOM      7  F   UNL d   1      -1.354  -0.686   3.951  0.00  0.00    -0.097 F 
ATOM      8  F1  UNL d   1      -3.617  -0.856   2.473  0.00  0.00    -0.096 F 
ATOM      9  I   UNL d   1      -4.173  -0.326  -0.634  0.00  0.00    -0.060 I 
ATOM     10  F2  UNL d   1      -1.164   0.466  -1.383  0.00  0.00    -0.096 F 
ATOM     11  F3  UNL d   1       1.082   0.627   0.122  0.00  0.00    -0.097 F 
ATOM     12  F4  UNL d   1       1.000   0.054   2.788  0.00  0.00    -0.092 F 
ENDROOT
TORSDOF 0
ENDMDL
