MODEL 1
REMARK minimizedAffinity 3.10206008
REMARK minimizedRMSD -1
REMARK  0 active torsions:
REMARK  status: ('A' for Active; 'I' for Inactive)
ROOT
ATOM      1  C   UNL d   1      -1.162  -1.936   4.767  0.00  0.00     0.124 A 
ATOM      2  C1  UNL d   1      -2.281  -1.645   4.000  0.00  0.00     0.062 A 
ATOM      3  C2  UNL d   1      -2.135  -1.102   2.727  0.00  0.00     0.162 A 
ATOM      4  C3  UNL d   1      -0.864  -0.847   2.212  0.00  0.00    -0.034 A 
ATOM      5  C4  UNL d   1       0.257  -1.141   2.990  0.00  0.00     0.162 A 
ATOM      6  C5  UNL d   1       0.106  -1.684   4.262  0.00  0.00     0.062 A 
ATOM      7  F   UNL d   1       1.188  -1.964   5.002  0.00  0.00    -0.097 F 
ATOM      8  F1  UNL d   1       1.494  -0.909   2.526  0.00  0.00    -0.096 F 
ATOM      9  I   UNL d   1      -0.641  -0.035   0.309  0.00  0.00    -0.060 I 
ATOM     10  F2  UNL d   1      -3.234  -0.830   2.007  0.00  0.00    -0.096 F 
ATOM     11  F3  UNL d   1      -3.507  -1.886   4.486  0.00  0.00    -0.097 F 
ATOM     12  F4  UNL d   1      -1.306  -2.457   5.992  0.00  0.00    -0.092 F 
ENDROOT
TORSDOF 0
ENDMDL
