MODEL 1
REMARK minimizedAffinity 3.83091974
REMARK minimizedRMSD -1
REMARK  0 active torsions:
REMARK  status: ('A' for Active; 'I' for Inactive)
ROOT
ATOM      1  C   UNL d   1       4.476   1.598  -2.627  0.00  0.00     0.124 A 
ATOM      2  C1  UNL d   1       4.285   2.818  -1.994  0.00  0.00     0.062 A 
ATOM      3  C2  UNL d   1       3.692   2.868  -0.736  0.00  0.00     0.162 A 
ATOM      4  C3  UNL d   1       3.286   1.694  -0.101  0.00  0.00    -0.034 A 
ATOM      5  C4  UNL d   1       3.481   0.471  -0.745  0.00  0.00     0.162 A 
ATOM      6  C5  UNL d   1       4.074   0.426  -2.002  0.00  0.00     0.062 A 
ATOM      7  F   UNL d   1       4.258  -0.754  -2.613  0.00  0.00    -0.097 F 
ATOM      8  F1  UNL d   1       3.103  -0.677  -0.163  0.00  0.00    -0.096 F 
ATOM      9  I   UNL d   1       2.399   1.765   1.780  0.00  0.00    -0.060 I 
ATOM     10  F2  UNL d   1       3.520   4.061  -0.147  0.00  0.00    -0.096 F 
ATOM     11  F3  UNL d   1       4.672   3.952  -2.596  0.00  0.00    -0.097 F 
ATOM     12  F4  UNL d   1       5.046   1.552  -3.838  0.00  0.00    -0.092 F 
ENDROOT
TORSDOF 0
ENDMDL
