MODEL 1
REMARK minimizedAffinity 0.839942157
REMARK minimizedRMSD -1
REMARK  0 active torsions:
REMARK  status: ('A' for Active; 'I' for Inactive)
ROOT
ATOM      1  C   UNL d   1      -1.435  -0.432   1.808  0.00  0.00     0.124 A 
ATOM      2  C1  UNL d   1      -0.283  -0.205   2.548  0.00  0.00     0.062 A 
ATOM      3  C2  UNL d   1       0.939  -0.031   1.905  0.00  0.00     0.162 A 
ATOM      4  C3  UNL d   1       1.015  -0.082   0.513  0.00  0.00    -0.034 A 
ATOM      5  C4  UNL d   1      -0.148  -0.311  -0.224  0.00  0.00     0.162 A 
ATOM      6  C5  UNL d   1      -1.367  -0.484   0.423  0.00  0.00     0.062 A 
ATOM      7  F   UNL d   1      -2.479  -0.703  -0.294  0.00  0.00    -0.097 F 
ATOM      8  F1  UNL d   1      -0.110  -0.366  -1.564  0.00  0.00    -0.096 F 
ATOM      9  I   UNL d   1       2.841   0.178  -0.452  0.00  0.00    -0.060 I 
ATOM     10  F2  UNL d   1       2.036   0.186   2.645  0.00  0.00    -0.096 F 
ATOM     11  F3  UNL d   1      -0.347  -0.155   3.886  0.00  0.00    -0.097 F 
ATOM     12  F4  UNL d   1      -2.610  -0.600   2.429  0.00  0.00    -0.092 F 
ENDROOT
TORSDOF 0
ENDMDL
