MODEL 1
REMARK minimizedAffinity 2.50693488
REMARK minimizedRMSD -1
REMARK  0 active torsions:
REMARK  status: ('A' for Active; 'I' for Inactive)
ROOT
ATOM      1  C   UNL d   1      -2.077   0.435  -0.067  0.00  0.00     0.124 A 
ATOM      2  C1  UNL d   1      -0.737   0.078  -0.113  0.00  0.00     0.062 A 
ATOM      3  C2  UNL d   1      -0.077  -0.317   1.047  0.00  0.00     0.162 A 
ATOM      4  C3  UNL d   1      -0.757  -0.358   2.264  0.00  0.00    -0.034 A 
ATOM      5  C4  UNL d   1      -2.105   0.004   2.303  0.00  0.00     0.162 A 
ATOM      6  C5  UNL d   1      -2.760   0.398   1.141  0.00  0.00     0.062 A 
ATOM      7  F   UNL d   1      -4.055   0.743   1.188  0.00  0.00    -0.097 F 
ATOM      8  F1  UNL d   1      -2.789  -0.025   3.457  0.00  0.00    -0.096 F 
ATOM      9  I   UNL d   1       0.226  -0.948   4.001  0.00  0.00    -0.060 I 
ATOM     10  F2  UNL d   1       1.218  -0.657   0.973  0.00  0.00    -0.096 F 
ATOM     11  F3  UNL d   1      -0.075   0.115  -1.278  0.00  0.00    -0.097 F 
ATOM     12  F4  UNL d   1      -2.709   0.816  -1.184  0.00  0.00    -0.092 F 
ENDROOT
TORSDOF 0
ENDMDL
