MODEL 1
REMARK minimizedAffinity -1.82919645
REMARK minimizedRMSD -1
REMARK  0 active torsions:
REMARK  status: ('A' for Active; 'I' for Inactive)
ROOT
ATOM      1  C1  BNZ d   1      -0.118  -2.775   4.542  0.00  0.00     0.000 A 
ATOM      2  C2  BNZ d   1      -1.009  -3.726   4.963  0.00  0.00     0.000 A 
ATOM      3  C3  BNZ d   1      -0.593  -4.793   5.708  0.00  0.00     0.000 A 
ATOM      4  C4  BNZ d   1       0.717  -4.930   5.998  0.00  0.00     0.000 A 
ATOM      5  C5  BNZ d   1       1.629  -3.985   5.573  0.00  0.00     0.000 A 
ATOM      6  C6  BNZ d   1       1.201  -2.891   4.856  0.00  0.00     0.000 A 
ENDROOT
TORSDOF 0
ENDMDL
