MODEL 1
REMARK minimizedAffinity -1.87554419
REMARK minimizedRMSD -1
REMARK  0 active torsions:
REMARK  status: ('A' for Active; 'I' for Inactive)
ROOT
ATOM      1  C1  BNZ d   1      -5.909   5.529   2.616  0.00  0.00     0.000 A 
ATOM      2  C2  BNZ d   1      -5.999   5.541   3.983  0.00  0.00     0.000 A 
ATOM      3  C3  BNZ d   1      -4.899   5.797   4.754  0.00  0.00     0.000 A 
ATOM      4  C4  BNZ d   1      -3.706   6.000   4.160  0.00  0.00     0.000 A 
ATOM      5  C5  BNZ d   1      -3.598   5.981   2.783  0.00  0.00     0.000 A 
ATOM      6  C6  BNZ d   1      -4.714   5.761   2.009  0.00  0.00     0.000 A 
ENDROOT
TORSDOF 0
ENDMDL
