MODEL 1
REMARK minimizedAffinity -1.44152641
REMARK minimizedRMSD -1
REMARK  0 active torsions:
REMARK  status: ('A' for Active; 'I' for Inactive)
ROOT
ATOM      1  C1  BNZ d   1      -4.758   5.960   3.045  0.00  0.00     0.000 A 
ATOM      2  C2  BNZ d   1      -5.927   5.949   3.759  0.00  0.00     0.000 A 
ATOM      3  C3  BNZ d   1      -5.912   5.988   5.126  0.00  0.00     0.000 A 
ATOM      4  C4  BNZ d   1      -4.731   5.998   5.776  0.00  0.00     0.000 A 
ATOM      5  C5  BNZ d   1      -3.544   6.000   5.071  0.00  0.00     0.000 A 
ATOM      6  C6  BNZ d   1      -3.563   6.000   3.695  0.00  0.00     0.000 A 
ENDROOT
TORSDOF 0
ENDMDL
