MODEL 1
REMARK minimizedAffinity -2.25802588
REMARK minimizedRMSD -1
REMARK  0 active torsions:
REMARK  status: ('A' for Active; 'I' for Inactive)
ROOT
ATOM      1  C1  BNZ d   1      -3.455   6.000   2.088  0.00  0.00     0.000 A 
ATOM      2  C2  BNZ d   1      -3.670   5.955   3.440  0.00  0.00     0.000 A 
ATOM      3  C3  BNZ d   1      -4.939   5.899   3.945  0.00  0.00     0.000 A 
ATOM      4  C4  BNZ d   1      -5.991   5.928   3.102  0.00  0.00     0.000 A 
ATOM      5  C5  BNZ d   1      -5.790   5.982   1.737  0.00  0.00     0.000 A 
ATOM      6  C6  BNZ d   1      -4.511   6.000   1.230  0.00  0.00     0.000 A 
ENDROOT
TORSDOF 0
ENDMDL
