MODEL 1
REMARK minimizedAffinity 11.4023142
REMARK minimizedRMSD -1
REMARK  1 active torsions:
REMARK  status: ('A' for Active; 'I' for Inactive)
REMARK    1  A    between atoms: C1_2  and  C2_3 
ROOT
ATOM      1  C2  UNL d   1       3.344   1.682   0.864  0.00  0.00    -0.076 A 
ATOM      2  C3  UNL d   1       3.724   3.015   0.626  0.00  0.00     0.004 A 
ATOM      3  C4  UNL d   1       4.841   3.565   1.252  0.00  0.00    -0.003 A 
ATOM      4  C5  UNL d   1       5.597   2.792   2.126  0.00  0.00     0.000 A 
ATOM      5  C6  UNL d   1       5.246   1.463   2.360  0.00  0.00     0.000 A 
ATOM      6  C7  UNL d   1       4.132   0.888   1.724  0.00  0.00    -0.073 A 
ATOM      7  C8  UNL d   1       3.795  -0.548   2.018  0.00  0.00     0.078 C 
ENDROOT
BRANCH   1   8
ATOM      8  C1  UNL d   1       2.108   1.148   0.177  0.00  0.00     0.053 C 
ATOM      9  C   UNL d   1       2.152   1.334  -1.331  0.00  0.00     0.018 C 
ENDBRANCH   1   8
TORSDOF 1
ENDMDL
