MODEL 1
REMARK minimizedAffinity 14.741868
REMARK minimizedRMSD -1
REMARK  1 active torsions:
REMARK  status: ('A' for Active; 'I' for Inactive)
REMARK    1  A    between atoms: C1_2  and  C2_3 
ROOT
ATOM      1  C2  UNL d   1       5.222  -4.705   0.057  0.00  0.00    -0.076 A 
ATOM      2  C3  UNL d   1       5.999  -3.536   0.131  0.00  0.00     0.004 A 
ATOM      3  C4  UNL d   1       5.515  -2.321  -0.353  0.00  0.00    -0.003 A 
ATOM      4  C5  UNL d   1       4.246  -2.256  -0.917  0.00  0.00     0.000 A 
ATOM      5  C6  UNL d   1       3.454  -3.402  -0.982  0.00  0.00     0.000 A 
ATOM      6  C7  UNL d   1       3.921  -4.631  -0.485  0.00  0.00    -0.073 A 
ATOM      7  C8  UNL d   1       3.027  -5.837  -0.587  0.00  0.00     0.078 C 
ENDROOT
BRANCH   1   8
ATOM      8  C1  UNL d   1       5.810  -5.999   0.572  0.00  0.00     0.053 C 
ATOM      9  C   UNL d   1       5.985  -5.998   2.083  0.00  0.00     0.018 C 
ENDBRANCH   1   8
TORSDOF 1
ENDMDL
