MODEL 1
REMARK minimizedAffinity 20.1430225
REMARK minimizedRMSD -1
REMARK  1 active torsions:
REMARK  status: ('A' for Active; 'I' for Inactive)
REMARK    1  A    between atoms: C1_2  and  C2_3 
ROOT
ATOM      1  C2  UNL d   1       3.848   3.329  -3.328  0.00  0.00    -0.076 A 
ATOM      2  C3  UNL d   1       3.721   3.031  -4.696  0.00  0.00     0.004 A 
ATOM      3  C4  UNL d   1       4.701   3.417  -5.609  0.00  0.00    -0.003 A 
ATOM      4  C5  UNL d   1       5.825   4.107  -5.168  0.00  0.00     0.000 A 
ATOM      5  C6  UNL d   1       5.976   4.396  -3.812  0.00  0.00     0.000 A 
ATOM      6  C7  UNL d   1       5.005   3.999  -2.877  0.00  0.00    -0.073 A 
ATOM      7  C8  UNL d   1       5.216   4.342  -1.427  0.00  0.00     0.078 C 
ENDROOT
BRANCH   1   8
ATOM      8  C1  UNL d   1       2.740   2.908  -2.389  0.00  0.00     0.053 C 
ATOM      9  C   UNL d   1       1.432   2.635  -3.116  0.00  0.00     0.018 C 
ENDBRANCH   1   8
TORSDOF 1
ENDMDL
