MODEL 1
REMARK minimizedAffinity 11.3019886
REMARK minimizedRMSD -1
REMARK  1 active torsions:
REMARK  status: ('A' for Active; 'I' for Inactive)
REMARK    1  A    between atoms: C1_2  and  C2_3 
ROOT
ATOM      1  C2  UNL d   1      -4.145  -3.614   3.824  0.00  0.00    -0.076 A 
ATOM      2  C3  UNL d   1      -4.455  -3.422   5.182  0.00  0.00     0.004 A 
ATOM      3  C4  UNL d   1      -4.789  -4.500   6.000  0.00  0.00    -0.003 A 
ATOM      4  C5  UNL d   1      -4.819  -5.787   5.474  0.00  0.00     0.000 A 
ATOM      5  C6  UNL d   1      -4.498  -5.997   4.133  0.00  0.00     0.000 A 
ATOM      6  C7  UNL d   1      -4.143  -4.924   3.299  0.00  0.00    -0.073 A 
ATOM      7  C8  UNL d   1      -3.812  -5.207   1.859  0.00  0.00     0.078 C 
ENDROOT
BRANCH   1   8
ATOM      8  C1  UNL d   1      -3.816  -2.404   2.979  0.00  0.00     0.053 C 
ATOM      9  C   UNL d   1      -2.861  -2.730   1.841  0.00  0.00     0.018 C 
ENDBRANCH   1   8
TORSDOF 1
ENDMDL
