MODEL 1
REMARK minimizedAffinity 16.4325638
REMARK minimizedRMSD -1
REMARK  1 active torsions:
REMARK  status: ('A' for Active; 'I' for Inactive)
REMARK    1  A    between atoms: C1_2  and  C2_3 
ROOT
ATOM      1  C2  UNL d   1       3.696   2.086  -0.173  0.00  0.00    -0.076 A 
ATOM      2  C3  UNL d   1       5.065   2.369  -0.324  0.00  0.00     0.004 A 
ATOM      3  C4  UNL d   1       5.749   3.127   0.625  0.00  0.00    -0.003 A 
ATOM      4  C5  UNL d   1       5.076   3.612   1.741  0.00  0.00     0.000 A 
ATOM      5  C6  UNL d   1       3.723   3.326   1.916  0.00  0.00     0.000 A 
ATOM      6  C7  UNL d   1       3.022   2.550   0.976  0.00  0.00    -0.073 A 
ATOM      7  C8  UNL d   1       1.562   2.277   1.212  0.00  0.00     0.078 C 
ENDROOT
BRANCH   1   8
ATOM      8  C1  UNL d   1       3.001   1.282  -1.249  0.00  0.00     0.053 C 
ATOM      9  C   UNL d   1       2.104   2.140  -2.128  0.00  0.00     0.018 C 
ENDBRANCH   1   8
TORSDOF 1
ENDMDL
