MODEL 1
REMARK minimizedAffinity 15.0659389
REMARK minimizedRMSD -1
REMARK  1 active torsions:
REMARK  status: ('A' for Active; 'I' for Inactive)
REMARK    1  A    between atoms: C1_2  and  C2_3 
ROOT
ATOM      1  C2  UNL d   1      -2.019   5.504  -3.510  0.00  0.00    -0.076 A 
ATOM      2  C3  UNL d   1      -3.413   5.484  -3.690  0.00  0.00     0.004 A 
ATOM      3  C4  UNL d   1      -4.278   5.491  -2.596  0.00  0.00    -0.003 A 
ATOM      4  C5  UNL d   1      -3.762   5.520  -1.305  0.00  0.00     0.000 A 
ATOM      5  C6  UNL d   1      -2.382   5.558  -1.109  0.00  0.00     0.000 A 
ATOM      6  C7  UNL d   1      -1.497   5.567  -2.200  0.00  0.00    -0.073 A 
ATOM      7  C8  UNL d   1      -0.018   5.603  -1.930  0.00  0.00     0.078 C 
ENDROOT
BRANCH   1   8
ATOM      8  C1  UNL d   1      -1.131   5.467  -4.733  0.00  0.00     0.053 C 
ATOM      9  C   UNL d   1      -1.897   5.116  -5.999  0.00  0.00     0.018 C 
ENDBRANCH   1   8
TORSDOF 1
ENDMDL
