MODEL 1
REMARK minimizedAffinity 17.7622375
REMARK minimizedRMSD -1
REMARK  1 active torsions:
REMARK  status: ('A' for Active; 'I' for Inactive)
REMARK    1  A    between atoms: C1_2  and  C2_3 
ROOT
ATOM      1  C2  UNL d   1       3.492   3.541  -3.470  0.00  0.00    -0.076 A 
ATOM      2  C3  UNL d   1       4.214   4.221  -2.475  0.00  0.00     0.004 A 
ATOM      3  C4  UNL d   1       5.457   4.788  -2.751  0.00  0.00    -0.003 A 
ATOM      4  C5  UNL d   1       5.997   4.685  -4.028  0.00  0.00     0.000 A 
ATOM      5  C6  UNL d   1       5.286   4.029  -5.033  0.00  0.00     0.000 A 
ATOM      6  C7  UNL d   1       4.025   3.466  -4.775  0.00  0.00    -0.073 A 
ATOM      7  C8  UNL d   1       3.305   2.765  -5.894  0.00  0.00     0.078 C 
ENDROOT
BRANCH   1   8
ATOM      8  C1  UNL d   1       2.161   2.923  -3.105  0.00  0.00     0.053 C 
ATOM      9  C   UNL d   1       2.270   1.952  -1.939  0.00  0.00     0.018 C 
ENDBRANCH   1   8
TORSDOF 1
ENDMDL
