MODEL 1
REMARK minimizedAffinity 6.22624779
REMARK minimizedRMSD -1
REMARK  1 active torsions:
REMARK  status: ('A' for Active; 'I' for Inactive)
REMARK    1  A    between atoms: C1_2  and  C2_3 
ROOT
ATOM      1  C2  UNL d   1      -3.296   0.051   1.782  0.00  0.00    -0.076 A 
ATOM      2  C3  UNL d   1      -2.808  -1.031   1.029  0.00  0.00     0.004 A 
ATOM      3  C4  UNL d   1      -1.617  -1.668   1.375  0.00  0.00    -0.003 A 
ATOM      4  C5  UNL d   1      -0.895  -1.233   2.481  0.00  0.00     0.000 A 
ATOM      5  C6  UNL d   1      -1.373  -0.173   3.250  0.00  0.00     0.000 A 
ATOM      6  C7  UNL d   1      -2.580   0.469   2.925  0.00  0.00    -0.073 A 
ATOM      7  C8  UNL d   1      -3.046   1.611   3.786  0.00  0.00     0.078 C 
ENDROOT
BRANCH   1   8
ATOM      8  C1  UNL d   1      -4.579   0.720   1.343  0.00  0.00     0.053 C 
ATOM      9  C   UNL d   1      -4.852   0.538  -0.142  0.00  0.00     0.018 C 
ENDBRANCH   1   8
TORSDOF 1
ENDMDL
