MODEL 1
REMARK minimizedAffinity 15.897933
REMARK minimizedRMSD -1
REMARK  1 active torsions:
REMARK  status: ('A' for Active; 'I' for Inactive)
REMARK    1  A    between atoms: C1_2  and  C2_3 
ROOT
ATOM      1  C2  UNL d   1      -0.650  -0.848   2.456  0.00  0.00    -0.076 A 
ATOM      2  C3  UNL d   1      -0.763  -0.270   3.733  0.00  0.00     0.004 A 
ATOM      3  C4  UNL d   1      -1.807   0.601   4.036  0.00  0.00    -0.003 A 
ATOM      4  C5  UNL d   1      -2.757   0.908   3.067  0.00  0.00     0.000 A 
ATOM      5  C6  UNL d   1      -2.671   0.330   1.801  0.00  0.00     0.000 A 
ATOM      6  C7  UNL d   1      -1.633  -0.563   1.485  0.00  0.00    -0.073 A 
ATOM      7  C8  UNL d   1      -1.585  -1.153   0.102  0.00  0.00     0.078 C 
ENDROOT
BRANCH   1   8
ATOM      8  C1  UNL d   1       0.520  -1.765   2.177  0.00  0.00     0.053 C 
ATOM      9  C   UNL d   1       1.550  -1.751   3.295  0.00  0.00     0.018 C 
ENDBRANCH   1   8
TORSDOF 1
ENDMDL
