MODEL 1
REMARK minimizedAffinity 13.2075291
REMARK minimizedRMSD -1
REMARK  1 active torsions:
REMARK  status: ('A' for Active; 'I' for Inactive)
REMARK    1  A    between atoms: C1_2  and  C2_3 
ROOT
ATOM      1  C2  UNL d   1       4.874   3.749  -2.198  0.00  0.00    -0.076 A 
ATOM      2  C3  UNL d   1       3.798   3.219  -1.464  0.00  0.00     0.004 A 
ATOM      3  C4  UNL d   1       2.729   2.596  -2.106  0.00  0.00    -0.003 A 
ATOM      4  C5  UNL d   1       2.719   2.491  -3.492  0.00  0.00     0.000 A 
ATOM      5  C6  UNL d   1       3.786   2.995  -4.235  0.00  0.00     0.000 A 
ATOM      6  C7  UNL d   1       4.879   3.612  -3.603  0.00  0.00    -0.073 A 
ATOM      7  C8  UNL d   1       6.000   4.143  -4.453  0.00  0.00     0.078 C 
ENDROOT
BRANCH   1   8
ATOM      8  C1  UNL d   1       5.992   4.438  -1.449  0.00  0.00     0.053 C 
ATOM      9  C   UNL d   1       6.000   4.094   0.032  0.00  0.00     0.018 C 
ENDBRANCH   1   8
TORSDOF 1
ENDMDL
