MODEL 1
REMARK minimizedAffinity 19.3762455
REMARK minimizedRMSD -1
REMARK  1 active torsions:
REMARK  status: ('A' for Active; 'I' for Inactive)
REMARK    1  A    between atoms: C1_2  and  C2_3 
ROOT
ATOM      1  C2  UNL d   1       3.685   3.473  -3.073  0.00  0.00    -0.076 A 
ATOM      2  C3  UNL d   1       4.068   4.377  -2.067  0.00  0.00     0.004 A 
ATOM      3  C4  UNL d   1       5.214   5.158  -2.202  0.00  0.00    -0.003 A 
ATOM      4  C5  UNL d   1       5.996   5.049  -3.346  0.00  0.00     0.000 A 
ATOM      5  C6  UNL d   1       5.622   4.170  -4.362  0.00  0.00     0.000 A 
ATOM      6  C7  UNL d   1       4.461   3.387  -4.249  0.00  0.00    -0.073 A 
ATOM      7  C8  UNL d   1       4.108   2.452  -5.373  0.00  0.00     0.078 C 
ENDROOT
BRANCH   1   8
ATOM      8  C1  UNL d   1       2.447   2.632  -2.859  0.00  0.00     0.053 C 
ATOM      9  C   UNL d   1       2.671   1.510  -1.858  0.00  0.00     0.018 C 
ENDBRANCH   1   8
TORSDOF 1
ENDMDL
