MODEL 1
REMARK minimizedAffinity 17.7226162
REMARK minimizedRMSD -1
REMARK  1 active torsions:
REMARK  status: ('A' for Active; 'I' for Inactive)
REMARK    1  A    between atoms: C1_2  and  C2_3 
ROOT
ATOM      1  C2  UNL d   1      -3.448  -4.646  -4.268  0.00  0.00    -0.076 A 
ATOM      2  C3  UNL d   1      -4.693  -4.246  -3.752  0.00  0.00     0.004 A 
ATOM      3  C4  UNL d   1      -5.883  -4.668  -4.342  0.00  0.00    -0.003 A 
ATOM      4  C5  UNL d   1      -5.848  -5.499  -5.456  0.00  0.00     0.000 A 
ATOM      5  C6  UNL d   1      -4.622  -5.921  -5.971  0.00  0.00     0.000 A 
ATOM      6  C7  UNL d   1      -3.413  -5.517  -5.378  0.00  0.00    -0.073 A 
ATOM      7  C8  UNL d   1      -2.120  -5.996  -5.978  0.00  0.00     0.078 C 
ENDROOT
BRANCH   1   8
ATOM      8  C1  UNL d   1      -2.190  -4.134  -3.603  0.00  0.00     0.053 C 
ATOM      9  C   UNL d   1      -0.979  -5.003  -3.901  0.00  0.00     0.018 C 
ENDBRANCH   1   8
TORSDOF 1
ENDMDL
