MODEL 1
REMARK minimizedAffinity 14.2604313
REMARK minimizedRMSD -1
REMARK  1 active torsions:
REMARK  status: ('A' for Active; 'I' for Inactive)
REMARK    1  A    between atoms: C1_2  and  C2_3 
ROOT
ATOM      1  C2  UNL d   1      -1.012  -0.992   2.464  0.00  0.00    -0.076 A 
ATOM      2  C3  UNL d   1      -1.480  -0.933   1.139  0.00  0.00     0.004 A 
ATOM      3  C4  UNL d   1      -2.502  -0.057   0.777  0.00  0.00    -0.003 A 
ATOM      4  C5  UNL d   1      -3.073   0.775   1.734  0.00  0.00     0.000 A 
ATOM      5  C6  UNL d   1      -2.609   0.743   3.049  0.00  0.00     0.000 A 
ATOM      6  C7  UNL d   1      -1.568  -0.123   3.427  0.00  0.00    -0.073 A 
ATOM      7  C8  UNL d   1      -1.112  -0.120   4.860  0.00  0.00     0.078 C 
ENDROOT
BRANCH   1   8
ATOM      8  C1  UNL d   1       0.080  -1.981   2.803  0.00  0.00     0.053 C 
ATOM      9  C   UNL d   1       1.446  -1.323   2.918  0.00  0.00     0.018 C 
ENDBRANCH   1   8
TORSDOF 1
ENDMDL
