MODEL 1
REMARK minimizedAffinity 6.70100784
REMARK minimizedRMSD -1
REMARK  1 active torsions:
REMARK  status: ('A' for Active; 'I' for Inactive)
REMARK    1  A    between atoms: C1_2  and  C2_3 
ROOT
ATOM      1  C2  UNL d   1       5.187   3.947   0.475  0.00  0.00    -0.076 A 
ATOM      2  C3  UNL d   1       5.964   3.661  -0.661  0.00  0.00     0.004 A 
ATOM      3  C4  UNL d   1       5.982   4.526  -1.754  0.00  0.00    -0.003 A 
ATOM      4  C5  UNL d   1       5.224   5.691  -1.729  0.00  0.00     0.000 A 
ATOM      5  C6  UNL d   1       4.461   5.999  -0.604  0.00  0.00     0.000 A 
ATOM      6  C7  UNL d   1       4.444   5.147   0.513  0.00  0.00    -0.073 A 
ATOM      7  C8  UNL d   1       3.598   5.526   1.698  0.00  0.00     0.078 C 
ENDROOT
BRANCH   1   8
ATOM      8  C1  UNL d   1       5.185   2.959   1.619  0.00  0.00     0.053 C 
ATOM      9  C   UNL d   1       4.167   1.846   1.426  0.00  0.00     0.018 C 
ENDBRANCH   1   8
TORSDOF 1
ENDMDL
