MODEL 1
REMARK minimizedAffinity 17.8273487
REMARK minimizedRMSD -1
REMARK  1 active torsions:
REMARK  status: ('A' for Active; 'I' for Inactive)
REMARK    1  A    between atoms: C1_2  and  C2_3 
ROOT
ATOM      1  C2  UNL d   1      -2.428   0.124   2.888  0.00  0.00    -0.076 A 
ATOM      2  C3  UNL d   1      -1.066  -0.193   3.026  0.00  0.00     0.004 A 
ATOM      3  C4  UNL d   1      -0.500  -1.250   2.315  0.00  0.00    -0.003 A 
ATOM      4  C5  UNL d   1      -1.287  -2.006   1.453  0.00  0.00     0.000 A 
ATOM      5  C6  UNL d   1      -2.637  -1.694   1.291  0.00  0.00     0.000 A 
ATOM      6  C7  UNL d   1      -3.219  -0.622   1.988  0.00  0.00    -0.073 A 
ATOM      7  C8  UNL d   1      -4.681  -0.334   1.780  0.00  0.00     0.078 C 
ENDROOT
BRANCH   1   8
ATOM      8  C1  UNL d   1      -2.993   1.264   3.706  0.00  0.00     0.053 C 
ATOM      9  C   UNL d   1      -2.677   1.130   5.188  0.00  0.00     0.018 C 
ENDBRANCH   1   8
TORSDOF 1
ENDMDL
