MODEL 1
REMARK minimizedAffinity 25.9396763
REMARK minimizedRMSD -1
REMARK  1 active torsions:
REMARK  status: ('A' for Active; 'I' for Inactive)
REMARK    1  A    between atoms: C1_2  and  C2_3 
ROOT
ATOM      1  C2  UNL d   1      -0.774  -5.161  -3.662  0.00  0.00    -0.076 A 
ATOM      2  C3  UNL d   1      -1.476  -5.461  -4.842  0.00  0.00     0.004 A 
ATOM      3  C4  UNL d   1      -0.805  -5.877  -5.991  0.00  0.00    -0.003 A 
ATOM      4  C5  UNL d   1       0.580  -6.000  -5.978  0.00  0.00     0.000 A 
ATOM      5  C6  UNL d   1       1.291  -5.723  -4.811  0.00  0.00     0.000 A 
ATOM      6  C7  UNL d   1       0.629  -5.318  -3.640  0.00  0.00    -0.073 A 
ATOM      7  C8  UNL d   1       1.447  -5.026  -2.412  0.00  0.00     0.078 C 
ENDROOT
BRANCH   1   8
ATOM      8  C1  UNL d   1      -1.553  -4.688  -2.455  0.00  0.00     0.053 C 
ATOM      9  C   UNL d   1      -2.038  -3.254  -2.600  0.00  0.00     0.018 C 
ENDBRANCH   1   8
TORSDOF 1
ENDMDL
