MODEL 1
REMARK minimizedAffinity 7.30407906
REMARK minimizedRMSD -1
REMARK  1 active torsions:
REMARK  status: ('A' for Active; 'I' for Inactive)
REMARK    1  A    between atoms: C1_2  and  C2_3 
ROOT
ATOM      1  C2  UNL d   1       0.109  -1.161   3.594  0.00  0.00    -0.076 A 
ATOM      2  C3  UNL d   1       0.241  -0.351   4.736  0.00  0.00     0.004 A 
ATOM      3  C4  UNL d   1      -0.681   0.657   5.011  0.00  0.00    -0.003 A 
ATOM      4  C5  UNL d   1      -1.751   0.872   4.150  0.00  0.00     0.000 A 
ATOM      5  C6  UNL d   1      -1.908   0.066   3.022  0.00  0.00     0.000 A 
ATOM      6  C7  UNL d   1      -0.997  -0.965   2.739  0.00  0.00    -0.073 A 
ATOM      7  C8  UNL d   1      -1.211  -1.800   1.506  0.00  0.00     0.078 C 
ENDROOT
BRANCH   1   8
ATOM      8  C1  UNL d   1       1.155  -2.221   3.333  0.00  0.00     0.053 C 
ATOM      9  C   UNL d   1       2.502  -1.628   2.949  0.00  0.00     0.018 C 
ENDBRANCH   1   8
TORSDOF 1
ENDMDL
