MODEL 1
REMARK minimizedAffinity 5.01460791
REMARK minimizedRMSD -1
REMARK  1 active torsions:
REMARK  status: ('A' for Active; 'I' for Inactive)
REMARK    1  A    between atoms: C1_2  and  C2_3 
ROOT
ATOM      1  C2  UNL d   1       3.418  -3.899  -0.226  0.00  0.00    -0.076 A 
ATOM      2  C3  UNL d   1       3.730  -5.265  -0.117  0.00  0.00     0.004 A 
ATOM      3  C4  UNL d   1       5.010  -5.734  -0.406  0.00  0.00    -0.003 A 
ATOM      4  C5  UNL d   1       6.000  -4.844  -0.809  0.00  0.00     0.000 A 
ATOM      5  C6  UNL d   1       5.712  -3.482  -0.906  0.00  0.00     0.000 A 
ATOM      6  C7  UNL d   1       4.431  -2.991  -0.602  0.00  0.00    -0.073 A 
ATOM      7  C8  UNL d   1       4.175  -1.514  -0.729  0.00  0.00     0.078 C 
ENDROOT
BRANCH   1   8
ATOM      8  C1  UNL d   1       2.005  -3.452   0.075  0.00  0.00     0.053 C 
ATOM      9  C   UNL d   1       1.871  -2.835   1.458  0.00  0.00     0.018 C 
ENDBRANCH   1   8
TORSDOF 1
ENDMDL
