MODEL 1
REMARK minimizedAffinity 20.0296879
REMARK minimizedRMSD -1
REMARK  1 active torsions:
REMARK  status: ('A' for Active; 'I' for Inactive)
REMARK    1  A    between atoms: C1_2  and  C2_3 
ROOT
ATOM      1  C2  UNL d   1      -3.148  -0.197   1.680  0.00  0.00    -0.076 A 
ATOM      2  C3  UNL d   1      -2.677  -1.246   0.872  0.00  0.00     0.004 A 
ATOM      3  C4  UNL d   1      -1.365  -1.703   0.982  0.00  0.00    -0.003 A 
ATOM      4  C5  UNL d   1      -0.502  -1.118   1.903  0.00  0.00     0.000 A 
ATOM      5  C6  UNL d   1      -0.958  -0.089   2.726  0.00  0.00     0.000 A 
ATOM      6  C7  UNL d   1      -2.283   0.373   2.639  0.00  0.00    -0.073 A 
ATOM      7  C8  UNL d   1      -2.719   1.490   3.546  0.00  0.00     0.078 C 
ENDROOT
BRANCH   1   8
ATOM      8  C1  UNL d   1      -4.573   0.275   1.497  0.00  0.00     0.053 C 
ATOM      9  C   UNL d   1      -5.020   0.229   0.044  0.00  0.00     0.018 C 
ENDBRANCH   1   8
TORSDOF 1
ENDMDL
