MODEL 1
REMARK minimizedAffinity 12.6610031
REMARK minimizedRMSD -1
REMARK  1 active torsions:
REMARK  status: ('A' for Active; 'I' for Inactive)
REMARK    1  A    between atoms: C1_2  and  C2_3 
ROOT
ATOM      1  C2  UNL d   1      -2.375   0.018   2.833  0.00  0.00    -0.076 A 
ATOM      2  C3  UNL d   1      -1.035  -0.395   2.925  0.00  0.00     0.004 A 
ATOM      3  C4  UNL d   1      -0.575  -1.502   2.214  0.00  0.00    -0.003 A 
ATOM      4  C5  UNL d   1      -1.448  -2.214   1.398  0.00  0.00     0.000 A 
ATOM      5  C6  UNL d   1      -2.777  -1.808   1.282  0.00  0.00     0.000 A 
ATOM      6  C7  UNL d   1      -3.253  -0.685   1.979  0.00  0.00    -0.073 A 
ATOM      7  C8  UNL d   1      -4.697  -0.295   1.821  0.00  0.00     0.078 C 
ENDROOT
BRANCH   1   8
ATOM      8  C1  UNL d   1      -2.824   1.209   3.649  0.00  0.00     0.053 C 
ATOM      9  C   UNL d   1      -3.038   0.864   5.114  0.00  0.00     0.018 C 
ENDBRANCH   1   8
TORSDOF 1
ENDMDL
