MODEL 1
REMARK minimizedAffinity 6.96855736
REMARK minimizedRMSD -1
REMARK  1 active torsions:
REMARK  status: ('A' for Active; 'I' for Inactive)
REMARK    1  A    between atoms: C1_2  and  C2_3 
ROOT
ATOM      1  C2  UNL d   1      -2.677   0.373   3.024  0.00  0.00    -0.076 A 
ATOM      2  C3  UNL d   1      -2.233   0.825   4.279  0.00  0.00     0.004 A 
ATOM      3  C4  UNL d   1      -3.099   1.478   5.154  0.00  0.00    -0.003 A 
ATOM      4  C5  UNL d   1      -4.424   1.689   4.789  0.00  0.00     0.000 A 
ATOM      5  C6  UNL d   1      -4.886   1.232   3.555  0.00  0.00     0.000 A 
ATOM      6  C7  UNL d   1      -4.030   0.558   2.668  0.00  0.00    -0.073 A 
ATOM      7  C8  UNL d   1      -4.580   0.092   1.348  0.00  0.00     0.078 C 
ENDROOT
BRANCH   1   8
ATOM      8  C1  UNL d   1      -1.685  -0.304   2.106  0.00  0.00     0.053 C 
ATOM      9  C   UNL d   1      -2.146  -1.686   1.668  0.00  0.00     0.018 C 
ENDBRANCH   1   8
TORSDOF 1
ENDMDL
