MODEL 1
REMARK minimizedAffinity 12.0907679
REMARK minimizedRMSD -1
REMARK  1 active torsions:
REMARK  status: ('A' for Active; 'I' for Inactive)
REMARK    1  A    between atoms: C1_2  and  C2_3 
ROOT
ATOM      1  C2  UNL d   1       1.673   2.944  -0.653  0.00  0.00    -0.076 A 
ATOM      2  C3  UNL d   1       1.098   4.226  -0.650  0.00  0.00     0.004 A 
ATOM      3  C4  UNL d   1       0.965   4.956  -1.831  0.00  0.00    -0.003 A 
ATOM      4  C5  UNL d   1       1.404   4.414  -3.033  0.00  0.00     0.000 A 
ATOM      5  C6  UNL d   1       1.961   3.135  -3.058  0.00  0.00     0.000 A 
ATOM      6  C7  UNL d   1       2.088   2.380  -1.879  0.00  0.00    -0.073 A 
ATOM      7  C8  UNL d   1       2.701   1.009  -1.963  0.00  0.00     0.078 C 
ENDROOT
BRANCH   1   8
ATOM      8  C1  UNL d   1       1.816   2.211   0.662  0.00  0.00     0.053 C 
ATOM      9  C   UNL d   1       3.265   1.894   0.997  0.00  0.00     0.018 C 
ENDBRANCH   1   8
TORSDOF 1
ENDMDL
