MODEL 1
REMARK minimizedAffinity 10.7077227
REMARK minimizedRMSD -1
REMARK  1 active torsions:
REMARK  status: ('A' for Active; 'I' for Inactive)
REMARK    1  A    between atoms: C1_2  and  C2_3 
ROOT
ATOM      1  C2  UNL d   1      -0.430   3.851  -3.117  0.00  0.00    -0.076 A 
ATOM      2  C3  UNL d   1      -0.388   2.453  -3.257  0.00  0.00     0.004 A 
ATOM      3  C4  UNL d   1       0.553   1.690  -2.568  0.00  0.00    -0.003 A 
ATOM      4  C5  UNL d   1       1.467   2.314  -1.726  0.00  0.00     0.000 A 
ATOM      5  C6  UNL d   1       1.429   3.698  -1.561  0.00  0.00     0.000 A 
ATOM      6  C7  UNL d   1       0.476   4.480  -2.236  0.00  0.00    -0.073 A 
ATOM      7  C8  UNL d   1       0.483   5.969  -2.025  0.00  0.00     0.078 C 
ENDROOT
BRANCH   1   8
ATOM      8  C1  UNL d   1      -1.456   4.628  -3.911  0.00  0.00     0.053 C 
ATOM      9  C   UNL d   1      -1.201   4.567  -5.409  0.00  0.00     0.018 C 
ENDBRANCH   1   8
TORSDOF 1
ENDMDL
