MODEL 1
REMARK minimizedAffinity 8.67271519
REMARK minimizedRMSD -1
REMARK  1 active torsions:
REMARK  status: ('A' for Active; 'I' for Inactive)
REMARK    1  A    between atoms: C1_2  and  C2_3 
ROOT
ATOM      1  C2  UNL d   1       3.858   2.060  -0.209  0.00  0.00    -0.076 A 
ATOM      2  C3  UNL d   1       5.128   2.662  -0.251  0.00  0.00     0.004 A 
ATOM      3  C4  UNL d   1       5.597   3.422   0.818  0.00  0.00    -0.003 A 
ATOM      4  C5  UNL d   1       4.803   3.593   1.948  0.00  0.00     0.000 A 
ATOM      5  C6  UNL d   1       3.549   2.989   2.014  0.00  0.00     0.000 A 
ATOM      6  C7  UNL d   1       3.068   2.205   0.951  0.00  0.00    -0.073 A 
ATOM      7  C8  UNL d   1       1.704   1.581   1.073  0.00  0.00     0.078 C 
ENDROOT
BRANCH   1   8
ATOM      8  C1  UNL d   1       3.392   1.268  -1.411  0.00  0.00     0.053 C 
ATOM      9  C   UNL d   1       2.769   2.149  -2.482  0.00  0.00     0.018 C 
ENDBRANCH   1   8
TORSDOF 1
ENDMDL
