MODEL 1
REMARK minimizedAffinity 14.0944891
REMARK minimizedRMSD -1
REMARK  1 active torsions:
REMARK  status: ('A' for Active; 'I' for Inactive)
REMARK    1  A    between atoms: C1_2  and  C2_3 
ROOT
ATOM      1  C2  UNL d   1       5.075   2.938   0.115  0.00  0.00    -0.076 A 
ATOM      2  C3  UNL d   1       4.208   2.126  -0.637  0.00  0.00     0.004 A 
ATOM      3  C4  UNL d   1       3.357   1.215  -0.014  0.00  0.00    -0.003 A 
ATOM      4  C5  UNL d   1       3.358   1.103   1.372  0.00  0.00     0.000 A 
ATOM      5  C6  UNL d   1       4.198   1.913   2.135  0.00  0.00     0.000 A 
ATOM      6  C7  UNL d   1       5.051   2.848   1.523  0.00  0.00    -0.073 A 
ATOM      7  C8  UNL d   1       5.940   3.692   2.394  0.00  0.00     0.078 C 
ENDROOT
BRANCH   1   8
ATOM      8  C1  UNL d   1       5.995   3.888  -0.618  0.00  0.00     0.053 C 
ATOM      9  C   UNL d   1       5.644   5.347  -0.369  0.00  0.00     0.018 C 
ENDBRANCH   1   8
TORSDOF 1
ENDMDL
