MODEL 1
REMARK minimizedAffinity 15.5638571
REMARK minimizedRMSD -1
REMARK  1 active torsions:
REMARK  status: ('A' for Active; 'I' for Inactive)
REMARK    1  A    between atoms: C1_2  and  C2_3 
ROOT
ATOM      1  C2  UNL d   1      -0.731   5.503  -4.045  0.00  0.00    -0.076 A 
ATOM      2  C3  UNL d   1      -2.046   6.000  -4.050  0.00  0.00     0.004 A 
ATOM      3  C4  UNL d   1      -2.963   5.595  -5.018  0.00  0.00    -0.003 A 
ATOM      4  C5  UNL d   1      -2.580   4.687  -5.999  0.00  0.00     0.000 A 
ATOM      5  C6  UNL d   1      -1.284   4.170  -5.999  0.00  0.00     0.000 A 
ATOM      6  C7  UNL d   1      -0.353   4.555  -5.020  0.00  0.00    -0.073 A 
ATOM      7  C8  UNL d   1       1.033   3.972  -5.072  0.00  0.00     0.078 C 
ENDROOT
BRANCH   1   8
ATOM      8  C1  UNL d   1       0.227   5.999  -2.986  0.00  0.00     0.053 C 
ATOM      9  C   UNL d   1       1.163   4.908  -2.490  0.00  0.00     0.018 C 
ENDBRANCH   1   8
TORSDOF 1
ENDMDL
