MODEL 1
REMARK minimizedAffinity -3.26854753
REMARK minimizedRMSD -1
REMARK  0 active torsions:
REMARK  status: ('A' for Active; 'I' for Inactive)
ROOT
ATOM      1  C4' PXY d   1      -1.193  -1.598  -1.121  0.00  0.00     0.077 C 
ATOM      2  C1' PXY d   1       1.618   2.784   1.392  0.00  0.00     0.077 C 
ATOM      3  C1  PXY d   1       0.878   1.630   0.744  0.00  0.00    -0.082 A 
ATOM      4  C2  PXY d   1       1.143   1.305  -0.511  0.00  0.00     0.003 A 
ATOM      5  C3  PXY d   1       0.461   0.284  -1.122  0.00  0.00     0.003 A 
ATOM      6  C4  PXY d   1      -0.464  -0.446  -0.424  0.00  0.00    -0.082 A 
ATOM      7  C5  PXY d   1      -0.732  -0.127   0.860  0.00  0.00     0.003 A 
ATOM      8  C6  PXY d   1      -0.058   0.939   1.449  0.00  0.00     0.003 A 
ENDROOT
TORSDOF 0
ENDMDL
