MODEL 1
REMARK minimizedAffinity -2.65778136
REMARK minimizedRMSD -1
REMARK  0 active torsions:
REMARK  status: ('A' for Active; 'I' for Inactive)
ROOT
ATOM      1  C4' PXY d   1      -1.300  -1.551  -1.831  0.00  0.00     0.077 C 
ATOM      2  C1' PXY d   1       0.961   2.068   2.068  0.00  0.00     0.077 C 
ATOM      3  C1  PXY d   1       0.379   1.121   1.038  0.00  0.00    -0.082 A 
ATOM      4  C2  PXY d   1      -0.931   0.937   0.985  0.00  0.00     0.003 A 
ATOM      5  C3  PXY d   1      -1.471   0.059   0.080  0.00  0.00     0.003 A 
ATOM      6  C4  PXY d   1      -0.669  -0.597  -0.814  0.00  0.00    -0.082 A 
ATOM      7  C5  PXY d   1       0.667  -0.406  -0.773  0.00  0.00     0.003 A 
ATOM      8  C6  PXY d   1       1.200   0.457   0.180  0.00  0.00     0.003 A 
ENDROOT
TORSDOF 0
ENDMDL
