MODEL 1
REMARK minimizedAffinity -4.09683609
REMARK minimizedRMSD -1
REMARK  0 active torsions:
REMARK  status: ('A' for Active; 'I' for Inactive)
ROOT
ATOM      1  C4' PXY d   1      -1.668   0.750   1.875  0.00  0.00     0.077 C 
ATOM      2  C1' PXY d   1       2.876  -1.182  -1.132  0.00  0.00     0.077 C 
ATOM      3  C1  PXY d   1       1.691  -0.665  -0.339  0.00  0.00    -0.082 A 
ATOM      4  C2  PXY d   1       0.719  -1.496  -0.000  0.00  0.00     0.003 A 
ATOM      5  C3  PXY d   1      -0.375  -1.039   0.690  0.00  0.00     0.003 A 
ATOM      6  C4  PXY d   1      -0.448   0.271   1.082  0.00  0.00    -0.082 A 
ATOM      7  C5  PXY d   1       0.545   1.122   0.750  0.00  0.00     0.003 A 
ATOM      8  C6  PXY d   1       1.627   0.647   0.014  0.00  0.00     0.003 A 
ENDROOT
TORSDOF 0
ENDMDL
