MODEL 1
REMARK minimizedAffinity -3.29092598
REMARK minimizedRMSD -1
REMARK  0 active torsions:
REMARK  status: ('A' for Active; 'I' for Inactive)
ROOT
ATOM      1  C4' PXY d   1      -1.853   1.429   2.556  0.00  0.00     0.077 C 
ATOM      2  C1' PXY d   1       2.326   0.265  -1.265  0.00  0.00     0.077 C 
ATOM      3  C1  PXY d   1       1.221   0.563  -0.270  0.00  0.00    -0.082 A 
ATOM      4  C2  PXY d   1       1.287   1.657   0.472  0.00  0.00     0.003 A 
ATOM      5  C3  PXY d   1       0.313   1.925   1.399  0.00  0.00     0.003 A 
ATOM      6  C4  PXY d   1      -0.766   1.093   1.532  0.00  0.00    -0.082 A 
ATOM      7  C5  PXY d   1      -0.845  -0.020   0.771  0.00  0.00     0.003 A 
ATOM      8  C6  PXY d   1       0.174  -0.295  -0.135  0.00  0.00     0.003 A 
ENDROOT
TORSDOF 0
ENDMDL
