MODEL 1
REMARK minimizedAffinity -5.49286366
REMARK minimizedRMSD -1
REMARK  0 active torsions:
REMARK  status: ('A' for Active; 'I' for Inactive)
ROOT
ATOM      1  C4' PXY d   1      -0.976  -1.587  -1.494  0.00  0.00     0.077 C 
ATOM      2  C1' PXY d   1       0.590   2.836   1.882  0.00  0.00     0.077 C 
ATOM      3  C1  PXY d   1       0.186   1.681   0.987  0.00  0.00    -0.082 A 
ATOM      4  C2  PXY d   1      -0.926   1.012   1.244  0.00  0.00     0.003 A 
ATOM      5  C3  PXY d   1      -1.289  -0.055   0.464  0.00  0.00     0.003 A 
ATOM      6  C4  PXY d   1      -0.534  -0.408  -0.623  0.00  0.00    -0.082 A 
ATOM      7  C5  PXY d   1       0.596   0.277  -0.898  0.00  0.00     0.003 A 
ATOM      8  C6  PXY d   1       0.969   1.331  -0.069  0.00  0.00     0.003 A 
ENDROOT
TORSDOF 0
ENDMDL
