MODEL 1
REMARK minimizedAffinity -5.36519575
REMARK minimizedRMSD -1
REMARK  0 active torsions:
REMARK  status: ('A' for Active; 'I' for Inactive)
ROOT
ATOM      1  C4' PXY d   1      -1.164  -1.936  -1.064  0.00  0.00     0.077 C 
ATOM      2  C1' PXY d   1       0.871   2.914   1.335  0.00  0.00     0.077 C 
ATOM      3  C1  PXY d   1       0.336   1.637   0.718  0.00  0.00    -0.082 A 
ATOM      4  C2  PXY d   1       0.675   1.316  -0.520  0.00  0.00     0.003 A 
ATOM      5  C3  PXY d   1       0.175   0.182  -1.105  0.00  0.00     0.003 A 
ATOM      6  C4  PXY d   1      -0.639  -0.661  -0.397  0.00  0.00    -0.082 A 
ATOM      7  C5  PXY d   1      -0.982  -0.347   0.870  0.00  0.00     0.003 A 
ATOM      8  C6  PXY d   1      -0.496   0.831   1.432  0.00  0.00     0.003 A 
ENDROOT
TORSDOF 0
ENDMDL
