MODEL 1
REMARK minimizedAffinity -2.746382
REMARK minimizedRMSD -1
REMARK  0 active torsions:
REMARK  status: ('A' for Active; 'I' for Inactive)
ROOT
ATOM      1  C4' PXY d   1      -0.001  -1.891  -0.864  0.00  0.00     0.077 C 
ATOM      2  C1' PXY d   1       1.160   3.316   1.364  0.00  0.00     0.077 C 
ATOM      3  C1  PXY d   1       0.863   1.953   0.769  0.00  0.00    -0.082 A 
ATOM      4  C2  PXY d   1      -0.243   1.315   1.116  0.00  0.00     0.003 A 
ATOM      5  C3  PXY d   1      -0.511   0.068   0.613  0.00  0.00     0.003 A 
ATOM      6  C4  PXY d   1       0.335  -0.509  -0.296  0.00  0.00    -0.082 A 
ATOM      7  C5  PXY d   1       1.460   0.141  -0.664  0.00  0.00     0.003 A 
ATOM      8  C6  PXY d   1       1.734   1.388  -0.110  0.00  0.00     0.003 A 
ENDROOT
TORSDOF 0
ENDMDL
