MODEL 1
REMARK minimizedAffinity -4.42265034
REMARK minimizedRMSD -1
REMARK  0 active torsions:
REMARK  status: ('A' for Active; 'I' for Inactive)
ROOT
ATOM      1  C4' PXY d   1       1.134   3.291   1.161  0.00  0.00     0.077 C 
ATOM      2  C1' PXY d   1      -0.678  -1.915  -0.578  0.00  0.00     0.077 C 
ATOM      3  C1  PXY d   1      -0.215  -0.548  -0.117  0.00  0.00    -0.082 A 
ATOM      4  C2  PXY d   1       0.808   0.034  -0.721  0.00  0.00     0.003 A 
ATOM      5  C3  PXY d   1       1.261   1.257  -0.296  0.00  0.00     0.003 A 
ATOM      6  C4  PXY d   1       0.626   1.914   0.723  0.00  0.00    -0.082 A 
ATOM      7  C5  PXY d   1      -0.425   1.332   1.338  0.00  0.00     0.003 A 
ATOM      8  C6  PXY d   1      -0.843   0.072   0.918  0.00  0.00     0.003 A 
ENDROOT
TORSDOF 0
ENDMDL
