MODEL 1
REMARK minimizedAffinity -2.94809508
REMARK minimizedRMSD -1
REMARK  0 active torsions:
REMARK  status: ('A' for Active; 'I' for Inactive)
ROOT
ATOM      1  C4' PXY d   1      -1.328  -1.642  -0.656  0.00  0.00     0.077 C 
ATOM      2  C1' PXY d   1       1.203   3.131   1.401  0.00  0.00     0.077 C 
ATOM      3  C1  PXY d   1       0.545   1.881   0.850  0.00  0.00    -0.082 A 
ATOM      4  C2  PXY d   1      -0.565   1.426   1.408  0.00  0.00     0.003 A 
ATOM      5  C3  PXY d   1      -1.156   0.280   0.942  0.00  0.00     0.003 A 
ATOM      6  C4  PXY d   1      -0.634  -0.379  -0.139  0.00  0.00    -0.082 A 
ATOM      7  C5  PXY d   1       0.493   0.085  -0.720  0.00  0.00     0.003 A 
ATOM      8  C6  PXY d   1       1.100   1.227  -0.206  0.00  0.00     0.003 A 
ENDROOT
TORSDOF 0
ENDMDL
