MODEL 1
REMARK minimizedAffinity -5.7972436
REMARK minimizedRMSD -1
REMARK  0 active torsions:
REMARK  status: ('A' for Active; 'I' for Inactive)
ROOT
ATOM      1  C4' PXY d   1      -1.067  -2.026  -0.736  0.00  0.00     0.077 C 
ATOM      2  C1' PXY d   1       1.573   2.660   1.382  0.00  0.00     0.077 C 
ATOM      3  C1  PXY d   1       0.874   1.430   0.838  0.00  0.00    -0.082 A 
ATOM      4  C2  PXY d   1       1.416   0.761  -0.167  0.00  0.00     0.003 A 
ATOM      5  C3  PXY d   1       0.782  -0.336  -0.692  0.00  0.00     0.003 A 
ATOM      6  C4  PXY d   1      -0.392  -0.783  -0.149  0.00  0.00    -0.082 A 
ATOM      7  C5  PXY d   1      -0.946  -0.113   0.884  0.00  0.00     0.003 A 
ATOM      8  C6  PXY d   1      -0.307   1.022   1.376  0.00  0.00     0.003 A 
ENDROOT
TORSDOF 0
ENDMDL
