MODEL 1
REMARK minimizedAffinity -4.8516221
REMARK minimizedRMSD -1
REMARK  0 active torsions:
REMARK  status: ('A' for Active; 'I' for Inactive)
ROOT
ATOM      1  C4' PXY d   1      -1.665  -2.056  -1.217  0.00  0.00     0.077 C 
ATOM      2  C1' PXY d   1       1.280   2.252   1.270  0.00  0.00     0.077 C 
ATOM      3  C1  PXY d   1       0.516   1.123   0.608  0.00  0.00    -0.082 A 
ATOM      4  C2  PXY d   1      -0.741   0.892   0.953  0.00  0.00     0.003 A 
ATOM      5  C3  PXY d   1      -1.436  -0.145   0.387  0.00  0.00     0.003 A 
ATOM      6  C4  PXY d   1      -0.857  -0.921  -0.581  0.00  0.00    -0.082 A 
ATOM      7  C5  PXY d   1       0.420  -0.685  -0.947  0.00  0.00     0.003 A 
ATOM      8  C6  PXY d   1       1.123   0.346  -0.330  0.00  0.00     0.003 A 
ENDROOT
TORSDOF 0
ENDMDL
