MODEL 1
REMARK minimizedAffinity -3.54719853
REMARK minimizedRMSD -1
REMARK  0 active torsions:
REMARK  status: ('A' for Active; 'I' for Inactive)
ROOT
ATOM      1  C4' PXY d   1      -1.503  -1.288  -2.298  0.00  0.00     0.077 C 
ATOM      2  C1' PXY d   1       0.941   1.877   1.876  0.00  0.00     0.077 C 
ATOM      3  C1  PXY d   1       0.312   1.046   0.775  0.00  0.00    -0.082 A 
ATOM      4  C2  PXY d   1      -0.997   1.098   0.584  0.00  0.00     0.003 A 
ATOM      5  C3  PXY d   1      -1.587   0.329  -0.386  0.00  0.00     0.003 A 
ATOM      6  C4  PXY d   1      -0.823  -0.460  -1.205  0.00  0.00    -0.082 A 
ATOM      7  C5  PXY d   1       0.514  -0.509  -1.023  0.00  0.00     0.003 A 
ATOM      8  C6  PXY d   1       1.088   0.247  -0.006  0.00  0.00     0.003 A 
ENDROOT
TORSDOF 0
ENDMDL
