MODEL 1
REMARK minimizedAffinity -2.98818183
REMARK minimizedRMSD -1
REMARK  0 active torsions:
REMARK  status: ('A' for Active; 'I' for Inactive)
ROOT
ATOM      1  C4' PXY d   1      -1.236  -0.858   0.343  0.00  0.00     0.077 C 
ATOM      2  C1' PXY d   1       2.255   3.614   1.449  0.00  0.00     0.077 C 
ATOM      3  C1  PXY d   1       1.342   2.443   1.146  0.00  0.00    -0.082 A 
ATOM      4  C2  PXY d   1       0.438   2.071   2.038  0.00  0.00     0.003 A 
ATOM      5  C3  PXY d   1      -0.375   0.994   1.794  0.00  0.00     0.003 A 
ATOM      6  C4  PXY d   1      -0.298   0.324   0.602  0.00  0.00    -0.082 A 
ATOM      7  C5  PXY d   1       0.614   0.704  -0.317  0.00  0.00     0.003 A 
ATOM      8  C6  PXY d   1       1.458   1.774  -0.033  0.00  0.00     0.003 A 
ENDROOT
TORSDOF 0
ENDMDL
