MODEL 1
REMARK minimizedAffinity -2.98521209
REMARK minimizedRMSD -1
REMARK  0 active torsions:
REMARK  status: ('A' for Active; 'I' for Inactive)
ROOT
ATOM      1  C4' PXY d   1      -1.997  -2.379  -1.592  0.00  0.00     0.077 C 
ATOM      2  C1' PXY d   1       1.648   1.616   0.449  0.00  0.00     0.077 C 
ATOM      3  C1  PXY d   1       0.702   0.561  -0.090  0.00  0.00    -0.082 A 
ATOM      4  C2  PXY d   1      -0.531   0.900  -0.430  0.00  0.00     0.003 A 
ATOM      5  C3  PXY d   1      -1.409  -0.047  -0.889  0.00  0.00     0.003 A 
ATOM      6  C4  PXY d   1      -1.005  -1.345  -1.052  0.00  0.00    -0.082 A 
ATOM      7  C5  PXY d   1       0.255  -1.697  -0.718  0.00  0.00     0.003 A 
ATOM      8  C6  PXY d   1       1.118  -0.728  -0.215  0.00  0.00     0.003 A 
ENDROOT
TORSDOF 0
ENDMDL
