MODEL 1
REMARK minimizedAffinity -4.82476664
REMARK minimizedRMSD -1
REMARK  0 active torsions:
REMARK  status: ('A' for Active; 'I' for Inactive)
ROOT
ATOM      1  C4' PXY d   1      -2.217   0.593   2.374  0.00  0.00     0.077 C 
ATOM      2  C1' PXY d   1       2.377   0.836  -1.126  0.00  0.00     0.077 C 
ATOM      3  C1  PXY d   1       1.178   0.781  -0.200  0.00  0.00    -0.082 A 
ATOM      4  C2  PXY d   1       0.385  -0.278  -0.219  0.00  0.00     0.003 A 
ATOM      5  C3  PXY d   1      -0.721  -0.331   0.589  0.00  0.00     0.003 A 
ATOM      6  C4  PXY d   1      -0.990   0.688   1.464  0.00  0.00    -0.082 A 
ATOM      7  C5  PXY d   1      -0.180   1.767   1.496  0.00  0.00     0.003 A 
ATOM      8  C6  PXY d   1       0.915   1.820   0.638  0.00  0.00     0.003 A 
ENDROOT
TORSDOF 0
ENDMDL
