MODEL 1
REMARK minimizedAffinity -3.78721738
REMARK minimizedRMSD -1
REMARK  0 active torsions:
REMARK  status: ('A' for Active; 'I' for Inactive)
ROOT
ATOM      1  C4' PXY d   1      -1.489  -1.821  -1.146  0.00  0.00     0.077 C 
ATOM      2  C1' PXY d   1       1.463   2.427   1.434  0.00  0.00     0.077 C 
ATOM      3  C1  PXY d   1       0.684   1.309   0.769  0.00  0.00    -0.082 A 
ATOM      4  C2  PXY d   1       1.099   0.822  -0.388  0.00  0.00     0.003 A 
ATOM      5  C3  PXY d   1       0.389  -0.167  -1.019  0.00  0.00     0.003 A 
ATOM      6  C4  PXY d   1      -0.728  -0.699  -0.433  0.00  0.00    -0.082 A 
ATOM      7  C5  PXY d   1      -1.152  -0.214   0.753  0.00  0.00     0.003 A 
ATOM      8  C6  PXY d   1      -0.440   0.818   1.357  0.00  0.00     0.003 A 
ENDROOT
TORSDOF 0
ENDMDL
