MODEL 1
REMARK minimizedAffinity -5.30294371
REMARK minimizedRMSD -1
REMARK  0 active torsions:
REMARK  status: ('A' for Active; 'I' for Inactive)
ROOT
ATOM      1  C4' PXY d   1      -0.396  -1.148  -0.005  0.00  0.00     0.077 C 
ATOM      2  C1' PXY d   1       2.786   3.454   1.448  0.00  0.00     0.077 C 
ATOM      3  C1  PXY d   1       1.945   2.249   1.078  0.00  0.00    -0.082 A 
ATOM      4  C2  PXY d   1       2.425   1.350   0.234  0.00  0.00     0.003 A 
ATOM      5  C3  PXY d   1       1.665   0.270  -0.136  0.00  0.00     0.003 A 
ATOM      6  C4  PXY d   1       0.422   0.080   0.404  0.00  0.00    -0.082 A 
ATOM      7  C5  PXY d   1      -0.071   0.987   1.274  0.00  0.00     0.003 A 
ATOM      8  C6  PXY d   1       0.699   2.098   1.605  0.00  0.00     0.003 A 
ENDROOT
TORSDOF 0
ENDMDL
