MODEL 1
REMARK minimizedAffinity -4.46147346
REMARK minimizedRMSD -1
REMARK  0 active torsions:
REMARK  status: ('A' for Active; 'I' for Inactive)
ROOT
ATOM      1  C4' PXY d   1      -1.408  -1.507  -0.584  0.00  0.00     0.077 C 
ATOM      2  C1' PXY d   1       1.813   2.936   1.232  0.00  0.00     0.077 C 
ATOM      3  C1  PXY d   1       0.979   1.766   0.749  0.00  0.00    -0.082 A 
ATOM      4  C2  PXY d   1      -0.342   1.848   0.780  0.00  0.00     0.003 A 
ATOM      5  C3  PXY d   1      -1.112   0.788   0.376  0.00  0.00     0.003 A 
ATOM      6  C4  PXY d   1      -0.525  -0.348  -0.114  0.00  0.00    -0.082 A 
ATOM      7  C5  PXY d   1       0.821  -0.435  -0.159  0.00  0.00     0.003 A 
ATOM      8  C6  PXY d   1       1.585   0.637   0.294  0.00  0.00     0.003 A 
ENDROOT
TORSDOF 0
ENDMDL
