MODEL 1
REMARK minimizedAffinity -5.18401432
REMARK minimizedRMSD -1
REMARK  0 active torsions:
REMARK  status: ('A' for Active; 'I' for Inactive)
ROOT
ATOM      1  C4' PXY d   1      -2.116   0.745   1.884  0.00  0.00     0.077 C 
ATOM      2  C1' PXY d   1       3.014   0.857  -0.778  0.00  0.00     0.077 C 
ATOM      3  C1  PXY d   1       1.674   0.834  -0.070  0.00  0.00    -0.082 A 
ATOM      4  C2  PXY d   1       0.788  -0.100  -0.376  0.00  0.00     0.003 A 
ATOM      5  C3  PXY d   1      -0.441  -0.117   0.232  0.00  0.00     0.003 A 
ATOM      6  C4  PXY d   1      -0.746   0.801   1.201  0.00  0.00    -0.082 A 
ATOM      7  C5  PXY d   1       0.156   1.750   1.527  0.00  0.00     0.003 A 
ATOM      8  C6  PXY d   1       1.382   1.775   0.869  0.00  0.00     0.003 A 
ENDROOT
TORSDOF 0
ENDMDL
