MODEL 1
REMARK minimizedAffinity -5.17484951
REMARK minimizedRMSD -1
REMARK  0 active torsions:
REMARK  status: ('A' for Active; 'I' for Inactive)
ROOT
ATOM      1  C4' PXY d   1       1.400   3.084   1.340  0.00  0.00     0.077 C 
ATOM      2  C1' PXY d   1      -1.125  -1.794  -0.459  0.00  0.00     0.077 C 
ATOM      3  C1  PXY d   1      -0.474  -0.511   0.018  0.00  0.00    -0.082 A 
ATOM      4  C2  PXY d   1       0.584  -0.038  -0.620  0.00  0.00     0.003 A 
ATOM      5  C3  PXY d   1       1.204   1.104  -0.182  0.00  0.00     0.003 A 
ATOM      6  C4  PXY d   1       0.705   1.797   0.888  0.00  0.00    -0.082 A 
ATOM      7  C5  PXY d   1      -0.381   1.327   1.538  0.00  0.00     0.003 A 
ATOM      8  C6  PXY d   1      -0.971   0.144   1.103  0.00  0.00     0.003 A 
ENDROOT
TORSDOF 0
ENDMDL
