MODEL 1
REMARK minimizedAffinity -4.21983862
REMARK minimizedRMSD -1
REMARK  2 active torsions:
REMARK  status: ('A' for Active; 'I' for Inactive)
REMARK    1  A    between atoms: C2'_3  and  C1'_4 
REMARK    2  A    between atoms: C1'_4  and  C1_5 
ROOT
ATOM      1  C1  I4B d   1      -1.018   0.730  -0.128  0.00  0.00    -0.075 A 
ATOM      2  C2  I4B d   1      -0.631   1.865  -0.795  0.00  0.00     0.003 A 
ATOM      3  C3  I4B d   1       0.617   1.910  -1.462  0.00  0.00     0.002 A 
ATOM      4  C4  I4B d   1       1.463   0.822  -1.394  0.00  0.00    -0.004 A 
ATOM      5  C5  I4B d   1       1.060  -0.337  -0.737  0.00  0.00     0.002 A 
ATOM      6  C6  I4B d   1      -0.194  -0.388  -0.110  0.00  0.00     0.003 A 
ENDROOT
BRANCH   1   7
ATOM      7  C1' I4B d   1      -2.329   0.728   0.593  0.00  0.00     0.060 C 
BRANCH   7   8
ATOM      8  C2' I4B d   1      -2.132   1.431   1.921  0.00  0.00    -0.013 C 
ATOM      9  C4' I4B d   1      -0.873   0.964   2.603  0.00  0.00     0.013 C 
ATOM     10  C3' I4B d   1      -2.092   2.907   1.662  0.00  0.00     0.013 C 
ENDBRANCH   7   8
ENDBRANCH   1   7
TORSDOF 2
ENDMDL
