MODEL 1
REMARK minimizedAffinity -2.19608641
REMARK minimizedRMSD -1
REMARK  2 active torsions:
REMARK  status: ('A' for Active; 'I' for Inactive)
REMARK    1  A    between atoms: C2'_3  and  C1'_4 
REMARK    2  A    between atoms: C1'_4  and  C1_5 
ROOT
ATOM      1  C1  I4B d   1       0.516  -0.766  -0.565  0.00  0.00    -0.075 A 
ATOM      2  C2  I4B d   1       0.556   0.606  -0.568  0.00  0.00     0.003 A 
ATOM      3  C3  I4B d   1       0.065   1.336   0.542  0.00  0.00     0.002 A 
ATOM      4  C4  I4B d   1      -0.499   0.660   1.604  0.00  0.00    -0.004 A 
ATOM      5  C5  I4B d   1      -0.518  -0.732   1.615  0.00  0.00     0.002 A 
ATOM      6  C6  I4B d   1       0.003  -1.450   0.529  0.00  0.00     0.003 A 
ENDROOT
BRANCH   1   7
ATOM      7  C1' I4B d   1       1.012  -1.504  -1.768  0.00  0.00     0.060 C 
BRANCH   7   8
ATOM      8  C2' I4B d   1       0.744  -2.980  -1.553  0.00  0.00    -0.013 C 
ATOM      9  C4' I4B d   1       0.051  -3.587  -2.744  0.00  0.00     0.013 C 
ATOM     10  C3' I4B d   1       2.057  -3.655  -1.289  0.00  0.00     0.013 C 
ENDBRANCH   7   8
ENDBRANCH   1   7
TORSDOF 2
ENDMDL
