MODEL 1
REMARK minimizedAffinity 1.44369996
REMARK minimizedRMSD -1
REMARK  2 active torsions:
REMARK  status: ('A' for Active; 'I' for Inactive)
REMARK    1  A    between atoms: C2'_3  and  C1'_4 
REMARK    2  A    between atoms: C1'_4  and  C1_5 
ROOT
ATOM      1  C1  I4B d   1       0.811  -0.743  -0.196  0.00  0.00    -0.075 A 
ATOM      2  C2  I4B d   1       1.034   0.493  -0.751  0.00  0.00     0.003 A 
ATOM      3  C3  I4B d   1       0.480   1.651  -0.154  0.00  0.00     0.002 A 
ATOM      4  C4  I4B d   1      -0.326   1.524   0.958  0.00  0.00    -0.004 A 
ATOM      5  C5  I4B d   1      -0.532   0.273   1.532  0.00  0.00     0.002 A 
ATOM      6  C6  I4B d   1       0.050  -0.867   0.959  0.00  0.00     0.003 A 
ENDROOT
BRANCH   1   7
ATOM      7  C1' I4B d   1       1.384  -1.949  -0.871  0.00  0.00     0.060 C 
BRANCH   7   8
ATOM      8  C2' I4B d   1       0.247  -2.693  -1.542  0.00  0.00    -0.013 C 
ATOM      9  C4' I4B d   1       0.023  -2.195  -2.945  0.00  0.00     0.013 C 
ATOM     10  C3' I4B d   1       0.581  -4.155  -1.533  0.00  0.00     0.013 C 
ENDBRANCH   7   8
ENDBRANCH   1   7
TORSDOF 2
ENDMDL
