MODEL 1
REMARK minimizedAffinity -4.59783888
REMARK minimizedRMSD -1
REMARK  2 active torsions:
REMARK  status: ('A' for Active; 'I' for Inactive)
REMARK    1  A    between atoms: C2'_3  and  C1'_4 
REMARK    2  A    between atoms: C1'_4  and  C1_5 
ROOT
ATOM      1  C1  I4B d   1       0.307   0.748   0.136  0.00  0.00    -0.075 A 
ATOM      2  C2  I4B d   1       0.032   1.952  -0.465  0.00  0.00     0.003 A 
ATOM      3  C3  I4B d   1      -0.856   2.869   0.149  0.00  0.00     0.002 A 
ATOM      4  C4  I4B d   1      -1.481   2.523   1.330  0.00  0.00    -0.004 A 
ATOM      5  C5  I4B d   1      -1.183   1.312   1.949  0.00  0.00     0.002 A 
ATOM      6  C6  I4B d   1      -0.275   0.424   1.355  0.00  0.00     0.003 A 
ENDROOT
BRANCH   1   7
ATOM      7  C1' I4B d   1       1.223  -0.210  -0.556  0.00  0.00     0.060 C 
BRANCH   7   8
ATOM      8  C2' I4B d   1       0.467  -1.505  -0.774  0.00  0.00    -0.013 C 
ATOM      9  C4' I4B d   1      -0.161  -1.546  -2.142  0.00  0.00     0.013 C 
ATOM     10  C3' I4B d   1       1.428  -2.640  -0.584  0.00  0.00     0.013 C 
ENDBRANCH   7   8
ENDBRANCH   1   7
TORSDOF 2
ENDMDL
