MODEL 1
REMARK minimizedAffinity -4.39973688
REMARK minimizedRMSD -1
REMARK  2 active torsions:
REMARK  status: ('A' for Active; 'I' for Inactive)
REMARK    1  A    between atoms: C2'_3  and  C1'_4 
REMARK    2  A    between atoms: C1'_4  and  C1_5 
ROOT
ATOM      1  C1  I4B d   1       0.152  -0.345  -0.158  0.00  0.00    -0.075 A 
ATOM      2  C2  I4B d   1       0.198  -0.694   1.169  0.00  0.00     0.003 A 
ATOM      3  C3  I4B d   1      -0.625  -0.029   2.110  0.00  0.00     0.002 A 
ATOM      4  C4  I4B d   1      -1.436   1.006   1.692  0.00  0.00    -0.004 A 
ATOM      5  C5  I4B d   1      -1.498   1.343   0.343  0.00  0.00     0.002 A 
ATOM      6  C6  I4B d   1      -0.708   0.655  -0.590  0.00  0.00     0.003 A 
ENDROOT
BRANCH   1   7
ATOM      7  C1' I4B d   1       1.059  -1.046  -1.119  0.00  0.00     0.060 C 
BRANCH   7   8
ATOM      8  C2' I4B d   1       0.287  -2.195  -1.736  0.00  0.00    -0.013 C 
ATOM      9  C4' I4B d   1       0.147  -2.020  -3.226  0.00  0.00     0.013 C 
ATOM     10  C3' I4B d   1       1.007  -3.468  -1.406  0.00  0.00     0.013 C 
ENDBRANCH   7   8
ENDBRANCH   1   7
TORSDOF 2
ENDMDL
