MODEL 1
REMARK minimizedAffinity -3.29432607
REMARK minimizedRMSD -1
REMARK  2 active torsions:
REMARK  status: ('A' for Active; 'I' for Inactive)
REMARK    1  A    between atoms: C2'_3  and  C1'_4 
REMARK    2  A    between atoms: C1'_4  and  C1_5 
ROOT
ATOM      1  C1  I4B d   1       0.482  -0.065   0.138  0.00  0.00    -0.075 A 
ATOM      2  C2  I4B d   1       0.120   1.259   0.152  0.00  0.00     0.003 A 
ATOM      3  C3  I4B d   1      -0.707   1.761   1.186  0.00  0.00     0.002 A 
ATOM      4  C4  I4B d   1      -1.188   0.899   2.151  0.00  0.00    -0.004 A 
ATOM      5  C5  I4B d   1      -0.802  -0.439   2.147  0.00  0.00     0.002 A 
ATOM      6  C6  I4B d   1       0.048  -0.921   1.141  0.00  0.00     0.003 A 
ENDROOT
BRANCH   1   7
ATOM      7  C1' I4B d   1       1.330  -0.568  -0.987  0.00  0.00     0.060 C 
BRANCH   7   8
ATOM      8  C2' I4B d   1       0.909  -1.992  -1.288  0.00  0.00    -0.013 C 
ATOM      9  C4' I4B d   1       0.098  -2.066  -2.554  0.00  0.00     0.013 C 
ATOM     10  C3' I4B d   1       2.149  -2.829  -1.389  0.00  0.00     0.013 C 
ENDBRANCH   7   8
ENDBRANCH   1   7
TORSDOF 2
ENDMDL
