MODEL 1
REMARK minimizedAffinity -6.18014336
REMARK minimizedRMSD -1
REMARK  2 active torsions:
REMARK  status: ('A' for Active; 'I' for Inactive)
REMARK    1  A    between atoms: C2'_3  and  C1'_4 
REMARK    2  A    between atoms: C1'_4  and  C1_5 
ROOT
ATOM      1  C1  I4B d   1       0.089  -0.029  -0.061  0.00  0.00    -0.075 A 
ATOM      2  C2  I4B d   1      -0.847   0.730  -0.718  0.00  0.00     0.003 A 
ATOM      3  C3  I4B d   1      -1.847   1.417   0.011  0.00  0.00     0.002 A 
ATOM      4  C4  I4B d   1      -1.905   1.277   1.383  0.00  0.00    -0.004 A 
ATOM      5  C5  I4B d   1      -0.942   0.525   2.049  0.00  0.00     0.002 A 
ATOM      6  C6  I4B d   1       0.069  -0.122   1.324  0.00  0.00     0.003 A 
ENDROOT
BRANCH   1   7
ATOM      7  C1' I4B d   1       1.112  -0.767  -0.865  0.00  0.00     0.060 C 
BRANCH   7   8
ATOM      8  C2' I4B d   1       0.468  -2.035  -1.389  0.00  0.00    -0.013 C 
ATOM      9  C4' I4B d   1       0.117  -1.905  -2.848  0.00  0.00     0.013 C 
ATOM     10  C3' I4B d   1       1.423  -3.168  -1.160  0.00  0.00     0.013 C 
ENDBRANCH   7   8
ENDBRANCH   1   7
TORSDOF 2
ENDMDL
