MODEL 1
REMARK minimizedAffinity -4.50201035
REMARK minimizedRMSD -1
REMARK  2 active torsions:
REMARK  status: ('A' for Active; 'I' for Inactive)
REMARK    1  A    between atoms: C2'_3  and  C1'_4 
REMARK    2  A    between atoms: C1'_4  and  C1_5 
ROOT
ATOM      1  C1  I4B d   1      -0.169   0.332   0.412  0.00  0.00    -0.075 A 
ATOM      2  C2  I4B d   1      -0.803   1.342  -0.268  0.00  0.00     0.003 A 
ATOM      3  C3  I4B d   1      -1.513   2.342   0.440  0.00  0.00     0.002 A 
ATOM      4  C4  I4B d   1      -1.605   2.265   1.815  0.00  0.00    -0.004 A 
ATOM      5  C5  I4B d   1      -0.943   1.253   2.504  0.00  0.00     0.002 A 
ATOM      6  C6  I4B d   1      -0.210   0.287   1.800  0.00  0.00     0.003 A 
ENDROOT
BRANCH   1   7
ATOM      7  C1' I4B d   1       0.544  -0.726  -0.369  0.00  0.00     0.060 C 
BRANCH   7   8
ATOM      8  C2' I4B d   1      -0.490  -1.494  -1.167  0.00  0.00    -0.013 C 
ATOM      9  C4' I4B d   1       0.146  -2.613  -1.948  0.00  0.00     0.013 C 
ATOM     10  C3' I4B d   1      -1.518  -2.018  -0.209  0.00  0.00     0.013 C 
ENDBRANCH   7   8
ENDBRANCH   1   7
TORSDOF 2
ENDMDL
