MODEL 1
REMARK minimizedAffinity -3.62823439
REMARK minimizedRMSD -1
REMARK  2 active torsions:
REMARK  status: ('A' for Active; 'I' for Inactive)
REMARK    1  A    between atoms: C2'_3  and  C1'_4 
REMARK    2  A    between atoms: C1'_4  and  C1_5 
ROOT
ATOM      1  C1  I4B d   1       0.388  -0.338  -0.087  0.00  0.00    -0.075 A 
ATOM      2  C2  I4B d   1       0.663  -0.312   1.258  0.00  0.00     0.003 A 
ATOM      3  C3  I4B d   1       0.003   0.613   2.102  0.00  0.00     0.002 A 
ATOM      4  C4  I4B d   1      -0.882   1.521   1.557  0.00  0.00    -0.004 A 
ATOM      5  C5  I4B d   1      -1.177   1.477   0.197  0.00  0.00     0.002 A 
ATOM      6  C6  I4B d   1      -0.547   0.534  -0.628  0.00  0.00     0.003 A 
ENDROOT
BRANCH   1   7
ATOM      7  C1' I4B d   1       1.128  -1.306  -0.955  0.00  0.00     0.060 C 
BRANCH   7   8
ATOM      8  C2' I4B d   1       0.106  -2.169  -1.668  0.00  0.00    -0.013 C 
ATOM      9  C4' I4B d   1       0.240  -2.050  -3.163  0.00  0.00     0.013 C 
ATOM     10  C3' I4B d   1       0.303  -3.586  -1.218  0.00  0.00     0.013 C 
ENDBRANCH   7   8
ENDBRANCH   1   7
TORSDOF 2
ENDMDL
