MODEL 1
REMARK minimizedAffinity -2.68412089
REMARK minimizedRMSD -1
REMARK  2 active torsions:
REMARK  status: ('A' for Active; 'I' for Inactive)
REMARK    1  A    between atoms: C2'_3  and  C1'_4 
REMARK    2  A    between atoms: C1'_4  and  C1_5 
ROOT
ATOM      1  C1  I4B d   1       0.221   0.260   0.125  0.00  0.00    -0.075 A 
ATOM      2  C2  I4B d   1      -0.497  -0.019   1.261  0.00  0.00     0.003 A 
ATOM      3  C3  I4B d   1      -1.246   1.000   1.898  0.00  0.00     0.002 A 
ATOM      4  C4  I4B d   1      -1.208   2.286   1.398  0.00  0.00    -0.004 A 
ATOM      5  C5  I4B d   1      -0.498   2.561   0.233  0.00  0.00     0.002 A 
ATOM      6  C6  I4B d   1       0.211   1.539  -0.415  0.00  0.00     0.003 A 
ENDROOT
BRANCH   1   7
ATOM      7  C1' I4B d   1       1.027  -0.832  -0.504  0.00  0.00     0.060 C 
BRANCH   7   8
ATOM      8  C2' I4B d   1       0.073  -1.753  -1.238  0.00  0.00    -0.013 C 
ATOM      9  C4' I4B d   1      -0.314  -1.181  -2.577  0.00  0.00     0.013 C 
ATOM     10  C3' I4B d   1       0.743  -3.085  -1.393  0.00  0.00     0.013 C 
ENDBRANCH   7   8
ENDBRANCH   1   7
TORSDOF 2
ENDMDL
