MODEL 1
REMARK minimizedAffinity 4.54265022
REMARK minimizedRMSD -1
REMARK  1 active torsions:
REMARK  status: ('A' for Active; 'I' for Inactive)
REMARK    1  A    between atoms: C1_2  and  C2_3 
ROOT
ATOM      1  C2  UNL d   1      -0.944  -0.429   1.413  0.00  0.00    -0.073 A 
ATOM      2  C3  UNL d   1       0.338   0.126   1.491  0.00  0.00    -0.002 A 
ATOM      3  C4  UNL d   1       1.254  -0.347   2.431  0.00  0.00     0.004 A 
ATOM      4  C5  UNL d   1       0.902  -1.383   3.296  0.00  0.00    -0.004 A 
ATOM      5  C6  UNL d   1      -0.370  -1.959   3.225  0.00  0.00    -0.075 A 
ATOM      6  C7  UNL d   1      -0.766  -3.073   4.149  0.00  0.00     0.076 C 
ATOM      7  C8  UNL d   1      -1.286  -1.477   2.280  0.00  0.00     0.001 A 
ENDROOT
BRANCH   1   8
ATOM      8  C1  UNL d   1      -1.936   0.074   0.396  0.00  0.00     0.053 C 
ATOM      9  C   UNL d   1      -1.839  -0.685  -0.918  0.00  0.00     0.018 C 
ENDBRANCH   1   8
TORSDOF 1
ENDMDL
