MODEL 1
REMARK minimizedAffinity -4.0101881
REMARK minimizedRMSD -1
REMARK  1 active torsions:
REMARK  status: ('A' for Active; 'I' for Inactive)
REMARK    1  A    between atoms: C1_2  and  C2_3 
ROOT
ATOM      1  C2  UNL d   1       0.601  -0.703   3.589  0.00  0.00    -0.073 A 
ATOM      2  C3  UNL d   1       0.859   0.083   2.461  0.00  0.00    -0.002 A 
ATOM      3  C4  UNL d   1      -0.173   0.416   1.583  0.00  0.00     0.004 A 
ATOM      4  C5  UNL d   1      -1.473  -0.026   1.827  0.00  0.00    -0.004 A 
ATOM      5  C6  UNL d   1      -1.753  -0.803   2.956  0.00  0.00    -0.075 A 
ATOM      6  C7  UNL d   1      -3.146  -1.289   3.232  0.00  0.00     0.076 C 
ATOM      7  C8  UNL d   1      -0.711  -1.136   3.832  0.00  0.00     0.001 A 
ENDROOT
BRANCH   1   8
ATOM      8  C1  UNL d   1       1.711  -1.060   4.544  0.00  0.00     0.053 C 
ATOM      9  C   UNL d   1       1.686  -2.532   4.923  0.00  0.00     0.018 C 
ENDBRANCH   1   8
TORSDOF 1
ENDMDL
