MODEL 1
REMARK minimizedAffinity 0.431884646
REMARK minimizedRMSD -1
REMARK  1 active torsions:
REMARK  status: ('A' for Active; 'I' for Inactive)
REMARK    1  A    between atoms: C1_2  and  C2_3 
ROOT
ATOM      1  C2  UNL d   1       0.853  -1.051   2.755  0.00  0.00    -0.073 A 
ATOM      2  C3  UNL d   1      -0.350  -1.644   3.157  0.00  0.00    -0.002 A 
ATOM      3  C4  UNL d   1      -0.427  -2.330   4.370  0.00  0.00     0.004 A 
ATOM      4  C5  UNL d   1       0.694  -2.425   5.195  0.00  0.00    -0.004 A 
ATOM      5  C6  UNL d   1       1.901  -1.829   4.817  0.00  0.00    -0.075 A 
ATOM      6  C7  UNL d   1       3.116  -1.923   5.693  0.00  0.00     0.076 C 
ATOM      7  C8  UNL d   1       1.971  -1.144   3.596  0.00  0.00     0.001 A 
ENDROOT
BRANCH   1   8
ATOM      8  C1  UNL d   1       0.939  -0.304   1.450  0.00  0.00     0.053 C 
ATOM      9  C   UNL d   1      -0.365   0.400   1.109  0.00  0.00     0.018 C 
ENDBRANCH   1   8
TORSDOF 1
ENDMDL
