MODEL 1
REMARK minimizedAffinity 1.99671781
REMARK minimizedRMSD -1
REMARK  1 active torsions:
REMARK  status: ('A' for Active; 'I' for Inactive)
REMARK    1  A    between atoms: C1_2  and  C2_3 
ROOT
ATOM      1  C2  UNL d   1      -1.813   0.788  -4.426  0.00  0.00    -0.073 A 
ATOM      2  C3  UNL d   1      -2.120   0.685  -3.065  0.00  0.00    -0.002 A 
ATOM      3  C4  UNL d   1      -3.417   0.369  -2.656  0.00  0.00     0.004 A 
ATOM      4  C5  UNL d   1      -4.416   0.147  -3.603  0.00  0.00    -0.004 A 
ATOM      5  C6  UNL d   1      -4.126   0.234  -4.968  0.00  0.00    -0.075 A 
ATOM      6  C7  UNL d   1      -5.191  -0.001  -6.000  0.00  0.00     0.076 C 
ATOM      7  C8  UNL d   1      -2.823   0.554  -5.371  0.00  0.00     0.001 A 
ENDROOT
BRANCH   1   8
ATOM      8  C1  UNL d   1      -0.413   1.122  -4.872  0.00  0.00     0.053 C 
ATOM      9  C   UNL d   1       0.230  -0.023  -5.637  0.00  0.00     0.018 C 
ENDBRANCH   1   8
TORSDOF 1
ENDMDL
