MODEL 1
REMARK minimizedAffinity 4.17317867
REMARK minimizedRMSD -1
REMARK  1 active torsions:
REMARK  status: ('A' for Active; 'I' for Inactive)
REMARK    1  A    between atoms: C1_2  and  C2_3 
ROOT
ATOM      1  C2  UNL d   1      -1.332   0.202   1.262  0.00  0.00    -0.073 A 
ATOM      2  C3  UNL d   1      -2.302  -0.531   1.954  0.00  0.00    -0.002 A 
ATOM      3  C4  UNL d   1      -1.924  -1.475   2.910  0.00  0.00     0.004 A 
ATOM      4  C5  UNL d   1      -0.574  -1.690   3.189  0.00  0.00    -0.004 A 
ATOM      5  C6  UNL d   1       0.410  -0.959   2.516  0.00  0.00    -0.075 A 
ATOM      6  C7  UNL d   1       1.866  -1.180   2.803  0.00  0.00     0.076 C 
ATOM      7  C8  UNL d   1       0.022  -0.015   1.555  0.00  0.00     0.001 A 
ENDROOT
BRANCH   1   8
ATOM      8  C1  UNL d   1      -1.735   1.226   0.234  0.00  0.00     0.053 C 
ATOM      9  C   UNL d   1      -2.089   0.587  -1.100  0.00  0.00     0.018 C 
ENDBRANCH   1   8
TORSDOF 1
ENDMDL
