MODEL 1
REMARK minimizedAffinity -2.10607028
REMARK minimizedRMSD -1
REMARK  0 active torsions:
REMARK  status: ('A' for Active; 'I' for Inactive)
ROOT
ATOM      1  C   UNL d   1      -0.158   0.227   0.320  0.00  0.00     0.078 C 
ATOM      2  C1  UNL d   1       0.734  -0.611   1.186  0.00  0.00    -0.077 A 
ATOM      3  C2  UNL d   1       0.366  -0.942   2.496  0.00  0.00    -0.001 A 
ATOM      4  C3  UNL d   1       1.211  -1.715   3.293  0.00  0.00     0.003 A 
ATOM      5  C4  UNL d   1       2.431  -2.163   2.790  0.00  0.00    -0.005 A 
ATOM      6  C5  UNL d   1       2.807  -1.837   1.489  0.00  0.00     0.003 A 
ATOM      7  C6  UNL d   1       1.963  -1.064   0.690  0.00  0.00    -0.001 A 
ENDROOT
TORSDOF 0
ENDMDL
