MODEL 1
REMARK minimizedAffinity -3.00257826
REMARK minimizedRMSD -1
REMARK  0 active torsions:
REMARK  status: ('A' for Active; 'I' for Inactive)
ROOT
ATOM      1  C   UNL d   1       4.610  -0.760   3.834  0.00  0.00     0.078 C 
ATOM      2  C1  UNL d   1       3.281  -1.052   3.202  0.00  0.00    -0.077 A 
ATOM      3  C2  UNL d   1       3.174  -1.291   1.827  0.00  0.00    -0.001 A 
ATOM      4  C3  UNL d   1       1.929  -1.553   1.251  0.00  0.00     0.003 A 
ATOM      5  C4  UNL d   1       0.783  -1.575   2.043  0.00  0.00    -0.005 A 
ATOM      6  C5  UNL d   1       0.880  -1.336   3.412  0.00  0.00     0.003 A 
ATOM      7  C6  UNL d   1       2.124  -1.075   3.990  0.00  0.00    -0.001 A 
ENDROOT
TORSDOF 0
ENDMDL
