MODEL 1
REMARK minimizedAffinity -3.21158218
REMARK minimizedRMSD -1
REMARK  0 active torsions:
REMARK  status: ('A' for Active; 'I' for Inactive)
ROOT
ATOM      1  C   UNL d   1      -3.009   1.131  -3.199  0.00  0.00     0.078 C 
ATOM      2  C1  UNL d   1      -1.837   2.044  -3.401  0.00  0.00    -0.077 A 
ATOM      3  C2  UNL d   1      -0.897   2.246  -2.383  0.00  0.00    -0.001 A 
ATOM      4  C3  UNL d   1       0.185   3.106  -2.582  0.00  0.00     0.003 A 
ATOM      5  C4  UNL d   1       0.335   3.773  -3.796  0.00  0.00    -0.005 A 
ATOM      6  C5  UNL d   1      -0.597   3.580  -4.814  0.00  0.00     0.003 A 
ATOM      7  C6  UNL d   1      -1.679   2.720  -4.617  0.00  0.00    -0.001 A 
ENDROOT
TORSDOF 0
ENDMDL
