MODEL 1
REMARK minimizedAffinity 0.262913793
REMARK minimizedRMSD -1
REMARK  0 active torsions:
REMARK  status: ('A' for Active; 'I' for Inactive)
ROOT
ATOM      1  C   UNL d   1       1.901  -5.429  -5.495  0.00  0.00     0.078 C 
ATOM      2  C1  UNL d   1       0.445  -5.441  -5.136  0.00  0.00    -0.077 A 
ATOM      3  C2  UNL d   1      -0.505  -5.999  -6.000  0.00  0.00    -0.001 A 
ATOM      4  C3  UNL d   1      -1.859  -5.994  -5.658  0.00  0.00     0.003 A 
ATOM      5  C4  UNL d   1      -2.273  -5.432  -4.452  0.00  0.00    -0.005 A 
ATOM      6  C5  UNL d   1      -1.335  -4.872  -3.588  0.00  0.00     0.003 A 
ATOM      7  C6  UNL d   1       0.019  -4.876  -3.928  0.00  0.00    -0.001 A 
ENDROOT
TORSDOF 0
ENDMDL
