MODEL 1
REMARK minimizedAffinity 4.78591108
REMARK minimizedRMSD -1
REMARK  0 active torsions:
REMARK  status: ('A' for Active; 'I' for Inactive)
ROOT
ATOM      1  C   UNL d   1      -2.902  -4.335  -4.750  0.00  0.00     0.078 C 
ATOM      2  C1  UNL d   1      -1.460  -4.726  -4.875  0.00  0.00    -0.077 A 
ATOM      3  C2  UNL d   1      -0.490  -4.188  -4.019  0.00  0.00    -0.001 A 
ATOM      4  C3  UNL d   1       0.850  -4.554  -4.153  0.00  0.00     0.003 A 
ATOM      5  C4  UNL d   1       1.234  -5.458  -5.142  0.00  0.00    -0.005 A 
ATOM      6  C5  UNL d   1       0.277  -5.996  -5.999  0.00  0.00     0.003 A 
ATOM      7  C6  UNL d   1      -1.064  -5.632  -5.867  0.00  0.00    -0.001 A 
ENDROOT
TORSDOF 0
ENDMDL
