MODEL 1
REMARK minimizedAffinity 3.8710947
REMARK minimizedRMSD -1
REMARK  0 active torsions:
REMARK  status: ('A' for Active; 'I' for Inactive)
ROOT
ATOM      1  C   UNL d   1      -1.519   1.911  -3.401  0.00  0.00     0.078 C 
ATOM      2  C1  UNL d   1      -2.747   1.201  -2.915  0.00  0.00    -0.077 A 
ATOM      3  C2  UNL d   1      -4.001   1.459  -3.481  0.00  0.00    -0.001 A 
ATOM      4  C3  UNL d   1      -5.137   0.797  -3.012  0.00  0.00     0.003 A 
ATOM      5  C4  UNL d   1      -5.030  -0.127  -1.974  0.00  0.00    -0.005 A 
ATOM      6  C5  UNL d   1      -3.786  -0.389  -1.403  0.00  0.00     0.003 A 
ATOM      7  C6  UNL d   1      -2.649   0.272  -1.871  0.00  0.00    -0.001 A 
ENDROOT
TORSDOF 0
ENDMDL
