MODEL 1
REMARK minimizedAffinity 3.27684617
REMARK minimizedRMSD -1
REMARK  0 active torsions:
REMARK  status: ('A' for Active; 'I' for Inactive)
ROOT
ATOM      1  C   UNL d   1      -3.132   1.928  -3.745  0.00  0.00     0.078 C 
ATOM      2  C1  UNL d   1      -3.740   0.965  -2.770  0.00  0.00    -0.077 A 
ATOM      3  C2  UNL d   1      -5.129   0.812  -2.679  0.00  0.00    -0.001 A 
ATOM      4  C3  UNL d   1      -5.682  -0.082  -1.760  0.00  0.00     0.003 A 
ATOM      5  C4  UNL d   1      -4.853  -0.828  -0.924  0.00  0.00    -0.005 A 
ATOM      6  C5  UNL d   1      -3.470  -0.680  -1.006  0.00  0.00     0.003 A 
ATOM      7  C6  UNL d   1      -2.916   0.212  -1.924  0.00  0.00    -0.001 A 
ENDROOT
TORSDOF 0
ENDMDL
