MODEL 1
REMARK minimizedAffinity -1.01204062
REMARK minimizedRMSD -1
REMARK  0 active torsions:
REMARK  status: ('A' for Active; 'I' for Inactive)
ROOT
ATOM      1  C   UNL d   1       2.163  -5.391  -5.049  0.00  0.00     0.078 C 
ATOM      2  C1  UNL d   1       0.664  -5.348  -5.008  0.00  0.00    -0.077 A 
ATOM      3  C2  UNL d   1      -0.010  -4.677  -3.981  0.00  0.00    -0.001 A 
ATOM      4  C3  UNL d   1      -1.405  -4.654  -3.949  0.00  0.00     0.003 A 
ATOM      5  C4  UNL d   1      -2.138  -5.301  -4.942  0.00  0.00    -0.005 A 
ATOM      6  C5  UNL d   1      -1.476  -5.974  -5.967  0.00  0.00     0.003 A 
ATOM      7  C6  UNL d   1      -0.081  -5.998  -6.000  0.00  0.00    -0.001 A 
ENDROOT
TORSDOF 0
ENDMDL
