MODEL 1
REMARK minimizedAffinity 1.36845934
REMARK minimizedRMSD -1
REMARK  0 active torsions:
REMARK  status: ('A' for Active; 'I' for Inactive)
ROOT
ATOM      1  C   UNL d   1      -3.958   1.716  -3.834  0.00  0.00     0.078 C 
ATOM      2  C1  UNL d   1      -4.398   1.083  -2.548  0.00  0.00    -0.077 A 
ATOM      3  C2  UNL d   1      -3.635   1.214  -1.381  0.00  0.00    -0.001 A 
ATOM      4  C3  UNL d   1      -4.052   0.611  -0.193  0.00  0.00     0.003 A 
ATOM      5  C4  UNL d   1      -5.232  -0.129  -0.161  0.00  0.00    -0.005 A 
ATOM      6  C5  UNL d   1      -5.997  -0.267  -1.317  0.00  0.00     0.003 A 
ATOM      7  C6  UNL d   1      -5.582   0.335  -2.506  0.00  0.00    -0.001 A 
ENDROOT
TORSDOF 0
ENDMDL
