MODEL 1
REMARK minimizedAffinity 2.13816047
REMARK minimizedRMSD -1
REMARK  0 active torsions:
REMARK  status: ('A' for Active; 'I' for Inactive)
ROOT
ATOM      1  C   UNL d   1      -3.606   1.342  -3.584  0.00  0.00     0.078 C 
ATOM      2  C1  UNL d   1      -4.098   0.684  -2.330  0.00  0.00    -0.077 A 
ATOM      3  C2  UNL d   1      -3.732   1.171  -1.069  0.00  0.00    -0.001 A 
ATOM      4  C3  UNL d   1      -4.190   0.542   0.091  0.00  0.00     0.003 A 
ATOM      5  C4  UNL d   1      -5.015  -0.577   0.001  0.00  0.00    -0.005 A 
ATOM      6  C5  UNL d   1      -5.382  -1.070  -1.250  0.00  0.00     0.003 A 
ATOM      7  C6  UNL d   1      -4.925  -0.443  -2.410  0.00  0.00    -0.001 A 
ENDROOT
TORSDOF 0
ENDMDL
