MODEL 1
REMARK minimizedAffinity 1.58899617
REMARK minimizedRMSD -1
REMARK  0 active torsions:
REMARK  status: ('A' for Active; 'I' for Inactive)
ROOT
ATOM      1  C   UNL d   1       1.664  -5.244  -5.986  0.00  0.00     0.078 C 
ATOM      2  C1  UNL d   1       0.285  -5.239  -5.397  0.00  0.00    -0.077 A 
ATOM      3  C2  UNL d   1      -0.003  -4.503  -4.241  0.00  0.00    -0.001 A 
ATOM      4  C3  UNL d   1      -1.289  -4.515  -3.699  0.00  0.00     0.003 A 
ATOM      5  C4  UNL d   1      -2.297  -5.263  -4.305  0.00  0.00    -0.005 A 
ATOM      6  C5  UNL d   1      -2.019  -6.000  -5.454  0.00  0.00     0.003 A 
ATOM      7  C6  UNL d   1      -0.734  -5.989  -5.998  0.00  0.00    -0.001 A 
ENDROOT
TORSDOF 0
ENDMDL
