MODEL 1
REMARK minimizedAffinity 3.63147283
REMARK minimizedRMSD -1
REMARK  0 active torsions:
REMARK  status: ('A' for Active; 'I' for Inactive)
ROOT
ATOM      1  C   UNL d   1      -2.230  -3.914   0.062  0.00  0.00     0.078 C 
ATOM      2  C1  UNL d   1      -1.420  -2.663   0.226  0.00  0.00    -0.077 A 
ATOM      3  C2  UNL d   1      -0.020  -2.701   0.198  0.00  0.00    -0.001 A 
ATOM      4  C3  UNL d   1       0.721  -1.530   0.361  0.00  0.00     0.003 A 
ATOM      5  C4  UNL d   1       0.072  -0.312   0.556  0.00  0.00    -0.005 A 
ATOM      6  C5  UNL d   1      -1.320  -0.265   0.588  0.00  0.00     0.003 A 
ATOM      7  C6  UNL d   1      -2.063  -1.434   0.425  0.00  0.00    -0.001 A 
ENDROOT
TORSDOF 0
ENDMDL
