MODEL 1
REMARK minimizedAffinity 3.05915904
REMARK minimizedRMSD -1
REMARK  0 active torsions:
REMARK  status: ('A' for Active; 'I' for Inactive)
ROOT
ATOM      1  C   UNL d   1       1.245  -0.901   0.647  0.00  0.00     0.078 C 
ATOM      2  C1  UNL d   1       2.529  -0.858   1.420  0.00  0.00    -0.077 A 
ATOM      3  C2  UNL d   1       2.576  -1.252   2.763  0.00  0.00    -0.001 A 
ATOM      4  C3  UNL d   1       3.777  -1.197   3.473  0.00  0.00     0.003 A 
ATOM      5  C4  UNL d   1       4.938  -0.747   2.849  0.00  0.00    -0.005 A 
ATOM      6  C5  UNL d   1       4.901  -0.350   1.514  0.00  0.00     0.003 A 
ATOM      7  C6  UNL d   1       3.701  -0.405   0.802  0.00  0.00    -0.001 A 
ENDROOT
TORSDOF 0
ENDMDL
