MODEL 1
REMARK minimizedAffinity 3.29797173
REMARK minimizedRMSD -1
REMARK  0 active torsions:
REMARK  status: ('A' for Active; 'I' for Inactive)
ROOT
ATOM      1  C   UNL d   1      -2.170  -3.462   0.404  0.00  0.00     0.078 C 
ATOM      2  C1  UNL d   1      -1.174  -2.341   0.423  0.00  0.00    -0.077 A 
ATOM      3  C2  UNL d   1      -1.533  -1.064   0.869  0.00  0.00    -0.001 A 
ATOM      4  C3  UNL d   1      -0.598  -0.028   0.872  0.00  0.00     0.003 A 
ATOM      5  C4  UNL d   1       0.703  -0.258   0.429  0.00  0.00    -0.005 A 
ATOM      6  C5  UNL d   1       1.069  -1.526  -0.019  0.00  0.00     0.003 A 
ATOM      7  C6  UNL d   1       0.136  -2.563  -0.022  0.00  0.00    -0.001 A 
ENDROOT
TORSDOF 0
ENDMDL
