MODEL 1
REMARK minimizedAffinity -3.09422326
REMARK minimizedRMSD -1
REMARK  0 active torsions:
REMARK  status: ('A' for Active; 'I' for Inactive)
ROOT
ATOM      1  C1  BNZ d   1       0.110  -1.049   0.351  0.00  0.00     0.000 A 
ATOM      2  C2  BNZ d   1      -0.829  -0.060   0.218  0.00  0.00     0.000 A 
ATOM      3  C3  BNZ d   1      -0.458   1.255   0.177  0.00  0.00     0.000 A 
ATOM      4  C4  BNZ d   1       0.843   1.582   0.310  0.00  0.00     0.000 A 
ATOM      5  C5  BNZ d   1       1.800   0.597   0.455  0.00  0.00     0.000 A 
ATOM      6  C6  BNZ d   1       1.428  -0.727   0.456  0.00  0.00     0.000 A 
ENDROOT
TORSDOF 0
ENDMDL
