MODEL 1
REMARK minimizedAffinity -4.87459612
REMARK minimizedRMSD -1
REMARK  0 active torsions:
REMARK  status: ('A' for Active; 'I' for Inactive)
ROOT
ATOM      1  C1  BNZ d   1       1.384   1.603   0.152  0.00  0.00     0.000 A 
ATOM      2  C2  BNZ d   1       2.067   0.422   0.270  0.00  0.00     0.000 A 
ATOM      3  C3  BNZ d   1       1.399  -0.767   0.367  0.00  0.00     0.000 A 
ATOM      4  C4  BNZ d   1       0.051  -0.769   0.386  0.00  0.00     0.000 A 
ATOM      5  C5  BNZ d   1      -0.653   0.414   0.277  0.00  0.00     0.000 A 
ATOM      6  C6  BNZ d   1       0.023   1.605   0.141  0.00  0.00     0.000 A 
ENDROOT
TORSDOF 0
ENDMDL
