MODEL 1
REMARK minimizedAffinity -4.64231682
REMARK minimizedRMSD -1
REMARK  0 active torsions:
REMARK  status: ('A' for Active; 'I' for Inactive)
ROOT
ATOM      1  C1  BNZ d   1       1.421   2.339  -0.389  0.00  0.00     0.000 A 
ATOM      2  C2  BNZ d   1       1.294   0.984  -0.538  0.00  0.00     0.000 A 
ATOM      3  C3  BNZ d   1       0.193   0.327  -0.063  0.00  0.00     0.000 A 
ATOM      4  C4  BNZ d   1      -0.759   1.020   0.595  0.00  0.00     0.000 A 
ATOM      5  C5  BNZ d   1      -0.641   2.385   0.762  0.00  0.00     0.000 A 
ATOM      6  C6  BNZ d   1       0.450   3.048   0.248  0.00  0.00     0.000 A 
ENDROOT
TORSDOF 0
ENDMDL
