MODEL 1
REMARK minimizedAffinity -5.01734114
REMARK minimizedRMSD -1
REMARK  0 active torsions:
REMARK  status: ('A' for Active; 'I' for Inactive)
ROOT
ATOM      1  C1  BNZ d   1       1.304   1.844   0.126  0.00  0.00     0.000 A 
ATOM      2  C2  BNZ d   1      -0.039   1.610   0.000  0.00  0.00     0.000 A 
ATOM      3  C3  BNZ d   1      -0.547   0.349   0.147  0.00  0.00     0.000 A 
ATOM      4  C4  BNZ d   1       0.292  -0.680   0.379  0.00  0.00     0.000 A 
ATOM      5  C5  BNZ d   1       1.650  -0.462   0.499  0.00  0.00     0.000 A 
ATOM      6  C6  BNZ d   1       2.153   0.814   0.390  0.00  0.00     0.000 A 
ENDROOT
TORSDOF 0
ENDMDL
