MODEL 1
REMARK minimizedAffinity -5.09032106
REMARK minimizedRMSD -1
REMARK  0 active torsions:
REMARK  status: ('A' for Active; 'I' for Inactive)
ROOT
ATOM      1  C1  BNZ d   1       2.274   1.918   0.945  0.00  0.00     0.000 A 
ATOM      2  C2  BNZ d   1       1.773   0.708   0.545  0.00  0.00     0.000 A 
ATOM      3  C3  BNZ d   1       0.453   0.570   0.218  0.00  0.00     0.000 A 
ATOM      4  C4  BNZ d   1      -0.372   1.631   0.329  0.00  0.00     0.000 A 
ATOM      5  C5  BNZ d   1       0.116   2.856   0.740  0.00  0.00     0.000 A 
ATOM      6  C6  BNZ d   1       1.453   3.000   1.032  0.00  0.00     0.000 A 
ENDROOT
TORSDOF 0
ENDMDL
