MODEL 1
REMARK minimizedAffinity -4.54888678
REMARK minimizedRMSD -1
REMARK  0 active torsions:
REMARK  status: ('A' for Active; 'I' for Inactive)
ROOT
ATOM      1  C1  BNZ d   1       0.366  -0.946   0.141  0.00  0.00     0.000 A 
ATOM      2  C2  BNZ d   1      -0.128   0.009  -0.706  0.00  0.00     0.000 A 
ATOM      3  C3  BNZ d   1       0.592   1.136  -0.987  0.00  0.00     0.000 A 
ATOM      4  C4  BNZ d   1       1.786   1.326  -0.389  0.00  0.00     0.000 A 
ATOM      5  C5  BNZ d   1       2.294   0.377   0.475  0.00  0.00     0.000 A 
ATOM      6  C6  BNZ d   1       1.583  -0.775   0.725  0.00  0.00     0.000 A 
ENDROOT
TORSDOF 0
ENDMDL
