MODEL 1
REMARK minimizedAffinity -4.34624004
REMARK minimizedRMSD -1
REMARK  0 active torsions:
REMARK  status: ('A' for Active; 'I' for Inactive)
ROOT
ATOM      1  C1  BNZ d   1       1.052   2.209  -0.416  0.00  0.00     0.000 A 
ATOM      2  C2  BNZ d   1       1.012   0.844  -0.315  0.00  0.00     0.000 A 
ATOM      3  C3  BNZ d   1      -0.158   0.198  -0.028  0.00  0.00     0.000 A 
ATOM      4  C4  BNZ d   1      -1.275   0.918   0.196  0.00  0.00     0.000 A 
ATOM      5  C5  BNZ d   1      -1.249   2.296   0.107  0.00  0.00     0.000 A 
ATOM      6  C6  BNZ d   1      -0.078   2.941  -0.220  0.00  0.00     0.000 A 
ENDROOT
TORSDOF 0
ENDMDL
