MODEL 1
REMARK minimizedAffinity -4.51300478
REMARK minimizedRMSD -1
REMARK  0 active torsions:
REMARK  status: ('A' for Active; 'I' for Inactive)
ROOT
ATOM      1  C1  BNZ d   1      -1.048   0.951   0.412  0.00  0.00     0.000 A 
ATOM      2  C2  BNZ d   1      -0.961   2.314   0.308  0.00  0.00     0.000 A 
ATOM      3  C3  BNZ d   1       0.189   2.911  -0.126  0.00  0.00     0.000 A 
ATOM      4  C4  BNZ d   1       1.263   2.148  -0.417  0.00  0.00     0.000 A 
ATOM      5  C5  BNZ d   1       1.194   0.773  -0.308  0.00  0.00     0.000 A 
ATOM      6  C6  BNZ d   1       0.022   0.174   0.092  0.00  0.00     0.000 A 
ENDROOT
TORSDOF 0
ENDMDL
