MODEL 1
REMARK minimizedAffinity -4.16677237
REMARK minimizedRMSD -1
REMARK  0 active torsions:
REMARK  status: ('A' for Active; 'I' for Inactive)
ROOT
ATOM      1  C1  BNZ d   1       1.051   2.203  -0.493  0.00  0.00     0.000 A 
ATOM      2  C2  BNZ d   1       0.046   3.022  -0.051  0.00  0.00     0.000 A 
ATOM      3  C3  BNZ d   1      -1.139   2.501   0.387  0.00  0.00     0.000 A 
ATOM      4  C4  BNZ d   1      -1.333   1.167   0.345  0.00  0.00     0.000 A 
ATOM      5  C5  BNZ d   1      -0.333   0.329  -0.107  0.00  0.00     0.000 A 
ATOM      6  C6  BNZ d   1       0.873   0.854  -0.511  0.00  0.00     0.000 A 
ENDROOT
TORSDOF 0
ENDMDL
