MODEL 1
REMARK minimizedAffinity -3.06852078
REMARK minimizedRMSD -1
REMARK  0 active torsions:
REMARK  status: ('A' for Active; 'I' for Inactive)
ROOT
ATOM      1  C1  BNZ d   1       0.709   1.981  -0.848  0.00  0.00     0.000 A 
ATOM      2  C2  BNZ d   1      -0.141   2.834  -0.196  0.00  0.00     0.000 A 
ATOM      3  C3  BNZ d   1      -1.095   2.355   0.658  0.00  0.00     0.000 A 
ATOM      4  C4  BNZ d   1      -1.223   1.023   0.828  0.00  0.00     0.000 A 
ATOM      5  C5  BNZ d   1      -0.379   0.150   0.171  0.00  0.00     0.000 A 
ATOM      6  C6  BNZ d   1       0.605   0.638  -0.658  0.00  0.00     0.000 A 
ENDROOT
TORSDOF 0
ENDMDL
