MODEL 1
REMARK minimizedAffinity -4.24287605
REMARK minimizedRMSD -1
REMARK  0 active torsions:
REMARK  status: ('A' for Active; 'I' for Inactive)
ROOT
ATOM      1  C1  BNZ d   1       0.500   2.636  -0.046  0.00  0.00     0.000 A 
ATOM      2  C2  BNZ d   1       1.264   1.501   0.021  0.00  0.00     0.000 A 
ATOM      3  C3  BNZ d   1       0.683   0.264   0.006  0.00  0.00     0.000 A 
ATOM      4  C4  BNZ d   1      -0.661   0.164  -0.035  0.00  0.00     0.000 A 
ATOM      5  C5  BNZ d   1      -1.446   1.299  -0.094  0.00  0.00     0.000 A 
ATOM      6  C6  BNZ d   1      -0.855   2.541  -0.118  0.00  0.00     0.000 A 
ENDROOT
TORSDOF 0
ENDMDL
