MODEL 1
REMARK minimizedAffinity -4.76552773
REMARK minimizedRMSD -1
REMARK  0 active torsions:
REMARK  status: ('A' for Active; 'I' for Inactive)
ROOT
ATOM      1  C1  BNZ d   1      -0.660  -0.869   0.273  0.00  0.00     0.000 A 
ATOM      2  C2  BNZ d   1       0.621  -0.782  -0.205  0.00  0.00     0.000 A 
ATOM      3  C3  BNZ d   1       1.197   0.434  -0.444  0.00  0.00     0.000 A 
ATOM      4  C4  BNZ d   1       0.481   1.559  -0.245  0.00  0.00     0.000 A 
ATOM      5  C5  BNZ d   1      -0.815   1.487   0.227  0.00  0.00     0.000 A 
ATOM      6  C6  BNZ d   1      -1.379   0.263   0.504  0.00  0.00     0.000 A 
ENDROOT
TORSDOF 0
ENDMDL
