MODEL 1
REMARK minimizedAffinity -3.76595426
REMARK minimizedRMSD -1
REMARK  0 active torsions:
REMARK  status: ('A' for Active; 'I' for Inactive)
ROOT
ATOM      1  C1  BNZ d   1       0.743  -1.225  -1.766  0.00  0.00     0.000 A 
ATOM      2  C2  BNZ d   1       0.350  -2.316  -2.494  0.00  0.00     0.000 A 
ATOM      3  C3  BNZ d   1      -0.480  -3.257  -1.952  0.00  0.00     0.000 A 
ATOM      4  C4  BNZ d   1      -0.883  -3.127  -0.672  0.00  0.00     0.000 A 
ATOM      5  C5  BNZ d   1      -0.488  -2.037   0.078  0.00  0.00     0.000 A 
ATOM      6  C6  BNZ d   1       0.316  -1.072  -0.483  0.00  0.00     0.000 A 
ENDROOT
TORSDOF 0
ENDMDL
