MODEL 1
REMARK minimizedAffinity -3.82078862
REMARK minimizedRMSD -1
REMARK  0 active torsions:
REMARK  status: ('A' for Active; 'I' for Inactive)
ROOT
ATOM      1  C1  BNZ d   1       1.104   2.142  -0.344  0.00  0.00     0.000 A 
ATOM      2  C2  BNZ d   1       1.054   0.774  -0.314  0.00  0.00     0.000 A 
ATOM      3  C3  BNZ d   1       0.031   0.124   0.318  0.00  0.00     0.000 A 
ATOM      4  C4  BNZ d   1      -0.919   0.842   0.952  0.00  0.00     0.000 A 
ATOM      5  C5  BNZ d   1      -0.878   2.222   0.939  0.00  0.00     0.000 A 
ATOM      6  C6  BNZ d   1       0.133   2.873   0.269  0.00  0.00     0.000 A 
ENDROOT
TORSDOF 0
ENDMDL
