MODEL 1
REMARK minimizedAffinity -3.16122985
REMARK minimizedRMSD -1
REMARK  0 active torsions:
REMARK  status: ('A' for Active; 'I' for Inactive)
ROOT
ATOM      1  C1  BNZ d   1       0.492   2.595  -0.834  0.00  0.00     0.000 A 
ATOM      2  C2  BNZ d   1       0.181   1.262  -0.855  0.00  0.00     0.000 A 
ATOM      3  C3  BNZ d   1      -0.654   0.723   0.083  0.00  0.00     0.000 A 
ATOM      4  C4  BNZ d   1      -1.145   1.509   1.063  0.00  0.00     0.000 A 
ATOM      5  C5  BNZ d   1      -0.832   2.854   1.104  0.00  0.00     0.000 A 
ATOM      6  C6  BNZ d   1      -0.022   3.400   0.135  0.00  0.00     0.000 A 
ENDROOT
TORSDOF 0
ENDMDL
