MODEL 1
REMARK minimizedAffinity -3.71682072
REMARK minimizedRMSD -1
REMARK  0 active torsions:
REMARK  status: ('A' for Active; 'I' for Inactive)
ROOT
ATOM      1  C1  BNZ d   1      -0.275  -0.338  -0.019  0.00  0.00     0.000 A 
ATOM      2  C2  BNZ d   1      -1.093   0.754   0.103  0.00  0.00     0.000 A 
ATOM      3  C3  BNZ d   1      -0.585   2.020   0.030  0.00  0.00     0.000 A 
ATOM      4  C4  BNZ d   1       0.743   2.194  -0.124  0.00  0.00     0.000 A 
ATOM      5  C5  BNZ d   1       1.582   1.104  -0.239  0.00  0.00     0.000 A 
ATOM      6  C6  BNZ d   1       1.062  -0.170  -0.204  0.00  0.00     0.000 A 
ENDROOT
TORSDOF 0
ENDMDL
