MODEL 1
REMARK minimizedAffinity -3.71973205
REMARK minimizedRMSD -1
REMARK  0 active torsions:
REMARK  status: ('A' for Active; 'I' for Inactive)
ROOT
ATOM      1  C1  BNZ d   1       0.279   1.175  -1.039  0.00  0.00     0.000 A 
ATOM      2  C2  BNZ d   1       0.588   2.507  -0.962  0.00  0.00     0.000 A 
ATOM      3  C3  BNZ d   1       0.289   3.231   0.158  0.00  0.00     0.000 A 
ATOM      4  C4  BNZ d   1      -0.353   2.633   1.182  0.00  0.00     0.000 A 
ATOM      5  C5  BNZ d   1      -0.680   1.293   1.116  0.00  0.00     0.000 A 
ATOM      6  C6  BNZ d   1      -0.343   0.558   0.002  0.00  0.00     0.000 A 
ENDROOT
TORSDOF 0
ENDMDL
