MODEL 1
REMARK minimizedAffinity -1.87645841
REMARK minimizedRMSD -1
REMARK  0 active torsions:
REMARK  status: ('A' for Active; 'I' for Inactive)
ROOT
ATOM      1  O1  BZF d   1      -2.983  -3.952  -2.128  0.00  0.00    -0.204 OA
ATOM      2  C2  BZF d   1      -3.703  -4.125  -0.961  0.00  0.00     0.174 A 
ATOM      3  C3  BZF d   1      -2.978  -3.739   0.109  0.00  0.00    -0.012 A 
ATOM      4  C3A BZF d   1      -1.762  -3.212  -0.429  0.00  0.00    -0.107 A 
ATOM      5  C4  BZF d   1      -0.648  -2.659   0.134  0.00  0.00     0.055 A 
ATOM      6  C5  BZF d   1       0.394  -2.312  -0.666  0.00  0.00    -0.016 A 
ATOM      7  C6  BZF d   1       0.358  -2.509  -2.031  0.00  0.00     0.022 A 
ATOM      8  C7  BZF d   1      -0.727  -3.050  -2.636  0.00  0.00     0.029 A 
ATOM      9  C7A BZF d   1      -1.795  -3.371  -1.834  0.00  0.00     0.058 A 
ENDROOT
TORSDOF 0
ENDMDL
