MODEL 1
REMARK minimizedAffinity -3.40516829
REMARK minimizedRMSD -1
REMARK  0 active torsions:
REMARK  status: ('A' for Active; 'I' for Inactive)
ROOT
ATOM      1  O1  BZF d   1       0.357  -3.290  -1.423  0.00  0.00    -0.204 OA
ATOM      2  C2  BZF d   1      -0.534  -3.569  -2.441  0.00  0.00     0.174 A 
ATOM      3  C3  BZF d   1      -1.472  -2.604  -2.534  0.00  0.00    -0.012 A 
ATOM      4  C3A BZF d   1      -1.093  -1.618  -1.569  0.00  0.00    -0.107 A 
ATOM      5  C4  BZF d   1      -1.623  -0.415  -1.198  0.00  0.00     0.055 A 
ATOM      6  C5  BZF d   1      -1.054   0.270  -0.172  0.00  0.00    -0.016 A 
ATOM      7  C6  BZF d   1       0.041  -0.221   0.509  0.00  0.00     0.022 A 
ATOM      8  C7  BZF d   1       0.605  -1.407   0.175  0.00  0.00     0.029 A 
ATOM      9  C7A BZF d   1       0.052  -2.085  -0.884  0.00  0.00     0.058 A 
ENDROOT
TORSDOF 0
ENDMDL
