MODEL 1
REMARK minimizedAffinity -3.9359591
REMARK minimizedRMSD -1
REMARK  0 active torsions:
REMARK  status: ('A' for Active; 'I' for Inactive)
ROOT
ATOM      1  O1  BZF d   1       0.335  -1.681   0.415  0.00  0.00    -0.204 OA
ATOM      2  C2  BZF d   1      -0.536  -2.497  -0.282  0.00  0.00     0.174 A 
ATOM      3  C3  BZF d   1      -1.663  -1.829  -0.603  0.00  0.00    -0.012 A 
ATOM      4  C3A BZF d   1      -1.447  -0.488  -0.155  0.00  0.00    -0.107 A 
ATOM      5  C4  BZF d   1      -2.199   0.651  -0.203  0.00  0.00     0.055 A 
ATOM      6  C5  BZF d   1      -1.729   1.779   0.391  0.00  0.00    -0.016 A 
ATOM      7  C6  BZF d   1      -0.515   1.802   1.046  0.00  0.00     0.022 A 
ATOM      8  C7  BZF d   1       0.269   0.699   1.116  0.00  0.00     0.029 A 
ATOM      9  C7A BZF d   1      -0.188  -0.434   0.488  0.00  0.00     0.058 A 
ENDROOT
TORSDOF 0
ENDMDL
