MODEL 1
REMARK minimizedAffinity -2.38776231
REMARK minimizedRMSD -1
REMARK  0 active torsions:
REMARK  status: ('A' for Active; 'I' for Inactive)
ROOT
ATOM      1  O1  BZF d   1       1.058  -0.787  -0.118  0.00  0.00    -0.204 OA
ATOM      2  C2  BZF d   1      -0.265  -1.122  -0.329  0.00  0.00     0.174 A 
ATOM      3  C3  BZF d   1      -1.068  -0.060  -0.114  0.00  0.00    -0.012 A 
ATOM      4  C3A BZF d   1      -0.184   1.030   0.163  0.00  0.00    -0.107 A 
ATOM      5  C4  BZF d   1      -0.382   2.352   0.442  0.00  0.00     0.055 A 
ATOM      6  C5  BZF d   1       0.690   3.133   0.737  0.00  0.00    -0.016 A 
ATOM      7  C6  BZF d   1       1.972   2.624   0.768  0.00  0.00     0.022 A 
ATOM      8  C7  BZF d   1       2.219   1.320   0.494  0.00  0.00     0.029 A 
ATOM      9  C7A BZF d   1       1.141   0.536   0.163  0.00  0.00     0.058 A 
ENDROOT
TORSDOF 0
ENDMDL
