MODEL 1
REMARK minimizedAffinity -1.06069982
REMARK minimizedRMSD -1
REMARK  0 active torsions:
REMARK  status: ('A' for Active; 'I' for Inactive)
ROOT
ATOM      1  O1  BZF d   1      -1.960  -2.021  -2.159  0.00  0.00    -0.204 OA
ATOM      2  C2  BZF d   1      -1.317  -3.144  -2.643  0.00  0.00     0.174 A 
ATOM      3  C3  BZF d   1      -0.067  -3.232  -2.144  0.00  0.00    -0.012 A 
ATOM      4  C3A BZF d   1       0.048  -2.143  -1.224  0.00  0.00    -0.107 A 
ATOM      5  C4  BZF d   1       1.049  -1.710  -0.402  0.00  0.00     0.055 A 
ATOM      6  C5  BZF d   1       0.868  -0.571   0.316  0.00  0.00    -0.016 A 
ATOM      7  C6  BZF d   1      -0.297   0.162   0.233  0.00  0.00     0.022 A 
ATOM      8  C7  BZF d   1      -1.321  -0.230  -0.564  0.00  0.00     0.029 A 
ATOM      9  C7A BZF d   1      -1.154  -1.399  -1.266  0.00  0.00     0.058 A 
ENDROOT
TORSDOF 0
ENDMDL
