MODEL 1
REMARK minimizedAffinity -5.30752897
REMARK minimizedRMSD -1
REMARK  0 active torsions:
REMARK  status: ('A' for Active; 'I' for Inactive)
ROOT
ATOM      1  O1  BZF d   1       2.244   2.066   0.203  0.00  0.00    -0.204 OA
ATOM      2  C2  BZF d   1       3.032   0.931   0.190  0.00  0.00     0.174 A 
ATOM      3  C3  BZF d   1       2.278  -0.177   0.335  0.00  0.00    -0.012 A 
ATOM      4  C3A BZF d   1       0.925   0.288   0.353  0.00  0.00    -0.107 A 
ATOM      5  C4  BZF d   1      -0.283  -0.341   0.457  0.00  0.00     0.055 A 
ATOM      6  C5  BZF d   1      -1.415   0.409   0.517  0.00  0.00    -0.016 A 
ATOM      7  C6  BZF d   1      -1.375   1.788   0.481  0.00  0.00     0.022 A 
ATOM      8  C7  BZF d   1      -0.201   2.456   0.373  0.00  0.00     0.029 A 
ATOM      9  C7A BZF d   1       0.942   1.700   0.279  0.00  0.00     0.058 A 
ENDROOT
TORSDOF 0
ENDMDL
