MODEL 1
REMARK minimizedAffinity -4.43204594
REMARK minimizedRMSD -1
REMARK  0 active torsions:
REMARK  status: ('A' for Active; 'I' for Inactive)
ROOT
ATOM      1  O1  BZF d   1       1.481  -0.691  -0.927  0.00  0.00    -0.204 OA
ATOM      2  C2  BZF d   1       0.949   0.040   0.117  0.00  0.00     0.174 A 
ATOM      3  C3  BZF d   1      -0.163  -0.552   0.598  0.00  0.00    -0.012 A 
ATOM      4  C3A BZF d   1      -0.285  -1.775  -0.135  0.00  0.00    -0.107 A 
ATOM      5  C4  BZF d   1      -1.182  -2.805  -0.100  0.00  0.00     0.055 A 
ATOM      6  C5  BZF d   1      -1.059  -3.817  -0.998  0.00  0.00    -0.016 A 
ATOM      7  C6  BZF d   1      -0.058  -3.829  -1.947  0.00  0.00     0.022 A 
ATOM      8  C7  BZF d   1       0.858  -2.833  -2.017  0.00  0.00     0.029 A 
ATOM      9  C7A BZF d   1       0.757  -1.825  -1.089  0.00  0.00     0.058 A 
ENDROOT
TORSDOF 0
ENDMDL
