MODEL 1
REMARK minimizedAffinity -1.53458977
REMARK minimizedRMSD -1
REMARK  0 active torsions:
REMARK  status: ('A' for Active; 'I' for Inactive)
ROOT
ATOM      1  O1  BZF d   1       0.480   0.147  -0.386  0.00  0.00    -0.204 OA
ATOM      2  C2  BZF d   1      -0.387   0.496   0.631  0.00  0.00     0.174 A 
ATOM      3  C3  BZF d   1      -1.295  -0.479   0.841  0.00  0.00    -0.012 A 
ATOM      4  C3A BZF d   1      -0.919  -1.540  -0.041  0.00  0.00    -0.107 A 
ATOM      5  C4  BZF d   1      -1.426  -2.785  -0.283  0.00  0.00     0.055 A 
ATOM      6  C5  BZF d   1      -0.870  -3.546  -1.261  0.00  0.00    -0.016 A 
ATOM      7  C6  BZF d   1       0.190  -3.094  -2.019  0.00  0.00     0.022 A 
ATOM      8  C7  BZF d   1       0.731  -1.868  -1.813  0.00  0.00     0.029 A 
ATOM      9  C7A BZF d   1       0.192  -1.109  -0.803  0.00  0.00     0.058 A 
ENDROOT
TORSDOF 0
ENDMDL
