MODEL 1
REMARK minimizedAffinity 1.02705109
REMARK minimizedRMSD -1
REMARK  0 active torsions:
REMARK  status: ('A' for Active; 'I' for Inactive)
ROOT
ATOM      1  O1  BZF d   1       2.839   0.664   0.934  0.00  0.00    -0.204 OA
ATOM      2  C2  BZF d   1       3.132   1.930   1.403  0.00  0.00     0.174 A 
ATOM      3  C3  BZF d   1       2.029   2.706   1.409  0.00  0.00    -0.012 A 
ATOM      4  C3A BZF d   1       0.962   1.844   1.001  0.00  0.00    -0.107 A 
ATOM      5  C4  BZF d   1      -0.381   2.029   0.829  0.00  0.00     0.055 A 
ATOM      6  C5  BZF d   1      -1.132   1.003   0.350  0.00  0.00    -0.016 A 
ATOM      7  C6  BZF d   1      -0.575  -0.217   0.028  0.00  0.00     0.022 A 
ATOM      8  C7  BZF d   1       0.751  -0.449   0.187  0.00  0.00     0.029 A 
ATOM      9  C7A BZF d   1       1.508   0.575   0.701  0.00  0.00     0.058 A 
ENDROOT
TORSDOF 0
ENDMDL
