MODEL 1
REMARK minimizedAffinity -1.77905786
REMARK minimizedRMSD -1
REMARK  0 active torsions:
REMARK  status: ('A' for Active; 'I' for Inactive)
ROOT
ATOM      1  O1  BZF d   1       1.141  -0.401   0.063  0.00  0.00    -0.204 OA
ATOM      2  C2  BZF d   1      -0.213  -0.562  -0.158  0.00  0.00     0.174 A 
ATOM      3  C3  BZF d   1      -0.902   0.503   0.302  0.00  0.00    -0.012 A 
ATOM      4  C3A BZF d   1       0.091   1.425   0.760  0.00  0.00    -0.107 A 
ATOM      5  C4  BZF d   1       0.031   2.673   1.311  0.00  0.00     0.055 A 
ATOM      6  C5  BZF d   1       1.181   3.272   1.716  0.00  0.00    -0.016 A 
ATOM      7  C6  BZF d   1       2.407   2.652   1.589  0.00  0.00     0.022 A 
ATOM      8  C7  BZF d   1       2.518   1.416   1.044  0.00  0.00     0.029 A 
ATOM      9  C7A BZF d   1       1.360   0.821   0.604  0.00  0.00     0.058 A 
ENDROOT
TORSDOF 0
ENDMDL
