MODEL 1
REMARK minimizedAffinity -2.56799436
REMARK minimizedRMSD -1
REMARK  0 active torsions:
REMARK  status: ('A' for Active; 'I' for Inactive)
ROOT
ATOM      1  O1  BZF d   1       0.326  -0.699   0.230  0.00  0.00    -0.204 OA
ATOM      2  C2  BZF d   1      -1.043  -0.519   0.186  0.00  0.00     0.174 A 
ATOM      3  C3  BZF d   1      -1.375   0.723   0.591  0.00  0.00    -0.012 A 
ATOM      4  C3A BZF d   1      -0.130   1.390   0.820  0.00  0.00    -0.107 A 
ATOM      5  C4  BZF d   1       0.199   2.654   1.221  0.00  0.00     0.055 A 
ATOM      6  C5  BZF d   1       1.507   2.965   1.417  0.00  0.00    -0.016 A 
ATOM      7  C6  BZF d   1       2.510   2.038   1.227  0.00  0.00     0.022 A 
ATOM      8  C7  BZF d   1       2.234   0.773   0.824  0.00  0.00     0.029 A 
ATOM      9  C7A BZF d   1       0.915   0.465   0.593  0.00  0.00     0.058 A 
ENDROOT
TORSDOF 0
ENDMDL
