MODEL 1
REMARK minimizedAffinity -4.32145405
REMARK minimizedRMSD -1
REMARK  0 active torsions:
REMARK  status: ('A' for Active; 'I' for Inactive)
ROOT
ATOM      1  O1  BZF d   1       1.370   1.955   0.848  0.00  0.00    -0.204 OA
ATOM      2  C2  BZF d   1       0.513   3.037   0.907  0.00  0.00     0.174 A 
ATOM      3  C3  BZF d   1      -0.731   2.683   0.525  0.00  0.00    -0.012 A 
ATOM      4  C3A BZF d   1      -0.667   1.272   0.296  0.00  0.00    -0.107 A 
ATOM      5  C4  BZF d   1      -1.590   0.341  -0.089  0.00  0.00     0.055 A 
ATOM      6  C5  BZF d   1      -1.188  -0.941  -0.291  0.00  0.00    -0.016 A 
ATOM      7  C6  BZF d   1       0.126  -1.326  -0.125  0.00  0.00     0.022 A 
ATOM      8  C7  BZF d   1       1.076  -0.439   0.260  0.00  0.00     0.029 A 
ATOM      9  C7A BZF d   1       0.667   0.851   0.498  0.00  0.00     0.058 A 
ENDROOT
TORSDOF 0
ENDMDL
