MODEL 1
REMARK minimizedAffinity -2.34522152
REMARK minimizedRMSD -1
REMARK  0 active torsions:
REMARK  status: ('A' for Active; 'I' for Inactive)
ROOT
ATOM      1  O1  BZF d   1       0.891  -0.296   0.120  0.00  0.00    -0.204 OA
ATOM      2  C2  BZF d   1      -0.417  -0.641  -0.158  0.00  0.00     0.174 A 
ATOM      3  C3  BZF d   1      -1.250   0.385   0.112  0.00  0.00    -0.012 A 
ATOM      4  C3A BZF d   1      -0.400   1.468   0.501  0.00  0.00    -0.107 A 
ATOM      5  C4  BZF d   1      -0.636   2.760   0.874  0.00  0.00     0.055 A 
ATOM      6  C5  BZF d   1       0.409   3.537   1.262  0.00  0.00    -0.016 A 
ATOM      7  C6  BZF d   1       1.701   3.054   1.294  0.00  0.00     0.022 A 
ATOM      8  C7  BZF d   1       1.985   1.780   0.928  0.00  0.00     0.029 A 
ATOM      9  C7A BZF d   1       0.936   1.003   0.504  0.00  0.00     0.058 A 
ENDROOT
TORSDOF 0
ENDMDL
