MODEL 1
REMARK minimizedAffinity -4.29822397
REMARK minimizedRMSD -1
REMARK  0 active torsions:
REMARK  status: ('A' for Active; 'I' for Inactive)
ROOT
ATOM      1  O1  BZF d   1       0.304  -2.378  -3.262  0.00  0.00    -0.204 OA
ATOM      2  C2  BZF d   1      -0.878  -3.087  -3.175  0.00  0.00     0.174 A 
ATOM      3  C3  BZF d   1      -1.486  -2.860  -1.993  0.00  0.00    -0.012 A 
ATOM      4  C3A BZF d   1      -0.677  -1.881  -1.335  0.00  0.00    -0.107 A 
ATOM      5  C4  BZF d   1      -0.770  -1.239  -0.133  0.00  0.00     0.055 A 
ATOM      6  C5  BZF d   1       0.225  -0.393   0.243  0.00  0.00    -0.016 A 
ATOM      7  C6  BZF d   1       1.328  -0.169  -0.555  0.00  0.00     0.022 A 
ATOM      8  C7  BZF d   1       1.462  -0.778  -1.758  0.00  0.00     0.029 A 
ATOM      9  C7A BZF d   1       0.443  -1.609  -2.155  0.00  0.00     0.058 A 
ENDROOT
TORSDOF 0
ENDMDL
