MODEL 1
REMARK minimizedAffinity -3.3415668
REMARK minimizedRMSD -1
REMARK  0 active torsions:
REMARK  status: ('A' for Active; 'I' for Inactive)
ROOT
ATOM      1  O1  BZF d   1      -0.025   0.230  -1.401  0.00  0.00    -0.204 OA
ATOM      2  C2  BZF d   1       0.050   0.223  -0.022  0.00  0.00     0.174 A 
ATOM      3  C3  BZF d   1      -0.283  -0.988   0.470  0.00  0.00    -0.012 A 
ATOM      4  C3A BZF d   1      -0.495  -1.815  -0.678  0.00  0.00    -0.107 A 
ATOM      5  C4  BZF d   1      -0.833  -3.128  -0.840  0.00  0.00     0.055 A 
ATOM      6  C5  BZF d   1      -1.033  -3.609  -2.095  0.00  0.00    -0.016 A 
ATOM      7  C6  BZF d   1      -0.908  -2.805  -3.209  0.00  0.00     0.022 A 
ATOM      8  C7  BZF d   1      -0.569  -1.497  -3.099  0.00  0.00     0.029 A 
ATOM      9  C7A BZF d   1      -0.335  -1.016  -1.834  0.00  0.00     0.058 A 
ENDROOT
TORSDOF 0
ENDMDL
