MODEL 1
REMARK minimizedAffinity -0.499458581
REMARK minimizedRMSD -1
REMARK  0 active torsions:
REMARK  status: ('A' for Active; 'I' for Inactive)
ROOT
ATOM      1  O1  BZF d   1      -0.170   1.617  -0.746  0.00  0.00    -0.204 OA
ATOM      2  C2  BZF d   1      -0.990   2.610  -0.246  0.00  0.00     0.174 A 
ATOM      3  C3  BZF d   1      -1.739   2.144   0.775  0.00  0.00    -0.012 A 
ATOM      4  C3A BZF d   1      -1.297   0.799   0.982  0.00  0.00    -0.107 A 
ATOM      5  C4  BZF d   1      -1.651  -0.180   1.865  0.00  0.00     0.055 A 
ATOM      6  C5  BZF d   1      -1.079  -1.408   1.755  0.00  0.00    -0.016 A 
ATOM      7  C6  BZF d   1      -0.154  -1.693   0.771  0.00  0.00     0.022 A 
ATOM      8  C7  BZF d   1       0.232  -0.752  -0.125  0.00  0.00     0.029 A 
ATOM      9  C7A BZF d   1      -0.320   0.499   0.004  0.00  0.00     0.058 A 
ENDROOT
TORSDOF 0
ENDMDL
