MODEL 1
REMARK minimizedAffinity -2.0939362
REMARK minimizedRMSD -1
REMARK  0 active torsions:
REMARK  status: ('A' for Active; 'I' for Inactive)
ROOT
ATOM      1  O1  BZF d   1       2.113   0.554   0.581  0.00  0.00    -0.204 OA
ATOM      2  C2  BZF d   1       1.912  -0.812   0.572  0.00  0.00     0.174 A 
ATOM      3  C3  BZF d   1       0.601  -1.104   0.693  0.00  0.00    -0.012 A 
ATOM      4  C3A BZF d   1      -0.067   0.161   0.691  0.00  0.00    -0.107 A 
ATOM      5  C4  BZF d   1      -1.380   0.529   0.767  0.00  0.00     0.055 A 
ATOM      6  C5  BZF d   1      -1.694   1.851   0.813  0.00  0.00    -0.016 A 
ATOM      7  C6  BZF d   1      -0.721   2.829   0.790  0.00  0.00     0.022 A 
ATOM      8  C7  BZF d   1       0.594   2.513   0.709  0.00  0.00     0.029 A 
ATOM      9  C7A BZF d   1       0.912   1.179   0.629  0.00  0.00     0.058 A 
ENDROOT
TORSDOF 0
ENDMDL
