MODEL 1
REMARK minimizedAffinity -2.61051273
REMARK minimizedRMSD -1
REMARK  1 active torsions:
REMARK  status: ('A' for Active; 'I' for Inactive)
REMARK    1  A    between atoms: C1_2  and  C2_3 
ROOT
ATOM      1  C2  UNL d   1       1.174  -0.319   0.459  0.00  0.00    -0.076 A 
ATOM      2  C3  UNL d   1      -0.064  -0.125  -0.178  0.00  0.00     0.004 A 
ATOM      3  C4  UNL d   1      -0.536  -1.037  -1.121  0.00  0.00    -0.003 A 
ATOM      4  C5  UNL d   1       0.221  -2.158  -1.441  0.00  0.00     0.000 A 
ATOM      5  C6  UNL d   1       1.443  -2.376  -0.805  0.00  0.00     0.000 A 
ATOM      6  C7  UNL d   1       1.926  -1.475   0.159  0.00  0.00    -0.073 A 
ATOM      7  C8  UNL d   1       3.253  -1.756   0.809  0.00  0.00     0.078 C 
ENDROOT
BRANCH   1   8
ATOM      8  C1  UNL d   1       1.647   0.717   1.453  0.00  0.00     0.053 C 
ATOM      9  C   UNL d   1       1.687   2.117   0.860  0.00  0.00     0.018 C 
ENDBRANCH   1   8
TORSDOF 1
ENDMDL
