MODEL 1
REMARK minimizedAffinity -1.694453
REMARK minimizedRMSD -1
REMARK  1 active torsions:
REMARK  status: ('A' for Active; 'I' for Inactive)
REMARK    1  A    between atoms: C1_2  and  C2_3 
ROOT
ATOM      1  C2  UNL d   1       1.267   0.079   0.432  0.00  0.00    -0.076 A 
ATOM      2  C3  UNL d   1       0.083   0.200  -0.316  0.00  0.00     0.004 A 
ATOM      3  C4  UNL d   1      -0.495  -0.910  -0.930  0.00  0.00    -0.003 A 
ATOM      4  C5  UNL d   1       0.102  -2.160  -0.804  0.00  0.00     0.000 A 
ATOM      5  C6  UNL d   1       1.267  -2.302  -0.050  0.00  0.00     0.000 A 
ATOM      6  C7  UNL d   1       1.853  -1.195   0.588  0.00  0.00    -0.073 A 
ATOM      7  C8  UNL d   1       3.113  -1.404   1.383  0.00  0.00     0.078 C 
ENDROOT
BRANCH   1   8
ATOM      8  C1  UNL d   1       1.862   1.323   1.051  0.00  0.00     0.053 C 
ATOM      9  C   UNL d   1       1.787   2.528   0.126  0.00  0.00     0.018 C 
ENDBRANCH   1   8
TORSDOF 1
ENDMDL
