MODEL 1
REMARK minimizedAffinity -2.58165622
REMARK minimizedRMSD -1
REMARK  1 active torsions:
REMARK  status: ('A' for Active; 'I' for Inactive)
REMARK    1  A    between atoms: C1_2  and  C2_3 
ROOT
ATOM      1  C2  UNL d   1      -1.764  -0.058  -0.071  0.00  0.00    -0.076 A 
ATOM      2  C3  UNL d   1      -0.928   0.903  -0.665  0.00  0.00     0.004 A 
ATOM      3  C4  UNL d   1       0.430   0.652  -0.858  0.00  0.00    -0.003 A 
ATOM      4  C5  UNL d   1       0.973  -0.565  -0.460  0.00  0.00     0.000 A 
ATOM      5  C6  UNL d   1       0.155  -1.536   0.115  0.00  0.00     0.000 A 
ATOM      6  C7  UNL d   1      -1.219  -1.306   0.301  0.00  0.00    -0.073 A 
ATOM      7  C8  UNL d   1      -2.053  -2.387   0.932  0.00  0.00     0.078 C 
ENDROOT
BRANCH   1   8
ATOM      8  C1  UNL d   1      -3.223   0.280   0.137  0.00  0.00     0.053 C 
ATOM      9  C   UNL d   1      -3.494   0.868   1.513  0.00  0.00     0.018 C 
ENDBRANCH   1   8
TORSDOF 1
ENDMDL
