MODEL 1
REMARK minimizedAffinity -4.02781343
REMARK minimizedRMSD -1
REMARK  1 active torsions:
REMARK  status: ('A' for Active; 'I' for Inactive)
REMARK    1  A    between atoms: C1_2  and  C2_3 
ROOT
ATOM      1  C2  UNL d   1       1.318   0.518   0.229  0.00  0.00    -0.076 A 
ATOM      2  C3  UNL d   1       1.909   1.791   0.301  0.00  0.00     0.004 A 
ATOM      3  C4  UNL d   1       3.291   1.946   0.216  0.00  0.00    -0.003 A 
ATOM      4  C5  UNL d   1       4.105   0.830   0.057  0.00  0.00     0.000 A 
ATOM      5  C6  UNL d   1       3.535  -0.439  -0.034  0.00  0.00     0.000 A 
ATOM      6  C7  UNL d   1       2.141  -0.611   0.033  0.00  0.00    -0.073 A 
ATOM      7  C8  UNL d   1       1.580  -2.003  -0.065  0.00  0.00     0.078 C 
ENDROOT
BRANCH   1   8
ATOM      8  C1  UNL d   1      -0.185   0.409   0.355  0.00  0.00     0.053 C 
ATOM      9  C   UNL d   1      -0.910   1.579  -0.292  0.00  0.00     0.018 C 
ENDBRANCH   1   8
TORSDOF 1
ENDMDL
