MODEL 1
REMARK minimizedAffinity 4.98892403
REMARK minimizedRMSD -1
REMARK  0 active torsions:
REMARK  status: ('A' for Active; 'I' for Inactive)
ROOT
ATOM      1  C   UNL d   1       5.999  -4.433  -3.045  0.00  0.00     0.020 A 
ATOM      2  C1  UNL d   1       5.011  -3.551  -3.480  0.00  0.00     0.020 A 
ATOM      3  C2  UNL d   1       3.926  -3.255  -2.653  0.00  0.00     0.034 A 
ATOM      4  C3  UNL d   1       3.825  -3.842  -1.386  0.00  0.00     0.017 A 
ATOM      5  C4  UNL d   1       4.818  -4.727  -0.950  0.00  0.00     0.017 A 
ATOM      6  C5  UNL d   1       5.903  -5.020  -1.783  0.00  0.00     0.034 A 
ATOM      7 Cl   UNL d   1       4.763  -5.490   0.600  0.00  0.00    -0.070 Cl
ATOM      8 Cl1  UNL d   1       2.456  -3.430  -0.416  0.00  0.00    -0.070 Cl
ENDROOT
TORSDOF 0
ENDMDL
