MODEL 1
REMARK minimizedAffinity 4.85106945
REMARK minimizedRMSD -1
REMARK  0 active torsions:
REMARK  status: ('A' for Active; 'I' for Inactive)
ROOT
ATOM      1  C   UNL d   1      -0.567   4.737   0.027  0.00  0.00     0.020 A 
ATOM      2  C1  UNL d   1       0.297   4.396  -1.013  0.00  0.00     0.020 A 
ATOM      3  C2  UNL d   1       0.611   3.056  -1.249  0.00  0.00     0.034 A 
ATOM      4  C3  UNL d   1       0.062   2.052  -0.445  0.00  0.00     0.017 A 
ATOM      5  C4  UNL d   1      -0.806   2.394   0.599  0.00  0.00     0.017 A 
ATOM      6  C5  UNL d   1      -1.117   3.738   0.831  0.00  0.00     0.034 A 
ATOM      7 Cl   UNL d   1      -1.523   1.211   1.634  0.00  0.00    -0.070 Cl
ATOM      8 Cl1  UNL d   1       0.494   0.416  -0.794  0.00  0.00    -0.070 Cl
ENDROOT
TORSDOF 0
ENDMDL
