MODEL 1
REMARK minimizedAffinity -0.214006931
REMARK minimizedRMSD -1
REMARK  0 active torsions:
REMARK  status: ('A' for Active; 'I' for Inactive)
ROOT
ATOM      1  C   UNL d   1       0.149   4.327  -1.454  0.00  0.00     0.020 A 
ATOM      2  C1  UNL d   1      -0.660   4.652  -0.367  0.00  0.00     0.020 A 
ATOM      3  C2  UNL d   1      -1.085   3.653   0.511  0.00  0.00     0.034 A 
ATOM      4  C3  UNL d   1      -0.701   2.323   0.303  0.00  0.00     0.017 A 
ATOM      5  C4  UNL d   1       0.111   1.997  -0.789  0.00  0.00     0.017 A 
ATOM      6  C5  UNL d   1       0.534   3.002  -1.665  0.00  0.00     0.034 A 
ATOM      7 Cl   UNL d   1       0.626   0.379  -1.112  0.00  0.00    -0.070 Cl
ATOM      8 Cl1  UNL d   1      -1.262   1.139   1.429  0.00  0.00    -0.070 Cl
ENDROOT
TORSDOF 0
ENDMDL
