MODEL 1
REMARK minimizedAffinity 3.02699351
REMARK minimizedRMSD -1
REMARK  0 active torsions:
REMARK  status: ('A' for Active; 'I' for Inactive)
ROOT
ATOM      1  C   UNL d   1       1.174  -0.637  -1.551  0.00  0.00     0.020 A 
ATOM      2  C1  UNL d   1       0.105   0.020  -2.158  0.00  0.00     0.020 A 
ATOM      3  C2  UNL d   1      -0.734   0.838  -1.399  0.00  0.00     0.034 A 
ATOM      4  C3  UNL d   1      -0.505   1.001  -0.027  0.00  0.00     0.017 A 
ATOM      5  C4  UNL d   1       0.568   0.340   0.581  0.00  0.00     0.017 A 
ATOM      6  C5  UNL d   1       1.405  -0.477  -0.184  0.00  0.00     0.034 A 
ATOM      7 Cl   UNL d   1       0.913   0.492   2.268  0.00  0.00    -0.070 Cl
ATOM      8 Cl1  UNL d   1      -1.583   2.028   0.850  0.00  0.00    -0.070 Cl
ENDROOT
TORSDOF 0
ENDMDL
