MODEL 1
REMARK minimizedAffinity 0.0438575819
REMARK minimizedRMSD -1
REMARK  0 active torsions:
REMARK  status: ('A' for Active; 'I' for Inactive)
ROOT
ATOM      1  C   UNL d   1      -1.219   4.387   0.371  0.00  0.00     0.020 A 
ATOM      2  C1  UNL d   1      -0.178   4.395  -0.557  0.00  0.00     0.020 A 
ATOM      3  C2  UNL d   1       0.513   3.215  -0.841  0.00  0.00     0.034 A 
ATOM      4  C3  UNL d   1       0.164   2.023  -0.196  0.00  0.00     0.017 A 
ATOM      5  C4  UNL d   1      -0.880   2.016   0.735  0.00  0.00     0.017 A 
ATOM      6  C5  UNL d   1      -1.569   3.200   1.016  0.00  0.00     0.034 A 
ATOM      7 Cl   UNL d   1      -1.368   0.583   1.570  0.00  0.00    -0.070 Cl
ATOM      8 Cl1  UNL d   1       1.062   0.602  -0.597  0.00  0.00    -0.070 Cl
ENDROOT
TORSDOF 0
ENDMDL
