MODEL 1
REMARK minimizedAffinity 1.52396262
REMARK minimizedRMSD -1
REMARK  0 active torsions:
REMARK  status: ('A' for Active; 'I' for Inactive)
ROOT
ATOM      1  C   UNL d   1      -3.155   3.511   0.958  0.00  0.00     0.020 A 
ATOM      2  C1  UNL d   1      -1.957   3.814   0.313  0.00  0.00     0.020 A 
ATOM      3  C2  UNL d   1      -0.852   2.973   0.460  0.00  0.00     0.034 A 
ATOM      4  C3  UNL d   1      -0.943   1.826   1.256  0.00  0.00     0.017 A 
ATOM      5  C4  UNL d   1      -2.146   1.522   1.904  0.00  0.00     0.017 A 
ATOM      6  C5  UNL d   1      -3.249   2.368   1.752  0.00  0.00     0.034 A 
ATOM      7 Cl   UNL d   1      -2.334   0.124   2.902  0.00  0.00    -0.070 Cl
ATOM      8 Cl1  UNL d   1       0.463   0.831   1.394  0.00  0.00    -0.070 Cl
ENDROOT
TORSDOF 0
ENDMDL
