MODEL 1
REMARK minimizedAffinity 3.74418926
REMARK minimizedRMSD -1
REMARK  0 active torsions:
REMARK  status: ('A' for Active; 'I' for Inactive)
ROOT
ATOM      1  C   UNL d   1      -2.579   1.880   1.299  0.00  0.00     0.020 A 
ATOM      2  C1  UNL d   1      -1.464   2.581   0.840  0.00  0.00     0.020 A 
ATOM      3  C2  UNL d   1      -0.183   2.061   1.037  0.00  0.00     0.034 A 
ATOM      4  C3  UNL d   1      -0.014   0.837   1.695  0.00  0.00     0.017 A 
ATOM      5  C4  UNL d   1      -1.133   0.135   2.155  0.00  0.00     0.017 A 
ATOM      6  C5  UNL d   1      -2.414   0.660   1.955  0.00  0.00     0.034 A 
ATOM      7 Cl   UNL d   1      -1.004  -1.381   2.975  0.00  0.00    -0.070 Cl
ATOM      8 Cl1  UNL d   1       1.599   0.253   1.903  0.00  0.00    -0.070 Cl
ENDROOT
TORSDOF 0
ENDMDL
