MODEL 1
REMARK minimizedAffinity 3.00508046
REMARK minimizedRMSD -1
REMARK  0 active torsions:
REMARK  status: ('A' for Active; 'I' for Inactive)
ROOT
ATOM      1  C   UNL d   1      -1.120   1.851   1.172  0.00  0.00     0.020 A 
ATOM      2  C1  UNL d   1      -0.446   1.251   2.235  0.00  0.00     0.020 A 
ATOM      3  C2  UNL d   1       0.835   0.730   2.044  0.00  0.00     0.034 A 
ATOM      4  C3  UNL d   1       1.447   0.808   0.788  0.00  0.00     0.017 A 
ATOM      5  C4  UNL d   1       0.770   1.411  -0.279  0.00  0.00     0.017 A 
ATOM      6  C5  UNL d   1      -0.513   1.931  -0.082  0.00  0.00     0.034 A 
ATOM      7 Cl   UNL d   1       1.460   1.545  -1.858  0.00  0.00    -0.070 Cl
ATOM      8 Cl1  UNL d   1       3.034   0.143   0.624  0.00  0.00    -0.070 Cl
ENDROOT
TORSDOF 0
ENDMDL
