MODEL 1
REMARK minimizedAffinity 0.847284436
REMARK minimizedRMSD -1
REMARK  0 active torsions:
REMARK  status: ('A' for Active; 'I' for Inactive)
ROOT
ATOM      1  C   UNL d   1      -1.571   3.274   0.027  0.00  0.00     0.020 A 
ATOM      2  C1  UNL d   1      -2.771   3.131   0.722  0.00  0.00     0.020 A 
ATOM      3  C2  UNL d   1      -2.950   2.055   1.594  0.00  0.00     0.034 A 
ATOM      4  C3  UNL d   1      -1.926   1.118   1.774  0.00  0.00     0.017 A 
ATOM      5  C4  UNL d   1      -0.721   1.262   1.076  0.00  0.00     0.017 A 
ATOM      6  C5  UNL d   1      -0.548   2.341   0.204  0.00  0.00     0.034 A 
ATOM      7 Cl   UNL d   1       0.587   0.146   1.246  0.00  0.00    -0.070 Cl
ATOM      8 Cl1  UNL d   1      -2.216  -0.188   2.868  0.00  0.00    -0.070 Cl
ENDROOT
TORSDOF 0
ENDMDL
