MODEL 1
REMARK minimizedAffinity -2.03253675
REMARK minimizedRMSD -1
REMARK  0 active torsions:
REMARK  status: ('A' for Active; 'I' for Inactive)
ROOT
ATOM      1  C   UNL d   1      -1.955   3.859   0.087  0.00  0.00     0.020 A 
ATOM      2  C1  UNL d   1      -0.794   3.859  -0.685  0.00  0.00     0.020 A 
ATOM      3  C2  UNL d   1       0.095   2.784  -0.609  0.00  0.00     0.034 A 
ATOM      4  C3  UNL d   1      -0.176   1.705   0.240  0.00  0.00     0.017 A 
ATOM      5  C4  UNL d   1      -1.342   1.706   1.015  0.00  0.00     0.017 A 
ATOM      6  C5  UNL d   1      -2.228   2.785   0.935  0.00  0.00     0.034 A 
ATOM      7 Cl   UNL d   1      -1.744   0.411   2.086  0.00  0.00    -0.070 Cl
ATOM      8 Cl1  UNL d   1       0.966   0.410   0.283  0.00  0.00    -0.070 Cl
ENDROOT
TORSDOF 0
ENDMDL
