MODEL 1
REMARK minimizedAffinity 8.21313858
REMARK minimizedRMSD -1
REMARK  0 active torsions:
REMARK  status: ('A' for Active; 'I' for Inactive)
ROOT
ATOM      1  C   UNL d   1      -1.676   1.290   0.786  0.00  0.00     0.020 A 
ATOM      2  C1  UNL d   1      -1.862   2.504   1.445  0.00  0.00     0.020 A 
ATOM      3  C2  UNL d   1      -1.191   3.647   1.006  0.00  0.00     0.034 A 
ATOM      4  C3  UNL d   1      -0.330   3.578  -0.095  0.00  0.00     0.017 A 
ATOM      5  C4  UNL d   1      -0.144   2.359  -0.756  0.00  0.00     0.017 A 
ATOM      6  C5  UNL d   1      -0.818   1.217  -0.312  0.00  0.00     0.034 A 
ATOM      7 Cl   UNL d   1       0.902   2.195  -2.122  0.00  0.00    -0.070 Cl
ATOM      8 Cl1  UNL d   1       0.467   5.031  -0.584  0.00  0.00    -0.070 Cl
ENDROOT
TORSDOF 0
ENDMDL
