MODEL 1
REMARK minimizedAffinity 3.3842423
REMARK minimizedRMSD -1
REMARK  0 active torsions:
REMARK  status: ('A' for Active; 'I' for Inactive)
ROOT
ATOM      1  C   UNL d   1      -1.366   1.322   2.147  0.00  0.00     0.020 A 
ATOM      2  C1  UNL d   1      -0.709   0.141   1.806  0.00  0.00     0.020 A 
ATOM      3  C2  UNL d   1       0.097   0.094   0.666  0.00  0.00     0.034 A 
ATOM      4  C3  UNL d   1       0.247   1.231  -0.137  0.00  0.00     0.017 A 
ATOM      5  C4  UNL d   1      -0.414   2.416   0.206  0.00  0.00     0.017 A 
ATOM      6  C5  UNL d   1      -1.219   2.458   1.349  0.00  0.00     0.034 A 
ATOM      7 Cl   UNL d   1      -0.277   3.859  -0.735  0.00  0.00    -0.070 Cl
ATOM      8 Cl1  UNL d   1       1.258   1.102  -1.532  0.00  0.00    -0.070 Cl
ENDROOT
TORSDOF 0
ENDMDL
