MODEL 1
REMARK minimizedAffinity 5.09704685
REMARK minimizedRMSD -1
REMARK  0 active torsions:
REMARK  status: ('A' for Active; 'I' for Inactive)
ROOT
ATOM      1  C   UNL d   1      -0.197  -3.988   4.562  0.00  0.00     0.020 A 
ATOM      2  C1  UNL d   1      -0.904  -4.416   5.685  0.00  0.00     0.020 A 
ATOM      3  C2  UNL d   1      -2.133  -3.832   6.000  0.00  0.00     0.034 A 
ATOM      4  C3  UNL d   1      -2.659  -2.818   5.191  0.00  0.00     0.017 A 
ATOM      5  C4  UNL d   1      -1.948  -2.390   4.064  0.00  0.00     0.017 A 
ATOM      6  C5  UNL d   1      -0.718  -2.978   3.753  0.00  0.00     0.034 A 
ATOM      7 Cl   UNL d   1      -2.532  -1.144   3.018  0.00  0.00    -0.070 Cl
ATOM      8 Cl1  UNL d   1      -4.184  -2.141   5.640  0.00  0.00    -0.070 Cl
ENDROOT
TORSDOF 0
ENDMDL
