MODEL 1
REMARK minimizedAffinity 4.45593357
REMARK minimizedRMSD -1
REMARK  0 active torsions:
REMARK  status: ('A' for Active; 'I' for Inactive)
ROOT
ATOM      1  C   UNL d   1      -0.524   4.130  -1.006  0.00  0.00     0.020 A 
ATOM      2  C1  UNL d   1      -1.246   4.204   0.184  0.00  0.00     0.020 A 
ATOM      3  C2  UNL d   1      -1.395   3.067   0.982  0.00  0.00     0.034 A 
ATOM      4  C3  UNL d   1      -0.820   1.852   0.591  0.00  0.00     0.017 A 
ATOM      5  C4  UNL d   1      -0.095   1.780  -0.605  0.00  0.00     0.017 A 
ATOM      6  C5  UNL d   1       0.050   2.921  -1.400  0.00  0.00     0.034 A 
ATOM      7 Cl   UNL d   1       0.642   0.316  -1.153  0.00  0.00    -0.070 Cl
ATOM      8 Cl1  UNL d   1      -1.044   0.487   1.626  0.00  0.00    -0.070 Cl
ENDROOT
TORSDOF 0
ENDMDL
