MODEL 1
REMARK minimizedAffinity 7.03394461
REMARK minimizedRMSD -1
REMARK  0 active torsions:
REMARK  status: ('A' for Active; 'I' for Inactive)
ROOT
ATOM      1  C   UNL d   1      -1.151  -4.509   5.701  0.00  0.00     0.020 A 
ATOM      2  C1  UNL d   1      -0.402  -3.984   4.648  0.00  0.00     0.020 A 
ATOM      3  C2  UNL d   1      -0.907  -2.924   3.893  0.00  0.00     0.034 A 
ATOM      4  C3  UNL d   1      -2.164  -2.384   4.189  0.00  0.00     0.017 A 
ATOM      5  C4  UNL d   1      -2.915  -2.911   5.246  0.00  0.00     0.017 A 
ATOM      6  C5  UNL d   1      -2.404  -3.973   6.000  0.00  0.00     0.034 A 
ATOM      7 Cl   UNL d   1      -4.474  -2.298   5.672  0.00  0.00    -0.070 Cl
ATOM      8 Cl1  UNL d   1      -2.726  -1.074   3.214  0.00  0.00    -0.070 Cl
ENDROOT
TORSDOF 0
ENDMDL
