MODEL 1
REMARK minimizedAffinity 6.66674376
REMARK minimizedRMSD -1
REMARK  0 active torsions:
REMARK  status: ('A' for Active; 'I' for Inactive)
ROOT
ATOM      1  C   UNL d   1      -0.869   2.203   2.185  0.00  0.00     0.020 A 
ATOM      2  C1  UNL d   1      -0.039   1.572   3.112  0.00  0.00     0.020 A 
ATOM      3  C2  UNL d   1       1.013   0.766   2.672  0.00  0.00     0.034 A 
ATOM      4  C3  UNL d   1       1.239   0.589   1.302  0.00  0.00     0.017 A 
ATOM      5  C4  UNL d   1       0.406   1.222   0.373  0.00  0.00     0.017 A 
ATOM      6  C5  UNL d   1      -0.646   2.028   0.818  0.00  0.00     0.034 A 
ATOM      7 Cl   UNL d   1       0.623   1.051  -1.333  0.00  0.00    -0.070 Cl
ATOM      8 Cl1  UNL d   1       2.559  -0.421   0.830  0.00  0.00    -0.070 Cl
ENDROOT
TORSDOF 0
ENDMDL
