MODEL 1
REMARK minimizedAffinity 5.51992559
REMARK minimizedRMSD -1
REMARK  0 active torsions:
REMARK  status: ('A' for Active; 'I' for Inactive)
ROOT
ATOM      1  C   UNL d   1      -0.602   2.603   2.447  0.00  0.00     0.020 A 
ATOM      2  C1  UNL d   1      -1.226   2.975   1.256  0.00  0.00     0.020 A 
ATOM      3  C2  UNL d   1      -0.822   2.402   0.048  0.00  0.00     0.034 A 
ATOM      4  C3  UNL d   1       0.208   1.455   0.028  0.00  0.00     0.017 A 
ATOM      5  C4  UNL d   1       0.834   1.083   1.223  0.00  0.00     0.017 A 
ATOM      6  C5  UNL d   1       0.426   1.659   2.430  0.00  0.00     0.034 A 
ATOM      7 Cl   UNL d   1       2.112  -0.079   1.277  0.00  0.00    -0.070 Cl
ATOM      8 Cl1  UNL d   1       0.656   0.788  -1.502  0.00  0.00    -0.070 Cl
ENDROOT
TORSDOF 0
ENDMDL
