MODEL 1
REMARK minimizedAffinity 5.89752436
REMARK minimizedRMSD -1
REMARK  0 active torsions:
REMARK  status: ('A' for Active; 'I' for Inactive)
ROOT
ATOM      1  C   UNL d   1      -0.076   2.075   3.438  0.00  0.00     0.020 A 
ATOM      2  C1  UNL d   1      -1.068   2.427   2.524  0.00  0.00     0.020 A 
ATOM      3  C2  UNL d   1      -1.035   1.915   1.225  0.00  0.00     0.034 A 
ATOM      4  C3  UNL d   1      -0.007   1.047   0.837  0.00  0.00     0.017 A 
ATOM      5  C4  UNL d   1       0.988   0.694   1.755  0.00  0.00     0.017 A 
ATOM      6  C5  UNL d   1       0.950   1.210   3.054  0.00  0.00     0.034 A 
ATOM      7 Cl   UNL d   1       2.288  -0.371   1.350  0.00  0.00    -0.070 Cl
ATOM      8 Cl1  UNL d   1      -0.029   0.451  -0.785  0.00  0.00    -0.070 Cl
ENDROOT
TORSDOF 0
ENDMDL
