MODEL 1
REMARK minimizedAffinity 13.3813486
REMARK minimizedRMSD -1
REMARK  0 active torsions:
REMARK  status: ('A' for Active; 'I' for Inactive)
ROOT
ATOM      1  C   UNL d   1      -0.905   2.943   2.988  0.00  0.00     0.020 A 
ATOM      2  C1  UNL d   1       0.327   3.272   2.424  0.00  0.00     0.020 A 
ATOM      3  C2  UNL d   1       1.113   2.279   1.837  0.00  0.00     0.034 A 
ATOM      4  C3  UNL d   1       0.670   0.952   1.813  0.00  0.00     0.017 A 
ATOM      5  C4  UNL d   1      -0.567   0.622   2.379  0.00  0.00     0.017 A 
ATOM      6  C5  UNL d   1      -1.351   1.621   2.966  0.00  0.00     0.034 A 
ATOM      7 Cl   UNL d   1      -1.182  -0.993   2.388  0.00  0.00    -0.070 Cl
ATOM      8 Cl1  UNL d   1       1.694  -0.224   1.070  0.00  0.00    -0.070 Cl
ENDROOT
TORSDOF 0
ENDMDL
