MODEL 1
REMARK minimizedAffinity 2.19434977
REMARK minimizedRMSD -1
REMARK  0 active torsions:
REMARK  status: ('A' for Active; 'I' for Inactive)
ROOT
ATOM      1  C   UNL d   1       5.023  -2.515   5.998  0.00  0.00    -0.002 A 
ATOM      2  C1  UNL d   1       5.970  -2.079   5.082  0.00  0.00     0.010 A 
ATOM      3  C2  UNL d   1       5.578  -1.443   3.903  0.00  0.00     0.041 A 
ATOM      4  C3  UNL d   1       4.204  -1.250   3.657  0.00  0.00    -0.075 A 
ATOM      5  S   UNL d   1       3.490  -0.495   2.282  0.00  0.00     0.015 SA
ATOM      6  C4  UNL d   1       1.911  -0.733   2.877  0.00  0.00     0.022 A 
ATOM      7  C5  UNL d   1       1.910  -1.371   4.095  0.00  0.00     0.026 A 
ATOM      8  C6  UNL d   1       3.231  -1.679   4.565  0.00  0.00    -0.082 A 
ATOM      9  C7  UNL d   1       3.661  -2.321   5.751  0.00  0.00     0.045 A 
ENDROOT
TORSDOF 0
ENDMDL
