MODEL 1
REMARK minimizedAffinity 19.3190536
REMARK minimizedRMSD -1
REMARK  0 active torsions:
REMARK  status: ('A' for Active; 'I' for Inactive)
ROOT
ATOM      1  C   UNL d   1      -1.587  -1.141  -0.861  0.00  0.00    -0.002 A 
ATOM      2  C1  UNL d   1      -0.585  -1.995  -1.301  0.00  0.00     0.010 A 
ATOM      3  C2  UNL d   1       0.686  -1.953  -0.726  0.00  0.00     0.041 A 
ATOM      4  C3  UNL d   1       0.936  -1.031   0.309  0.00  0.00    -0.075 A 
ATOM      5  S   UNL d   1       2.417  -0.801   1.162  0.00  0.00     0.015 SA
ATOM      6  C4  UNL d   1       1.754   0.435   2.130  0.00  0.00     0.022 A 
ATOM      7  C5  UNL d   1       0.437   0.680   1.823  0.00  0.00     0.026 A 
ATOM      8  C6  UNL d   1      -0.057  -0.161   0.769  0.00  0.00    -0.082 A 
ATOM      9  C7  UNL d   1      -1.335  -0.227   0.166  0.00  0.00     0.045 A 
ENDROOT
TORSDOF 0
ENDMDL
