MODEL 1
REMARK minimizedAffinity 19.8664246
REMARK minimizedRMSD -1
REMARK  0 active torsions:
REMARK  status: ('A' for Active; 'I' for Inactive)
ROOT
ATOM      1  C   UNL d   1       3.686  -4.405   4.892  0.00  0.00    -0.002 A 
ATOM      2  C1  UNL d   1       3.501  -5.029   3.666  0.00  0.00     0.010 A 
ATOM      3  C2  UNL d   1       2.879  -4.356   2.613  0.00  0.00     0.041 A 
ATOM      4  C3  UNL d   1       2.443  -3.031   2.813  0.00  0.00    -0.075 A 
ATOM      5  S   UNL d   1       1.657  -2.011   1.667  0.00  0.00     0.015 SA
ATOM      6  C4  UNL d   1       1.549  -0.722   2.777  0.00  0.00     0.022 A 
ATOM      7  C5  UNL d   1       2.094  -1.045   3.997  0.00  0.00     0.026 A 
ATOM      8  C6  UNL d   1       2.619  -2.381   4.038  0.00  0.00    -0.082 A 
ATOM      9  C7  UNL d   1       3.252  -3.091   5.087  0.00  0.00     0.045 A 
ENDROOT
TORSDOF 0
ENDMDL
