MODEL 1
REMARK minimizedAffinity 19.4253712
REMARK minimizedRMSD -1
REMARK  0 active torsions:
REMARK  status: ('A' for Active; 'I' for Inactive)
ROOT
ATOM      1  C   UNL d   1       2.981  -1.656   3.093  0.00  0.00    -0.002 A 
ATOM      2  C1  UNL d   1       1.654  -1.319   3.318  0.00  0.00     0.010 A 
ATOM      3  C2  UNL d   1       0.751  -2.270   3.799  0.00  0.00     0.041 A 
ATOM      4  C3  UNL d   1       1.210  -3.577   4.055  0.00  0.00    -0.075 A 
ATOM      5  S   UNL d   1       0.285  -4.906   4.648  0.00  0.00     0.015 SA
ATOM      6  C4  UNL d   1       1.631  -5.952   4.618  0.00  0.00     0.022 A 
ATOM      7  C5  UNL d   1       2.766  -5.319   4.169  0.00  0.00     0.026 A 
ATOM      8  C6  UNL d   1       2.542  -3.940   3.837  0.00  0.00    -0.082 A 
ATOM      9  C7  UNL d   1       3.432  -2.954   3.348  0.00  0.00     0.045 A 
ENDROOT
TORSDOF 0
ENDMDL
