MODEL 1
REMARK minimizedAffinity 8.68466854
REMARK minimizedRMSD -1
REMARK  0 active torsions:
REMARK  status: ('A' for Active; 'I' for Inactive)
ROOT
ATOM      1  C   UNL d   1       2.213   1.107   3.905  0.00  0.00    -0.002 A 
ATOM      2  C1  UNL d   1       2.470   0.776   2.582  0.00  0.00     0.010 A 
ATOM      3  C2  UNL d   1       2.518  -0.560   2.180  0.00  0.00     0.041 A 
ATOM      4  C3  UNL d   1       2.300  -1.569   3.140  0.00  0.00    -0.075 A 
ATOM      5  S   UNL d   1       2.310  -3.273   2.878  0.00  0.00     0.015 SA
ATOM      6  C4  UNL d   1       1.973  -3.602   4.515  0.00  0.00     0.022 A 
ATOM      7  C5  UNL d   1       1.852  -2.452   5.258  0.00  0.00     0.026 A 
ATOM      8  C6  UNL d   1       2.038  -1.261   4.478  0.00  0.00    -0.082 A 
ATOM      9  C7  UNL d   1       1.997   0.104   4.854  0.00  0.00     0.045 A 
ENDROOT
TORSDOF 0
ENDMDL
