MODEL 1
REMARK minimizedAffinity 14.74331
REMARK minimizedRMSD -1
REMARK  0 active torsions:
REMARK  status: ('A' for Active; 'I' for Inactive)
ROOT
ATOM      1  C   UNL d   1       3.636  -1.117   2.230  0.00  0.00    -0.002 A 
ATOM      2  C1  UNL d   1       2.563  -1.192   3.107  0.00  0.00     0.010 A 
ATOM      3  C2  UNL d   1       1.617  -0.167   3.162  0.00  0.00     0.041 A 
ATOM      4  C3  UNL d   1       1.768   0.946   2.311  0.00  0.00    -0.075 A 
ATOM      5  S   UNL d   1       0.733   2.321   2.204  0.00  0.00     0.015 SA
ATOM      6  C4  UNL d   1       1.690   3.040   0.991  0.00  0.00     0.022 A 
ATOM      7  C5  UNL d   1       2.777   2.265   0.665  0.00  0.00     0.026 A 
ATOM      8  C6  UNL d   1       2.840   1.045   1.420  0.00  0.00    -0.082 A 
ATOM      9  C7  UNL d   1       3.782  -0.011   1.388  0.00  0.00     0.045 A 
ENDROOT
TORSDOF 0
ENDMDL
