MODEL 1
REMARK minimizedAffinity 13.4168024
REMARK minimizedRMSD -1
REMARK  0 active torsions:
REMARK  status: ('A' for Active; 'I' for Inactive)
ROOT
ATOM      1  C   UNL d   1      -5.246   2.541   1.897  0.00  0.00    -0.002 A 
ATOM      2  C1  UNL d   1      -3.889   2.254   1.881  0.00  0.00     0.010 A 
ATOM      3  C2  UNL d   1      -3.226   2.023   0.674  0.00  0.00     0.041 A 
ATOM      4  C3  UNL d   1      -3.956   2.090  -0.528  0.00  0.00    -0.075 A 
ATOM      5  S   UNL d   1      -3.354   1.845  -2.125  0.00  0.00     0.015 SA
ATOM      6  C4  UNL d   1      -4.885   2.117  -2.824  0.00  0.00     0.022 A 
ATOM      7  C5  UNL d   1      -5.843   2.389  -1.877  0.00  0.00     0.026 A 
ATOM      8  C6  UNL d   1      -5.324   2.378  -0.538  0.00  0.00    -0.082 A 
ATOM      9  C7  UNL d   1      -5.968   2.606   0.702  0.00  0.00     0.045 A 
ENDROOT
TORSDOF 0
ENDMDL
