MODEL 1
REMARK minimizedAffinity 6.35153675
REMARK minimizedRMSD -1
REMARK  0 active torsions:
REMARK  status: ('A' for Active; 'I' for Inactive)
ROOT
ATOM      1  C   UNL d   1       2.969  -5.990  -5.582  0.00  0.00    -0.002 A 
ATOM      2  C1  UNL d   1       4.340  -5.998  -5.374  0.00  0.00     0.010 A 
ATOM      3  C2  UNL d   1       4.862  -6.000  -4.079  0.00  0.00     0.041 A 
ATOM      4  C3  UNL d   1       3.973  -5.997  -2.986  0.00  0.00    -0.075 A 
ATOM      5  S   UNL d   1       4.384  -6.000  -1.311  0.00  0.00     0.015 SA
ATOM      6  C4  UNL d   1       2.748  -5.993  -0.833  0.00  0.00     0.022 A 
ATOM      7  C5  UNL d   1       1.896  -5.988  -1.912  0.00  0.00     0.026 A 
ATOM      8  C6  UNL d   1       2.587  -5.991  -3.170  0.00  0.00    -0.082 A 
ATOM      9  C7  UNL d   1       2.090  -5.987  -4.496  0.00  0.00     0.045 A 
ENDROOT
TORSDOF 0
ENDMDL
