MODEL 1
REMARK minimizedAffinity 12.9978352
REMARK minimizedRMSD -1
REMARK  0 active torsions:
REMARK  status: ('A' for Active; 'I' for Inactive)
ROOT
ATOM      1  C   UNL d   1       0.217  -1.385  -0.857  0.00  0.00    -0.002 A 
ATOM      2  C1  UNL d   1      -0.674  -0.980   0.126  0.00  0.00     0.010 A 
ATOM      3  C2  UNL d   1      -0.222  -0.675   1.412  0.00  0.00     0.041 A 
ATOM      4  C3  UNL d   1       1.154  -0.783   1.694  0.00  0.00    -0.075 A 
ATOM      5  S   UNL d   1       1.935  -0.460   3.197  0.00  0.00     0.015 SA
ATOM      6  C4  UNL d   1       3.470  -0.851   2.568  0.00  0.00     0.022 A 
ATOM      7  C5  UNL d   1       3.407  -1.222   1.245  0.00  0.00     0.026 A 
ATOM      8  C6  UNL d   1       2.071  -1.188   0.720  0.00  0.00    -0.082 A 
ATOM      9  C7  UNL d   1       1.581  -1.492  -0.573  0.00  0.00     0.045 A 
ENDROOT
TORSDOF 0
ENDMDL
