MODEL 1
REMARK minimizedAffinity -2.99315214
REMARK minimizedRMSD -1
REMARK  1 active torsions:
REMARK  status: ('A' for Active; 'I' for Inactive)
REMARK    1  A    between atoms: C1_2  and  C2_3 
ROOT
ATOM      1  C2  UNL d   1      -1.456   0.439  -0.200  0.00  0.00    -0.081 A 
ATOM      2  C3  UNL d   1      -1.344  -0.884  -0.642  0.00  0.00     0.006 A 
ATOM      3  C4  UNL d   1      -0.091  -1.493  -0.748  0.00  0.00     0.002 A 
ATOM      4  C5  UNL d   1       1.070  -0.791  -0.406  0.00  0.00    -0.080 A 
ATOM      5  C6  UNL d   1       2.418  -1.442  -0.486  0.00  0.00     0.076 C 
ATOM      6  C7  UNL d   1       0.960   0.537   0.020  0.00  0.00     0.002 A 
ATOM      7  C8  UNL d   1      -0.293   1.146   0.125  0.00  0.00     0.006 A 
ENDROOT
BRANCH   1   8
ATOM      8  C1  UNL d   1      -2.810   1.077  -0.023  0.00  0.00     0.054 C 
ATOM      9  C   UNL d   1      -3.187   1.177   1.448  0.00  0.00     0.018 C 
ENDBRANCH   1   8
TORSDOF 1
ENDMDL
