MODEL 1
REMARK minimizedAffinity -2.16146517
REMARK minimizedRMSD -1
REMARK  1 active torsions:
REMARK  status: ('A' for Active; 'I' for Inactive)
REMARK    1  A    between atoms: C1_2  and  C2_3 
ROOT
ATOM      1  C2  UNL d   1       1.202   0.350  -0.142  0.00  0.00    -0.081 A 
ATOM      2  C3  UNL d   1       2.114  -0.634  -0.543  0.00  0.00     0.006 A 
ATOM      3  C4  UNL d   1       1.698  -1.956  -0.720  0.00  0.00     0.002 A 
ATOM      4  C5  UNL d   1       0.362  -2.314  -0.507  0.00  0.00    -0.080 A 
ATOM      5  C6  UNL d   1      -0.104  -3.723  -0.723  0.00  0.00     0.076 C 
ATOM      6  C7  UNL d   1      -0.545  -1.335  -0.090  0.00  0.00     0.002 A 
ATOM      7  C8  UNL d   1      -0.130  -0.013   0.088  0.00  0.00     0.006 A 
ENDROOT
BRANCH   1   8
ATOM      8  C1  UNL d   1       1.634   1.788  -0.013  0.00  0.00     0.054 C 
ATOM      9  C   UNL d   1       3.151   1.913  -0.019  0.00  0.00     0.018 C 
ENDBRANCH   1   8
TORSDOF 1
ENDMDL
