MODEL 1
REMARK minimizedAffinity -0.61764729
REMARK minimizedRMSD -1
REMARK  1 active torsions:
REMARK  status: ('A' for Active; 'I' for Inactive)
REMARK    1  A    between atoms: C1_2  and  C2_3 
ROOT
ATOM      1  C2  UNL d   1      -1.139   0.106  -0.632  0.00  0.00    -0.081 A 
ATOM      2  C3  UNL d   1      -0.838  -1.184  -1.086  0.00  0.00     0.006 A 
ATOM      3  C4  UNL d   1       0.455  -1.697  -0.956  0.00  0.00     0.002 A 
ATOM      4  C5  UNL d   1       1.465  -0.933  -0.362  0.00  0.00    -0.080 A 
ATOM      5  C6  UNL d   1       2.849  -1.484  -0.188  0.00  0.00     0.076 C 
ATOM      6  C7  UNL d   1       1.169   0.362   0.077  0.00  0.00     0.002 A 
ATOM      7  C8  UNL d   1      -0.123   0.876  -0.054  0.00  0.00     0.006 A 
ENDROOT
BRANCH   1   8
ATOM      8  C1  UNL d   1      -2.547   0.638  -0.712  0.00  0.00     0.054 C 
ATOM      9  C   UNL d   1      -3.302   0.404   0.588  0.00  0.00     0.018 C 
ENDBRANCH   1   8
TORSDOF 1
ENDMDL
