MODEL 1
REMARK minimizedAffinity -4.30563736
REMARK minimizedRMSD -1
REMARK  1 active torsions:
REMARK  status: ('A' for Active; 'I' for Inactive)
REMARK    1  A    between atoms: C1_2  and  C2_3 
ROOT
ATOM      1  C2  UNL d   1      -0.863   0.516  -0.734  0.00  0.00    -0.081 A 
ATOM      2  C3  UNL d   1      -0.701  -0.700  -1.409  0.00  0.00     0.006 A 
ATOM      3  C4  UNL d   1       0.433  -1.485  -1.190  0.00  0.00     0.002 A 
ATOM      4  C5  UNL d   1       1.419  -1.072  -0.288  0.00  0.00    -0.080 A 
ATOM      5  C6  UNL d   1       2.627  -1.921  -0.020  0.00  0.00     0.076 C 
ATOM      6  C7  UNL d   1       1.266   0.151   0.373  0.00  0.00     0.002 A 
ATOM      7  C8  UNL d   1       0.132   0.937   0.154  0.00  0.00     0.006 A 
ENDROOT
BRANCH   1   8
ATOM      8  C1  UNL d   1      -2.115   1.335  -0.920  0.00  0.00     0.054 C 
ATOM      9  C   UNL d   1      -3.061   1.176   0.262  0.00  0.00     0.018 C 
ENDBRANCH   1   8
TORSDOF 1
ENDMDL
