MODEL 1
REMARK minimizedAffinity 12.5597029
REMARK minimizedRMSD -1
REMARK  2 active torsions:
REMARK  status: ('A' for Active; 'I' for Inactive)
REMARK    1  A    between atoms: C1_2  and  C2_3 
REMARK    2  A    between atoms: C2_3  and  C3_4 
ROOT
ATOM      1  C3  UNL d   1       2.483   0.427   1.351  0.00  0.00    -0.075 A 
ATOM      2  C4  UNL d   1       2.474   1.489   0.435  0.00  0.00     0.002 A 
ATOM      3  C5  UNL d   1       1.473   2.459   0.485  0.00  0.00     0.002 A 
ATOM      4  C6  UNL d   1       0.464   2.375   1.442  0.00  0.00    -0.004 A 
ATOM      5  C7  UNL d   1       0.453   1.315   2.346  0.00  0.00     0.002 A 
ATOM      6  C8  UNL d   1       1.456   0.345   2.301  0.00  0.00     0.002 A 
ENDROOT
BRANCH   1   7
ATOM      7  C2  UNL d   1       3.580  -0.610   1.321  0.00  0.00     0.056 C 
BRANCH   7   8
ATOM      8  C1  UNL d   1       4.354  -0.737   2.637  0.00  0.00     0.007 C 
ATOM      9  C   UNL d   1       5.851  -0.503   2.478  0.00  0.00     0.009 C 
ENDBRANCH   7   8
ENDBRANCH   1   7
TORSDOF 2
ENDMDL
