MODEL 1
REMARK minimizedAffinity 11.571497
REMARK minimizedRMSD -1
REMARK  2 active torsions:
REMARK  status: ('A' for Active; 'I' for Inactive)
REMARK    1  A    between atoms: C1_2  and  C2_3 
REMARK    2  A    between atoms: C2_3  and  C3_4 
ROOT
ATOM      1  C3  UNL d   1      -2.929  -2.852  -1.541  0.00  0.00    -0.075 A 
ATOM      2  C4  UNL d   1      -2.613  -2.524  -2.868  0.00  0.00     0.002 A 
ATOM      3  C5  UNL d   1      -3.389  -3.007  -3.921  0.00  0.00     0.002 A 
ATOM      4  C6  UNL d   1      -4.483  -3.831  -3.664  0.00  0.00    -0.004 A 
ATOM      5  C7  UNL d   1      -4.796  -4.177  -2.352  0.00  0.00     0.002 A 
ATOM      6  C8  UNL d   1      -4.024  -3.691  -1.295  0.00  0.00     0.002 A 
ENDROOT
BRANCH   1   7
ATOM      7  C2  UNL d   1      -2.111  -2.309  -0.395  0.00  0.00     0.056 C 
BRANCH   7   8
ATOM      8  C1  UNL d   1      -1.109  -3.312   0.187  0.00  0.00     0.007 C 
ATOM      9  C   UNL d   1      -1.549  -3.892   1.525  0.00  0.00     0.009 C 
ENDBRANCH   7   8
ENDBRANCH   1   7
TORSDOF 2
ENDMDL
