MODEL 1
REMARK minimizedAffinity 16.2887344
REMARK minimizedRMSD -1
REMARK  2 active torsions:
REMARK  status: ('A' for Active; 'I' for Inactive)
REMARK    1  A    between atoms: C1_2  and  C2_3 
REMARK    2  A    between atoms: C2_3  and  C3_4 
ROOT
ATOM      1  C3  UNL d   1       3.774   3.599  -0.066  0.00  0.00    -0.075 A 
ATOM      2  C4  UNL d   1       4.304   3.621  -1.365  0.00  0.00     0.002 A 
ATOM      3  C5  UNL d   1       4.766   4.814  -1.921  0.00  0.00     0.002 A 
ATOM      4  C6  UNL d   1       4.695   5.999  -1.192  0.00  0.00    -0.004 A 
ATOM      5  C7  UNL d   1       4.156   5.992   0.093  0.00  0.00     0.002 A 
ATOM      6  C8  UNL d   1       3.697   4.798   0.653  0.00  0.00     0.002 A 
ENDROOT
BRANCH   1   7
ATOM      7  C2  UNL d   1       3.300   2.305   0.552  0.00  0.00     0.056 C 
BRANCH   7   8
ATOM      8  C1  UNL d   1       1.857   1.935   0.193  0.00  0.00     0.007 C 
ATOM      9  C   UNL d   1       1.139   1.174   1.300  0.00  0.00     0.009 C 
ENDBRANCH   7   8
ENDBRANCH   1   7
TORSDOF 2
ENDMDL
