MODEL 1
REMARK minimizedAffinity 5.9578414
REMARK minimizedRMSD -1
REMARK  2 active torsions:
REMARK  status: ('A' for Active; 'I' for Inactive)
REMARK    1  A    between atoms: C1_2  and  C2_3 
REMARK    2  A    between atoms: C2_3  and  C3_4 
ROOT
ATOM      1  C3  UNL d   1       2.822   0.926   0.464  0.00  0.00    -0.075 A 
ATOM      2  C4  UNL d   1       4.105   0.444   0.762  0.00  0.00     0.002 A 
ATOM      3  C5  UNL d   1       4.477   0.186   2.082  0.00  0.00     0.002 A 
ATOM      4  C6  UNL d   1       3.576   0.416   3.119  0.00  0.00    -0.004 A 
ATOM      5  C7  UNL d   1       2.305   0.911   2.837  0.00  0.00     0.002 A 
ATOM      6  C8  UNL d   1       1.929   1.166   1.517  0.00  0.00     0.002 A 
ENDROOT
BRANCH   1   7
ATOM      7  C2  UNL d   1       2.404   1.180  -0.965  0.00  0.00     0.056 C 
BRANCH   7   8
ATOM      8  C1  UNL d   1       0.907   0.981  -1.221  0.00  0.00     0.007 C 
ATOM      9  C   UNL d   1       0.352   1.914  -2.289  0.00  0.00     0.009 C 
ENDBRANCH   7   8
ENDBRANCH   1   7
TORSDOF 2
ENDMDL
