MODEL 1
REMARK minimizedAffinity 19.4826927
REMARK minimizedRMSD -1
REMARK  2 active torsions:
REMARK  status: ('A' for Active; 'I' for Inactive)
REMARK    1  A    between atoms: C1_2  and  C2_3 
REMARK    2  A    between atoms: C2_3  and  C3_4 
ROOT
ATOM      1  C3  UNL d   1       2.355   1.223   1.909  0.00  0.00    -0.075 A 
ATOM      2  C4  UNL d   1       3.313   0.536   2.668  0.00  0.00     0.002 A 
ATOM      3  C5  UNL d   1       4.549   0.201   2.115  0.00  0.00     0.002 A 
ATOM      4  C6  UNL d   1       4.839   0.539   0.795  0.00  0.00    -0.004 A 
ATOM      5  C7  UNL d   1       3.889   1.207   0.026  0.00  0.00     0.002 A 
ATOM      6  C8  UNL d   1       2.653   1.548   0.579  0.00  0.00     0.002 A 
ENDROOT
BRANCH   1   7
ATOM      7  C2  UNL d   1       1.027   1.615   2.511  0.00  0.00     0.056 C 
BRANCH   7   8
ATOM      8  C1  UNL d   1       0.455   0.580   3.486  0.00  0.00     0.007 C 
ATOM      9  C   UNL d   1       0.656   0.957   4.948  0.00  0.00     0.009 C 
ENDBRANCH   7   8
ENDBRANCH   1   7
TORSDOF 2
ENDMDL
