MODEL 1
REMARK minimizedAffinity 9.24709606
REMARK minimizedRMSD -1
REMARK  2 active torsions:
REMARK  status: ('A' for Active; 'I' for Inactive)
REMARK    1  A    between atoms: C1_2  and  C2_3 
REMARK    2  A    between atoms: C2_3  and  C3_4 
ROOT
ATOM      1  C3  UNL d   1       1.597   2.320   1.367  0.00  0.00    -0.075 A 
ATOM      2  C4  UNL d   1       0.779   2.156   2.494  0.00  0.00     0.002 A 
ATOM      3  C5  UNL d   1       0.828   0.977   3.239  0.00  0.00     0.002 A 
ATOM      4  C6  UNL d   1       1.685  -0.054   2.862  0.00  0.00    -0.004 A 
ATOM      5  C7  UNL d   1       2.490   0.092   1.734  0.00  0.00     0.002 A 
ATOM      6  C8  UNL d   1       2.447   1.272   0.989  0.00  0.00     0.002 A 
ENDROOT
BRANCH   1   7
ATOM      7  C2  UNL d   1       1.570   3.604   0.573  0.00  0.00     0.056 C 
BRANCH   7   8
ATOM      8  C1  UNL d   1       0.335   4.473   0.833  0.00  0.00     0.007 C 
ATOM      9  C   UNL d   1      -0.709   4.379  -0.272  0.00  0.00     0.009 C 
ENDBRANCH   7   8
ENDBRANCH   1   7
TORSDOF 2
ENDMDL
