MODEL 1
REMARK minimizedAffinity 5.95475388
REMARK minimizedRMSD -1
REMARK  2 active torsions:
REMARK  status: ('A' for Active; 'I' for Inactive)
REMARK    1  A    between atoms: C1_2  and  C2_3 
REMARK    2  A    between atoms: C2_3  and  C3_4 
ROOT
ATOM      1  C3  UNL d   1      -3.637  -4.022  -2.445  0.00  0.00    -0.075 A 
ATOM      2  C4  UNL d   1      -4.564  -3.510  -3.365  0.00  0.00     0.002 A 
ATOM      3  C5  UNL d   1      -5.719  -4.226  -3.679  0.00  0.00     0.002 A 
ATOM      4  C6  UNL d   1      -5.957  -5.464  -3.087  0.00  0.00    -0.004 A 
ATOM      5  C7  UNL d   1      -5.035  -5.990  -2.184  0.00  0.00     0.002 A 
ATOM      6  C8  UNL d   1      -3.880  -5.273  -1.865  0.00  0.00     0.002 A 
ENDROOT
BRANCH   1   7
ATOM      7  C2  UNL d   1      -2.399  -3.238  -2.079  0.00  0.00     0.056 C 
BRANCH   7   8
ATOM      8  C1  UNL d   1      -2.430  -2.648  -0.665  0.00  0.00     0.007 C 
ATOM      9  C   UNL d   1      -1.078  -2.697   0.035  0.00  0.00     0.009 C 
ENDBRANCH   7   8
ENDBRANCH   1   7
TORSDOF 2
ENDMDL
