MODEL 1
REMARK minimizedAffinity 16.0122776
REMARK minimizedRMSD -1
REMARK  2 active torsions:
REMARK  status: ('A' for Active; 'I' for Inactive)
REMARK    1  A    between atoms: C1_2  and  C2_3 
REMARK    2  A    between atoms: C2_3  and  C3_4 
ROOT
ATOM      1  C3  UNL d   1       4.006   0.612  -4.852  0.00  0.00    -0.075 A 
ATOM      2  C4  UNL d   1       4.806   0.378  -3.724  0.00  0.00     0.002 A 
ATOM      3  C5  UNL d   1       5.046   1.397  -2.802  0.00  0.00     0.002 A 
ATOM      4  C6  UNL d   1       4.499   2.663  -3.000  0.00  0.00    -0.004 A 
ATOM      5  C7  UNL d   1       3.717   2.911  -4.126  0.00  0.00     0.002 A 
ATOM      6  C8  UNL d   1       3.472   1.892  -5.048  0.00  0.00     0.002 A 
ENDROOT
BRANCH   1   7
ATOM      7  C2  UNL d   1       3.719  -0.495  -5.838  0.00  0.00     0.056 C 
BRANCH   7   8
ATOM      8  C1  UNL d   1       3.073  -1.736  -5.212  0.00  0.00     0.007 C 
ATOM      9  C   UNL d   1       1.875  -2.250  -5.999  0.00  0.00     0.009 C 
ENDBRANCH   7   8
ENDBRANCH   1   7
TORSDOF 2
ENDMDL
