MODEL 1
REMARK minimizedAffinity 1.15238929
REMARK minimizedRMSD -1
REMARK  2 active torsions:
REMARK  status: ('A' for Active; 'I' for Inactive)
REMARK    1  A    between atoms: C1_2  and  C2_3 
REMARK    2  A    between atoms: C2_3  and  C3_4 
ROOT
ATOM      1  C3  UNL d   1       3.258   3.326  -5.148  0.00  0.00    -0.075 A 
ATOM      2  C4  UNL d   1       3.795   4.303  -5.999  0.00  0.00     0.002 A 
ATOM      3  C5  UNL d   1       3.385   5.633  -5.898  0.00  0.00     0.002 A 
ATOM      4  C6  UNL d   1       2.428   6.000  -4.954  0.00  0.00    -0.004 A 
ATOM      5  C7  UNL d   1       1.877   5.035  -4.114  0.00  0.00     0.002 A 
ATOM      6  C8  UNL d   1       2.288   3.704  -4.210  0.00  0.00     0.002 A 
ENDROOT
BRANCH   1   7
ATOM      7  C2  UNL d   1       3.719   1.890  -5.233  0.00  0.00     0.056 C 
BRANCH   7   8
ATOM      8  C1  UNL d   1       4.901   1.560  -4.315  0.00  0.00     0.007 C 
ATOM      9  C   UNL d   1       4.820   2.248  -2.959  0.00  0.00     0.009 C 
ENDBRANCH   7   8
ENDBRANCH   1   7
TORSDOF 2
ENDMDL
