MODEL 1
REMARK minimizedAffinity 14.2326088
REMARK minimizedRMSD -1
REMARK  2 active torsions:
REMARK  status: ('A' for Active; 'I' for Inactive)
REMARK    1  A    between atoms: C1_2  and  C2_3 
REMARK    2  A    between atoms: C2_3  and  C3_4 
ROOT
ATOM      1  C3  UNL d   1       2.374   2.085  -1.245  0.00  0.00    -0.075 A 
ATOM      2  C4  UNL d   1       1.459   2.562  -2.195  0.00  0.00     0.002 A 
ATOM      3  C5  UNL d   1       1.760   2.512  -3.556  0.00  0.00     0.002 A 
ATOM      4  C6  UNL d   1       2.981   1.996  -3.984  0.00  0.00    -0.004 A 
ATOM      5  C7  UNL d   1       3.905   1.535  -3.048  0.00  0.00     0.002 A 
ATOM      6  C8  UNL d   1       3.604   1.579  -1.685  0.00  0.00     0.002 A 
ENDROOT
BRANCH   1   7
ATOM      7  C2  UNL d   1       2.042   2.109   0.228  0.00  0.00     0.056 C 
BRANCH   7   8
ATOM      8  C1  UNL d   1       2.238   3.477   0.890  0.00  0.00     0.007 C 
ATOM      9  C   UNL d   1       0.986   3.993   1.586  0.00  0.00     0.009 C 
ENDBRANCH   7   8
ENDBRANCH   1   7
TORSDOF 2
ENDMDL
