MODEL 1
REMARK minimizedAffinity 10.4591255
REMARK minimizedRMSD -1
REMARK  2 active torsions:
REMARK  status: ('A' for Active; 'I' for Inactive)
REMARK    1  A    between atoms: C1_2  and  C2_3 
REMARK    2  A    between atoms: C2_3  and  C3_4 
ROOT
ATOM      1  C3  UNL d   1       2.919   3.497  -5.285  0.00  0.00    -0.075 A 
ATOM      2  C4  UNL d   1       3.410   2.395  -6.000  0.00  0.00     0.002 A 
ATOM      3  C5  UNL d   1       4.049   1.348  -5.335  0.00  0.00     0.002 A 
ATOM      4  C6  UNL d   1       4.213   1.393  -3.953  0.00  0.00    -0.004 A 
ATOM      5  C7  UNL d   1       3.744   2.491  -3.235  0.00  0.00     0.002 A 
ATOM      6  C8  UNL d   1       3.101   3.539  -3.896  0.00  0.00     0.002 A 
ENDROOT
BRANCH   1   7
ATOM      7  C2  UNL d   1       2.201   4.620  -5.995  0.00  0.00     0.056 C 
BRANCH   7   8
ATOM      8  C1  UNL d   1       2.838   5.998  -5.788  0.00  0.00     0.007 C 
ATOM      9  C   UNL d   1       4.347   5.999  -5.997  0.00  0.00     0.009 C 
ENDBRANCH   7   8
ENDBRANCH   1   7
TORSDOF 2
ENDMDL
