MODEL 1
REMARK minimizedAffinity 4.96599197
REMARK minimizedRMSD -1
REMARK  2 active torsions:
REMARK  status: ('A' for Active; 'I' for Inactive)
REMARK    1  A    between atoms: C1_2  and  C2_3 
REMARK    2  A    between atoms: C2_3  and  C3_4 
ROOT
ATOM      1  C3  UNL d   1      -3.592  -3.948  -2.131  0.00  0.00    -0.075 A 
ATOM      2  C4  UNL d   1      -4.531  -3.515  -3.078  0.00  0.00     0.002 A 
ATOM      3  C5  UNL d   1      -5.630  -4.312  -3.400  0.00  0.00     0.002 A 
ATOM      4  C6  UNL d   1      -5.798  -5.553  -2.790  0.00  0.00    -0.004 A 
ATOM      5  C7  UNL d   1      -4.862  -6.000  -1.860  0.00  0.00     0.002 A 
ATOM      6  C8  UNL d   1      -3.764  -5.203  -1.532  0.00  0.00     0.002 A 
ENDROOT
BRANCH   1   7
ATOM      7  C2  UNL d   1      -2.416  -3.078  -1.755  0.00  0.00     0.056 C 
BRANCH   7   8
ATOM      8  C1  UNL d   1      -2.623  -2.270  -0.470  0.00  0.00     0.007 C 
ATOM      9  C   UNL d   1      -1.875  -2.843   0.726  0.00  0.00     0.009 C 
ENDBRANCH   7   8
ENDBRANCH   1   7
TORSDOF 2
ENDMDL
