MODEL 1
REMARK minimizedAffinity 8.89325619
REMARK minimizedRMSD -1
REMARK  2 active torsions:
REMARK  status: ('A' for Active; 'I' for Inactive)
REMARK    1  A    between atoms: C1_2  and  C2_3 
REMARK    2  A    between atoms: C2_3  and  C3_4 
ROOT
ATOM      1  C3  UNL d   1      -0.558  -3.997  -4.600  0.00  0.00    -0.075 A 
ATOM      2  C4  UNL d   1      -1.155  -3.848  -5.861  0.00  0.00     0.002 A 
ATOM      3  C5  UNL d   1      -2.387  -3.207  -5.989  0.00  0.00     0.002 A 
ATOM      4  C6  UNL d   1      -3.041  -2.716  -4.861  0.00  0.00    -0.004 A 
ATOM      5  C7  UNL d   1      -2.465  -2.873  -3.603  0.00  0.00     0.002 A 
ATOM      6  C8  UNL d   1      -1.230  -3.511  -3.472  0.00  0.00     0.002 A 
ENDROOT
BRANCH   1   7
ATOM      7  C2  UNL d   1       0.789  -4.664  -4.458  0.00  0.00     0.056 C 
BRANCH   7   8
ATOM      8  C1  UNL d   1       1.907  -3.721  -4.000  0.00  0.00     0.007 C 
ATOM      9  C   UNL d   1       2.647  -3.061  -5.156  0.00  0.00     0.009 C 
ENDBRANCH   7   8
ENDBRANCH   1   7
TORSDOF 2
ENDMDL
