MODEL 1
REMARK minimizedAffinity 4.49644756
REMARK minimizedRMSD -1
REMARK  2 active torsions:
REMARK  status: ('A' for Active; 'I' for Inactive)
REMARK    1  A    between atoms: C1_2  and  C2_3 
REMARK    2  A    between atoms: C2_3  and  C3_4 
ROOT
ATOM      1  C3  UNL d   1      -3.966   1.428   3.710  0.00  0.00    -0.075 A 
ATOM      2  C4  UNL d   1      -3.666   0.106   3.348  0.00  0.00     0.002 A 
ATOM      3  C5  UNL d   1      -2.552  -0.176   2.558  0.00  0.00     0.002 A 
ATOM      4  C6  UNL d   1      -1.730   0.857   2.112  0.00  0.00    -0.004 A 
ATOM      5  C7  UNL d   1      -2.027   2.175   2.452  0.00  0.00     0.002 A 
ATOM      6  C8  UNL d   1      -3.140   2.460   3.247  0.00  0.00     0.002 A 
ENDROOT
BRANCH   1   7
ATOM      7  C2  UNL d   1      -5.154   1.737   4.590  0.00  0.00     0.056 C 
BRANCH   7   8
ATOM      8  C1  UNL d   1      -4.850   2.720   5.725  0.00  0.00     0.007 C 
ATOM      9  C   UNL d   1      -5.553   4.061   5.562  0.00  0.00     0.009 C 
ENDBRANCH   7   8
ENDBRANCH   1   7
TORSDOF 2
ENDMDL
