MODEL 1
REMARK minimizedAffinity 12.5436544
REMARK minimizedRMSD -1
REMARK  1 active torsions:
REMARK  status: ('A' for Active; 'I' for Inactive)
REMARK    1  A    between atoms: C1_2  and  C2_3 
ROOT
ATOM      1  C2  UNL d   1      -4.897  -1.806  -4.889  0.00  0.00    -0.081 A 
ATOM      2  C3  UNL d   1      -5.960  -2.619  -4.480  0.00  0.00     0.006 A 
ATOM      3  C4  UNL d   1      -5.986  -3.974  -4.818  0.00  0.00     0.002 A 
ATOM      4  C5  UNL d   1      -4.946  -4.540  -5.564  0.00  0.00    -0.080 A 
ATOM      5  C6  UNL d   1      -4.947  -6.000  -5.908  0.00  0.00     0.076 C 
ATOM      6  C7  UNL d   1      -3.893  -3.723  -5.988  0.00  0.00     0.002 A 
ATOM      7  C8  UNL d   1      -3.867  -2.368  -5.651  0.00  0.00     0.006 A 
ENDROOT
BRANCH   1   8
ATOM      8  C1  UNL d   1      -4.834  -0.359  -4.471  0.00  0.00     0.054 C 
ATOM      9  C   UNL d   1      -3.495   0.265  -4.838  0.00  0.00     0.018 C 
ENDBRANCH   1   8
TORSDOF 1
ENDMDL
