MODEL 1
REMARK minimizedAffinity 17.0700989
REMARK minimizedRMSD -1
REMARK  1 active torsions:
REMARK  status: ('A' for Active; 'I' for Inactive)
REMARK    1  A    between atoms: C1_2  and  C2_3 
ROOT
ATOM      1  C2  UNL d   1       2.409  -0.490  -4.488  0.00  0.00    -0.081 A 
ATOM      2  C3  UNL d   1       2.738   0.854  -4.702  0.00  0.00     0.006 A 
ATOM      3  C4  UNL d   1       2.407   1.824  -3.753  0.00  0.00     0.002 A 
ATOM      4  C5  UNL d   1       1.750   1.466  -2.571  0.00  0.00    -0.080 A 
ATOM      5  C6  UNL d   1       1.416   2.493  -1.530  0.00  0.00     0.076 C 
ATOM      6  C7  UNL d   1       1.406   0.125  -2.365  0.00  0.00     0.002 A 
ATOM      7  C8  UNL d   1       1.736  -0.845  -3.314  0.00  0.00     0.006 A 
ENDROOT
BRANCH   1   8
ATOM      8  C1  UNL d   1       2.822  -1.547  -5.480  0.00  0.00     0.054 C 
ATOM      9  C   UNL d   1       4.335  -1.597  -5.637  0.00  0.00     0.018 C 
ENDBRANCH   1   8
TORSDOF 1
ENDMDL
