MODEL 1
REMARK minimizedAffinity 12.5870199
REMARK minimizedRMSD -1
REMARK  1 active torsions:
REMARK  status: ('A' for Active; 'I' for Inactive)
REMARK    1  A    between atoms: C1_2  and  C2_3 
ROOT
ATOM      1  C2  UNL d   1       2.450   0.854  -4.549  0.00  0.00    -0.081 A 
ATOM      2  C3  UNL d   1       2.661  -0.439  -4.054  0.00  0.00     0.006 A 
ATOM      3  C4  UNL d   1       1.887  -1.508  -4.512  0.00  0.00     0.002 A 
ATOM      4  C5  UNL d   1       0.895  -1.303  -5.478  0.00  0.00    -0.080 A 
ATOM      5  C6  UNL d   1       0.077  -2.447  -6.000  0.00  0.00     0.076 C 
ATOM      6  C7  UNL d   1       0.673  -0.009  -5.960  0.00  0.00     0.002 A 
ATOM      7  C8  UNL d   1       1.446   1.060  -5.502  0.00  0.00     0.006 A 
ENDROOT
BRANCH   1   8
ATOM      8  C1  UNL d   1       3.327   1.997  -4.105  0.00  0.00     0.054 C 
ATOM      9  C   UNL d   1       4.047   2.633  -5.286  0.00  0.00     0.018 C 
ENDBRANCH   1   8
TORSDOF 1
ENDMDL
