MODEL 1
REMARK minimizedAffinity 10.8669252
REMARK minimizedRMSD -1
REMARK  1 active torsions:
REMARK  status: ('A' for Active; 'I' for Inactive)
REMARK    1  A    between atoms: C1_2  and  C2_3 
ROOT
ATOM      1  C2  UNL d   1      -3.813  -4.460  -5.440  0.00  0.00    -0.081 A 
ATOM      2  C3  UNL d   1      -3.342  -3.148  -5.573  0.00  0.00     0.006 A 
ATOM      3  C4  UNL d   1      -4.049  -2.081  -5.011  0.00  0.00     0.002 A 
ATOM      4  C5  UNL d   1      -5.232  -2.309  -4.301  0.00  0.00    -0.080 A 
ATOM      5  C6  UNL d   1      -5.983  -1.176  -3.667  0.00  0.00     0.076 C 
ATOM      6  C7  UNL d   1      -5.712  -3.618  -4.182  0.00  0.00     0.002 A 
ATOM      7  C8  UNL d   1      -5.007  -4.685  -4.744  0.00  0.00     0.006 A 
ENDROOT
BRANCH   1   8
ATOM      8  C1  UNL d   1      -3.020  -5.618  -5.989  0.00  0.00     0.054 C 
ATOM      9  C   UNL d   1      -1.526  -5.330  -5.958  0.00  0.00     0.018 C 
ENDBRANCH   1   8
TORSDOF 1
ENDMDL
