MODEL 1
REMARK minimizedAffinity 7.17482662
REMARK minimizedRMSD -1
REMARK  1 active torsions:
REMARK  status: ('A' for Active; 'I' for Inactive)
REMARK    1  A    between atoms: C1_2  and  C2_3 
ROOT
ATOM      1  C2  UNL d   1       4.281  -5.865   3.724  0.00  0.00    -0.081 A 
ATOM      2  C3  UNL d   1       4.089  -5.557   2.372  0.00  0.00     0.006 A 
ATOM      3  C4  UNL d   1       2.801  -5.377   1.862  0.00  0.00     0.002 A 
ATOM      4  C5  UNL d   1       1.685  -5.495   2.697  0.00  0.00    -0.080 A 
ATOM      5  C6  UNL d   1       0.298  -5.274   2.170  0.00  0.00     0.076 C 
ATOM      6  C7  UNL d   1       1.876  -5.819   4.045  0.00  0.00     0.002 A 
ATOM      7  C8  UNL d   1       3.163  -6.000   4.555  0.00  0.00     0.006 A 
ENDROOT
BRANCH   1   8
ATOM      8  C1  UNL d   1       5.672  -5.995   4.291  0.00  0.00     0.054 C 
ATOM      9  C   UNL d   1       5.657  -5.950   5.812  0.00  0.00     0.018 C 
ENDBRANCH   1   8
TORSDOF 1
ENDMDL
