MODEL 1
REMARK minimizedAffinity 2.88386798
REMARK minimizedRMSD -1
REMARK  1 active torsions:
REMARK  status: ('A' for Active; 'I' for Inactive)
REMARK    1  A    between atoms: C1_2  and  C2_3 
ROOT
ATOM      1  C2  UNL d   1      -4.056  -1.306   0.469  0.00  0.00    -0.081 A 
ATOM      2  C3  UNL d   1      -4.259   0.079   0.512  0.00  0.00     0.006 A 
ATOM      3  C4  UNL d   1      -3.220   0.936   0.882  0.00  0.00     0.002 A 
ATOM      4  C5  UNL d   1      -1.959   0.424   1.207  0.00  0.00    -0.080 A 
ATOM      5  C6  UNL d   1      -0.827   1.336   1.576  0.00  0.00     0.076 C 
ATOM      6  C7  UNL d   1      -1.761  -0.960   1.180  0.00  0.00     0.002 A 
ATOM      7  C8  UNL d   1      -2.800  -1.818   0.811  0.00  0.00     0.006 A 
ENDROOT
BRANCH   1   8
ATOM      8  C1  UNL d   1      -5.156  -2.228   0.008  0.00  0.00     0.054 C 
ATOM      9  C   UNL d   1      -4.722  -3.047  -1.199  0.00  0.00     0.018 C 
ENDBRANCH   1   8
TORSDOF 1
ENDMDL
