MODEL 1
REMARK minimizedAffinity 13.660244
REMARK minimizedRMSD -1
REMARK  1 active torsions:
REMARK  status: ('A' for Active; 'I' for Inactive)
REMARK    1  A    between atoms: C1_2  and  C2_3 
ROOT
ATOM      1  C2  UNL d   1      -5.114  -0.174   4.745  0.00  0.00    -0.081 A 
ATOM      2  C3  UNL d   1      -5.920   0.081   3.629  0.00  0.00     0.006 A 
ATOM      3  C4  UNL d   1      -5.359   0.571   2.447  0.00  0.00     0.002 A 
ATOM      4  C5  UNL d   1      -3.983   0.806   2.359  0.00  0.00    -0.080 A 
ATOM      5  C6  UNL d   1      -3.363   1.304   1.087  0.00  0.00     0.076 C 
ATOM      6  C7  UNL d   1      -3.180   0.568   3.480  0.00  0.00     0.002 A 
ATOM      7  C8  UNL d   1      -3.740   0.078   4.662  0.00  0.00     0.006 A 
ENDROOT
BRANCH   1   8
ATOM      8  C1  UNL d   1      -5.706  -0.764   6.000  0.00  0.00     0.054 C 
ATOM      9  C   UNL d   1      -5.611  -2.283   5.995  0.00  0.00     0.018 C 
ENDBRANCH   1   8
TORSDOF 1
ENDMDL
