MODEL 1
REMARK minimizedAffinity 2.3742311
REMARK minimizedRMSD -1
REMARK  1 active torsions:
REMARK  status: ('A' for Active; 'I' for Inactive)
REMARK    1  A    between atoms: C1_2  and  C2_3 
ROOT
ATOM      1  C2  UNL d   1      -1.425   0.740   2.203  0.00  0.00    -0.081 A 
ATOM      2  C3  UNL d   1      -2.163   0.946   1.032  0.00  0.00     0.006 A 
ATOM      3  C4  UNL d   1      -3.559   0.893   1.056  0.00  0.00     0.002 A 
ATOM      4  C5  UNL d   1      -4.239   0.640   2.252  0.00  0.00    -0.080 A 
ATOM      5  C6  UNL d   1      -5.738   0.610   2.298  0.00  0.00     0.076 C 
ATOM      6  C7  UNL d   1      -3.501   0.417   3.419  0.00  0.00     0.002 A 
ATOM      7  C8  UNL d   1      -2.105   0.469   3.396  0.00  0.00     0.006 A 
ENDROOT
BRANCH   1   8
ATOM      8  C1  UNL d   1       0.078   0.861   2.193  0.00  0.00     0.054 C 
ATOM      9  C   UNL d   1       0.710  -0.004   3.275  0.00  0.00     0.018 C 
ENDBRANCH   1   8
TORSDOF 1
ENDMDL
