MODEL 1
REMARK minimizedAffinity -4.44224882
REMARK minimizedRMSD -1
REMARK  1 active torsions:
REMARK  status: ('A' for Active; 'I' for Inactive)
REMARK    1  A    between atoms: C1_2  and  C2_3 
ROOT
ATOM      1  C2  UNL d   1      -0.909   0.637   1.349  0.00  0.00    -0.077 A 
ATOM      2  C3  UNL d   1       0.285   0.221   1.955  0.00  0.00     0.002 A 
ATOM      3  C4  UNL d   1       1.163  -0.626   1.276  0.00  0.00     0.002 A 
ATOM      4  C5  UNL d   1       0.859  -1.060  -0.012  0.00  0.00    -0.004 A 
ATOM      5  C6  UNL d   1      -0.327  -0.654  -0.622  0.00  0.00     0.002 A 
ATOM      6  C7  UNL d   1      -1.207   0.192   0.055  0.00  0.00     0.002 A 
ENDROOT
BRANCH   1   7
ATOM      7  C1  UNL d   1      -1.835   1.589   2.060  0.00  0.00     0.055 C 
ATOM      8  C   UNL d   1      -1.266   3.001   2.082  0.00  0.00     0.019 C 
ENDBRANCH   1   7
TORSDOF 1
ENDMDL
