MODEL 1
REMARK minimizedAffinity -3.25498962
REMARK minimizedRMSD -1
REMARK  1 active torsions:
REMARK  status: ('A' for Active; 'I' for Inactive)
REMARK    1  A    between atoms: C1_2  and  C2_3 
ROOT
ATOM      1  C2  UNL d   1      -0.352  -1.305  -0.324  0.00  0.00    -0.077 A 
ATOM      2  C3  UNL d   1      -1.512  -2.092  -0.332  0.00  0.00     0.002 A 
ATOM      3  C4  UNL d   1      -1.469  -3.408  -0.798  0.00  0.00     0.002 A 
ATOM      4  C5  UNL d   1      -0.268  -3.948  -1.254  0.00  0.00    -0.004 A 
ATOM      5  C6  UNL d   1       0.890  -3.172  -1.252  0.00  0.00     0.002 A 
ATOM      6  C7  UNL d   1       0.849  -1.857  -0.788  0.00  0.00     0.002 A 
ENDROOT
BRANCH   1   7
ATOM      7  C1  UNL d   1      -0.386   0.099   0.223  0.00  0.00     0.055 C 
ATOM      8  C   UNL d   1       0.026   0.132   1.687  0.00  0.00     0.019 C 
ENDBRANCH   1   7
TORSDOF 1
ENDMDL
