MODEL 1
REMARK minimizedAffinity 0.800481856
REMARK minimizedRMSD -1
REMARK  0 active torsions:
REMARK  status: ('A' for Active; 'I' for Inactive)
ROOT
ATOM      1  N1  IND d   1       2.159  -1.089   4.623  0.00  0.00    -0.196 N 
ATOM      2  C2  IND d   1       2.405  -2.434   4.601  0.00  0.00     0.054 A 
ATOM      3  C3  IND d   1       3.023  -2.780   3.449  0.00  0.00    -0.031 A 
ATOM      4  C4  IND d   1       3.818  -1.288   1.507  0.00  0.00     0.051 A 
ATOM      5  C5  IND d   1       3.786   0.002   1.057  0.00  0.00    -0.031 A 
ATOM      6  C6  IND d   1       3.201   1.015   1.788  0.00  0.00     0.015 A 
ATOM      7  C7  IND d   1       2.633   0.777   3.008  0.00  0.00    -0.016 A 
ATOM      8  C8  IND d   1       2.658  -0.533   3.465  0.00  0.00    -0.047 A 
ATOM      9  C9  IND d   1       3.213  -1.573   2.708  0.00  0.00    -0.096 A 
ATOM     10  HN1 IND d   1       1.761  -0.663   5.254  0.00  0.00     0.298 HD
ENDROOT
TORSDOF 0
ENDMDL
