MODEL 1
REMARK minimizedAffinity 2.04411602
REMARK minimizedRMSD -1
REMARK  0 active torsions:
REMARK  status: ('A' for Active; 'I' for Inactive)
ROOT
ATOM      1  N1  IND d   1       0.755  -1.924   3.617  0.00  0.00    -0.196 N 
ATOM      2  C2  IND d   1       1.358  -0.948   2.874  0.00  0.00     0.054 A 
ATOM      3  C3  IND d   1       1.606  -1.395   1.623  0.00  0.00    -0.031 A 
ATOM      4  C4  IND d   1       1.015  -3.658   0.547  0.00  0.00     0.051 A 
ATOM      5  C5  IND d   1       0.492  -4.886   0.841  0.00  0.00    -0.031 A 
ATOM      6  C6  IND d   1       0.018  -5.195   2.100  0.00  0.00     0.015 A 
ATOM      7  C7  IND d   1       0.038  -4.279   3.113  0.00  0.00    -0.016 A 
ATOM      8  C8  IND d   1       0.575  -3.034   2.821  0.00  0.00    -0.047 A 
ATOM      9  C9  IND d   1       1.097  -2.728   1.557  0.00  0.00    -0.096 A 
ATOM     10  HN1 IND d   1       0.526  -1.856   4.443  0.00  0.00     0.298 HD
ENDROOT
TORSDOF 0
ENDMDL
