MODEL 1
REMARK minimizedAffinity 0.501252472
REMARK minimizedRMSD -1
REMARK  0 active torsions:
REMARK  status: ('A' for Active; 'I' for Inactive)
ROOT
ATOM      1  N1  IND d   1      -3.953  -5.999  -2.543  0.00  0.00    -0.196 N 
ATOM      2  C2  IND d   1      -4.518  -5.417  -1.442  0.00  0.00     0.054 A 
ATOM      3  C3  IND d   1      -5.340  -4.410  -1.812  0.00  0.00    -0.031 A 
ATOM      4  C4  IND d   1      -5.986  -3.609  -4.172  0.00  0.00     0.051 A 
ATOM      5  C5  IND d   1      -5.699  -3.809  -5.493  0.00  0.00    -0.031 A 
ATOM      6  C6  IND d   1      -4.799  -4.770  -5.907  0.00  0.00     0.015 A 
ATOM      7  C7  IND d   1      -4.158  -5.578  -5.011  0.00  0.00    -0.016 A 
ATOM      8  C8  IND d   1      -4.442  -5.374  -3.669  0.00  0.00    -0.047 A 
ATOM      9  C9  IND d   1      -5.322  -4.372  -3.240  0.00  0.00    -0.096 A 
ATOM     10  HN1 IND d   1      -3.387  -6.647  -2.533  0.00  0.00     0.298 HD
ENDROOT
TORSDOF 0
ENDMDL
