MODEL 1
REMARK minimizedAffinity -1.79201746
REMARK minimizedRMSD -1
REMARK  0 active torsions:
REMARK  status: ('A' for Active; 'I' for Inactive)
ROOT
ATOM      1  N1  IND d   1      -5.998  -3.729  -2.283  0.00  0.00    -0.196 N 
ATOM      2  C2  IND d   1      -5.879  -4.869  -1.538  0.00  0.00     0.054 A 
ATOM      3  C3  IND d   1      -5.612  -5.927  -2.337  0.00  0.00    -0.031 A 
ATOM      4  C4  IND d   1      -5.227  -5.999  -4.881  0.00  0.00     0.051 A 
ATOM      5  C5  IND d   1      -5.268  -5.214  -5.999  0.00  0.00    -0.031 A 
ATOM      6  C6  IND d   1      -5.557  -3.867  -5.934  0.00  0.00     0.015 A 
ATOM      7  C7  IND d   1      -5.807  -3.249  -4.742  0.00  0.00    -0.016 A 
ATOM      8  C8  IND d   1      -5.773  -4.044  -3.605  0.00  0.00    -0.047 A 
ATOM      9  C9  IND d   1      -5.522  -5.420  -3.669  0.00  0.00    -0.096 A 
ATOM     10  HN1 IND d   1      -6.183  -2.947  -1.977  0.00  0.00     0.298 HD
ENDROOT
TORSDOF 0
ENDMDL
