MODEL 1
REMARK minimizedAffinity -1.29199064
REMARK minimizedRMSD -1
REMARK  0 active torsions:
REMARK  status: ('A' for Active; 'I' for Inactive)
ROOT
ATOM      1  N1  IND d   1      -5.994  -3.388  -4.873  0.00  0.00    -0.196 N 
ATOM      2  C2  IND d   1      -5.439  -4.045  -5.935  0.00  0.00     0.054 A 
ATOM      3  C3  IND d   1      -4.712  -5.102  -5.507  0.00  0.00    -0.031 A 
ATOM      4  C4  IND d   1      -4.380  -5.996  -3.116  0.00  0.00     0.051 A 
ATOM      5  C5  IND d   1      -4.660  -5.709  -1.809  0.00  0.00    -0.031 A 
ATOM      6  C6  IND d   1      -5.417  -4.612  -1.450  0.00  0.00     0.015 A 
ATOM      7  C7  IND d   1      -5.934  -3.765  -2.389  0.00  0.00    -0.016 A 
ATOM      8  C8  IND d   1      -5.645  -4.050  -3.716  0.00  0.00    -0.047 A 
ATOM      9  C9  IND d   1      -4.842  -5.137  -4.084  0.00  0.00    -0.096 A 
ATOM     10  HN1 IND d   1      -6.480  -2.680  -4.919  0.00  0.00     0.298 HD
ENDROOT
TORSDOF 0
ENDMDL
