MODEL 1
REMARK minimizedAffinity 5.31202698
REMARK minimizedRMSD -1
REMARK  0 active torsions:
REMARK  status: ('A' for Active; 'I' for Inactive)
ROOT
ATOM      1  N1  IND d   1       1.979  -4.610   3.961  0.00  0.00    -0.196 N 
ATOM      2  C2  IND d   1       2.953  -4.027   4.722  0.00  0.00     0.054 A 
ATOM      3  C3  IND d   1       3.104  -2.728   4.379  0.00  0.00    -0.031 A 
ATOM      4  C4  IND d   1       1.787  -1.325   2.669  0.00  0.00     0.051 A 
ATOM      5  C5  IND d   1       0.824  -1.428   1.705  0.00  0.00    -0.031 A 
ATOM      6  C6  IND d   1       0.182  -2.620   1.440  0.00  0.00     0.015 A 
ATOM      7  C7  IND d   1       0.472  -3.757   2.140  0.00  0.00    -0.016 A 
ATOM      8  C8  IND d   1       1.454  -3.658   3.115  0.00  0.00    -0.047 A 
ATOM      9  C9  IND d   1       2.140  -2.460   3.360  0.00  0.00    -0.096 A 
ATOM     10  HN1 IND d   1       1.735  -5.434   4.003  0.00  0.00     0.298 HD
ENDROOT
TORSDOF 0
ENDMDL
