MODEL 1
REMARK minimizedAffinity -3.44376326
REMARK minimizedRMSD -1
REMARK  0 active torsions:
REMARK  status: ('A' for Active; 'I' for Inactive)
ROOT
ATOM      1  N1  IND d   1      -5.960  -3.915  -2.424  0.00  0.00    -0.196 N 
ATOM      2  C2  IND d   1      -5.715  -5.011  -1.646  0.00  0.00     0.054 A 
ATOM      3  C3  IND d   1      -5.162  -5.999  -2.385  0.00  0.00    -0.031 A 
ATOM      4  C4  IND d   1      -4.477  -5.997  -4.867  0.00  0.00     0.051 A 
ATOM      5  C5  IND d   1      -4.536  -5.235  -6.000  0.00  0.00    -0.031 A 
ATOM      6  C6  IND d   1      -5.080  -3.967  -5.998  0.00  0.00     0.015 A 
ATOM      7  C7  IND d   1      -5.579  -3.407  -4.856  0.00  0.00    -0.016 A 
ATOM      8  C8  IND d   1      -5.528  -4.181  -3.705  0.00  0.00    -0.047 A 
ATOM      9  C9  IND d   1      -5.015  -5.485  -3.710  0.00  0.00    -0.096 A 
ATOM     10  HN1 IND d   1      -6.324  -3.182  -2.159  0.00  0.00     0.298 HD
ENDROOT
TORSDOF 0
ENDMDL
