MODEL 1
REMARK minimizedAffinity -3.31338024
REMARK minimizedRMSD -1
REMARK  0 active torsions:
REMARK  status: ('A' for Active; 'I' for Inactive)
ROOT
ATOM      1  N1  IND d   1      -5.130  -4.056  -5.474  0.00  0.00    -0.196 N 
ATOM      2  C2  IND d   1      -4.418  -5.102  -5.991  0.00  0.00     0.054 A 
ATOM      3  C3  IND d   1      -4.127  -5.998  -5.021  0.00  0.00    -0.031 A 
ATOM      4  C4  IND d   1      -4.807  -5.999  -2.538  0.00  0.00     0.051 A 
ATOM      5  C5  IND d   1      -5.431  -5.235  -1.592  0.00  0.00    -0.031 A 
ATOM      6  C6  IND d   1      -5.999  -4.016  -1.898  0.00  0.00     0.015 A 
ATOM      7  C7  IND d   1      -5.976  -3.518  -3.170  0.00  0.00    -0.016 A 
ATOM      8  C8  IND d   1      -5.338  -4.288  -4.132  0.00  0.00    -0.047 A 
ATOM      9  C9  IND d   1      -4.722  -5.506  -3.819  0.00  0.00    -0.096 A 
ATOM     10  HN1 IND d   1      -5.403  -3.369  -5.913  0.00  0.00     0.298 HD
ENDROOT
TORSDOF 0
ENDMDL
