MODEL 1
REMARK minimizedAffinity 3.34001708
REMARK minimizedRMSD -1
REMARK  1 active torsions:
REMARK  status: ('A' for Active; 'I' for Inactive)
REMARK    1  A    between atoms: C1_2  and  C2_3 
ROOT
ATOM      1  C2  UNL d   1      -1.597  -0.961   1.306  0.00  0.00    -0.073 A 
ATOM      2  C3  UNL d   1      -1.347  -0.252   2.486  0.00  0.00    -0.002 A 
ATOM      3  C4  UNL d   1      -0.764   1.015   2.438  0.00  0.00     0.004 A 
ATOM      4  C5  UNL d   1      -0.433   1.589   1.210  0.00  0.00    -0.004 A 
ATOM      5  C6  UNL d   1      -0.686   0.901   0.019  0.00  0.00    -0.075 A 
ATOM      6  C7  UNL d   1      -0.333   1.504  -1.309  0.00  0.00     0.076 C 
ATOM      7  C8  UNL d   1      -1.268  -0.372   0.076  0.00  0.00     0.001 A 
ENDROOT
BRANCH   1   8
ATOM      8  C1  UNL d   1      -2.231  -2.327   1.353  0.00  0.00     0.053 C 
ATOM      9  C   UNL d   1      -3.357  -2.467   0.340  0.00  0.00     0.018 C 
ENDBRANCH   1   8
TORSDOF 1
ENDMDL
