MODEL 1
REMARK minimizedAffinity 6.95382261
REMARK minimizedRMSD -1
REMARK  1 active torsions:
REMARK  status: ('A' for Active; 'I' for Inactive)
REMARK    1  A    between atoms: C1_2  and  C2_3 
ROOT
ATOM      1  C2  UNL d   1       0.287   1.177   1.077  0.00  0.00    -0.073 A 
ATOM      2  C3  UNL d   1      -0.159   1.826   2.233  0.00  0.00    -0.002 A 
ATOM      3  C4  UNL d   1      -1.405   1.515   2.780  0.00  0.00     0.004 A 
ATOM      4  C5  UNL d   1      -2.214   0.549   2.180  0.00  0.00    -0.004 A 
ATOM      5  C6  UNL d   1      -1.780  -0.119   1.031  0.00  0.00    -0.075 A 
ATOM      6  C7  UNL d   1      -2.639  -1.159   0.372  0.00  0.00     0.076 C 
ATOM      7  C8  UNL d   1      -0.529   0.201   0.486  0.00  0.00     0.001 A 
ENDROOT
BRANCH   1   8
ATOM      8  C1  UNL d   1       1.634   1.504   0.487  0.00  0.00     0.053 C 
ATOM      9  C   UNL d   1       2.531   2.227   1.480  0.00  0.00     0.018 C 
ENDBRANCH   1   8
TORSDOF 1
ENDMDL
