MODEL 1
REMARK minimizedAffinity -0.025831202
REMARK minimizedRMSD -1
REMARK  1 active torsions:
REMARK  status: ('A' for Active; 'I' for Inactive)
REMARK    1  A    between atoms: C1_2  and  C2_3 
ROOT
ATOM      1  C2  UNL d   1      -1.732  -6.000   3.081  0.00  0.00    -0.073 A 
ATOM      2  C3  UNL d   1      -1.443  -6.000   1.711  0.00  0.00    -0.002 A 
ATOM      3  C4  UNL d   1      -2.476  -5.998   0.773  0.00  0.00     0.004 A 
ATOM      4  C5  UNL d   1      -3.806  -5.989   1.193  0.00  0.00    -0.004 A 
ATOM      5  C6  UNL d   1      -4.115  -5.977   2.557  0.00  0.00    -0.075 A 
ATOM      6  C7  UNL d   1      -5.541  -5.970   3.025  0.00  0.00     0.076 C 
ATOM      7  C8  UNL d   1      -3.072  -5.982   3.493  0.00  0.00     0.001 A 
ENDROOT
BRANCH   1   8
ATOM      8  C1  UNL d   1      -0.620  -5.995   4.097  0.00  0.00     0.053 C 
ATOM      9  C   UNL d   1       0.747  -5.863   3.446  0.00  0.00     0.018 C 
ENDBRANCH   1   8
TORSDOF 1
ENDMDL
