MODEL 1
REMARK minimizedAffinity 7.55199718
REMARK minimizedRMSD -1
REMARK  1 active torsions:
REMARK  status: ('A' for Active; 'I' for Inactive)
REMARK    1  A    between atoms: C1_2  and  C2_3 
ROOT
ATOM      1  C2  UNL d   1      -0.940  -2.221   1.950  0.00  0.00    -0.073 A 
ATOM      2  C3  UNL d   1      -1.484  -1.620   3.091  0.00  0.00    -0.002 A 
ATOM      3  C4  UNL d   1      -1.366  -0.244   3.287  0.00  0.00     0.004 A 
ATOM      4  C5  UNL d   1      -0.709   0.546   2.344  0.00  0.00    -0.004 A 
ATOM      5  C6  UNL d   1      -0.168  -0.034   1.192  0.00  0.00    -0.075 A 
ATOM      6  C7  UNL d   1       0.544   0.802   0.168  0.00  0.00     0.076 C 
ATOM      7  C8  UNL d   1      -0.289  -1.417   1.003  0.00  0.00     0.001 A 
ENDROOT
BRANCH   1   8
ATOM      8  C1  UNL d   1      -1.071  -3.706   1.730  0.00  0.00     0.053 C 
ATOM      9  C   UNL d   1      -0.429  -4.507   2.851  0.00  0.00     0.018 C 
ENDBRANCH   1   8
TORSDOF 1
ENDMDL
