MODEL 1
REMARK minimizedAffinity 7.50545692
REMARK minimizedRMSD -1
REMARK  1 active torsions:
REMARK  status: ('A' for Active; 'I' for Inactive)
REMARK    1  A    between atoms: C1_2  and  C2_3 
ROOT
ATOM      1  C2  UNL d   1      -1.998  -1.192   0.392  0.00  0.00    -0.073 A 
ATOM      2  C3  UNL d   1      -2.160  -1.543   1.737  0.00  0.00    -0.002 A 
ATOM      3  C4  UNL d   1      -1.314  -1.012   2.711  0.00  0.00     0.004 A 
ATOM      4  C5  UNL d   1      -0.303  -0.121   2.352  0.00  0.00    -0.004 A 
ATOM      5  C6  UNL d   1      -0.132   0.252   1.015  0.00  0.00    -0.075 A 
ATOM      6  C7  UNL d   1       0.952   1.207   0.613  0.00  0.00     0.076 C 
ATOM      7  C8  UNL d   1      -0.984  -0.288   0.042  0.00  0.00     0.001 A 
ENDROOT
BRANCH   1   8
ATOM      8  C1  UNL d   1      -2.913  -1.758  -0.663  0.00  0.00     0.053 C 
ATOM      9  C   UNL d   1      -2.840  -0.972  -1.963  0.00  0.00     0.018 C 
ENDBRANCH   1   8
TORSDOF 1
ENDMDL
