MODEL 1
REMARK minimizedAffinity 9.75288105
REMARK minimizedRMSD -1
REMARK  1 active torsions:
REMARK  status: ('A' for Active; 'I' for Inactive)
REMARK    1  A    between atoms: C1_2  and  C2_3 
ROOT
ATOM      1  C2  UNL d   1       0.918  -5.953   3.851  0.00  0.00    -0.073 A 
ATOM      2  C3  UNL d   1       1.883  -5.949   2.838  0.00  0.00    -0.002 A 
ATOM      3  C4  UNL d   1       1.498  -5.970   1.497  0.00  0.00     0.004 A 
ATOM      4  C5  UNL d   1       0.146  -5.987   1.155  0.00  0.00    -0.004 A 
ATOM      5  C6  UNL d   1      -0.834  -5.979   2.153  0.00  0.00    -0.075 A 
ATOM      6  C7  UNL d   1      -2.293  -5.999   1.803  0.00  0.00     0.076 C 
ATOM      7  C8  UNL d   1      -0.439  -5.961   3.498  0.00  0.00     0.001 A 
ENDROOT
BRANCH   1   8
ATOM      8  C1  UNL d   1       1.330  -5.924   5.300  0.00  0.00     0.053 C 
ATOM      9  C   UNL d   1       1.779  -4.539   5.738  0.00  0.00     0.018 C 
ENDBRANCH   1   8
TORSDOF 1
ENDMDL
