MODEL 1
REMARK minimizedAffinity 7.60427237
REMARK minimizedRMSD -1
REMARK  1 active torsions:
REMARK  status: ('A' for Active; 'I' for Inactive)
REMARK    1  A    between atoms: C1_2  and  C2_3 
ROOT
ATOM      1  C2  UNL d   1      -0.358   0.389   1.842  0.00  0.00    -0.073 A 
ATOM      2  C3  UNL d   1      -0.473   0.250   0.455  0.00  0.00    -0.002 A 
ATOM      3  C4  UNL d   1       0.606   0.555  -0.376  0.00  0.00     0.004 A 
ATOM      4  C5  UNL d   1       1.812   0.993   0.171  0.00  0.00    -0.004 A 
ATOM      5  C6  UNL d   1       1.950   1.127   1.557  0.00  0.00    -0.075 A 
ATOM      6  C7  UNL d   1       3.239   1.599   2.161  0.00  0.00     0.076 C 
ATOM      7  C8  UNL d   1       0.861   0.822   2.384  0.00  0.00     0.001 A 
ENDROOT
BRANCH   1   8
ATOM      8  C1  UNL d   1      -1.518   0.055   2.744  0.00  0.00     0.053 C 
ATOM      9  C   UNL d   1      -1.884  -1.420   2.680  0.00  0.00     0.018 C 
ENDBRANCH   1   8
TORSDOF 1
ENDMDL
