MODEL 1
REMARK minimizedAffinity -3.42708731
REMARK minimizedRMSD -1
REMARK  0 active torsions:
REMARK  status: ('A' for Active; 'I' for Inactive)
ROOT
ATOM      1  C4' PXY d   1      -1.441  -0.152  -1.734  0.00  0.00     0.077 C 
ATOM      2  C1' PXY d   1       2.147   2.594   1.872  0.00  0.00     0.077 C 
ATOM      3  C1  PXY d   1       1.210   1.863   0.932  0.00  0.00    -0.082 A 
ATOM      4  C2  PXY d   1       0.870   2.421  -0.219  0.00  0.00     0.003 A 
ATOM      5  C3  PXY d   1      -0.002   1.788  -1.066  0.00  0.00     0.003 A 
ATOM      6  C4  PXY d   1      -0.490   0.546  -0.758  0.00  0.00    -0.082 A 
ATOM      7  C5  PXY d   1      -0.139  -0.035   0.409  0.00  0.00     0.003 A 
ATOM      8  C6  PXY d   1       0.715   0.643   1.274  0.00  0.00     0.003 A 
ENDROOT
TORSDOF 0
ENDMDL
