MODEL 1
REMARK minimizedAffinity -2.77416205
REMARK minimizedRMSD -1
REMARK  0 active torsions:
REMARK  status: ('A' for Active; 'I' for Inactive)
ROOT
ATOM      1  C4' PXY d   1       1.245   2.658   1.502  0.00  0.00     0.077 C 
ATOM      2  C1' PXY d   1      -1.294  -1.800  -1.161  0.00  0.00     0.077 C 
ATOM      3  C1  PXY d   1      -0.640  -0.626  -0.458  0.00  0.00    -0.082 A 
ATOM      4  C2  PXY d   1       0.543  -0.197  -0.866  0.00  0.00     0.003 A 
ATOM      5  C3  PXY d   1       1.163   0.843  -0.222  0.00  0.00     0.003 A 
ATOM      6  C4  PXY d   1       0.543   1.483   0.817  0.00  0.00    -0.082 A 
ATOM      7  C5  PXY d   1      -0.669   1.057   1.232  0.00  0.00     0.003 A 
ATOM      8  C6  PXY d   1      -1.264  -0.026   0.592  0.00  0.00     0.003 A 
ENDROOT
TORSDOF 0
ENDMDL
