MODEL 1
REMARK minimizedAffinity -1.45239329
REMARK minimizedRMSD -1
REMARK  0 active torsions:
REMARK  status: ('A' for Active; 'I' for Inactive)
ROOT
ATOM      1  C4' PXY d   1       1.336   2.439   1.860  0.00  0.00     0.077 C 
ATOM      2  C1' PXY d   1      -1.360  -1.442  -1.471  0.00  0.00     0.077 C 
ATOM      3  C1  PXY d   1      -0.642  -0.425  -0.605  0.00  0.00    -0.082 A 
ATOM      4  C2  PXY d   1      -1.007  -0.267   0.657  0.00  0.00     0.003 A 
ATOM      5  C3  PXY d   1      -0.390   0.670   1.445  0.00  0.00     0.003 A 
ATOM      6  C4  PXY d   1       0.646   1.417   0.951  0.00  0.00    -0.082 A 
ATOM      7  C5  PXY d   1       1.031   1.255  -0.332  0.00  0.00     0.003 A 
ATOM      8  C6  PXY d   1       0.364   0.326  -1.127  0.00  0.00     0.003 A 
ENDROOT
TORSDOF 0
ENDMDL
