MODEL 1
REMARK minimizedAffinity -5.07129288
REMARK minimizedRMSD -1
REMARK  0 active torsions:
REMARK  status: ('A' for Active; 'I' for Inactive)
ROOT
ATOM      1  C4' PXY d   1       1.277   2.678   1.646  0.00  0.00     0.077 C 
ATOM      2  C1' PXY d   1      -0.785  -2.069  -0.930  0.00  0.00     0.077 C 
ATOM      3  C1  PXY d   1      -0.232  -0.827  -0.259  0.00  0.00    -0.082 A 
ATOM      4  C2  PXY d   1      -0.883  -0.290   0.760  0.00  0.00     0.003 A 
ATOM      5  C3  PXY d   1      -0.415   0.852   1.358  0.00  0.00     0.003 A 
ATOM      6  C4  PXY d   1       0.761   1.419   0.944  0.00  0.00    -0.082 A 
ATOM      7  C5  PXY d   1       1.436   0.870  -0.089  0.00  0.00     0.003 A 
ATOM      8  C6  PXY d   1       0.922  -0.265  -0.709  0.00  0.00     0.003 A 
ENDROOT
TORSDOF 0
ENDMDL
