MODEL 1
REMARK minimizedAffinity -0.0514890924
REMARK minimizedRMSD -1
REMARK  0 active torsions:
REMARK  status: ('A' for Active; 'I' for Inactive)
ROOT
ATOM      1  C4' PXY d   1       1.291   1.299  -0.669  0.00  0.00     0.077 C 
ATOM      2  C1' PXY d   1       2.759   3.816  -5.661  0.00  0.00     0.077 C 
ATOM      3  C1  PXY d   1       2.383   3.164  -4.346  0.00  0.00    -0.082 A 
ATOM      4  C2  PXY d   1       1.897   1.933  -4.341  0.00  0.00     0.003 A 
ATOM      5  C3  PXY d   1       1.522   1.340  -3.163  0.00  0.00     0.003 A 
ATOM      6  C4  PXY d   1       1.694   1.994  -1.973  0.00  0.00    -0.082 A 
ATOM      7  C5  PXY d   1       2.198   3.246  -1.968  0.00  0.00     0.003 A 
ATOM      8  C6  PXY d   1       2.535   3.846  -3.178  0.00  0.00     0.003 A 
ENDROOT
TORSDOF 0
ENDMDL
