MODEL 1
REMARK minimizedAffinity -1.3288275
REMARK minimizedRMSD -1
REMARK  0 active torsions:
REMARK  status: ('A' for Active; 'I' for Inactive)
ROOT
ATOM      1  C4' PXY d   1       2.490   0.636  -1.583  0.00  0.00     0.077 C 
ATOM      2  C1' PXY d   1      -1.559   1.316   2.486  0.00  0.00     0.077 C 
ATOM      3  C1  PXY d   1      -0.500   1.150   1.414  0.00  0.00    -0.082 A 
ATOM      4  C2  PXY d   1      -0.169  -0.064   1.004  0.00  0.00     0.003 A 
ATOM      5  C3  PXY d   1       0.810  -0.234   0.059  0.00  0.00     0.003 A 
ATOM      6  C4  PXY d   1       1.419   0.852  -0.511  0.00  0.00    -0.082 A 
ATOM      7  C5  PXY d   1       1.079   2.094  -0.105  0.00  0.00     0.003 A 
ATOM      8  C6  PXY d   1       0.113   2.243   0.885  0.00  0.00     0.003 A 
ENDROOT
TORSDOF 0
ENDMDL
