MODEL 1
REMARK minimizedAffinity -2.3898232
REMARK minimizedRMSD -1
REMARK  0 active torsions:
REMARK  status: ('A' for Active; 'I' for Inactive)
ROOT
ATOM      1  C4' PXY d   1      -1.273  -0.444  -2.632  0.00  0.00     0.077 C 
ATOM      2  C1' PXY d   1       0.878   1.587   2.334  0.00  0.00     0.077 C 
ATOM      3  C1  PXY d   1       0.316   1.066   1.027  0.00  0.00    -0.082 A 
ATOM      4  C2  PXY d   1      -0.482   0.011   1.032  0.00  0.00     0.003 A 
ATOM      5  C3  PXY d   1      -0.974  -0.493  -0.145  0.00  0.00     0.003 A 
ATOM      6  C4  PXY d   1      -0.689   0.122  -1.334  0.00  0.00    -0.082 A 
ATOM      7  C5  PXY d   1       0.115   1.206  -1.347  0.00  0.00     0.003 A 
ATOM      8  C6  PXY d   1       0.638   1.677  -0.146  0.00  0.00     0.003 A 
ENDROOT
TORSDOF 0
ENDMDL
