MODEL 1
REMARK minimizedAffinity -5.41973019
REMARK minimizedRMSD -1
REMARK  0 active torsions:
REMARK  status: ('A' for Active; 'I' for Inactive)
ROOT
ATOM      1  C4' PXY d   1      -0.677  -1.645  -1.110  0.00  0.00     0.077 C 
ATOM      2  C1' PXY d   1       1.792   2.904   1.465  0.00  0.00     0.077 C 
ATOM      3  C1  PXY d   1       1.152   1.713   0.779  0.00  0.00    -0.082 A 
ATOM      4  C2  PXY d   1      -0.047   1.304   1.162  0.00  0.00     0.003 A 
ATOM      5  C3  PXY d   1      -0.627   0.209   0.574  0.00  0.00     0.003 A 
ATOM      6  C4  PXY d   1       0.004  -0.441  -0.452  0.00  0.00    -0.082 A 
ATOM      7  C5  PXY d   1       1.222  -0.024  -0.856  0.00  0.00     0.003 A 
ATOM      8  C6  PXY d   1       1.812   1.064  -0.219  0.00  0.00     0.003 A 
ENDROOT
TORSDOF 0
ENDMDL
