MODEL 1
REMARK minimizedAffinity -2.54260445
REMARK minimizedRMSD -1
REMARK  0 active torsions:
REMARK  status: ('A' for Active; 'I' for Inactive)
ROOT
ATOM      1  C4' PXY d   1      -5.982   6.000  -5.990  0.00  0.00     0.077 C 
ATOM      2  C1' PXY d   1      -1.120   4.982  -3.034  0.00  0.00     0.077 C 
ATOM      3  C1  PXY d   1      -2.388   5.258  -3.817  0.00  0.00    -0.082 A 
ATOM      4  C2  PXY d   1      -3.565   5.025  -3.258  0.00  0.00     0.003 A 
ATOM      5  C3  PXY d   1      -4.722   5.239  -3.963  0.00  0.00     0.003 A 
ATOM      6  C4  PXY d   1      -4.675   5.745  -5.234  0.00  0.00    -0.082 A 
ATOM      7  C5  PXY d   1      -3.479   5.995  -5.807  0.00  0.00     0.003 A 
ATOM      8  C6  PXY d   1      -2.315   5.733  -5.089  0.00  0.00     0.003 A 
ENDROOT
TORSDOF 0
ENDMDL
