MODEL 1
REMARK minimizedAffinity -4.41679001
REMARK minimizedRMSD -1
REMARK  0 active torsions:
REMARK  status: ('A' for Active; 'I' for Inactive)
ROOT
ATOM      1  C4' PXY d   1       1.900   3.353   1.136  0.00  0.00     0.077 C 
ATOM      2  C1' PXY d   1      -1.134  -1.506   0.362  0.00  0.00     0.077 C 
ATOM      3  C1  PXY d   1      -0.348  -0.227   0.572  0.00  0.00    -0.082 A 
ATOM      4  C2  PXY d   1       0.622   0.090  -0.270  0.00  0.00     0.003 A 
ATOM      5  C3  PXY d   1       1.363   1.228  -0.077  0.00  0.00     0.003 A 
ATOM      6  C4  PXY d   1       1.074   2.076   0.958  0.00  0.00    -0.082 A 
ATOM      7  C5  PXY d   1       0.079   1.765   1.815  0.00  0.00     0.003 A 
ATOM      8  C6  PXY d   1      -0.635   0.585   1.625  0.00  0.00     0.003 A 
ENDROOT
TORSDOF 0
ENDMDL
