MODEL 1
REMARK minimizedAffinity -4.0510006
REMARK minimizedRMSD -1
REMARK  0 active torsions:
REMARK  status: ('A' for Active; 'I' for Inactive)
ROOT
ATOM      1  C4' PXY d   1       2.921   0.675  -0.496  0.00  0.00     0.077 C 
ATOM      2  C1' PXY d   1      -2.115   0.189   2.300  0.00  0.00     0.077 C 
ATOM      3  C1  PXY d   1      -0.793   0.329   1.571  0.00  0.00    -0.082 A 
ATOM      4  C2  PXY d   1      -0.549  -0.422   0.509  0.00  0.00     0.003 A 
ATOM      5  C3  PXY d   1       0.654  -0.331  -0.142  0.00  0.00     0.003 A 
ATOM      6  C4  PXY d   1       1.596   0.575   0.265  0.00  0.00    -0.082 A 
ATOM      7  C5  PXY d   1       1.350   1.352   1.341  0.00  0.00     0.003 A 
ATOM      8  C6  PXY d   1       0.139   1.215   2.014  0.00  0.00     0.003 A 
ENDROOT
TORSDOF 0
ENDMDL
