MODEL 1
REMARK minimizedAffinity -4.89964342
REMARK minimizedRMSD -1
REMARK  0 active torsions:
REMARK  status: ('A' for Active; 'I' for Inactive)
ROOT
ATOM      1  C4' PXY d   1      -0.758  -1.355  -0.436  0.00  0.00     0.077 C 
ATOM      2  C1' PXY d   1       3.678   1.975   1.193  0.00  0.00     0.077 C 
ATOM      3  C1  PXY d   1       2.508   1.105   0.776  0.00  0.00    -0.082 A 
ATOM      4  C2  PXY d   1       2.714   0.071  -0.023  0.00  0.00     0.003 A 
ATOM      5  C3  PXY d   1       1.662  -0.707  -0.435  0.00  0.00     0.003 A 
ATOM      6  C4  PXY d   1       0.395  -0.455   0.018  0.00  0.00    -0.082 A 
ATOM      7  C5  PXY d   1       0.179   0.591   0.842  0.00  0.00     0.003 A 
ATOM      8  C6  PXY d   1       1.253   1.394   1.216  0.00  0.00     0.003 A 
ENDROOT
TORSDOF 0
ENDMDL
