MODEL 1
REMARK minimizedAffinity -3.48774505
REMARK minimizedRMSD -1
REMARK  0 active torsions:
REMARK  status: ('A' for Active; 'I' for Inactive)
ROOT
ATOM      1  C4' PXY d   1      -1.189  -2.068  -1.116  0.00  0.00     0.077 C 
ATOM      2  C1' PXY d   1       1.420   2.289   1.645  0.00  0.00     0.077 C 
ATOM      3  C1  PXY d   1       0.743   1.149   0.910  0.00  0.00    -0.082 A 
ATOM      4  C2  PXY d   1      -0.474   0.772   1.267  0.00  0.00     0.003 A 
ATOM      5  C3  PXY d   1      -1.088  -0.278   0.635  0.00  0.00     0.003 A 
ATOM      6  C4  PXY d   1      -0.471  -0.916  -0.409  0.00  0.00    -0.082 A 
ATOM      7  C5  PXY d   1       0.767  -0.530  -0.785  0.00  0.00     0.003 A 
ATOM      8  C6  PXY d   1       1.389   0.511  -0.103  0.00  0.00     0.003 A 
ENDROOT
TORSDOF 0
ENDMDL
