MODEL 1
REMARK minimizedAffinity -4.45046091
REMARK minimizedRMSD -1
REMARK  0 active torsions:
REMARK  status: ('A' for Active; 'I' for Inactive)
ROOT
ATOM      1  C4' PXY d   1      -5.238  -3.468   0.226  0.00  0.00     0.077 C 
ATOM      2  C1' PXY d   1      -1.507  -0.902  -3.367  0.00  0.00     0.077 C 
ATOM      3  C1  PXY d   1      -2.495  -1.566  -2.428  0.00  0.00    -0.082 A 
ATOM      4  C2  PXY d   1      -2.049  -2.265  -1.397  0.00  0.00     0.003 A 
ATOM      5  C3  PXY d   1      -2.927  -2.899  -0.557  0.00  0.00     0.003 A 
ATOM      6  C4  PXY d   1      -4.278  -2.772  -0.743  0.00  0.00    -0.082 A 
ATOM      7  C5  PXY d   1      -4.741  -2.052  -1.786  0.00  0.00     0.003 A 
ATOM      8  C6  PXY d   1      -3.832  -1.451  -2.652  0.00  0.00     0.003 A 
ENDROOT
TORSDOF 0
ENDMDL
