MODEL 1
REMARK minimizedAffinity -4.12734079
REMARK minimizedRMSD -1
REMARK  0 active torsions:
REMARK  status: ('A' for Active; 'I' for Inactive)
ROOT
ATOM      1  C4' PXY d   1      -0.827  -1.492  -0.777  0.00  0.00     0.077 C 
ATOM      2  C1' PXY d   1       1.774   2.647   2.308  0.00  0.00     0.077 C 
ATOM      3  C1  PXY d   1       1.097   1.567   1.488  0.00  0.00    -0.082 A 
ATOM      4  C2  PXY d   1       0.049   0.929   1.984  0.00  0.00     0.003 A 
ATOM      5  C3  PXY d   1      -0.556  -0.072   1.269  0.00  0.00     0.003 A 
ATOM      6  C4  PXY d   1      -0.117  -0.388   0.011  0.00  0.00    -0.082 A 
ATOM      7  C5  PXY d   1       0.945   0.265  -0.506  0.00  0.00     0.003 A 
ATOM      8  C6  PXY d   1       1.571   1.250   0.252  0.00  0.00     0.003 A 
ENDROOT
TORSDOF 0
ENDMDL
