MODEL 1
REMARK minimizedAffinity -2.49979019
REMARK minimizedRMSD -1
REMARK  0 active torsions:
REMARK  status: ('A' for Active; 'I' for Inactive)
ROOT
ATOM      1  C4' PXY d   1      -0.705  -1.463  -4.061  0.00  0.00     0.077 C 
ATOM      2  C1' PXY d   1      -5.606  -2.525  -1.186  0.00  0.00     0.077 C 
ATOM      3  C1  PXY d   1      -4.314  -2.245  -1.928  0.00  0.00    -0.082 A 
ATOM      4  C2  PXY d   1      -4.359  -1.760  -3.159  0.00  0.00     0.003 A 
ATOM      5  C3  PXY d   1      -3.201  -1.531  -3.856  0.00  0.00     0.003 A 
ATOM      6  C4  PXY d   1      -1.983  -1.752  -3.270  0.00  0.00    -0.082 A 
ATOM      7  C5  PXY d   1      -1.929  -2.237  -2.011  0.00  0.00     0.003 A 
ATOM      8  C6  PXY d   1      -3.117  -2.501  -1.335  0.00  0.00     0.003 A 
ENDROOT
TORSDOF 0
ENDMDL
