MODEL 1
REMARK minimizedAffinity -4.86358118
REMARK minimizedRMSD -1
REMARK  0 active torsions:
REMARK  status: ('A' for Active; 'I' for Inactive)
ROOT
ATOM      1  C4' PXY d   1       2.016   3.147   1.584  0.00  0.00     0.077 C 
ATOM      2  C1' PXY d   1      -0.864  -1.347  -0.636  0.00  0.00     0.077 C 
ATOM      3  C1  PXY d   1      -0.119  -0.164  -0.048  0.00  0.00    -0.082 A 
ATOM      4  C2  PXY d   1       1.000   0.252  -0.617  0.00  0.00     0.003 A 
ATOM      5  C3  PXY d   1       1.703   1.300  -0.080  0.00  0.00     0.003 A 
ATOM      6  C4  PXY d   1       1.227   1.962   1.019  0.00  0.00    -0.082 A 
ATOM      7  C5  PXY d   1       0.079   1.551   1.599  0.00  0.00     0.003 A 
ATOM      8  C6  PXY d   1      -0.598   0.459   1.063  0.00  0.00     0.003 A 
ENDROOT
TORSDOF 0
ENDMDL
