MODEL 1
REMARK minimizedAffinity -2.73723412
REMARK minimizedRMSD -1
REMARK  0 active torsions:
REMARK  status: ('A' for Active; 'I' for Inactive)
ROOT
ATOM      1  C4' PXY d   1      -0.093   1.288   1.744  0.00  0.00     0.077 C 
ATOM      2  C1' PXY d   1      -2.437  -1.591  -2.687  0.00  0.00     0.077 C 
ATOM      3  C1  PXY d   1      -1.816  -0.847  -1.521  0.00  0.00    -0.082 A 
ATOM      4  C2  PXY d   1      -2.381   0.266  -1.081  0.00  0.00     0.003 A 
ATOM      5  C3  PXY d   1      -1.815   0.968  -0.048  0.00  0.00     0.003 A 
ATOM      6  C4  PXY d   1      -0.690   0.499   0.575  0.00  0.00    -0.082 A 
ATOM      7  C5  PXY d   1      -0.114  -0.641   0.139  0.00  0.00     0.003 A 
ATOM      8  C6  PXY d   1      -0.681  -1.318  -0.938  0.00  0.00     0.003 A 
ENDROOT
TORSDOF 0
ENDMDL
