MODEL 1
REMARK minimizedAffinity -3.22611165
REMARK minimizedRMSD -1
REMARK  0 active torsions:
REMARK  status: ('A' for Active; 'I' for Inactive)
ROOT
ATOM      1  C4' PXY d   1      -1.688   1.288   2.531  0.00  0.00     0.077 C 
ATOM      2  C1' PXY d   1       2.623  -0.648  -0.797  0.00  0.00     0.077 C 
ATOM      3  C1  PXY d   1       1.500  -0.130   0.080  0.00  0.00    -0.082 A 
ATOM      4  C2  PXY d   1       0.551  -0.959   0.484  0.00  0.00     0.003 A 
ATOM      5  C3  PXY d   1      -0.489  -0.501   1.251  0.00  0.00     0.003 A 
ATOM      6  C4  PXY d   1      -0.530   0.808   1.653  0.00  0.00    -0.082 A 
ATOM      7  C5  PXY d   1       0.440   1.657   1.254  0.00  0.00     0.003 A 
ATOM      8  C6  PXY d   1       1.465   1.181   0.441  0.00  0.00     0.003 A 
ENDROOT
TORSDOF 0
ENDMDL
