MODEL 1
REMARK minimizedAffinity -4.23065567
REMARK minimizedRMSD -1
REMARK  0 active torsions:
REMARK  status: ('A' for Active; 'I' for Inactive)
ROOT
ATOM      1  C4' PXY d   1       1.697   2.842   1.646  0.00  0.00     0.077 C 
ATOM      2  C1' PXY d   1      -0.633  -1.889  -0.721  0.00  0.00     0.077 C 
ATOM      3  C1  PXY d   1      -0.011  -0.652  -0.105  0.00  0.00    -0.082 A 
ATOM      4  C2  PXY d   1      -0.590  -0.078   0.936  0.00  0.00     0.003 A 
ATOM      5  C3  PXY d   1      -0.058   1.060   1.486  0.00  0.00     0.003 A 
ATOM      6  C4  PXY d   1       1.109   1.585   0.998  0.00  0.00    -0.082 A 
ATOM      7  C5  PXY d   1       1.712   0.999  -0.058  0.00  0.00     0.003 A 
ATOM      8  C6  PXY d   1       1.133  -0.132  -0.628  0.00  0.00     0.003 A 
ENDROOT
TORSDOF 0
ENDMDL
