MODEL 1
REMARK minimizedAffinity -3.46040344
REMARK minimizedRMSD -1
REMARK  1 active torsions:
REMARK  status: ('A' for Active; 'I' for Inactive)
REMARK    1  A    between atoms: C3_4  and  O_7 
ROOT
ATOM      1  C   UNL d   1       0.009  -0.345  -1.107  0.00  0.00    -0.033 A 
ATOM      2  C1  UNL d   1      -1.023  -0.199  -0.177  0.00  0.00     0.039 A 
ATOM      3  C2  UNL d   1      -0.829  -0.586   1.150  0.00  0.00    -0.080 A 
ATOM      4  C3  UNL d   1       0.400  -1.115   1.535  0.00  0.00     0.150 A 
ATOM      5  C4  UNL d   1       1.433  -1.259   0.615  0.00  0.00    -0.007 A 
ATOM      6  C5  UNL d   1       1.237  -0.873  -0.710  0.00  0.00     0.039 A 
ENDROOT
BRANCH   4   7
ATOM      7  O   UNL d   1       0.635  -1.511   2.818  0.00  0.00    -0.526 OA
ATOM      8  H5  UNL d   1      -0.178  -1.379   3.335  0.00  0.00     0.418 HD
ENDBRANCH   4   7
TORSDOF 1
ENDMDL
