MODEL 1
REMARK minimizedAffinity -3.31436563
REMARK minimizedRMSD -1
REMARK  1 active torsions:
REMARK  status: ('A' for Active; 'I' for Inactive)
REMARK    1  A    between atoms: C3_4  and  O_7 
ROOT
ATOM      1  C   UNL d   1       0.502   2.783  -2.161  0.00  0.00    -0.033 A 
ATOM      2  C1  UNL d   1      -0.466   2.086  -1.434  0.00  0.00     0.039 A 
ATOM      3  C2  UNL d   1      -1.811   2.447  -1.535  0.00  0.00    -0.080 A 
ATOM      4  C3  UNL d   1      -2.175   3.503  -2.365  0.00  0.00     0.150 A 
ATOM      5  C4  UNL d   1      -1.217   4.199  -3.095  0.00  0.00    -0.007 A 
ATOM      6  C5  UNL d   1       0.126   3.839  -2.992  0.00  0.00     0.039 A 
ENDROOT
BRANCH   4   7
ATOM      7  O   UNL d   1      -3.475   3.894  -2.492  0.00  0.00    -0.526 OA
ATOM      8  H5  UNL d   1      -4.021   3.342  -1.908  0.00  0.00     0.418 HD
ENDBRANCH   4   7
TORSDOF 1
ENDMDL
