MODEL 1
REMARK minimizedAffinity -5.72834635
REMARK minimizedRMSD -1
REMARK  1 active torsions:
REMARK  status: ('A' for Active; 'I' for Inactive)
REMARK    1  A    between atoms: C3_4  and  O_7 
ROOT
ATOM      1  C   UNL d   1       1.727  -0.679   2.978  0.00  0.00    -0.033 A 
ATOM      2  C1  UNL d   1       1.073   0.163   2.076  0.00  0.00     0.039 A 
ATOM      3  C2  UNL d   1       1.122  -0.106   0.706  0.00  0.00    -0.080 A 
ATOM      4  C3  UNL d   1       1.825  -1.218   0.253  0.00  0.00     0.150 A 
ATOM      5  C4  UNL d   1       2.476  -2.063   1.146  0.00  0.00    -0.007 A 
ATOM      6  C5  UNL d   1       2.427  -1.793   2.513  0.00  0.00     0.039 A 
ENDROOT
BRANCH   4   7
ATOM      7  O   UNL d   1       1.905  -1.518  -1.075  0.00  0.00    -0.526 OA
ATOM      8  H5  UNL d   1       1.433  -0.832  -1.574  0.00  0.00     0.418 HD
ENDBRANCH   4   7
TORSDOF 1
ENDMDL
