MODEL 1
REMARK minimizedAffinity -5.6424675
REMARK minimizedRMSD -1
REMARK  1 active torsions:
REMARK  status: ('A' for Active; 'I' for Inactive)
REMARK    1  A    between atoms: C3_4  and  O_7 
ROOT
ATOM      1  C   UNL d   1       0.487  -0.665  -0.523  0.00  0.00    -0.033 A 
ATOM      2  C1  UNL d   1       1.775  -0.904  -0.040  0.00  0.00     0.039 A 
ATOM      3  C2  UNL d   1       2.047  -0.775   1.324  0.00  0.00    -0.080 A 
ATOM      4  C3  UNL d   1       1.023  -0.408   2.193  0.00  0.00     0.150 A 
ATOM      5  C4  UNL d   1      -0.264  -0.173   1.719  0.00  0.00    -0.007 A 
ATOM      6  C5  UNL d   1      -0.533  -0.301   0.357  0.00  0.00     0.039 A 
ENDROOT
BRANCH   4   7
ATOM      7  O   UNL d   1       1.240  -0.266   3.531  0.00  0.00    -0.526 OA
ATOM      8  H5  UNL d   1       2.181  -0.432   3.709  0.00  0.00     0.418 HD
ENDBRANCH   4   7
TORSDOF 1
ENDMDL
