MODEL 1
REMARK minimizedAffinity -4.00975943
REMARK minimizedRMSD -1
REMARK  1 active torsions:
REMARK  status: ('A' for Active; 'I' for Inactive)
REMARK    1  A    between atoms: C3_4  and  O_7 
ROOT
ATOM      1  C   UNL d   1       2.980  -1.010   3.092  0.00  0.00    -0.033 A 
ATOM      2  C1  UNL d   1       2.129  -2.107   2.940  0.00  0.00     0.039 A 
ATOM      3  C2  UNL d   1       1.220  -2.146   1.881  0.00  0.00    -0.080 A 
ATOM      4  C3  UNL d   1       1.171  -1.084   0.982  0.00  0.00     0.150 A 
ATOM      5  C4  UNL d   1       2.018   0.010   1.126  0.00  0.00    -0.007 A 
ATOM      6  C5  UNL d   1       2.925   0.048   2.184  0.00  0.00     0.039 A 
ENDROOT
BRANCH   4   7
ATOM      7  O   UNL d   1       0.297  -1.076  -0.064  0.00  0.00    -0.526 OA
ATOM      8  H5  UNL d   1      -0.244  -1.882  -0.020  0.00  0.00     0.418 HD
ENDBRANCH   4   7
TORSDOF 1
ENDMDL
