MODEL 1
REMARK minimizedAffinity -4.35162067
REMARK minimizedRMSD -1
REMARK  1 active torsions:
REMARK  status: ('A' for Active; 'I' for Inactive)
REMARK    1  A    between atoms: C3_4  and  O_7 
ROOT
ATOM      1  C   UNL d   1      -1.364   0.220   1.143  0.00  0.00    -0.033 A 
ATOM      2  C1  UNL d   1      -0.822   0.171  -0.143  0.00  0.00     0.039 A 
ATOM      3  C2  UNL d   1       0.380  -0.502  -0.370  0.00  0.00    -0.080 A 
ATOM      4  C3  UNL d   1       1.028  -1.123   0.695  0.00  0.00     0.150 A 
ATOM      5  C4  UNL d   1       0.491  -1.081   1.977  0.00  0.00    -0.007 A 
ATOM      6  C5  UNL d   1      -0.708  -0.407   2.203  0.00  0.00     0.039 A 
ENDROOT
BRANCH   4   7
ATOM      7  O   UNL d   1       2.205  -1.788   0.522  0.00  0.00    -0.526 OA
ATOM      8  H5  UNL d   1       2.470  -1.709  -0.409  0.00  0.00     0.418 HD
ENDBRANCH   4   7
TORSDOF 1
ENDMDL
