MODEL 1
REMARK minimizedAffinity 7.08843565
REMARK minimizedRMSD -1
REMARK  0 active torsions:
REMARK  status: ('A' for Active; 'I' for Inactive)
ROOT
ATOM      1  C2' OXE d   1      -5.538   4.178  -5.024  0.00  0.00     0.078 C 
ATOM      2  C1' OXE d   1      -3.301   3.625  -3.420  0.00  0.00     0.078 C 
ATOM      3  C1  OXE d   1      -4.120   2.458  -3.912  0.00  0.00    -0.078 A 
ATOM      4  C2  OXE d   1      -5.239   2.740  -4.657  0.00  0.00    -0.078 A 
ATOM      5  C3  OXE d   1      -5.999   1.698  -5.182  0.00  0.00     0.003 A 
ATOM      6  C4  OXE d   1      -5.722   0.372  -4.830  0.00  0.00    -0.002 A 
ATOM      7  C5  OXE d   1      -4.609   0.065  -4.039  0.00  0.00    -0.002 A 
ATOM      8  C6  OXE d   1      -3.775   1.091  -3.609  0.00  0.00     0.003 A 
ENDROOT
TORSDOF 0
ENDMDL
