MODEL 1
REMARK minimizedAffinity -0.907380819
REMARK minimizedRMSD -1
REMARK  0 active torsions:
REMARK  status: ('A' for Active; 'I' for Inactive)
ROOT
ATOM      1  C2' OXE d   1      -3.779   1.510  -2.507  0.00  0.00     0.078 C 
ATOM      2  C1' OXE d   1      -4.452  -0.384  -4.466  0.00  0.00     0.078 C 
ATOM      3  C1  OXE d   1      -4.876   1.045  -4.694  0.00  0.00    -0.078 A 
ATOM      4  C2  OXE d   1      -4.584   1.957  -3.709  0.00  0.00    -0.078 A 
ATOM      5  C3  OXE d   1      -4.904   3.298  -3.893  0.00  0.00     0.003 A 
ATOM      6  C4  OXE d   1      -5.657   3.701  -5.003  0.00  0.00    -0.002 A 
ATOM      7  C5  OXE d   1      -6.000   2.782  -6.000  0.00  0.00    -0.002 A 
ATOM      8  C6  OXE d   1      -5.581   1.461  -5.882  0.00  0.00     0.003 A 
ENDROOT
TORSDOF 0
ENDMDL
