MODEL 1
REMARK minimizedAffinity 10.2212706
REMARK minimizedRMSD -1
REMARK  0 active torsions:
REMARK  status: ('A' for Active; 'I' for Inactive)
ROOT
ATOM      1  C2' OXE d   1       0.133   0.069   2.069  0.00  0.00     0.078 C 
ATOM      2  C1' OXE d   1      -0.352   2.287   0.417  0.00  0.00     0.078 C 
ATOM      3  C1  OXE d   1       0.127   2.548   1.823  0.00  0.00    -0.078 A 
ATOM      4  C2  OXE d   1       0.317   1.459   2.639  0.00  0.00    -0.078 A 
ATOM      5  C3  OXE d   1       0.810   1.641   3.928  0.00  0.00     0.003 A 
ATOM      6  C4  OXE d   1       0.968   2.930   4.451  0.00  0.00    -0.002 A 
ATOM      7  C5  OXE d   1       0.742   4.054   3.650  0.00  0.00    -0.002 A 
ATOM      8  C6  OXE d   1       0.363   3.880   2.323  0.00  0.00     0.003 A 
ENDROOT
TORSDOF 0
ENDMDL
