MODEL 1
REMARK minimizedAffinity 1.82520127
REMARK minimizedRMSD -1
REMARK  0 active torsions:
REMARK  status: ('A' for Active; 'I' for Inactive)
ROOT
ATOM      1  C2' OXE d   1      -3.282   2.859  -3.210  0.00  0.00     0.078 C 
ATOM      2  C1' OXE d   1      -4.859   1.253  -4.888  0.00  0.00     0.078 C 
ATOM      3  C1  OXE d   1      -4.994   2.750  -5.016  0.00  0.00    -0.078 A 
ATOM      4  C2  OXE d   1      -4.253   3.528  -4.159  0.00  0.00    -0.078 A 
ATOM      5  C3  OXE d   1      -4.299   4.914  -4.272  0.00  0.00     0.003 A 
ATOM      6  C4  OXE d   1      -5.207   5.525  -5.145  0.00  0.00    -0.002 A 
ATOM      7  C5  OXE d   1      -6.000   4.751  -6.000  0.00  0.00    -0.002 A 
ATOM      8  C6  OXE d   1      -5.875   3.366  -5.978  0.00  0.00     0.003 A 
ENDROOT
TORSDOF 0
ENDMDL
