MODEL 1
REMARK minimizedAffinity -0.413054585
REMARK minimizedRMSD -1
REMARK  0 active torsions:
REMARK  status: ('A' for Active; 'I' for Inactive)
ROOT
ATOM      1  C2' OXE d   1      -0.297  -1.046  -3.906  0.00  0.00     0.078 C 
ATOM      2  C1' OXE d   1       0.437  -3.185  -2.242  0.00  0.00     0.078 C 
ATOM      3  C1  OXE d   1       0.407  -1.803  -1.639  0.00  0.00    -0.078 A 
ATOM      4  C2  OXE d   1       0.092  -0.756  -2.472  0.00  0.00    -0.078 A 
ATOM      5  C3  OXE d   1      -0.004   0.532  -1.954  0.00  0.00     0.003 A 
ATOM      6  C4  OXE d   1       0.367   0.793  -0.629  0.00  0.00    -0.002 A 
ATOM      7  C5  OXE d   1       0.729  -0.253   0.226  0.00  0.00    -0.002 A 
ATOM      8  C6  OXE d   1       0.713  -1.559  -0.251  0.00  0.00     0.003 A 
ENDROOT
TORSDOF 0
ENDMDL
