MODEL 1
REMARK minimizedAffinity 0.842932105
REMARK minimizedRMSD -1
REMARK  0 active torsions:
REMARK  status: ('A' for Active; 'I' for Inactive)
ROOT
ATOM      1  C2' OXE d   1       1.582  -1.836   2.014  0.00  0.00     0.078 C 
ATOM      2  C1' OXE d   1       2.273  -2.879   4.527  0.00  0.00     0.078 C 
ATOM      3  C1  OXE d   1       0.818  -2.581   4.265  0.00  0.00    -0.078 A 
ATOM      4  C2  OXE d   1       0.495  -2.027   3.049  0.00  0.00    -0.078 A 
ATOM      5  C3  OXE d   1      -0.840  -1.783   2.736  0.00  0.00     0.003 A 
ATOM      6  C4  OXE d   1      -1.838  -1.953   3.703  0.00  0.00    -0.002 A 
ATOM      7  C5  OXE d   1      -1.525  -2.479   4.961  0.00  0.00    -0.002 A 
ATOM      8  C6  OXE d   1      -0.211  -2.837   5.243  0.00  0.00     0.003 A 
ENDROOT
TORSDOF 0
ENDMDL
