MODEL 1
REMARK minimizedAffinity 5.16922808
REMARK minimizedRMSD -1
REMARK  0 active torsions:
REMARK  status: ('A' for Active; 'I' for Inactive)
ROOT
ATOM      1  C2' OXE d   1      -2.514   2.635  -3.705  0.00  0.00     0.078 C 
ATOM      2  C1' OXE d   1      -2.188   4.952  -5.255  0.00  0.00     0.078 C 
ATOM      3  C1  OXE d   1      -3.544   4.292  -5.254  0.00  0.00    -0.078 A 
ATOM      4  C2  OXE d   1      -3.682   3.132  -4.530  0.00  0.00    -0.078 A 
ATOM      5  C3  OXE d   1      -4.926   2.512  -4.450  0.00  0.00     0.003 A 
ATOM      6  C4  OXE d   1      -5.998   2.973  -5.224  0.00  0.00    -0.002 A 
ATOM      7  C5  OXE d   1      -5.868   4.130  -6.000  0.00  0.00    -0.002 A 
ATOM      8  C6  OXE d   1      -4.663   4.824  -5.992  0.00  0.00     0.003 A 
ENDROOT
TORSDOF 0
ENDMDL
