MODEL 1
REMARK minimizedAffinity 2.26008248
REMARK minimizedRMSD -1
REMARK  0 active torsions:
REMARK  status: ('A' for Active; 'I' for Inactive)
ROOT
ATOM      1  C2' OXE d   1      -0.004   6.000   2.528  0.00  0.00     0.078 C 
ATOM      2  C1' OXE d   1       1.016   5.549  -0.048  0.00  0.00     0.078 C 
ATOM      3  C1  OXE d   1       0.577   4.350   0.755  0.00  0.00    -0.078 A 
ATOM      4  C2  OXE d   1       0.122   4.576   2.032  0.00  0.00    -0.078 A 
ATOM      5  C3  OXE d   1      -0.347   3.510   2.795  0.00  0.00     0.003 A 
ATOM      6  C4  OXE d   1      -0.217   2.195   2.332  0.00  0.00    -0.002 A 
ATOM      7  C5  OXE d   1       0.281   1.940   1.049  0.00  0.00    -0.002 A 
ATOM      8  C6  OXE d   1       0.641   3.007   0.233  0.00  0.00     0.003 A 
ENDROOT
TORSDOF 0
ENDMDL
