MODEL 1
REMARK minimizedAffinity 7.13637304
REMARK minimizedRMSD -1
REMARK  0 active torsions:
REMARK  status: ('A' for Active; 'I' for Inactive)
ROOT
ATOM      1  C2' OXE d   1      -0.279   1.278  -3.596  0.00  0.00     0.078 C 
ATOM      2  C1' OXE d   1      -2.517   1.835  -1.995  0.00  0.00     0.078 C 
ATOM      3  C1  OXE d   1      -1.245   1.416  -1.303  0.00  0.00    -0.078 A 
ATOM      4  C2  OXE d   1      -0.168   1.100  -2.097  0.00  0.00    -0.078 A 
ATOM      5  C3  OXE d   1       1.046   0.760  -1.508  0.00  0.00     0.003 A 
ATOM      6  C4  OXE d   1       1.138   0.588  -0.121  0.00  0.00    -0.002 A 
ATOM      7  C5  OXE d   1       0.042   0.866   0.703  0.00  0.00    -0.002 A 
ATOM      8  C6  OXE d   1      -1.141   1.321   0.132  0.00  0.00     0.003 A 
ENDROOT
TORSDOF 0
ENDMDL
