MODEL 1
REMARK minimizedAffinity 1.00547278
REMARK minimizedRMSD -1
REMARK  0 active torsions:
REMARK  status: ('A' for Active; 'I' for Inactive)
ROOT
ATOM      1  C2' OXE d   1      -0.197   0.191   2.998  0.00  0.00     0.078 C 
ATOM      2  C1' OXE d   1       0.755   1.602   0.766  0.00  0.00     0.078 C 
ATOM      3  C1  OXE d   1       0.633   2.349   2.071  0.00  0.00    -0.078 A 
ATOM      4  C2  OXE d   1       0.122   1.663   3.146  0.00  0.00    -0.078 A 
ATOM      5  C3  OXE d   1       0.039   2.288   4.387  0.00  0.00     0.003 A 
ATOM      6  C4  OXE d   1       0.326   3.653   4.513  0.00  0.00    -0.002 A 
ATOM      7  C5  OXE d   1       0.811   4.380   3.421  0.00  0.00    -0.002 A 
ATOM      8  C6  OXE d   1       1.010   3.734   2.206  0.00  0.00     0.003 A 
ENDROOT
TORSDOF 0
ENDMDL
