MODEL 1
REMARK minimizedAffinity 3.84202123
REMARK minimizedRMSD -1
REMARK  0 active torsions:
REMARK  status: ('A' for Active; 'I' for Inactive)
ROOT
ATOM      1  C2' OXE d   1      -4.111  -0.123  -4.122  0.00  0.00     0.078 C 
ATOM      2  C1' OXE d   1      -4.078   1.865  -2.140  0.00  0.00     0.078 C 
ATOM      3  C1  OXE d   1      -4.773   2.179  -3.441  0.00  0.00    -0.078 A 
ATOM      4  C2  OXE d   1      -4.744   1.218  -4.422  0.00  0.00    -0.078 A 
ATOM      5  C3  OXE d   1      -5.417   1.435  -5.621  0.00  0.00     0.003 A 
ATOM      6  C4  OXE d   1      -5.992   2.682  -5.895  0.00  0.00    -0.002 A 
ATOM      7  C5  OXE d   1      -5.998   3.690  -4.924  0.00  0.00    -0.002 A 
ATOM      8  C6  OXE d   1      -5.432   3.440  -3.679  0.00  0.00     0.003 A 
ENDROOT
TORSDOF 0
ENDMDL
