MODEL 1
REMARK minimizedAffinity -2.747293
REMARK minimizedRMSD -1
REMARK  0 active torsions:
REMARK  status: ('A' for Active; 'I' for Inactive)
ROOT
ATOM      1  C2' OXE d   1      -3.974   1.583  -4.419  0.00  0.00     0.078 C 
ATOM      2  C1' OXE d   1      -5.201   4.032  -5.035  0.00  0.00     0.078 C 
ATOM      3  C1  OXE d   1      -5.258   3.557  -3.604  0.00  0.00    -0.078 A 
ATOM      4  C2  OXE d   1      -4.696   2.335  -3.321  0.00  0.00    -0.078 A 
ATOM      5  C3  OXE d   1      -4.673   1.875  -2.008  0.00  0.00     0.003 A 
ATOM      6  C4  OXE d   1      -5.351   2.572  -1.000  0.00  0.00    -0.002 A 
ATOM      7  C5  OXE d   1      -5.964   3.799  -1.275  0.00  0.00    -0.002 A 
ATOM      8  C6  OXE d   1      -5.890   4.325  -2.560  0.00  0.00     0.003 A 
ENDROOT
TORSDOF 0
ENDMDL
