MODEL 1
REMARK minimizedAffinity 1.84490204
REMARK minimizedRMSD -1
REMARK  0 active torsions:
REMARK  status: ('A' for Active; 'I' for Inactive)
ROOT
ATOM      1  C2' OXE d   1       4.647  -3.975  -3.644  0.00  0.00     0.078 C 
ATOM      2  C1' OXE d   1       3.504  -4.428  -1.120  0.00  0.00     0.078 C 
ATOM      3  C1  OXE d   1       2.579  -4.072  -2.258  0.00  0.00    -0.078 A 
ATOM      4  C2  OXE d   1       3.152  -3.806  -3.478  0.00  0.00    -0.078 A 
ATOM      5  C3  OXE d   1       2.341  -3.526  -4.574  0.00  0.00     0.003 A 
ATOM      6  C4  OXE d   1       0.960  -3.362  -4.410  0.00  0.00    -0.002 A 
ATOM      7  C5  OXE d   1       0.361  -3.589  -3.167  0.00  0.00    -0.002 A 
ATOM      8  C6  OXE d   1       1.149  -3.986  -2.092  0.00  0.00     0.003 A 
ENDROOT
TORSDOF 0
ENDMDL
