MODEL 1
REMARK minimizedAffinity -3.24820471
REMARK minimizedRMSD -1
REMARK  0 active torsions:
REMARK  status: ('A' for Active; 'I' for Inactive)
ROOT
ATOM      1  C2' OXE d   1      -4.504   0.002  -4.123  0.00  0.00     0.078 C 
ATOM      2  C1' OXE d   1      -4.509   1.868  -2.025  0.00  0.00     0.078 C 
ATOM      3  C1  OXE d   1      -5.047   2.312  -3.362  0.00  0.00    -0.078 A 
ATOM      4  C2  OXE d   1      -4.998   1.407  -4.395  0.00  0.00    -0.078 A 
ATOM      5  C3  OXE d   1      -5.531   1.747  -5.635  0.00  0.00     0.003 A 
ATOM      6  C4  OXE d   1      -5.976   3.051  -5.882  0.00  0.00    -0.002 A 
ATOM      7  C5  OXE d   1      -5.998   4.000  -4.854  0.00  0.00    -0.002 A 
ATOM      8  C6  OXE d   1      -5.578   3.635  -3.580  0.00  0.00     0.003 A 
ENDROOT
TORSDOF 0
ENDMDL
