MODEL 1
REMARK minimizedAffinity 0.993684232
REMARK minimizedRMSD -1
REMARK  0 active torsions:
REMARK  status: ('A' for Active; 'I' for Inactive)
ROOT
ATOM      1  C2' OXE d   1      -4.698   0.400  -3.739  0.00  0.00     0.078 C 
ATOM      2  C1' OXE d   1      -4.674   2.572  -1.961  0.00  0.00     0.078 C 
ATOM      3  C1  OXE d   1      -5.159   2.820  -3.367  0.00  0.00    -0.078 A 
ATOM      4  C2  OXE d   1      -5.124   1.762  -4.244  0.00  0.00    -0.078 A 
ATOM      5  C3  OXE d   1      -5.611   1.922  -5.538  0.00  0.00     0.003 A 
ATOM      6  C4  OXE d   1      -5.994   3.187  -6.000  0.00  0.00    -0.002 A 
ATOM      7  C5  OXE d   1      -6.000   4.287  -5.135  0.00  0.00    -0.002 A 
ATOM      8  C6  OXE d   1      -5.627   4.111  -3.807  0.00  0.00     0.003 A 
ENDROOT
TORSDOF 0
ENDMDL
