MODEL 1
REMARK minimizedAffinity 1.70324898
REMARK minimizedRMSD -1
REMARK  0 active torsions:
REMARK  status: ('A' for Active; 'I' for Inactive)
ROOT
ATOM      1  C2' OXE d   1      -4.177   2.242  -2.361  0.00  0.00     0.078 C 
ATOM      2  C1' OXE d   1      -4.109   0.661  -4.680  0.00  0.00     0.078 C 
ATOM      3  C1  OXE d   1      -4.766   2.016  -4.771  0.00  0.00    -0.078 A 
ATOM      4  C2  OXE d   1      -4.836   2.763  -3.620  0.00  0.00    -0.078 A 
ATOM      5  C3  OXE d   1      -5.383   4.043  -3.661  0.00  0.00     0.003 A 
ATOM      6  C4  OXE d   1      -6.000   4.513  -4.827  0.00  0.00    -0.002 A 
ATOM      7  C5  OXE d   1      -5.975   3.751  -6.000  0.00  0.00    -0.002 A 
ATOM      8  C6  OXE d   1      -5.326   2.521  -6.000  0.00  0.00     0.003 A 
ENDROOT
TORSDOF 0
ENDMDL
