MODEL 1
REMARK minimizedAffinity 3.62975335
REMARK minimizedRMSD -1
REMARK  0 active torsions:
REMARK  status: ('A' for Active; 'I' for Inactive)
ROOT
ATOM      1  C2' OXE d   1       1.584  -0.347   0.224  0.00  0.00     0.078 C 
ATOM      2  C1' OXE d   1      -1.092  -1.143  -0.061  0.00  0.00     0.078 C 
ATOM      3  C1  OXE d   1      -0.669   0.147  -0.717  0.00  0.00    -0.078 A 
ATOM      4  C2  OXE d   1       0.631   0.552  -0.533  0.00  0.00    -0.078 A 
ATOM      5  C3  OXE d   1       1.089   1.707  -1.162  0.00  0.00     0.003 A 
ATOM      6  C4  OXE d   1       0.198   2.538  -1.853  0.00  0.00    -0.002 A 
ATOM      7  C5  OXE d   1      -1.140   2.164  -2.018  0.00  0.00    -0.002 A 
ATOM      8  C6  OXE d   1      -1.578   0.953  -1.494  0.00  0.00     0.003 A 
ENDROOT
TORSDOF 0
ENDMDL
