MODEL 1
REMARK minimizedAffinity 4.63208723
REMARK minimizedRMSD -1
REMARK  0 active torsions:
REMARK  status: ('A' for Active; 'I' for Inactive)
ROOT
ATOM      1  C2' OXE d   1       0.499   0.638  -1.570  0.00  0.00     0.078 C 
ATOM      2  C1' OXE d   1      -2.160   1.301  -0.961  0.00  0.00     0.078 C 
ATOM      3  C1  OXE d   1      -1.242   0.953   0.184  0.00  0.00    -0.078 A 
ATOM      4  C2  OXE d   1       0.044   0.585  -0.127  0.00  0.00    -0.078 A 
ATOM      5  C3  OXE d   1       0.948   0.307   0.895  0.00  0.00     0.003 A 
ATOM      6  C4  OXE d   1       0.517   0.250   2.226  0.00  0.00    -0.002 A 
ATOM      7  C5  OXE d   1      -0.800   0.583   2.560  0.00  0.00    -0.002 A 
ATOM      8  C6  OXE d   1      -1.679   0.978   1.558  0.00  0.00     0.003 A 
ENDROOT
TORSDOF 0
ENDMDL
