MODEL 1
REMARK minimizedAffinity 1.54400277
REMARK minimizedRMSD -1
REMARK  0 active torsions:
REMARK  status: ('A' for Active; 'I' for Inactive)
ROOT
ATOM      1  C   UNL d   1      -1.349   0.195   0.683  0.00  0.00     0.023 A 
ATOM      2  C1  UNL d   1      -1.913   0.860  -0.405  0.00  0.00     0.003 A 
ATOM      3  C2  UNL d   1      -1.263   0.855  -1.641  0.00  0.00     0.048 A 
ATOM      4  C3  UNL d   1      -0.050   0.182  -1.782  0.00  0.00     0.023 A 
ATOM      5  C4  UNL d   1       0.517  -0.486  -0.696  0.00  0.00     0.048 A 
ATOM      6  C5  UNL d   1      -0.136  -0.478   0.538  0.00  0.00     0.003 A 
ATOM      7  I   UNL d   1       0.919   0.174  -3.620  0.00  0.00    -0.146 I 
ENDROOT
TORSDOF 0
ENDMDL
