MODEL 1
REMARK minimizedAffinity -0.777529418
REMARK minimizedRMSD -1
REMARK  0 active torsions:
REMARK  status: ('A' for Active; 'I' for Inactive)
ROOT
ATOM      1  C   UNL d   1      -0.739   0.373   1.380  0.00  0.00     0.023 A 
ATOM      2  C1  UNL d   1      -1.641   0.872   0.441  0.00  0.00     0.003 A 
ATOM      3  C2  UNL d   1      -1.411   0.678  -0.923  0.00  0.00     0.048 A 
ATOM      4  C3  UNL d   1      -0.276  -0.017  -1.340  0.00  0.00     0.023 A 
ATOM      5  C4  UNL d   1       0.629  -0.519  -0.403  0.00  0.00     0.048 A 
ATOM      6  C5  UNL d   1       0.395  -0.321   0.959  0.00  0.00     0.003 A 
ATOM      7  I   UNL d   1       0.070  -0.307  -3.369  0.00  0.00    -0.146 I 
ENDROOT
TORSDOF 0
ENDMDL
