MODEL 1
REMARK minimizedAffinity -0.329890668
REMARK minimizedRMSD -1
REMARK  0 active torsions:
REMARK  status: ('A' for Active; 'I' for Inactive)
ROOT
ATOM      1  C   UNL d   1      -1.889   0.582   1.852  0.00  0.00     0.023 A 
ATOM      2  C1  UNL d   1      -0.712  -0.167   1.870  0.00  0.00     0.003 A 
ATOM      3  C2  UNL d   1      -0.017  -0.406   0.683  0.00  0.00     0.048 A 
ATOM      4  C3  UNL d   1      -0.504   0.108  -0.519  0.00  0.00     0.023 A 
ATOM      5  C4  UNL d   1      -1.680   0.858  -0.541  0.00  0.00     0.048 A 
ATOM      6  C5  UNL d   1      -2.372   1.094   0.648  0.00  0.00     0.003 A 
ATOM      7  I   UNL d   1       0.529  -0.247  -2.287  0.00  0.00    -0.146 I 
ENDROOT
TORSDOF 0
ENDMDL
