MODEL 1
REMARK minimizedAffinity -3.25203538
REMARK minimizedRMSD -1
REMARK  0 active torsions:
REMARK  status: ('A' for Active; 'I' for Inactive)
ROOT
ATOM      1  C   UNL d   1      -1.608   1.004   1.422  0.00  0.00     0.023 A 
ATOM      2  C1  UNL d   1      -0.463   0.216   1.542  0.00  0.00     0.003 A 
ATOM      3  C2  UNL d   1       0.276  -0.120   0.407  0.00  0.00     0.048 A 
ATOM      4  C3  UNL d   1      -0.134   0.335  -0.846  0.00  0.00     0.023 A 
ATOM      5  C4  UNL d   1      -1.279   1.124  -0.970  0.00  0.00     0.048 A 
ATOM      6  C5  UNL d   1      -2.016   1.457   0.168  0.00  0.00     0.003 A 
ATOM      7  I   UNL d   1       0.965  -0.164  -2.537  0.00  0.00    -0.146 I 
ENDROOT
TORSDOF 0
ENDMDL
