MODEL 1
REMARK minimizedAffinity -4.21569586
REMARK minimizedRMSD -1
REMARK  0 active torsions:
REMARK  status: ('A' for Active; 'I' for Inactive)
ROOT
ATOM      1  C   UNL d   1      -1.034   0.165   2.123  0.00  0.00     0.023 A 
ATOM      2  C1  UNL d   1       0.193  -0.474   1.944  0.00  0.00     0.003 A 
ATOM      3  C2  UNL d   1       0.773  -0.531   0.675  0.00  0.00     0.048 A 
ATOM      4  C3  UNL d   1       0.122   0.054  -0.410  0.00  0.00     0.023 A 
ATOM      5  C4  UNL d   1      -1.105   0.696  -0.236  0.00  0.00     0.048 A 
ATOM      6  C5  UNL d   1      -1.682   0.750   1.034  0.00  0.00     0.003 A 
ATOM      7  I   UNL d   1       0.984  -0.030  -2.300  0.00  0.00    -0.146 I 
ENDROOT
TORSDOF 0
ENDMDL
