MODEL 1
REMARK minimizedAffinity -3.49800777
REMARK minimizedRMSD -1
REMARK  0 active torsions:
REMARK  status: ('A' for Active; 'I' for Inactive)
ROOT
ATOM      1  C   UNL d   1       1.514  -0.369   3.724  0.00  0.00     0.023 A 
ATOM      2  C1  UNL d   1       0.231   0.165   3.852  0.00  0.00     0.003 A 
ATOM      3  C2  UNL d   1      -0.573   0.330   2.723  0.00  0.00     0.048 A 
ATOM      4  C3  UNL d   1      -0.090  -0.042   1.469  0.00  0.00     0.023 A 
ATOM      5  C4  UNL d   1       1.193  -0.577   1.336  0.00  0.00     0.048 A 
ATOM      6  C5  UNL d   1       1.994  -0.739   2.468  0.00  0.00     0.003 A 
ATOM      7  I   UNL d   1      -1.286   0.203  -0.213  0.00  0.00    -0.146 I 
ENDROOT
TORSDOF 0
ENDMDL
