MODEL 1
REMARK minimizedAffinity -3.1772294
REMARK minimizedRMSD -1
REMARK  0 active torsions:
REMARK  status: ('A' for Active; 'I' for Inactive)
ROOT
ATOM      1  C   UNL d   1       0.004  -0.193   3.299  0.00  0.00     0.023 A 
ATOM      2  C1  UNL d   1      -1.128   0.186   2.576  0.00  0.00     0.003 A 
ATOM      3  C2  UNL d   1      -1.136   0.083   1.184  0.00  0.00     0.048 A 
ATOM      4  C3  UNL d   1      -0.009  -0.399   0.520  0.00  0.00     0.023 A 
ATOM      5  C4  UNL d   1       1.126  -0.780   1.238  0.00  0.00     0.048 A 
ATOM      6  C5  UNL d   1       1.129  -0.675   2.631  0.00  0.00     0.003 A 
ATOM      7  I   UNL d   1      -0.018  -0.553  -1.553  0.00  0.00    -0.146 I 
ENDROOT
TORSDOF 0
ENDMDL
