MODEL 1
REMARK minimizedAffinity -2.54551673
REMARK minimizedRMSD -1
REMARK  0 active torsions:
REMARK  status: ('A' for Active; 'I' for Inactive)
ROOT
ATOM      1  O1  BZF d   1      -2.367  -5.993  -5.283  0.00  0.00    -0.204 OA
ATOM      2  C2  BZF d   1      -1.395  -5.041  -5.526  0.00  0.00     0.174 A 
ATOM      3  C3  BZF d   1      -1.954  -3.869  -5.890  0.00  0.00    -0.012 A 
ATOM      4  C3A BZF d   1      -3.366  -4.076  -5.784  0.00  0.00    -0.107 A 
ATOM      5  C4  BZF d   1      -4.451  -3.274  -5.997  0.00  0.00     0.055 A 
ATOM      6  C5  BZF d   1      -5.696  -3.803  -5.875  0.00  0.00    -0.016 A 
ATOM      7  C6  BZF d   1      -5.894  -5.128  -5.547  0.00  0.00     0.022 A 
ATOM      8  C7  BZF d   1      -4.849  -5.961  -5.321  0.00  0.00     0.029 A 
ATOM      9  C7A BZF d   1      -3.589  -5.421  -5.411  0.00  0.00     0.058 A 
ENDROOT
TORSDOF 0
ENDMDL
