MODEL 1
REMARK minimizedAffinity -4.13171387
REMARK minimizedRMSD -1
REMARK  0 active torsions:
REMARK  status: ('A' for Active; 'I' for Inactive)
ROOT
ATOM      1  O1  BZF d   1      -3.703  -5.977  -3.729  0.00  0.00    -0.204 OA
ATOM      2  C2  BZF d   1      -2.380  -5.605  -3.589  0.00  0.00     0.174 A 
ATOM      3  C3  BZF d   1      -2.126  -4.473  -4.278  0.00  0.00    -0.012 A 
ATOM      4  C3A BZF d   1      -3.389  -4.065  -4.811  0.00  0.00    -0.107 A 
ATOM      5  C4  BZF d   1      -3.789  -3.005  -5.573  0.00  0.00     0.055 A 
ATOM      6  C5  BZF d   1      -5.082  -2.937  -5.985  0.00  0.00    -0.016 A 
ATOM      7  C6  BZF d   1      -6.000  -3.914  -5.658  0.00  0.00     0.022 A 
ATOM      8  C7  BZF d   1      -5.652  -4.982  -4.901  0.00  0.00     0.029 A 
ATOM      9  C7A BZF d   1      -4.354  -5.036  -4.455  0.00  0.00     0.058 A 
ENDROOT
TORSDOF 0
ENDMDL
