MODEL 1
REMARK minimizedAffinity -4.36350632
REMARK minimizedRMSD -1
REMARK  0 active torsions:
REMARK  status: ('A' for Active; 'I' for Inactive)
ROOT
ATOM      1  O1  BZF d   1      -2.454  -4.865  -3.801  0.00  0.00    -0.204 OA
ATOM      2  C2  BZF d   1      -2.002  -5.255  -5.047  0.00  0.00     0.174 A 
ATOM      3  C3  BZF d   1      -2.920  -4.981  -5.996  0.00  0.00    -0.012 A 
ATOM      4  C3A BZF d   1      -3.976  -4.299  -5.313  0.00  0.00    -0.107 A 
ATOM      5  C4  BZF d   1      -5.162  -3.759  -5.721  0.00  0.00     0.055 A 
ATOM      6  C5  BZF d   1      -6.000  -3.228  -4.791  0.00  0.00    -0.016 A 
ATOM      7  C6  BZF d   1      -5.686  -3.226  -3.448  0.00  0.00     0.022 A 
ATOM      8  C7  BZF d   1      -4.518  -3.745  -2.997  0.00  0.00     0.029 A 
ATOM      9  C7A BZF d   1      -3.655  -4.253  -3.937  0.00  0.00     0.058 A 
ENDROOT
TORSDOF 0
ENDMDL
