MODEL 1
REMARK minimizedAffinity -3.34739256
REMARK minimizedRMSD -1
REMARK  0 active torsions:
REMARK  status: ('A' for Active; 'I' for Inactive)
ROOT
ATOM      1  O1  BZF d   1      -5.710  -4.448  -4.414  0.00  0.00    -0.204 OA
ATOM      2  C2  BZF d   1      -5.998  -3.172  -4.856  0.00  0.00     0.174 A 
ATOM      3  C3  BZF d   1      -4.931  -2.627  -5.475  0.00  0.00    -0.012 A 
ATOM      4  C3A BZF d   1      -3.942  -3.661  -5.498  0.00  0.00    -0.107 A 
ATOM      5  C4  BZF d   1      -2.672  -3.734  -5.994  0.00  0.00     0.055 A 
ATOM      6  C5  BZF d   1      -1.946  -4.864  -5.788  0.00  0.00    -0.016 A 
ATOM      7  C6  BZF d   1      -2.457  -5.937  -5.086  0.00  0.00     0.022 A 
ATOM      8  C7  BZF d   1      -3.713  -5.913  -4.580  0.00  0.00     0.029 A 
ATOM      9  C7A BZF d   1      -4.461  -4.785  -4.815  0.00  0.00     0.058 A 
ENDROOT
TORSDOF 0
ENDMDL
