MODEL 1
REMARK minimizedAffinity 1.37886226
REMARK minimizedRMSD -1
REMARK  0 active torsions:
REMARK  status: ('A' for Active; 'I' for Inactive)
ROOT
ATOM      1  O1  BZF d   1      -3.130  -5.983  -5.971  0.00  0.00    -0.204 OA
ATOM      2  C2  BZF d   1      -2.001  -5.909  -5.178  0.00  0.00     0.174 A 
ATOM      3  C3  BZF d   1      -2.134  -4.944  -4.245  0.00  0.00    -0.012 A 
ATOM      4  C3A BZF d   1      -3.464  -4.442  -4.410  0.00  0.00    -0.107 A 
ATOM      5  C4  BZF d   1      -4.192  -3.483  -3.766  0.00  0.00     0.055 A 
ATOM      6  C5  BZF d   1      -5.437  -3.183  -4.219  0.00  0.00    -0.016 A 
ATOM      7  C6  BZF d   1      -5.983  -3.819  -5.315  0.00  0.00     0.022 A 
ATOM      8  C7  BZF d   1      -5.301  -4.781  -5.983  0.00  0.00     0.029 A 
ATOM      9  C7A BZF d   1      -4.055  -5.109  -5.507  0.00  0.00     0.058 A 
ENDROOT
TORSDOF 0
ENDMDL
