MODEL 1
REMARK minimizedAffinity 0.625111699
REMARK minimizedRMSD -1
REMARK  0 active torsions:
REMARK  status: ('A' for Active; 'I' for Inactive)
ROOT
ATOM      1  O1  BZF d   1      -2.587  -5.327  -3.807  0.00  0.00    -0.204 OA
ATOM      2  C2  BZF d   1      -2.238  -6.000  -4.962  0.00  0.00     0.174 A 
ATOM      3  C3  BZF d   1      -3.041  -5.643  -5.985  0.00  0.00    -0.012 A 
ATOM      4  C3A BZF d   1      -3.890  -4.619  -5.457  0.00  0.00    -0.107 A 
ATOM      5  C4  BZF d   1      -4.889  -3.859  -5.994  0.00  0.00     0.055 A 
ATOM      6  C5  BZF d   1      -5.570  -3.000  -5.191  0.00  0.00    -0.016 A 
ATOM      7  C6  BZF d   1      -5.282  -2.880  -3.847  0.00  0.00     0.022 A 
ATOM      8  C7  BZF d   1      -4.296  -3.609  -3.270  0.00  0.00     0.029 A 
ATOM      9  C7A BZF d   1      -3.585  -4.454  -4.087  0.00  0.00     0.058 A 
ENDROOT
TORSDOF 0
ENDMDL
