MODEL 1
REMARK minimizedAffinity -3.28286529
REMARK minimizedRMSD -1
REMARK  0 active torsions:
REMARK  status: ('A' for Active; 'I' for Inactive)
ROOT
ATOM      1  O1  BZF d   1      -2.208  -4.222  -4.541  0.00  0.00    -0.204 OA
ATOM      2  C2  BZF d   1      -1.513  -5.108  -5.341  0.00  0.00     0.174 A 
ATOM      3  C3  BZF d   1      -2.361  -5.927  -5.996  0.00  0.00    -0.012 A 
ATOM      4  C3A BZF d   1      -3.671  -5.467  -5.650  0.00  0.00    -0.107 A 
ATOM      5  C4  BZF d   1      -4.930  -5.866  -6.000  0.00  0.00     0.055 A 
ATOM      6  C5  BZF d   1      -6.000  -5.253  -5.429  0.00  0.00    -0.016 A 
ATOM      7  C6  BZF d   1      -5.849  -4.242  -4.503  0.00  0.00     0.022 A 
ATOM      8  C7  BZF d   1      -4.621  -3.808  -4.129  0.00  0.00     0.029 A 
ATOM      9  C7A BZF d   1      -3.538  -4.403  -4.728  0.00  0.00     0.058 A 
ENDROOT
TORSDOF 0
ENDMDL
