MODEL 1
REMARK minimizedAffinity -0.367488503
REMARK minimizedRMSD -1
REMARK  0 active torsions:
REMARK  status: ('A' for Active; 'I' for Inactive)
ROOT
ATOM      1  O1  BZF d   1      -2.411  -5.017  -4.052  0.00  0.00    -0.204 OA
ATOM      2  C2  BZF d   1      -2.117  -5.921  -5.054  0.00  0.00     0.174 A 
ATOM      3  C3  BZF d   1      -3.130  -6.000  -5.940  0.00  0.00    -0.012 A 
ATOM      4  C3A BZF d   1      -4.081  -5.019  -5.514  0.00  0.00    -0.107 A 
ATOM      5  C4  BZF d   1      -5.290  -4.611  -5.998  0.00  0.00     0.055 A 
ATOM      6  C5  BZF d   1      -6.000  -3.682  -5.306  0.00  0.00    -0.016 A 
ATOM      7  C6  BZF d   1      -5.533  -3.145  -4.124  0.00  0.00     0.022 A 
ATOM      8  C7  BZF d   1      -4.336  -3.515  -3.606  0.00  0.00     0.029 A 
ATOM      9  C7A BZF d   1      -3.602  -4.429  -4.321  0.00  0.00     0.058 A 
ENDROOT
TORSDOF 0
ENDMDL
