MODEL 1
REMARK minimizedAffinity -2.1952374
REMARK minimizedRMSD -1
REMARK  0 active torsions:
REMARK  status: ('A' for Active; 'I' for Inactive)
ROOT
ATOM      1  O1  BZF d   1      -4.557  -2.436  -5.999  0.00  0.00    -0.204 OA
ATOM      2  C2  BZF d   1      -5.876  -2.834  -5.899  0.00  0.00     0.174 A 
ATOM      3  C3  BZF d   1      -5.965  -4.177  -5.819  0.00  0.00    -0.012 A 
ATOM      4  C3A BZF d   1      -4.613  -4.643  -5.779  0.00  0.00    -0.107 A 
ATOM      5  C4  BZF d   1      -4.049  -5.883  -5.685  0.00  0.00     0.055 A 
ATOM      6  C5  BZF d   1      -2.696  -6.000  -5.746  0.00  0.00    -0.016 A 
ATOM      7  C6  BZF d   1      -1.879  -4.900  -5.905  0.00  0.00     0.022 A 
ATOM      8  C7  BZF d   1      -2.392  -3.649  -5.998  0.00  0.00     0.029 A 
ATOM      9  C7A BZF d   1      -3.756  -3.524  -5.904  0.00  0.00     0.058 A 
ENDROOT
TORSDOF 0
ENDMDL
