MODEL 1
REMARK minimizedAffinity -3.9897325
REMARK minimizedRMSD -1
REMARK  0 active torsions:
REMARK  status: ('A' for Active; 'I' for Inactive)
ROOT
ATOM      1  O1  BZF d   1      -4.911  -2.900  -5.993  0.00  0.00    -0.204 OA
ATOM      2  C2  BZF d   1      -5.999  -2.862  -5.143  0.00  0.00     0.174 A 
ATOM      3  C3  BZF d   1      -5.847  -3.741  -4.131  0.00  0.00    -0.012 A 
ATOM      4  C3A BZF d   1      -4.543  -4.301  -4.313  0.00  0.00    -0.107 A 
ATOM      5  C4  BZF d   1      -3.812  -5.222  -3.619  0.00  0.00     0.055 A 
ATOM      6  C5  BZF d   1      -2.601  -5.605  -4.103  0.00  0.00    -0.016 A 
ATOM      7  C6  BZF d   1      -2.094  -5.092  -5.279  0.00  0.00     0.022 A 
ATOM      8  C7  BZF d   1      -2.780  -4.172  -5.999  0.00  0.00     0.029 A 
ATOM      9  C7A BZF d   1      -3.989  -3.759  -5.496  0.00  0.00     0.058 A 
ENDROOT
TORSDOF 0
ENDMDL
