MODEL 1
REMARK minimizedAffinity -3.34957981
REMARK minimizedRMSD -1
REMARK  0 active torsions:
REMARK  status: ('A' for Active; 'I' for Inactive)
ROOT
ATOM      1  O1  BZF d   1      -3.611  -5.999  -5.977  0.00  0.00    -0.204 OA
ATOM      2  C2  BZF d   1      -2.277  -5.867  -5.644  0.00  0.00     0.174 A 
ATOM      3  C3  BZF d   1      -2.053  -4.689  -5.026  0.00  0.00    -0.012 A 
ATOM      4  C3A BZF d   1      -3.342  -4.086  -4.887  0.00  0.00    -0.107 A 
ATOM      5  C4  BZF d   1      -3.776  -2.913  -4.337  0.00  0.00     0.055 A 
ATOM      6  C5  BZF d   1      -5.092  -2.587  -4.430  0.00  0.00    -0.016 A 
ATOM      7  C6  BZF d   1      -6.000  -3.407  -5.068  0.00  0.00     0.022 A 
ATOM      8  C7  BZF d   1      -5.618  -4.583  -5.624  0.00  0.00     0.029 A 
ATOM      9  C7A BZF d   1      -4.295  -4.930  -5.503  0.00  0.00     0.058 A 
ENDROOT
TORSDOF 0
ENDMDL
