MODEL 1
REMARK minimizedAffinity -4.08125639
REMARK minimizedRMSD -1
REMARK  0 active torsions:
REMARK  status: ('A' for Active; 'I' for Inactive)
ROOT
ATOM      1  O1  BZF d   1      -4.258  -6.000  -5.170  0.00  0.00    -0.204 OA
ATOM      2  C2  BZF d   1      -2.944  -5.888  -5.582  0.00  0.00     0.174 A 
ATOM      3  C3  BZF d   1      -2.501  -4.624  -5.427  0.00  0.00    -0.012 A 
ATOM      4  C3A BZF d   1      -3.577  -3.922  -4.797  0.00  0.00    -0.107 A 
ATOM      5  C4  BZF d   1      -3.736  -2.634  -4.371  0.00  0.00     0.055 A 
ATOM      6  C5  BZF d   1      -4.937  -2.250  -3.864  0.00  0.00    -0.016 A 
ATOM      7  C6  BZF d   1      -6.000  -3.124  -3.773  0.00  0.00     0.022 A 
ATOM      8  C7  BZF d   1      -5.888  -4.413  -4.178  0.00  0.00     0.029 A 
ATOM      9  C7A BZF d   1      -4.666  -4.813  -4.661  0.00  0.00     0.058 A 
ENDROOT
TORSDOF 0
ENDMDL
