MODEL 1
REMARK minimizedAffinity -1.07234204
REMARK minimizedRMSD -1
REMARK  0 active torsions:
REMARK  status: ('A' for Active; 'I' for Inactive)
ROOT
ATOM      1  O1  BZF d   1      -2.429  -3.918  -4.583  0.00  0.00    -0.204 OA
ATOM      2  C2  BZF d   1      -1.629  -5.000  -4.897  0.00  0.00     0.174 A 
ATOM      3  C3  BZF d   1      -2.362  -5.999  -5.428  0.00  0.00    -0.012 A 
ATOM      4  C3A BZF d   1      -3.690  -5.477  -5.533  0.00  0.00    -0.107 A 
ATOM      5  C4  BZF d   1      -4.866  -5.990  -6.000  0.00  0.00     0.055 A 
ATOM      6  C5  BZF d   1      -5.999  -5.248  -5.894  0.00  0.00    -0.016 A 
ATOM      7  C6  BZF d   1      -5.994  -3.992  -5.322  0.00  0.00     0.022 A 
ATOM      8  C7  BZF d   1      -4.850  -3.439  -4.849  0.00  0.00     0.029 A 
ATOM      9  C7A BZF d   1      -3.698  -4.174  -4.985  0.00  0.00     0.058 A 
ENDROOT
TORSDOF 0
ENDMDL
