MODEL 1
REMARK minimizedAffinity -2.7857039
REMARK minimizedRMSD -1
REMARK  0 active torsions:
REMARK  status: ('A' for Active; 'I' for Inactive)
ROOT
ATOM      1  O1  BZF d   1      -1.330  -4.403  -4.137  0.00  0.00    -0.204 OA
ATOM      2  C2  BZF d   1      -0.615  -5.278  -4.932  0.00  0.00     0.174 A 
ATOM      3  C3  BZF d   1      -1.442  -5.977  -5.737  0.00  0.00    -0.012 A 
ATOM      4  C3A BZF d   1      -2.746  -5.444  -5.490  0.00  0.00    -0.107 A 
ATOM      5  C4  BZF d   1      -3.984  -5.717  -5.999  0.00  0.00     0.055 A 
ATOM      6  C5  BZF d   1      -5.065  -5.068  -5.493  0.00  0.00    -0.016 A 
ATOM      7  C6  BZF d   1      -4.945  -4.144  -4.475  0.00  0.00     0.022 A 
ATOM      8  C7  BZF d   1      -3.738  -3.836  -3.942  0.00  0.00     0.029 A 
ATOM      9  C7A BZF d   1      -2.640  -4.466  -4.474  0.00  0.00     0.058 A 
ENDROOT
TORSDOF 0
ENDMDL
