MODEL 1
REMARK minimizedAffinity -2.93329716
REMARK minimizedRMSD -1
REMARK  0 active torsions:
REMARK  status: ('A' for Active; 'I' for Inactive)
ROOT
ATOM      1  O1  BZF d   1      -6.000  -4.197  -5.235  0.00  0.00    -0.204 OA
ATOM      2  C2  BZF d   1      -5.952  -2.994  -4.557  0.00  0.00     0.174 A 
ATOM      3  C3  BZF d   1      -4.683  -2.681  -4.227  0.00  0.00    -0.012 A 
ATOM      4  C3A BZF d   1      -3.877  -3.709  -4.811  0.00  0.00    -0.107 A 
ATOM      5  C4  BZF d   1      -2.532  -3.943  -4.845  0.00  0.00     0.055 A 
ATOM      6  C5  BZF d   1      -2.074  -5.077  -5.437  0.00  0.00    -0.016 A 
ATOM      7  C6  BZF d   1      -2.931  -6.000  -6.000  0.00  0.00     0.022 A 
ATOM      8  C7  BZF d   1      -4.272  -5.809  -5.995  0.00  0.00     0.029 A 
ATOM      9  C7A BZF d   1      -4.737  -4.648  -5.427  0.00  0.00     0.058 A 
ENDROOT
TORSDOF 0
ENDMDL
