MODEL 1
REMARK minimizedAffinity -4.12729788
REMARK minimizedRMSD -1
REMARK  0 active torsions:
REMARK  status: ('A' for Active; 'I' for Inactive)
ROOT
ATOM      1  O1  BZF d   1      -2.470  -4.124  -6.000  0.00  0.00    -0.204 OA
ATOM      2  C2  BZF d   1      -2.232  -5.284  -5.289  0.00  0.00     0.174 A 
ATOM      3  C3  BZF d   1      -3.103  -5.407  -4.267  0.00  0.00    -0.012 A 
ATOM      4  C3A BZF d   1      -3.997  -4.297  -4.399  0.00  0.00    -0.107 A 
ATOM      5  C4  BZF d   1      -5.087  -3.880  -3.691  0.00  0.00     0.055 A 
ATOM      6  C5  BZF d   1      -5.694  -2.715  -4.038  0.00  0.00    -0.016 A 
ATOM      7  C6  BZF d   1      -5.235  -1.940  -5.083  0.00  0.00     0.022 A 
ATOM      8  C7  BZF d   1      -4.160  -2.315  -5.818  0.00  0.00     0.029 A 
ATOM      9  C7A BZF d   1      -3.564  -3.509  -5.491  0.00  0.00     0.058 A 
ENDROOT
TORSDOF 0
ENDMDL
