MODEL 1
REMARK minimizedAffinity -3.49931574
REMARK minimizedRMSD -1
REMARK  0 active torsions:
REMARK  status: ('A' for Active; 'I' for Inactive)
ROOT
ATOM      1  O1  BZF d   1      -3.090  -5.118  -3.869  0.00  0.00    -0.204 OA
ATOM      2  C2  BZF d   1      -2.276  -5.264  -4.976  0.00  0.00     0.174 A 
ATOM      3  C3  BZF d   1      -2.721  -4.506  -5.999  0.00  0.00    -0.012 A 
ATOM      4  C3A BZF d   1      -3.831  -3.774  -5.471  0.00  0.00    -0.107 A 
ATOM      5  C4  BZF d   1      -4.680  -2.844  -6.000  0.00  0.00     0.055 A 
ATOM      6  C5  BZF d   1      -5.706  -2.379  -5.240  0.00  0.00    -0.016 A 
ATOM      7  C6  BZF d   1      -5.916  -2.825  -3.952  0.00  0.00     0.022 A 
ATOM      8  C7  BZF d   1      -5.098  -3.743  -3.382  0.00  0.00     0.029 A 
ATOM      9  C7A BZF d   1      -4.040  -4.191  -4.136  0.00  0.00     0.058 A 
ENDROOT
TORSDOF 0
ENDMDL
