MODEL 1
REMARK minimizedAffinity -0.592625141
REMARK minimizedRMSD -1
REMARK  0 active torsions:
REMARK  status: ('A' for Active; 'I' for Inactive)
ROOT
ATOM      1  O1  BZF d   1      -5.281  -2.718  -6.000  0.00  0.00    -0.204 OA
ATOM      2  C2  BZF d   1      -5.141  -3.969  -5.429  0.00  0.00     0.174 A 
ATOM      3  C3  BZF d   1      -5.247  -3.896  -4.087  0.00  0.00    -0.012 A 
ATOM      4  C3A BZF d   1      -5.558  -2.528  -3.807  0.00  0.00    -0.107 A 
ATOM      5  C4  BZF d   1      -5.798  -1.836  -2.654  0.00  0.00     0.055 A 
ATOM      6  C5  BZF d   1      -5.999  -0.494  -2.719  0.00  0.00    -0.016 A 
ATOM      7  C6  BZF d   1      -5.962   0.189  -3.917  0.00  0.00     0.022 A 
ATOM      8  C7  BZF d   1      -5.732  -0.455  -5.088  0.00  0.00     0.029 A 
ATOM      9  C7A BZF d   1      -5.561  -1.816  -5.029  0.00  0.00     0.058 A 
ENDROOT
TORSDOF 0
ENDMDL
