MODEL 1
REMARK minimizedAffinity 14.180315
REMARK minimizedRMSD -1
REMARK  0 active torsions:
REMARK  status: ('A' for Active; 'I' for Inactive)
ROOT
ATOM      1  N1  IND d   1      -2.321  -5.992  -0.644  0.00  0.00    -0.196 N 
ATOM      2  C2  IND d   1      -1.533  -5.815   0.459  0.00  0.00     0.054 A 
ATOM      3  C3  IND d   1      -2.293  -5.516   1.537  0.00  0.00    -0.031 A 
ATOM      4  C4  IND d   1      -4.855  -5.367   1.741  0.00  0.00     0.051 A 
ATOM      5  C5  IND d   1      -5.999  -5.414   0.996  0.00  0.00    -0.031 A 
ATOM      6  C6  IND d   1      -5.976  -5.663  -0.361  0.00  0.00     0.015 A 
ATOM      7  C7  IND d   1      -4.803  -5.888  -1.024  0.00  0.00    -0.016 A 
ATOM      8  C8  IND d   1      -3.638  -5.834  -0.272  0.00  0.00    -0.047 A 
ATOM      9  C9  IND d   1      -3.652  -5.539   1.098  0.00  0.00    -0.096 A 
ATOM     10  HN1 IND d   1      -2.042  -6.171  -1.437  0.00  0.00     0.298 HD
ENDROOT
TORSDOF 0
ENDMDL
