MODEL 1
REMARK minimizedAffinity 7.12444496
REMARK minimizedRMSD -1
REMARK  0 active torsions:
REMARK  status: ('A' for Active; 'I' for Inactive)
ROOT
ATOM      1  N1  IND d   1      -2.314  -0.268   4.388  0.00  0.00    -0.196 N 
ATOM      2  C2  IND d   1      -2.542  -0.529   3.066  0.00  0.00     0.054 A 
ATOM      3  C3  IND d   1      -3.397   0.381   2.548  0.00  0.00    -0.031 A 
ATOM      4  C4  IND d   1      -4.465   2.442   3.662  0.00  0.00     0.051 A 
ATOM      5  C5  IND d   1      -4.584   3.074   4.867  0.00  0.00    -0.031 A 
ATOM      6  C6  IND d   1      -3.937   2.617   5.997  0.00  0.00     0.015 A 
ATOM      7  C7  IND d   1      -3.134   1.512   5.961  0.00  0.00    -0.016 A 
ATOM      8  C8  IND d   1      -3.017   0.863   4.740  0.00  0.00    -0.047 A 
ATOM      9  C9  IND d   1      -3.705   1.298   3.599  0.00  0.00    -0.096 A 
ATOM     10  HN1 IND d   1      -1.815  -0.733   4.913  0.00  0.00     0.298 HD
ENDROOT
TORSDOF 0
ENDMDL
