MODEL 1
REMARK minimizedAffinity 23.5894356
REMARK minimizedRMSD -1
REMARK  0 active torsions:
REMARK  status: ('A' for Active; 'I' for Inactive)
ROOT
ATOM      1  N1  IND d   1      -2.994   0.413   4.360  0.00  0.00    -0.196 N 
ATOM      2  C2  IND d   1      -3.366   0.082   3.086  0.00  0.00     0.054 A 
ATOM      3  C3  IND d   1      -4.290   0.955   2.625  0.00  0.00    -0.031 A 
ATOM      4  C4  IND d   1      -5.260   3.057   3.751  0.00  0.00     0.051 A 
ATOM      5  C5  IND d   1      -5.252   3.748   4.930  0.00  0.00    -0.031 A 
ATOM      6  C6  IND d   1      -4.473   3.357   6.000  0.00  0.00     0.015 A 
ATOM      7  C7  IND d   1      -3.661   2.261   5.926  0.00  0.00    -0.016 A 
ATOM      8  C8  IND d   1      -3.672   1.552   4.733  0.00  0.00    -0.047 A 
ATOM      9  C9  IND d   1      -4.492   1.920   3.658  0.00  0.00    -0.096 A 
ATOM     10  HN1 IND d   1      -2.431  -0.019   4.846  0.00  0.00     0.298 HD
ENDROOT
TORSDOF 0
ENDMDL
