MODEL 1
REMARK minimizedAffinity 19.7004547
REMARK minimizedRMSD -1
REMARK  0 active torsions:
REMARK  status: ('A' for Active; 'I' for Inactive)
ROOT
ATOM      1  N1  IND d   1       4.021   0.860   0.702  0.00  0.00    -0.196 N 
ATOM      2  C2  IND d   1       4.478   2.085   0.304  0.00  0.00     0.054 A 
ATOM      3  C3  IND d   1       4.045   2.365  -0.946  0.00  0.00    -0.031 A 
ATOM      4  C4  IND d   1       2.495   1.002  -2.484  0.00  0.00     0.051 A 
ATOM      5  C5  IND d   1       1.852  -0.200  -2.573  0.00  0.00    -0.031 A 
ATOM      6  C6  IND d   1       1.897  -1.128  -1.553  0.00  0.00     0.015 A 
ATOM      7  C7  IND d   1       2.581  -0.883  -0.396  0.00  0.00    -0.016 A 
ATOM      8  C8  IND d   1       3.242   0.334  -0.305  0.00  0.00    -0.047 A 
ATOM      9  C9  IND d   1       3.234   1.263  -1.354  0.00  0.00    -0.096 A 
ATOM     10  HN1 IND d   1       4.191   0.481   1.455  0.00  0.00     0.298 HD
ENDROOT
TORSDOF 0
ENDMDL
