MODEL 1
REMARK minimizedAffinity 27.5634556
REMARK minimizedRMSD -1
REMARK  0 active torsions:
REMARK  status: ('A' for Active; 'I' for Inactive)
ROOT
ATOM      1  N1  IND d   1      -3.875   1.378   2.609  0.00  0.00    -0.196 N 
ATOM      2  C2  IND d   1      -3.027   0.402   3.054  0.00  0.00     0.054 A 
ATOM      3  C3  IND d   1      -2.701   0.617   4.348  0.00  0.00    -0.031 A 
ATOM      4  C4  IND d   1      -3.521   2.450   5.959  0.00  0.00     0.051 A 
ATOM      5  C5  IND d   1      -4.275   3.590   6.000  0.00  0.00    -0.031 A 
ATOM      6  C6  IND d   1      -4.950   4.058   4.891  0.00  0.00     0.015 A 
ATOM      7  C7  IND d   1      -4.905   3.395   3.697  0.00  0.00    -0.016 A 
ATOM      8  C8  IND d   1      -4.134   2.241   3.650  0.00  0.00    -0.047 A 
ATOM      9  C9  IND d   1      -3.413   1.785   4.761  0.00  0.00    -0.096 A 
ATOM     10  HN1 IND d   1      -4.192   1.441   1.812  0.00  0.00     0.298 HD
ENDROOT
TORSDOF 0
ENDMDL
