MODEL 1
REMARK minimizedAffinity 12.3204727
REMARK minimizedRMSD -1
REMARK  0 active torsions:
REMARK  status: ('A' for Active; 'I' for Inactive)
ROOT
ATOM      1  N1  IND d   1       2.233   0.447  -2.520  0.00  0.00    -0.196 N 
ATOM      2  C2  IND d   1       2.109  -0.802  -1.978  0.00  0.00     0.054 A 
ATOM      3  C3  IND d   1       1.918  -0.719  -0.643  0.00  0.00    -0.031 A 
ATOM      4  C4  IND d   1       1.675   1.366   0.848  0.00  0.00     0.051 A 
ATOM      5  C5  IND d   1       1.753   2.730   0.813  0.00  0.00    -0.031 A 
ATOM      6  C6  IND d   1       1.997   3.417  -0.359  0.00  0.00     0.015 A 
ATOM      7  C7  IND d   1       2.162   2.762  -1.547  0.00  0.00    -0.016 A 
ATOM      8  C8  IND d   1       2.091   1.377  -1.514  0.00  0.00    -0.047 A 
ATOM      9  C9  IND d   1       1.885   0.673  -0.321  0.00  0.00    -0.096 A 
ATOM     10  HN1 IND d   1       2.377   0.622  -3.350  0.00  0.00     0.298 HD
ENDROOT
TORSDOF 0
ENDMDL
