MODEL 1
REMARK minimizedAffinity 13.8084841
REMARK minimizedRMSD -1
REMARK  0 active torsions:
REMARK  status: ('A' for Active; 'I' for Inactive)
ROOT
ATOM      1  N1  IND d   1      -4.500  -5.406  -5.697  0.00  0.00    -0.196 N 
ATOM      2  C2  IND d   1      -5.815  -5.043  -5.606  0.00  0.00     0.054 A 
ATOM      3  C3  IND d   1      -5.932  -3.696  -5.609  0.00  0.00    -0.031 A 
ATOM      4  C4  IND d   1      -4.109  -1.896  -5.857  0.00  0.00     0.051 A 
ATOM      5  C5  IND d   1      -2.754  -1.739  -5.932  0.00  0.00    -0.031 A 
ATOM      6  C6  IND d   1      -1.894  -2.818  -5.936  0.00  0.00     0.015 A 
ATOM      7  C7  IND d   1      -2.360  -4.101  -5.875  0.00  0.00    -0.016 A 
ATOM      8  C8  IND d   1      -3.736  -4.264  -5.791  0.00  0.00    -0.047 A 
ATOM      9  C9  IND d   1      -4.611  -3.171  -5.744  0.00  0.00    -0.096 A 
ATOM     10  HN1 IND d   1      -4.201  -6.212  -5.694  0.00  0.00     0.298 HD
ENDROOT
TORSDOF 0
ENDMDL
