MODEL 1
REMARK minimizedAffinity 7.95081186
REMARK minimizedRMSD -1
REMARK  0 active torsions:
REMARK  status: ('A' for Active; 'I' for Inactive)
ROOT
ATOM      1  N1  IND d   1       3.734   1.767  -2.010  0.00  0.00    -0.196 N 
ATOM      2  C2  IND d   1       4.901   2.309  -1.549  0.00  0.00     0.054 A 
ATOM      3  C3  IND d   1       5.551   1.425  -0.759  0.00  0.00    -0.031 A 
ATOM      4  C4  IND d   1       4.931  -1.002  -0.167  0.00  0.00     0.051 A 
ATOM      5  C5  IND d   1       3.938  -1.928  -0.321  0.00  0.00    -0.031 A 
ATOM      6  C6  IND d   1       2.805  -1.666  -1.063  0.00  0.00     0.015 A 
ATOM      7  C7  IND d   1       2.626  -0.466  -1.691  0.00  0.00    -0.016 A 
ATOM      8  C8  IND d   1       3.629   0.480  -1.531  0.00  0.00    -0.047 A 
ATOM      9  C9  IND d   1       4.762   0.234  -0.744  0.00  0.00    -0.096 A 
ATOM     10  HN1 IND d   1       3.161   2.164  -2.514  0.00  0.00     0.298 HD
ENDROOT
TORSDOF 0
ENDMDL
