MODEL 1
REMARK minimizedAffinity 18.3423557
REMARK minimizedRMSD -1
REMARK  0 active torsions:
REMARK  status: ('A' for Active; 'I' for Inactive)
ROOT
ATOM      1  N1  IND d   1       1.773   0.741   4.885  0.00  0.00    -0.196 N 
ATOM      2  C2  IND d   1       1.202   1.290   6.000  0.00  0.00     0.054 A 
ATOM      3  C3  IND d   1      -0.058   1.699   5.729  0.00  0.00    -0.031 A 
ATOM      4  C4  IND d   1      -1.420   1.474   3.556  0.00  0.00     0.051 A 
ATOM      5  C5  IND d   1      -1.312   1.074   2.254  0.00  0.00    -0.031 A 
ATOM      6  C6  IND d   1      -0.147   0.529   1.753  0.00  0.00     0.015 A 
ATOM      7  C7  IND d   1       0.954   0.353   2.542  0.00  0.00    -0.016 A 
ATOM      8  C8  IND d   1       0.850   0.764   3.863  0.00  0.00    -0.047 A 
ATOM      9  C9  IND d   1      -0.315   1.357   4.366  0.00  0.00    -0.096 A 
ATOM     10  HN1 IND d   1       2.574   0.434   4.832  0.00  0.00     0.298 HD
ENDROOT
TORSDOF 0
ENDMDL
