MODEL 1
REMARK minimizedAffinity 18.9069786
REMARK minimizedRMSD -1
REMARK  0 active torsions:
REMARK  status: ('A' for Active; 'I' for Inactive)
ROOT
ATOM      1  N1  IND d   1      -4.131   1.357   2.325  0.00  0.00    -0.196 N 
ATOM      2  C2  IND d   1      -3.015   0.620   2.609  0.00  0.00     0.054 A 
ATOM      3  C3  IND d   1      -2.682   0.755   3.913  0.00  0.00    -0.031 A 
ATOM      4  C4  IND d   1      -3.885   2.053   5.782  0.00  0.00     0.051 A 
ATOM      5  C5  IND d   1      -4.928   2.909   6.000  0.00  0.00    -0.031 A 
ATOM      6  C6  IND d   1      -5.776   3.298   4.984  0.00  0.00     0.015 A 
ATOM      7  C7  IND d   1      -5.621   2.833   3.709  0.00  0.00    -0.016 A 
ATOM      8  C8  IND d   1      -4.559   1.969   3.482  0.00  0.00    -0.047 A 
ATOM      9  C9  IND d   1      -3.669   1.604   4.501  0.00  0.00    -0.096 A 
ATOM     10  HN1 IND d   1      -4.503   1.426   1.553  0.00  0.00     0.298 HD
ENDROOT
TORSDOF 0
ENDMDL
