MODEL 1
REMARK minimizedAffinity 19.4565144
REMARK minimizedRMSD -1
REMARK  0 active torsions:
REMARK  status: ('A' for Active; 'I' for Inactive)
ROOT
ATOM      1  N1  IND d   1       0.108   5.009   0.837  0.00  0.00    -0.196 N 
ATOM      2  C2  IND d   1       1.184   5.620   0.257  0.00  0.00     0.054 A 
ATOM      3  C3  IND d   1       2.312   4.914   0.497  0.00  0.00    -0.031 A 
ATOM      4  C4  IND d   1       2.608   2.675   1.731  0.00  0.00     0.051 A 
ATOM      5  C5  IND d   1       1.920   1.750   2.465  0.00  0.00    -0.031 A 
ATOM      6  C6  IND d   1       0.564   1.865   2.696  0.00  0.00     0.015 A 
ATOM      7  C7  IND d   1      -0.159   2.908   2.190  0.00  0.00    -0.016 A 
ATOM      8  C8  IND d   1       0.538   3.853   1.450  0.00  0.00    -0.047 A 
ATOM      9  C9  IND d   1       1.922   3.764   1.248  0.00  0.00    -0.096 A 
ATOM     10  HN1 IND d   1      -0.702   5.298   0.822  0.00  0.00     0.298 HD
ENDROOT
TORSDOF 0
ENDMDL
