MODEL 1
REMARK minimizedAffinity 12.3691063
REMARK minimizedRMSD -1
REMARK  0 active torsions:
REMARK  status: ('A' for Active; 'I' for Inactive)
ROOT
ATOM      1  N1  IND d   1       4.443   3.041   1.217  0.00  0.00    -0.196 N 
ATOM      2  C2  IND d   1       5.357   2.960   0.204  0.00  0.00     0.054 A 
ATOM      3  C3  IND d   1       4.974   2.033  -0.702  0.00  0.00    -0.031 A 
ATOM      4  C4  IND d   1       2.833   0.604  -0.775  0.00  0.00     0.051 A 
ATOM      5  C5  IND d   1       1.716   0.301  -0.050  0.00  0.00    -0.031 A 
ATOM      6  C6  IND d   1       1.443   0.910   1.158  0.00  0.00     0.015 A 
ATOM      7  C7  IND d   1       2.276   1.858   1.682  0.00  0.00    -0.016 A 
ATOM      8  C8  IND d   1       3.416   2.163   0.952  0.00  0.00    -0.047 A 
ATOM      9  C9  IND d   1       3.719   1.517  -0.253  0.00  0.00    -0.096 A 
ATOM     10  HN1 IND d   1       4.500   3.554   1.905  0.00  0.00     0.298 HD
ENDROOT
TORSDOF 0
ENDMDL
