MODEL 1
REMARK minimizedAffinity 7.94895983
REMARK minimizedRMSD -1
REMARK  0 active torsions:
REMARK  status: ('A' for Active; 'I' for Inactive)
ROOT
ATOM      1  N1  IND d   1       3.668  -3.345   0.461  0.00  0.00    -0.196 N 
ATOM      2  C2  IND d   1       3.943  -4.549  -0.125  0.00  0.00     0.054 A 
ATOM      3  C3  IND d   1       3.318  -4.644  -1.321  0.00  0.00    -0.031 A 
ATOM      4  C4  IND d   1       1.879  -2.904  -2.556  0.00  0.00     0.051 A 
ATOM      5  C5  IND d   1       1.316  -1.668  -2.403  0.00  0.00    -0.031 A 
ATOM      6  C6  IND d   1       1.515  -0.911  -1.267  0.00  0.00     0.015 A 
ATOM      7  C7  IND d   1       2.297  -1.360  -0.240  0.00  0.00    -0.016 A 
ATOM      8  C8  IND d   1       2.864  -2.618  -0.388  0.00  0.00    -0.047 A 
ATOM      9  C9  IND d   1       2.631  -3.408  -1.521  0.00  0.00    -0.096 A 
ATOM     10  HN1 IND d   1       3.950  -3.086   1.231  0.00  0.00     0.298 HD
ENDROOT
TORSDOF 0
ENDMDL
