MODEL 1
REMARK minimizedAffinity 13.4370747
REMARK minimizedRMSD -1
REMARK  0 active torsions:
REMARK  status: ('A' for Active; 'I' for Inactive)
ROOT
ATOM      1  N1  IND d   1       2.946  -2.703   0.596  0.00  0.00    -0.196 N 
ATOM      2  C2  IND d   1       3.108  -3.896  -0.052  0.00  0.00     0.054 A 
ATOM      3  C3  IND d   1       2.549  -3.843  -1.282  0.00  0.00    -0.031 A 
ATOM      4  C4  IND d   1       1.407  -1.868  -2.475  0.00  0.00     0.051 A 
ATOM      5  C5  IND d   1       0.990  -0.583  -2.273  0.00  0.00    -0.031 A 
ATOM      6  C6  IND d   1       1.211   0.076  -1.081  0.00  0.00     0.015 A 
ATOM      7  C7  IND d   1       1.870  -0.525  -0.046  0.00  0.00    -0.016 A 
ATOM      8  C8  IND d   1       2.288  -1.833  -0.245  0.00  0.00    -0.047 A 
ATOM      9  C9  IND d   1       2.030  -2.521  -1.438  0.00  0.00    -0.096 A 
ATOM     10  HN1 IND d   1       3.211  -2.526   1.395  0.00  0.00     0.298 HD
ENDROOT
TORSDOF 0
ENDMDL
