MODEL 1
REMARK minimizedAffinity 1.65317059
REMARK minimizedRMSD -1
REMARK  0 active torsions:
REMARK  status: ('A' for Active; 'I' for Inactive)
ROOT
ATOM      1  N1  IND d   1      -4.430  -2.399  -5.203  0.00  0.00    -0.196 N 
ATOM      2  C2  IND d   1      -5.700  -2.708  -5.604  0.00  0.00     0.054 A 
ATOM      3  C3  IND d   1      -5.768  -3.999  -6.000  0.00  0.00    -0.031 A 
ATOM      4  C4  IND d   1      -3.942  -5.814  -5.979  0.00  0.00     0.051 A 
ATOM      5  C5  IND d   1      -2.611  -5.999  -5.733  0.00  0.00    -0.031 A 
ATOM      6  C6  IND d   1      -1.802  -4.974  -5.286  0.00  0.00     0.015 A 
ATOM      7  C7  IND d   1      -2.299  -3.723  -5.056  0.00  0.00    -0.016 A 
ATOM      8  C8  IND d   1      -3.649  -3.529  -5.312  0.00  0.00    -0.047 A 
ATOM      9  C9  IND d   1      -4.466  -4.554  -5.806  0.00  0.00    -0.096 A 
ATOM     10  HN1 IND d   1      -4.164  -1.629  -4.929  0.00  0.00     0.298 HD
ENDROOT
TORSDOF 0
ENDMDL
