MODEL 1
REMARK minimizedAffinity 11.2797976
REMARK minimizedRMSD -1
REMARK  0 active torsions:
REMARK  status: ('A' for Active; 'I' for Inactive)
ROOT
ATOM      1  N1  IND d   1      -3.159  -5.987  -4.932  0.00  0.00    -0.196 N 
ATOM      2  C2  IND d   1      -3.864  -5.506  -5.999  0.00  0.00     0.054 A 
ATOM      3  C3  IND d   1      -3.852  -4.154  -6.000  0.00  0.00    -0.031 A 
ATOM      4  C4  IND d   1      -2.653  -2.528  -4.404  0.00  0.00     0.051 A 
ATOM      5  C5  IND d   1      -1.914  -2.496  -3.255  0.00  0.00    -0.031 A 
ATOM      6  C6  IND d   1      -1.543  -3.649  -2.594  0.00  0.00     0.015 A 
ATOM      7  C7  IND d   1      -1.888  -4.883  -3.066  0.00  0.00    -0.016 A 
ATOM      8  C8  IND d   1      -2.644  -4.920  -4.229  0.00  0.00    -0.047 A 
ATOM      9  C9  IND d   1      -3.060  -3.752  -4.881  0.00  0.00    -0.096 A 
ATOM     10  HN1 IND d   1      -3.054  -6.817  -4.733  0.00  0.00     0.298 HD
ENDROOT
TORSDOF 0
ENDMDL
