MODEL 1
REMARK minimizedAffinity 20.022934
REMARK minimizedRMSD -1
REMARK  0 active torsions:
REMARK  status: ('A' for Active; 'I' for Inactive)
ROOT
ATOM      1  N1  IND d   1      -4.351  -2.123  -4.537  0.00  0.00    -0.196 N 
ATOM      2  C2  IND d   1      -5.489  -2.042  -5.290  0.00  0.00     0.054 A 
ATOM      3  C3  IND d   1      -5.665  -3.180  -5.999  0.00  0.00    -0.031 A 
ATOM      4  C4  IND d   1      -4.265  -5.340  -5.999  0.00  0.00     0.051 A 
ATOM      5  C5  IND d   1      -3.112  -5.877  -5.499  0.00  0.00    -0.031 A 
ATOM      6  C6  IND d   1      -2.298  -5.176  -4.633  0.00  0.00     0.015 A 
ATOM      7  C7  IND d   1      -2.614  -3.911  -4.224  0.00  0.00    -0.016 A 
ATOM      8  C8  IND d   1      -3.781  -3.361  -4.735  0.00  0.00    -0.047 A 
ATOM      9  C9  IND d   1      -4.589  -4.051  -5.648  0.00  0.00    -0.096 A 
ATOM     10  HN1 IND d   1      -4.044  -1.504  -4.025  0.00  0.00     0.298 HD
ENDROOT
TORSDOF 0
ENDMDL
