MODEL 1
REMARK minimizedAffinity 2.03163743
REMARK minimizedRMSD -1
REMARK  0 active torsions:
REMARK  status: ('A' for Active; 'I' for Inactive)
ROOT
ATOM      1  N1  IND d   1      -1.107   4.296  -5.553  0.00  0.00    -0.196 N 
ATOM      2  C2  IND d   1      -1.073   2.952  -5.301  0.00  0.00     0.054 A 
ATOM      3  C3  IND d   1      -2.327   2.452  -5.244  0.00  0.00    -0.031 A 
ATOM      4  C4  IND d   1      -4.579   3.637  -5.634  0.00  0.00     0.051 A 
ATOM      5  C5  IND d   1      -5.123   4.871  -5.857  0.00  0.00    -0.031 A 
ATOM      6  C6  IND d   1      -4.339   5.999  -5.996  0.00  0.00     0.015 A 
ATOM      7  C7  IND d   1      -2.977   5.932  -5.928  0.00  0.00    -0.016 A 
ATOM      8  C8  IND d   1      -2.422   4.682  -5.694  0.00  0.00    -0.047 A 
ATOM      9  C9  IND d   1      -3.213   3.541  -5.510  0.00  0.00    -0.096 A 
ATOM     10  HN1 IND d   1      -0.422   4.812  -5.613  0.00  0.00     0.298 HD
ENDROOT
TORSDOF 0
ENDMDL
