MODEL 1
REMARK minimizedAffinity 9.0761013
REMARK minimizedRMSD -1
REMARK  0 active torsions:
REMARK  status: ('A' for Active; 'I' for Inactive)
ROOT
ATOM      1  C2' OXE d   1       5.403  -4.844   1.287  0.00  0.00     0.078 C 
ATOM      2  C1' OXE d   1       4.110  -4.481   3.752  0.00  0.00     0.078 C 
ATOM      3  C1  OXE d   1       3.510  -3.817   2.538  0.00  0.00    -0.078 A 
ATOM      4  C2  OXE d   1       4.175  -3.961   1.344  0.00  0.00    -0.078 A 
ATOM      5  C3  OXE d   1       3.635  -3.415   0.184  0.00  0.00     0.003 A 
ATOM      6  C4  OXE d   1       2.505  -2.591   0.247  0.00  0.00    -0.002 A 
ATOM      7  C5  OXE d   1       1.834  -2.398   1.460  0.00  0.00    -0.002 A 
ATOM      8  C6  OXE d   1       2.298  -3.037   2.604  0.00  0.00     0.003 A 
ENDROOT
TORSDOF 0
ENDMDL
