MODEL 1
REMARK minimizedAffinity -1.59987628
REMARK minimizedRMSD -1
REMARK  0 active torsions:
REMARK  status: ('A' for Active; 'I' for Inactive)
ROOT
ATOM      1  C2' OXE d   1      -2.113  -1.524  -4.584  0.00  0.00     0.078 C 
ATOM      2  C1' OXE d   1      -4.285  -2.052  -2.885  0.00  0.00     0.078 C 
ATOM      3  C1  OXE d   1      -4.479  -1.032  -3.979  0.00  0.00    -0.078 A 
ATOM      4  C2  OXE d   1      -3.397  -0.746  -4.776  0.00  0.00    -0.078 A 
ATOM      5  C3  OXE d   1      -3.537   0.148  -5.834  0.00  0.00     0.003 A 
ATOM      6  C4  OXE d   1      -4.725   0.871  -5.999  0.00  0.00    -0.002 A 
ATOM      7  C5  OXE d   1      -5.827   0.623  -5.173  0.00  0.00    -0.002 A 
ATOM      8  C6  OXE d   1      -5.734  -0.353  -4.187  0.00  0.00     0.003 A 
ENDROOT
TORSDOF 0
ENDMDL
