MODEL 1
REMARK minimizedAffinity 6.22193861
REMARK minimizedRMSD -1
REMARK  0 active torsions:
REMARK  status: ('A' for Active; 'I' for Inactive)
ROOT
ATOM      1  C2' OXE d   1       3.109  -2.963   0.241  0.00  0.00     0.078 C 
ATOM      2  C1' OXE d   1       5.485  -1.472   0.329  0.00  0.00     0.078 C 
ATOM      3  C1  OXE d   1       4.181  -0.715   0.286  0.00  0.00    -0.078 A 
ATOM      4  C2  OXE d   1       3.025  -1.453   0.196  0.00  0.00    -0.078 A 
ATOM      5  C3  OXE d   1       1.792  -0.807   0.209  0.00  0.00     0.003 A 
ATOM      6  C4  OXE d   1       1.724   0.591   0.158  0.00  0.00    -0.002 A 
ATOM      7  C5  OXE d   1       2.891   1.361   0.209  0.00  0.00    -0.002 A 
ATOM      8  C6  OXE d   1       4.123   0.725   0.316  0.00  0.00     0.003 A 
ENDROOT
TORSDOF 0
ENDMDL
