MODEL 1
REMARK minimizedAffinity 3.5950191
REMARK minimizedRMSD -1
REMARK  0 active torsions:
REMARK  status: ('A' for Active; 'I' for Inactive)
ROOT
ATOM      1  C2' OXE d   1      -4.410   2.176  -5.250  0.00  0.00     0.078 C 
ATOM      2  C1' OXE d   1      -3.995   2.095  -2.475  0.00  0.00     0.078 C 
ATOM      3  C1  OXE d   1      -3.437   0.965  -3.303  0.00  0.00    -0.078 A 
ATOM      4  C2  OXE d   1      -3.685   0.989  -4.655  0.00  0.00    -0.078 A 
ATOM      5  C3  OXE d   1      -3.146  -0.001  -5.472  0.00  0.00     0.003 A 
ATOM      6  C4  OXE d   1      -2.485  -1.101  -4.912  0.00  0.00    -0.002 A 
ATOM      7  C5  OXE d   1      -2.256  -1.165  -3.534  0.00  0.00    -0.002 A 
ATOM      8  C6  OXE d   1      -2.687  -0.122  -2.722  0.00  0.00     0.003 A 
ENDROOT
TORSDOF 0
ENDMDL
