MODEL 1
REMARK minimizedAffinity 2.49914265
REMARK minimizedRMSD -1
REMARK  0 active torsions:
REMARK  status: ('A' for Active; 'I' for Inactive)
ROOT
ATOM      1  C2' OXE d   1      -5.999   0.364  -3.392  0.00  0.00     0.078 C 
ATOM      2  C1' OXE d   1      -4.354  -1.522  -2.121  0.00  0.00     0.078 C 
ATOM      3  C1  OXE d   1      -3.887  -0.957  -3.439  0.00  0.00    -0.078 A 
ATOM      4  C2  OXE d   1      -4.721  -0.070  -4.077  0.00  0.00    -0.078 A 
ATOM      5  C3  OXE d   1      -4.314   0.522  -5.269  0.00  0.00     0.003 A 
ATOM      6  C4  OXE d   1      -3.136   0.107  -5.901  0.00  0.00    -0.002 A 
ATOM      7  C5  OXE d   1      -2.292  -0.825  -5.288  0.00  0.00    -0.002 A 
ATOM      8  C6  OXE d   1      -2.631  -1.334  -4.039  0.00  0.00     0.003 A 
ENDROOT
TORSDOF 0
ENDMDL
