MODEL 1
REMARK minimizedAffinity -1.65071809
REMARK minimizedRMSD -1
REMARK  0 active torsions:
REMARK  status: ('A' for Active; 'I' for Inactive)
ROOT
ATOM      1  C2' OXE d   1      -2.772   2.511  -3.259  0.00  0.00     0.078 C 
ATOM      2  C1' OXE d   1      -2.696   0.233  -1.620  0.00  0.00     0.078 C 
ATOM      3  C1  OXE d   1      -3.267   0.082  -3.008  0.00  0.00    -0.078 A 
ATOM      4  C2  OXE d   1      -3.343   1.212  -3.787  0.00  0.00    -0.078 A 
ATOM      5  C3  OXE d   1      -3.810   1.118  -5.094  0.00  0.00     0.003 A 
ATOM      6  C4  OXE d   1      -4.346  -0.084  -5.571  0.00  0.00    -0.002 A 
ATOM      7  C5  OXE d   1      -4.315  -1.238  -4.780  0.00  0.00    -0.002 A 
ATOM      8  C6  OXE d   1      -3.741  -1.182  -3.515  0.00  0.00     0.003 A 
ENDROOT
TORSDOF 0
ENDMDL
