MODEL 1
REMARK minimizedAffinity -0.244109198
REMARK minimizedRMSD -1
REMARK  0 active torsions:
REMARK  status: ('A' for Active; 'I' for Inactive)
ROOT
ATOM      1  C2' OXE d   1       4.851  -3.995   1.498  0.00  0.00     0.078 C 
ATOM      2  C1' OXE d   1       2.084  -3.667   1.158  0.00  0.00     0.078 C 
ATOM      3  C1  OXE d   1       2.986  -2.550   0.697  0.00  0.00    -0.078 A 
ATOM      4  C2  OXE d   1       4.335  -2.699   0.910  0.00  0.00    -0.078 A 
ATOM      5  C3  OXE d   1       5.217  -1.722   0.455  0.00  0.00     0.003 A 
ATOM      6  C4  OXE d   1       4.731  -0.522  -0.079  0.00  0.00    -0.002 A 
ATOM      7  C5  OXE d   1       3.358  -0.333  -0.268  0.00  0.00    -0.002 A 
ATOM      8  C6  OXE d   1       2.477  -1.353   0.075  0.00  0.00     0.003 A 
ENDROOT
TORSDOF 0
ENDMDL
