MODEL 1
REMARK minimizedAffinity -0.685070813
REMARK minimizedRMSD -1
REMARK  0 active torsions:
REMARK  status: ('A' for Active; 'I' for Inactive)
ROOT
ATOM      1  C2' OXE d   1      -4.137   1.826  -5.703  0.00  0.00     0.078 C 
ATOM      2  C1' OXE d   1      -3.295   2.877  -3.240  0.00  0.00     0.078 C 
ATOM      3  C1  OXE d   1      -3.645   1.411  -3.297  0.00  0.00    -0.078 A 
ATOM      4  C2  OXE d   1      -4.102   0.916  -4.495  0.00  0.00    -0.078 A 
ATOM      5  C3  OXE d   1      -4.387  -0.441  -4.616  0.00  0.00     0.003 A 
ATOM      6  C4  OXE d   1      -4.361  -1.274  -3.491  0.00  0.00    -0.002 A 
ATOM      7  C5  OXE d   1      -3.937  -0.781  -2.252  0.00  0.00    -0.002 A 
ATOM      8  C6  OXE d   1      -3.536   0.546  -2.148  0.00  0.00     0.003 A 
ENDROOT
TORSDOF 0
ENDMDL
