MODEL 1
REMARK minimizedAffinity 8.19172668
REMARK minimizedRMSD -1
REMARK  0 active torsions:
REMARK  status: ('A' for Active; 'I' for Inactive)
ROOT
ATOM      1  C2' OXE d   1      -4.499   1.121  -6.000  0.00  0.00     0.078 C 
ATOM      2  C1' OXE d   1      -4.281  -0.974  -4.145  0.00  0.00     0.078 C 
ATOM      3  C1  OXE d   1      -3.822   0.396  -3.715  0.00  0.00    -0.078 A 
ATOM      4  C2  OXE d   1      -3.889   1.406  -4.645  0.00  0.00    -0.078 A 
ATOM      5  C3  OXE d   1      -3.529   2.701  -4.283  0.00  0.00     0.003 A 
ATOM      6  C4  OXE d   1      -2.955   2.954  -3.031  0.00  0.00    -0.002 A 
ATOM      7  C5  OXE d   1      -2.841   1.932  -2.083  0.00  0.00    -0.002 A 
ATOM      8  C6  OXE d   1      -3.308   0.659  -2.394  0.00  0.00     0.003 A 
ENDROOT
TORSDOF 0
ENDMDL
