MODEL 1
REMARK minimizedAffinity 0.376048058
REMARK minimizedRMSD -1
REMARK  0 active torsions:
REMARK  status: ('A' for Active; 'I' for Inactive)
ROOT
ATOM      1  C2' OXE d   1      -1.852   0.888  -5.746  0.00  0.00     0.078 C 
ATOM      2  C1' OXE d   1      -2.469  -1.017  -3.779  0.00  0.00     0.078 C 
ATOM      3  C1  OXE d   1      -3.612  -0.265  -4.413  0.00  0.00    -0.078 A 
ATOM      4  C2  OXE d   1      -3.298   0.698  -5.341  0.00  0.00    -0.078 A 
ATOM      5  C3  OXE d   1      -4.317   1.383  -5.997  0.00  0.00     0.003 A 
ATOM      6  C4  OXE d   1      -5.651   1.208  -5.609  0.00  0.00    -0.002 A 
ATOM      7  C5  OXE d   1      -5.991   0.260  -4.638  0.00  0.00    -0.002 A 
ATOM      8  C6  OXE d   1      -4.989  -0.513  -4.062  0.00  0.00     0.003 A 
ENDROOT
TORSDOF 0
ENDMDL
