MODEL 1
REMARK minimizedAffinity -1.81953657
REMARK minimizedRMSD -1
REMARK  0 active torsions:
REMARK  status: ('A' for Active; 'I' for Inactive)
ROOT
ATOM      1  C2' OXE d   1       5.949   0.418   0.266  0.00  0.00     0.078 C 
ATOM      2  C1' OXE d   1       3.313   1.320  -0.082  0.00  0.00     0.078 C 
ATOM      3  C1  OXE d   1       3.527  -0.155   0.151  0.00  0.00    -0.078 A 
ATOM      4  C2  OXE d   1       4.823  -0.594   0.274  0.00  0.00    -0.078 A 
ATOM      5  C3  OXE d   1       5.074  -1.936   0.545  0.00  0.00     0.003 A 
ATOM      6  C4  OXE d   1       4.028  -2.867   0.540  0.00  0.00    -0.002 A 
ATOM      7  C5  OXE d   1       2.704  -2.447   0.378  0.00  0.00    -0.002 A 
ATOM      8  C6  OXE d   1       2.433  -1.092   0.225  0.00  0.00     0.003 A 
ENDROOT
TORSDOF 0
ENDMDL
