MODEL 1
REMARK minimizedAffinity -4.27452183
REMARK minimizedRMSD -1
REMARK  0 active torsions:
REMARK  status: ('A' for Active; 'I' for Inactive)
ROOT
ATOM      1  O1  BZF d   1      -1.911  -4.062  -5.403  0.00  0.00    -0.204 OA
ATOM      2  C2  BZF d   1      -1.756  -5.427  -5.257  0.00  0.00     0.174 A 
ATOM      3  C3  BZF d   1      -2.910  -6.000  -4.859  0.00  0.00    -0.012 A 
ATOM      4  C3A BZF d   1      -3.870  -4.938  -4.838  0.00  0.00    -0.107 A 
ATOM      5  C4  BZF d   1      -5.201  -4.882  -4.539  0.00  0.00     0.055 A 
ATOM      6  C5  BZF d   1      -5.828  -3.676  -4.545  0.00  0.00    -0.016 A 
ATOM      7  C6  BZF d   1      -5.155  -2.509  -4.840  0.00  0.00     0.022 A 
ATOM      8  C7  BZF d   1      -3.835  -2.516  -5.148  0.00  0.00     0.029 A 
ATOM      9  C7A BZF d   1      -3.206  -3.736  -5.175  0.00  0.00     0.058 A 
ENDROOT
TORSDOF 0
ENDMDL
