MODEL 1
REMARK minimizedAffinity -4.2802887
REMARK minimizedRMSD -1
REMARK  0 active torsions:
REMARK  status: ('A' for Active; 'I' for Inactive)
ROOT
ATOM      1  O1  BZF d   1      -2.626  -6.000  -5.015  0.00  0.00    -0.204 OA
ATOM      2  C2  BZF d   1      -1.649  -5.222  -5.605  0.00  0.00     0.174 A 
ATOM      3  C3  BZF d   1      -2.149  -4.025  -5.974  0.00  0.00    -0.012 A 
ATOM      4  C3A BZF d   1      -3.501  -4.021  -5.507  0.00  0.00    -0.107 A 
ATOM      5  C4  BZF d   1      -4.509  -3.101  -5.557  0.00  0.00     0.055 A 
ATOM      6  C5  BZF d   1      -5.734  -3.437  -5.072  0.00  0.00    -0.016 A 
ATOM      7  C6  BZF d   1      -5.986  -4.682  -4.536  0.00  0.00     0.022 A 
ATOM      8  C7  BZF d   1      -5.017  -5.626  -4.460  0.00  0.00     0.029 A 
ATOM      9  C7A BZF d   1      -3.769  -5.279  -4.919  0.00  0.00     0.058 A 
ENDROOT
TORSDOF 0
ENDMDL
