MODEL 1
REMARK minimizedAffinity -4.17656851
REMARK minimizedRMSD -1
REMARK  0 active torsions:
REMARK  status: ('A' for Active; 'I' for Inactive)
ROOT
ATOM      1  O1  BZF d   1      -2.866  -5.999  -5.346  0.00  0.00    -0.204 OA
ATOM      2  C2  BZF d   1      -1.743  -5.271  -5.688  0.00  0.00     0.174 A 
ATOM      3  C3  BZF d   1      -1.989  -3.947  -5.613  0.00  0.00    -0.012 A 
ATOM      4  C3A BZF d   1      -3.324  -3.841  -5.109  0.00  0.00    -0.107 A 
ATOM      5  C4  BZF d   1      -4.131  -2.782  -4.803  0.00  0.00     0.055 A 
ATOM      6  C5  BZF d   1      -5.407  -3.019  -4.402  0.00  0.00    -0.016 A 
ATOM      7  C6  BZF d   1      -5.911  -4.299  -4.301  0.00  0.00     0.022 A 
ATOM      8  C7  BZF d   1      -5.147  -5.381  -4.589  0.00  0.00     0.029 A 
ATOM      9  C7A BZF d   1      -3.847  -5.147  -4.963  0.00  0.00     0.058 A 
ENDROOT
TORSDOF 0
ENDMDL
