MODEL 1
REMARK minimizedAffinity -3.50537705
REMARK minimizedRMSD -1
REMARK  0 active torsions:
REMARK  status: ('A' for Active; 'I' for Inactive)
ROOT
ATOM      1  O1  BZF d   1      -2.247  -5.926  -4.258  0.00  0.00    -0.204 OA
ATOM      2  C2  BZF d   1      -1.599  -5.256  -5.278  0.00  0.00     0.174 A 
ATOM      3  C3  BZF d   1      -2.470  -4.512  -5.990  0.00  0.00    -0.012 A 
ATOM      4  C3A BZF d   1      -3.725  -4.657  -5.320  0.00  0.00    -0.107 A 
ATOM      5  C4  BZF d   1      -4.972  -4.146  -5.540  0.00  0.00     0.055 A 
ATOM      6  C5  BZF d   1      -6.000  -4.544  -4.745  0.00  0.00    -0.016 A 
ATOM      7  C6  BZF d   1      -5.817  -5.454  -3.724  0.00  0.00     0.022 A 
ATOM      8  C7  BZF d   1      -4.598  -5.984  -3.463  0.00  0.00     0.029 A 
ATOM      9  C7A BZF d   1      -3.551  -5.559  -4.244  0.00  0.00     0.058 A 
ENDROOT
TORSDOF 0
ENDMDL
