MODEL 1
REMARK minimizedAffinity -4.48438311
REMARK minimizedRMSD -1
REMARK  0 active torsions:
REMARK  status: ('A' for Active; 'I' for Inactive)
ROOT
ATOM      1  O1  BZF d   1      -4.020  -5.991  -5.089  0.00  0.00    -0.204 OA
ATOM      2  C2  BZF d   1      -2.674  -5.852  -5.363  0.00  0.00     0.174 A 
ATOM      3  C3  BZF d   1      -2.291  -4.565  -5.242  0.00  0.00    -0.012 A 
ATOM      4  C3A BZF d   1      -3.453  -3.869  -4.779  0.00  0.00    -0.107 A 
ATOM      5  C4  BZF d   1      -3.700  -2.565  -4.457  0.00  0.00     0.055 A 
ATOM      6  C5  BZF d   1      -4.961  -2.199  -4.109  0.00  0.00    -0.016 A 
ATOM      7  C6  BZF d   1      -5.999  -3.107  -4.078  0.00  0.00     0.022 A 
ATOM      8  C7  BZF d   1      -5.801  -4.413  -4.384  0.00  0.00     0.029 A 
ATOM      9  C7A BZF d   1      -4.521  -4.793  -4.704  0.00  0.00     0.058 A 
ENDROOT
TORSDOF 0
ENDMDL
