MODEL 1
REMARK minimizedAffinity -1.08608294
REMARK minimizedRMSD -1
REMARK  0 active torsions:
REMARK  status: ('A' for Active; 'I' for Inactive)
ROOT
ATOM      1  O1  BZF d   1      -4.604  -2.421  -5.999  0.00  0.00    -0.204 OA
ATOM      2  C2  BZF d   1      -5.658  -1.977  -5.224  0.00  0.00     0.174 A 
ATOM      3  C3  BZF d   1      -6.000  -2.903  -4.305  0.00  0.00    -0.012 A 
ATOM      4  C3A BZF d   1      -5.044  -3.956  -4.459  0.00  0.00    -0.107 A 
ATOM      5  C4  BZF d   1      -4.849  -5.148  -3.821  0.00  0.00     0.055 A 
ATOM      6  C5  BZF d   1      -3.870  -5.981  -4.261  0.00  0.00    -0.016 A 
ATOM      7  C6  BZF d   1      -3.071  -5.657  -5.338  0.00  0.00     0.022 A 
ATOM      8  C7  BZF d   1      -3.223  -4.483  -6.000  0.00  0.00     0.029 A 
ATOM      9  C7A BZF d   1      -4.191  -3.625  -5.537  0.00  0.00     0.058 A 
ENDROOT
TORSDOF 0
ENDMDL
