MODEL 1
REMARK minimizedAffinity -1.81905508
REMARK minimizedRMSD -1
REMARK  0 active torsions:
REMARK  status: ('A' for Active; 'I' for Inactive)
ROOT
ATOM      1  O1  BZF d   1      -3.403  -5.010  -4.432  0.00  0.00    -0.204 OA
ATOM      2  C2  BZF d   1      -3.842  -6.000  -5.289  0.00  0.00     0.174 A 
ATOM      3  C3  BZF d   1      -4.910  -5.580  -5.998  0.00  0.00    -0.012 A 
ATOM      4  C3A BZF d   1      -5.096  -4.212  -5.622  0.00  0.00    -0.107 A 
ATOM      5  C4  BZF d   1      -5.988  -3.248  -5.998  0.00  0.00     0.055 A 
ATOM      6  C5  BZF d   1      -5.945  -2.035  -5.388  0.00  0.00    -0.016 A 
ATOM      7  C6  BZF d   1      -5.028  -1.752  -4.397  0.00  0.00     0.022 A 
ATOM      8  C7  BZF d   1      -4.120  -2.675  -3.994  0.00  0.00     0.029 A 
ATOM      9  C7A BZF d   1      -4.140  -3.891  -4.631  0.00  0.00     0.058 A 
ENDROOT
TORSDOF 0
ENDMDL
