MODEL 1
REMARK minimizedAffinity -3.19970274
REMARK minimizedRMSD -1
REMARK  0 active torsions:
REMARK  status: ('A' for Active; 'I' for Inactive)
ROOT
ATOM      1  O1  BZF d   1      -2.109  -3.922  -5.180  0.00  0.00    -0.204 OA
ATOM      2  C2  BZF d   1      -1.517  -5.086  -5.631  0.00  0.00     0.174 A 
ATOM      3  C3  BZF d   1      -2.451  -5.997  -5.971  0.00  0.00    -0.012 A 
ATOM      4  C3A BZF d   1      -3.706  -5.330  -5.804  0.00  0.00    -0.107 A 
ATOM      5  C4  BZF d   1      -5.004  -5.708  -6.000  0.00  0.00     0.055 A 
ATOM      6  C5  BZF d   1      -6.000  -4.843  -5.673  0.00  0.00    -0.016 A 
ATOM      7  C6  BZF d   1      -5.735  -3.597  -5.144  0.00  0.00     0.022 A 
ATOM      8  C7  BZF d   1      -4.464  -3.175  -4.937  0.00  0.00     0.029 A 
ATOM      9  C7A BZF d   1      -3.454  -4.034  -5.297  0.00  0.00     0.058 A 
ENDROOT
TORSDOF 0
ENDMDL
