MODEL 1
REMARK minimizedAffinity -3.87073493
REMARK minimizedRMSD -1
REMARK  0 active torsions:
REMARK  status: ('A' for Active; 'I' for Inactive)
ROOT
ATOM      1  O1  BZF d   1      -2.642  -4.645  -4.894  0.00  0.00    -0.204 OA
ATOM      2  C2  BZF d   1      -3.076  -5.953  -4.992  0.00  0.00     0.174 A 
ATOM      3  C3  BZF d   1      -4.382  -6.000  -5.325  0.00  0.00    -0.012 A 
ATOM      4  C3A BZF d   1      -4.767  -4.637  -5.534  0.00  0.00    -0.107 A 
ATOM      5  C4  BZF d   1      -5.938  -4.038  -5.899  0.00  0.00     0.055 A 
ATOM      6  C5  BZF d   1      -6.000  -2.681  -5.942  0.00  0.00    -0.016 A 
ATOM      7  C6  BZF d   1      -4.914  -1.894  -5.620  0.00  0.00     0.022 A 
ATOM      8  C7  BZF d   1      -3.729  -2.443  -5.256  0.00  0.00     0.029 A 
ATOM      9  C7A BZF d   1      -3.654  -3.814  -5.244  0.00  0.00     0.058 A 
ENDROOT
TORSDOF 0
ENDMDL
