MODEL 1
REMARK minimizedAffinity -3.51727986
REMARK minimizedRMSD -1
REMARK  0 active torsions:
REMARK  status: ('A' for Active; 'I' for Inactive)
ROOT
ATOM      1  O1  BZF d   1      -5.994  -4.753  -5.961  0.00  0.00    -0.204 OA
ATOM      2  C2  BZF d   1      -5.342  -5.971  -5.977  0.00  0.00     0.174 A 
ATOM      3  C3  BZF d   1      -4.108  -5.860  -5.444  0.00  0.00    -0.012 A 
ATOM      4  C3A BZF d   1      -4.016  -4.507  -4.987  0.00  0.00    -0.107 A 
ATOM      5  C4  BZF d   1      -3.037  -3.795  -4.354  0.00  0.00     0.055 A 
ATOM      6  C5  BZF d   1      -3.234  -2.473  -4.113  0.00  0.00    -0.016 A 
ATOM      7  C6  BZF d   1      -4.394  -1.830  -4.495  0.00  0.00     0.022 A 
ATOM      8  C7  BZF d   1      -5.395  -2.495  -5.121  0.00  0.00     0.029 A 
ATOM      9  C7A BZF d   1      -5.212  -3.840  -5.337  0.00  0.00     0.058 A 
ENDROOT
TORSDOF 0
ENDMDL
