MODEL 1
REMARK minimizedAffinity -3.03678441
REMARK minimizedRMSD -1
REMARK  0 active torsions:
REMARK  status: ('A' for Active; 'I' for Inactive)
ROOT
ATOM      1  O1  BZF d   1      -5.183  -4.744  -5.999  0.00  0.00    -0.204 OA
ATOM      2  C2  BZF d   1      -5.297  -5.715  -5.024  0.00  0.00     0.174 A 
ATOM      3  C3  BZF d   1      -5.565  -5.160  -3.824  0.00  0.00    -0.012 A 
ATOM      4  C3A BZF d   1      -5.712  -3.760  -4.082  0.00  0.00    -0.107 A 
ATOM      5  C4  BZF d   1      -5.999  -2.684  -3.291  0.00  0.00     0.055 A 
ATOM      6  C5  BZF d   1      -5.998  -1.441  -3.840  0.00  0.00    -0.016 A 
ATOM      7  C6  BZF d   1      -5.709  -1.237  -5.173  0.00  0.00     0.022 A 
ATOM      8  C7  BZF d   1      -5.423  -2.273  -5.999  0.00  0.00     0.029 A 
ATOM      9  C7A BZF d   1      -5.456  -3.534  -5.454  0.00  0.00     0.058 A 
ENDROOT
TORSDOF 0
ENDMDL
