MODEL 1
REMARK minimizedAffinity -4.5803628
REMARK minimizedRMSD -1
REMARK  0 active torsions:
REMARK  status: ('A' for Active; 'I' for Inactive)
ROOT
ATOM      1  O1  BZF d   1      -3.159  -5.623  -4.734  0.00  0.00    -0.204 OA
ATOM      2  C2  BZF d   1      -1.975  -5.292  -5.363  0.00  0.00     0.174 A 
ATOM      3  C3  BZF d   1      -2.085  -4.109  -6.000  0.00  0.00    -0.012 A 
ATOM      4  C3A BZF d   1      -3.394  -3.628  -5.677  0.00  0.00    -0.107 A 
ATOM      5  C4  BZF d   1      -4.084  -2.495  -5.999  0.00  0.00     0.055 A 
ATOM      6  C5  BZF d   1      -5.371  -2.364  -5.582  0.00  0.00    -0.016 A 
ATOM      7  C6  BZF d   1      -5.999  -3.348  -4.846  0.00  0.00     0.022 A 
ATOM      8  C7  BZF d   1      -5.353  -4.487  -4.497  0.00  0.00     0.029 A 
ATOM      9  C7A BZF d   1      -4.043  -4.608  -4.890  0.00  0.00     0.058 A 
ENDROOT
TORSDOF 0
ENDMDL
