MODEL 1
REMARK minimizedAffinity 2.75264311
REMARK minimizedRMSD -1
REMARK  0 active torsions:
REMARK  status: ('A' for Active; 'I' for Inactive)
ROOT
ATOM      1  O1  BZF d   1      -2.557  -2.127  -5.062  0.00  0.00    -0.204 OA
ATOM      2  C2  BZF d   1      -3.838  -1.632  -5.213  0.00  0.00     0.174 A 
ATOM      3  C3  BZF d   1      -4.677  -2.598  -5.639  0.00  0.00    -0.012 A 
ATOM      4  C3A BZF d   1      -3.890  -3.792  -5.673  0.00  0.00    -0.107 A 
ATOM      5  C4  BZF d   1      -4.165  -5.089  -6.000  0.00  0.00     0.055 A 
ATOM      6  C5  BZF d   1      -3.156  -5.999  -5.999  0.00  0.00    -0.016 A 
ATOM      7  C6  BZF d   1      -1.860  -5.647  -5.683  0.00  0.00     0.022 A 
ATOM      8  C7  BZF d   1      -1.539  -4.373  -5.347  0.00  0.00     0.029 A 
ATOM      9  C7A BZF d   1      -2.563  -3.458  -5.315  0.00  0.00     0.058 A 
ENDROOT
TORSDOF 0
ENDMDL
