MODEL 1
REMARK minimizedAffinity -3.71900415
REMARK minimizedRMSD -1
REMARK  0 active torsions:
REMARK  status: ('A' for Active; 'I' for Inactive)
ROOT
ATOM      1  O1  BZF d   1      -1.988  -3.862  -5.489  0.00  0.00    -0.204 OA
ATOM      2  C2  BZF d   1      -1.490  -5.070  -5.936  0.00  0.00     0.174 A 
ATOM      3  C3  BZF d   1      -2.466  -5.999  -5.990  0.00  0.00    -0.012 A 
ATOM      4  C3A BZF d   1      -3.666  -5.305  -5.637  0.00  0.00    -0.107 A 
ATOM      5  C4  BZF d   1      -4.973  -5.686  -5.527  0.00  0.00     0.055 A 
ATOM      6  C5  BZF d   1      -5.889  -4.782  -5.089  0.00  0.00    -0.016 A 
ATOM      7  C6  BZF d   1      -5.533  -3.494  -4.749  0.00  0.00     0.022 A 
ATOM      8  C7  BZF d   1      -4.250  -3.068  -4.847  0.00  0.00     0.029 A 
ATOM      9  C7A BZF d   1      -3.327  -3.969  -5.319  0.00  0.00     0.058 A 
ENDROOT
TORSDOF 0
ENDMDL
