MODEL 1
REMARK minimizedAffinity 6.45143366
REMARK minimizedRMSD -1
REMARK  0 active torsions:
REMARK  status: ('A' for Active; 'I' for Inactive)
ROOT
ATOM      1  O1  BZF d   1      -1.879  -5.723  -3.887  0.00  0.00    -0.204 OA
ATOM      2  C2  BZF d   1      -1.085  -5.999  -4.984  0.00  0.00     0.174 A 
ATOM      3  C3  BZF d   1      -1.363  -5.156  -5.999  0.00  0.00    -0.012 A 
ATOM      4  C3A BZF d   1      -2.329  -4.241  -5.475  0.00  0.00    -0.107 A 
ATOM      5  C4  BZF d   1      -2.982  -3.162  -6.000  0.00  0.00     0.055 A 
ATOM      6  C5  BZF d   1      -3.919  -2.527  -5.248  0.00  0.00    -0.016 A 
ATOM      7  C6  BZF d   1      -4.232  -2.946  -3.972  0.00  0.00     0.022 A 
ATOM      8  C7  BZF d   1      -3.609  -4.009  -3.407  0.00  0.00     0.029 A 
ATOM      9  C7A BZF d   1      -2.638  -4.632  -4.152  0.00  0.00     0.058 A 
ENDROOT
TORSDOF 0
ENDMDL
