MODEL 1
REMARK minimizedAffinity -3.36570668
REMARK minimizedRMSD -1
REMARK  0 active torsions:
REMARK  status: ('A' for Active; 'I' for Inactive)
ROOT
ATOM      1  O1  BZF d   1      -2.694  -5.521  -4.886  0.00  0.00    -0.204 OA
ATOM      2  C2  BZF d   1      -1.952  -4.690  -5.702  0.00  0.00     0.174 A 
ATOM      3  C3  BZF d   1      -2.642  -3.570  -6.000  0.00  0.00    -0.012 A 
ATOM      4  C3A BZF d   1      -3.858  -3.668  -5.253  0.00  0.00    -0.107 A 
ATOM      5  C4  BZF d   1      -4.947  -2.854  -5.119  0.00  0.00     0.055 A 
ATOM      6  C5  BZF d   1      -5.999  -3.275  -4.370  0.00  0.00    -0.016 A 
ATOM      7  C6  BZF d   1      -5.999  -4.505  -3.745  0.00  0.00     0.022 A 
ATOM      8  C7  BZF d   1      -4.940  -5.346  -3.844  0.00  0.00     0.029 A 
ATOM      9  C7A BZF d   1      -3.862  -4.909  -4.574  0.00  0.00     0.058 A 
ENDROOT
TORSDOF 0
ENDMDL
