MODEL 1
REMARK minimizedAffinity -3.27475333
REMARK minimizedRMSD -1
REMARK  0 active torsions:
REMARK  status: ('A' for Active; 'I' for Inactive)
ROOT
ATOM      1  O1  BZF d   1      -4.901  -2.957  -5.532  0.00  0.00    -0.204 OA
ATOM      2  C2  BZF d   1      -6.000  -3.787  -5.645  0.00  0.00     0.174 A 
ATOM      3  C3  BZF d   1      -5.617  -5.056  -5.894  0.00  0.00    -0.012 A 
ATOM      4  C3A BZF d   1      -4.187  -5.033  -5.847  0.00  0.00    -0.107 A 
ATOM      5  C4  BZF d   1      -3.227  -5.993  -6.000  0.00  0.00     0.055 A 
ATOM      6  C5  BZF d   1      -1.918  -5.629  -5.968  0.00  0.00    -0.016 A 
ATOM      7  C6  BZF d   1      -1.534  -4.316  -5.790  0.00  0.00     0.022 A 
ATOM      8  C7  BZF d   1      -2.450  -3.330  -5.629  0.00  0.00     0.029 A 
ATOM      9  C7A BZF d   1      -3.773  -3.699  -5.628  0.00  0.00     0.058 A 
ENDROOT
TORSDOF 0
ENDMDL
