MODEL 1
REMARK minimizedAffinity -2.14160919
REMARK minimizedRMSD -1
REMARK  0 active torsions:
REMARK  status: ('A' for Active; 'I' for Inactive)
ROOT
ATOM      1  O1  BZF d   1      -4.756  -2.783  -5.986  0.00  0.00    -0.204 OA
ATOM      2  C2  BZF d   1      -6.000  -3.249  -5.606  0.00  0.00     0.174 A 
ATOM      3  C3  BZF d   1      -5.925  -4.530  -5.190  0.00  0.00    -0.012 A 
ATOM      4  C3A BZF d   1      -4.532  -4.858  -5.231  0.00  0.00    -0.107 A 
ATOM      5  C4  BZF d   1      -3.823  -5.982  -4.920  0.00  0.00     0.055 A 
ATOM      6  C5  BZF d   1      -2.482  -6.000  -5.142  0.00  0.00    -0.016 A 
ATOM      7  C6  BZF d   1      -1.821  -4.915  -5.679  0.00  0.00     0.022 A 
ATOM      8  C7  BZF d   1      -2.481  -3.776  -5.999  0.00  0.00     0.029 A 
ATOM      9  C7A BZF d   1      -3.831  -3.743  -5.745  0.00  0.00     0.058 A 
ENDROOT
TORSDOF 0
ENDMDL
