MODEL 1
REMARK minimizedAffinity -2.33951974
REMARK minimizedRMSD -1
REMARK  0 active torsions:
REMARK  status: ('A' for Active; 'I' for Inactive)
ROOT
ATOM      1  O1  BZF d   1      -5.999  -4.073  -5.006  0.00  0.00    -0.204 OA
ATOM      2  C2  BZF d   1      -6.000  -3.018  -4.113  0.00  0.00     0.174 A 
ATOM      3  C3  BZF d   1      -4.750  -2.761  -3.676  0.00  0.00    -0.012 A 
ATOM      4  C3A BZF d   1      -3.905  -3.655  -4.406  0.00  0.00    -0.107 A 
ATOM      5  C4  BZF d   1      -2.556  -3.867  -4.424  0.00  0.00     0.055 A 
ATOM      6  C5  BZF d   1      -2.054  -4.866  -5.196  0.00  0.00    -0.016 A 
ATOM      7  C6  BZF d   1      -2.872  -5.674  -5.958  0.00  0.00     0.022 A 
ATOM      8  C7  BZF d   1      -4.215  -5.500  -5.977  0.00  0.00     0.029 A 
ATOM      9  C7A BZF d   1      -4.722  -4.470  -5.223  0.00  0.00     0.058 A 
ENDROOT
TORSDOF 0
ENDMDL
