MODEL 1
REMARK minimizedAffinity 8.02716064
REMARK minimizedRMSD -1
REMARK  0 active torsions:
REMARK  status: ('A' for Active; 'I' for Inactive)
ROOT
ATOM      1  C1  DEN d   1      -5.994  -5.021  -5.993  0.00  0.00     0.130 A 
ATOM      2  C2  DEN d   1      -5.116  -6.000  -5.358  0.00  0.00    -0.031 A 
ATOM      3  C3  DEN d   1      -4.099  -5.264  -4.581  0.00  0.00     0.027 A 
ATOM      4  C4  DEN d   1      -3.804  -2.717  -4.296  0.00  0.00     0.027 A 
ATOM      5  C5  DEN d   1      -4.300  -1.483  -4.652  0.00  0.00    -0.003 A 
ATOM      6  C6  DEN d   1      -5.365  -1.342  -5.501  0.00  0.00     0.001 A 
ATOM      7  C7  DEN d   1      -5.999  -2.455  -5.986  0.00  0.00     0.017 A 
ATOM      8  C8  DEN d   1      -5.500  -3.703  -5.637  0.00  0.00    -0.094 A 
ATOM      9  C9  DEN d   1      -4.429  -3.825  -4.768  0.00  0.00    -0.072 A 
ENDROOT
TORSDOF 0
ENDMDL
