MODEL 1
REMARK minimizedAffinity 10.3446875
REMARK minimizedRMSD -1
REMARK  0 active torsions:
REMARK  status: ('A' for Active; 'I' for Inactive)
ROOT
ATOM      1  C1  DEN d   1       1.580  -3.462   1.662  0.00  0.00     0.130 A 
ATOM      2  C2  DEN d   1       1.928  -4.859   1.420  0.00  0.00    -0.031 A 
ATOM      3  C3  DEN d   1       1.628  -5.624   2.647  0.00  0.00     0.027 A 
ATOM      4  C4  DEN d   1       0.656  -4.784   4.885  0.00  0.00     0.027 A 
ATOM      5  C5  DEN d   1       0.213  -3.675   5.570  0.00  0.00    -0.003 A 
ATOM      6  C6  DEN d   1       0.226  -2.422   5.017  0.00  0.00     0.001 A 
ATOM      7  C7  DEN d   1       0.650  -2.254   3.725  0.00  0.00     0.017 A 
ATOM      8  C8  DEN d   1       1.105  -3.367   3.030  0.00  0.00    -0.094 A 
ATOM      9  C9  DEN d   1       1.073  -4.627   3.602  0.00  0.00    -0.072 A 
ENDROOT
TORSDOF 0
ENDMDL
