MODEL 1
REMARK minimizedAffinity 20.3606606
REMARK minimizedRMSD -1
REMARK  0 active torsions:
REMARK  status: ('A' for Active; 'I' for Inactive)
ROOT
ATOM      1  C1  DEN d   1       0.592   5.263  -1.332  0.00  0.00     0.130 A 
ATOM      2  C2  DEN d   1       1.726   5.353  -2.247  0.00  0.00    -0.031 A 
ATOM      3  C3  DEN d   1       2.730   4.355  -1.830  0.00  0.00     0.027 A 
ATOM      4  C4  DEN d   1       2.637   2.682   0.132  0.00  0.00     0.027 A 
ATOM      5  C5  DEN d   1       1.881   2.240   1.195  0.00  0.00    -0.003 A 
ATOM      6  C6  DEN d   1       0.668   2.793   1.508  0.00  0.00     0.001 A 
ATOM      7  C7  DEN d   1       0.153   3.790   0.722  0.00  0.00     0.017 A 
ATOM      8  C8  DEN d   1       0.913   4.246  -0.347  0.00  0.00    -0.094 A 
ATOM      9  C9  DEN d   1       2.132   3.666  -0.654  0.00  0.00    -0.072 A 
ENDROOT
TORSDOF 0
ENDMDL
