MODEL 1
REMARK minimizedAffinity -0.390045583
REMARK minimizedRMSD -1
REMARK  0 active torsions:
REMARK  status: ('A' for Active; 'I' for Inactive)
ROOT
ATOM      1  C1  DEN d   1       3.566   4.500  -2.336  0.00  0.00     0.130 A 
ATOM      2  C2  DEN d   1       4.498   5.231  -1.482  0.00  0.00    -0.031 A 
ATOM      3  C3  DEN d   1       5.618   5.698  -2.323  0.00  0.00     0.027 A 
ATOM      4  C4  DEN d   1       5.995   5.368  -4.853  0.00  0.00     0.027 A 
ATOM      5  C5  DEN d   1       5.482   4.804  -6.000  0.00  0.00    -0.003 A 
ATOM      6  C6  DEN d   1       4.322   4.076  -6.000  0.00  0.00     0.001 A 
ATOM      7  C7  DEN d   1       3.611   3.931  -4.837  0.00  0.00     0.017 A 
ATOM      8  C8  DEN d   1       4.126   4.491  -3.675  0.00  0.00    -0.094 A 
ATOM      9  C9  DEN d   1       5.295   5.233  -3.698  0.00  0.00    -0.072 A 
ENDROOT
TORSDOF 0
ENDMDL
