MODEL 1
REMARK minimizedAffinity 20.4318657
REMARK minimizedRMSD -1
REMARK  0 active torsions:
REMARK  status: ('A' for Active; 'I' for Inactive)
ROOT
ATOM      1  C1  DEN d   1      -0.049  -1.374   4.350  0.00  0.00     0.130 A 
ATOM      2  C2  DEN d   1      -0.073  -2.692   4.979  0.00  0.00    -0.031 A 
ATOM      3  C3  DEN d   1       0.540  -3.656   4.043  0.00  0.00     0.027 A 
ATOM      4  C4  DEN d   1       1.523  -3.236   1.696  0.00  0.00     0.027 A 
ATOM      5  C5  DEN d   1       1.758  -2.281   0.731  0.00  0.00    -0.003 A 
ATOM      6  C6  DEN d   1       1.380  -0.974   0.890  0.00  0.00     0.001 A 
ATOM      7  C7  DEN d   1       0.786  -0.577   2.059  0.00  0.00     0.017 A 
ATOM      8  C8  DEN d   1       0.539  -1.536   3.033  0.00  0.00    -0.094 A 
ATOM      9  C9  DEN d   1       0.940  -2.849   2.858  0.00  0.00    -0.072 A 
ENDROOT
TORSDOF 0
ENDMDL
