MODEL 1
REMARK minimizedAffinity 18.2102432
REMARK minimizedRMSD -1
REMARK  0 active torsions:
REMARK  status: ('A' for Active; 'I' for Inactive)
ROOT
ATOM      1  C1  DEN d   1       2.470   5.082  -3.167  0.00  0.00     0.130 A 
ATOM      2  C2  DEN d   1       2.980   4.785  -1.831  0.00  0.00    -0.031 A 
ATOM      3  C3  DEN d   1       4.448   4.944  -1.857  0.00  0.00     0.027 A 
ATOM      4  C4  DEN d   1       5.971   5.622  -3.825  0.00  0.00     0.027 A 
ATOM      5  C5  DEN d   1       5.997   5.963  -5.160  0.00  0.00    -0.003 A 
ATOM      6  C6  DEN d   1       4.862   6.000  -5.925  0.00  0.00     0.001 A 
ATOM      7  C7  DEN d   1       3.646   5.735  -5.351  0.00  0.00     0.017 A 
ATOM      8  C8  DEN d   1       3.614   5.384  -4.008  0.00  0.00    -0.094 A 
ATOM      9  C9  DEN d   1       4.771   5.364  -3.248  0.00  0.00    -0.072 A 
ENDROOT
TORSDOF 0
ENDMDL
