MODEL 1
REMARK minimizedAffinity 1.42605102
REMARK minimizedRMSD -1
REMARK  0 active torsions:
REMARK  status: ('A' for Active; 'I' for Inactive)
ROOT
ATOM      1  C1  DEN d   1       1.321  -1.763   1.833  0.00  0.00     0.130 A 
ATOM      2  C2  DEN d   1       0.622  -2.617   2.789  0.00  0.00    -0.031 A 
ATOM      3  C3  DEN d   1       0.498  -1.873   4.059  0.00  0.00     0.027 A 
ATOM      4  C4  DEN d   1       1.312   0.506   4.633  0.00  0.00     0.027 A 
ATOM      5  C5  DEN d   1       1.969   1.615   4.148  0.00  0.00    -0.003 A 
ATOM      6  C6  DEN d   1       2.482   1.663   2.879  0.00  0.00     0.001 A 
ATOM      7  C7  DEN d   1       2.307   0.598   2.035  0.00  0.00     0.017 A 
ATOM      8  C8  DEN d   1       1.652  -0.527   2.519  0.00  0.00    -0.094 A 
ATOM      9  C9  DEN d   1       1.130  -0.551   3.802  0.00  0.00    -0.072 A 
ENDROOT
TORSDOF 0
ENDMDL
