MODEL 1
REMARK minimizedAffinity 13.1083488
REMARK minimizedRMSD -1
REMARK  0 active torsions:
REMARK  status: ('A' for Active; 'I' for Inactive)
ROOT
ATOM      1  C1  DEN d   1       2.638  -0.856   0.883  0.00  0.00     0.130 A 
ATOM      2  C2  DEN d   1       2.545   0.556   1.243  0.00  0.00    -0.031 A 
ATOM      3  C3  DEN d   1       1.898   0.647   2.568  0.00  0.00     0.027 A 
ATOM      4  C4  DEN d   1       1.041  -1.251   4.089  0.00  0.00     0.027 A 
ATOM      5  C5  DEN d   1       0.890  -2.615   4.205  0.00  0.00    -0.003 A 
ATOM      6  C6  DEN d   1       1.277  -3.479   3.216  0.00  0.00     0.001 A 
ATOM      7  C7  DEN d   1       1.876  -2.991   2.084  0.00  0.00     0.017 A 
ATOM      8  C8  DEN d   1       2.025  -1.617   1.957  0.00  0.00    -0.094 A 
ATOM      9  C9  DEN d   1       1.638  -0.760   2.974  0.00  0.00    -0.072 A 
ENDROOT
TORSDOF 0
ENDMDL
