MODEL 1
REMARK minimizedAffinity 2.23509336
REMARK minimizedRMSD -1
REMARK  0 active torsions:
REMARK  status: ('A' for Active; 'I' for Inactive)
ROOT
ATOM      1  C1  DEN d   1       6.000   6.000  -4.335  0.00  0.00     0.130 A 
ATOM      2  C2  DEN d   1       5.825   5.170  -5.523  0.00  0.00    -0.031 A 
ATOM      3  C3  DEN d   1       4.739   4.207  -5.252  0.00  0.00     0.027 A 
ATOM      4  C4  DEN d   1       3.315   3.926  -3.120  0.00  0.00     0.027 A 
ATOM      5  C5  DEN d   1       3.104   4.393  -1.841  0.00  0.00    -0.003 A 
ATOM      6  C6  DEN d   1       3.859   5.398  -1.297  0.00  0.00     0.001 A 
ATOM      7  C7  DEN d   1       4.833   5.999  -2.050  0.00  0.00     0.017 A 
ATOM      8  C8  DEN d   1       5.057   5.528  -3.337  0.00  0.00    -0.094 A 
ATOM      9  C9  DEN d   1       4.274   4.520  -3.873  0.00  0.00    -0.072 A 
ENDROOT
TORSDOF 0
ENDMDL
