MODEL 1
REMARK minimizedAffinity -5.10542154
REMARK minimizedRMSD -1
REMARK  2 active torsions:
REMARK  status: ('A' for Active; 'I' for Inactive)
REMARK    1  A    between atoms: C2'_3  and  C1'_4 
REMARK    2  A    between atoms: C1'_4  and  C1_5 
ROOT
ATOM      1  C1  I4B d   1      -0.676  -0.699   0.203  0.00  0.00    -0.075 A 
ATOM      2  C2  I4B d   1      -2.021  -0.633   0.467  0.00  0.00     0.003 A 
ATOM      3  C3  I4B d   1      -2.582  -1.415   1.506  0.00  0.00     0.002 A 
ATOM      4  C4  I4B d   1      -1.776  -2.281   2.217  0.00  0.00    -0.004 A 
ATOM      5  C5  I4B d   1      -0.408  -2.329   1.962  0.00  0.00     0.002 A 
ATOM      6  C6  I4B d   1       0.148  -1.524   0.957  0.00  0.00     0.003 A 
ENDROOT
BRANCH   1   7
ATOM      7  C1' I4B d   1      -0.122   0.116  -0.923  0.00  0.00     0.060 C 
BRANCH   7   8
ATOM      8  C2' I4B d   1       0.691   1.246  -0.325  0.00  0.00    -0.013 C 
ATOM      9  C4' I4B d   1       1.302   2.106  -1.400  0.00  0.00     0.013 C 
ATOM     10  C3' I4B d   1      -0.213   2.049   0.562  0.00  0.00     0.013 C 
ENDBRANCH   7   8
ENDBRANCH   1   7
TORSDOF 2
ENDMDL
