MODEL 1
REMARK minimizedAffinity -4.96316242
REMARK minimizedRMSD -1
REMARK  2 active torsions:
REMARK  status: ('A' for Active; 'I' for Inactive)
REMARK    1  A    between atoms: C2'_3  and  C1'_4 
REMARK    2  A    between atoms: C1'_4  and  C1_5 
ROOT
ATOM      1  C1  I4B d   1      -0.932  -0.863   0.775  0.00  0.00    -0.075 A 
ATOM      2  C2  I4B d   1      -2.023  -0.098   1.103  0.00  0.00     0.003 A 
ATOM      3  C3  I4B d   1      -3.190  -0.709   1.623  0.00  0.00     0.002 A 
ATOM      4  C4  I4B d   1      -3.240  -2.082   1.751  0.00  0.00    -0.004 A 
ATOM      5  C5  I4B d   1      -2.124  -2.853   1.440  0.00  0.00     0.002 A 
ATOM      6  C6  I4B d   1      -0.958  -2.239   0.960  0.00  0.00     0.003 A 
ENDROOT
BRANCH   1   7
ATOM      7  C1' I4B d   1       0.273  -0.189   0.197  0.00  0.00     0.060 C 
BRANCH   7   8
ATOM      8  C2' I4B d   1      -0.154   1.172  -0.313  0.00  0.00    -0.013 C 
ATOM      9  C4' I4B d   1       0.168   2.254   0.685  0.00  0.00     0.013 C 
ATOM     10  C3' I4B d   1       0.541   1.416  -1.619  0.00  0.00     0.013 C 
ENDBRANCH   7   8
ENDBRANCH   1   7
TORSDOF 2
ENDMDL
