MODEL 1
REMARK minimizedAffinity -2.83144212
REMARK minimizedRMSD -1
REMARK  2 active torsions:
REMARK  status: ('A' for Active; 'I' for Inactive)
REMARK    1  A    between atoms: C2'_3  and  C1'_4 
REMARK    2  A    between atoms: C1'_4  and  C1_5 
ROOT
ATOM      1  C1  I4B d   1       0.194   0.144  -0.050  0.00  0.00    -0.075 A 
ATOM      2  C2  I4B d   1       1.094  -0.891  -0.099  0.00  0.00     0.003 A 
ATOM      3  C3  I4B d   1       0.730  -2.176   0.372  0.00  0.00     0.002 A 
ATOM      4  C4  I4B d   1      -0.519  -2.367   0.927  0.00  0.00    -0.004 A 
ATOM      5  C5  I4B d   1      -1.438  -1.323   0.955  0.00  0.00     0.002 A 
ATOM      6  C6  I4B d   1      -1.084  -0.062   0.452  0.00  0.00     0.003 A 
ENDROOT
BRANCH   1   7
ATOM      7  C1' I4B d   1       0.623   1.495  -0.526  0.00  0.00     0.060 C 
BRANCH   7   8
ATOM      8  C2' I4B d   1       1.171   1.344  -1.930  0.00  0.00    -0.013 C 
ATOM      9  C4' I4B d   1       0.258   1.982  -2.944  0.00  0.00     0.013 C 
ATOM     10  C3' I4B d   1       2.536   1.965  -1.964  0.00  0.00     0.013 C 
ENDBRANCH   7   8
ENDBRANCH   1   7
TORSDOF 2
ENDMDL
