MODEL 1
REMARK minimizedAffinity -1.32571876
REMARK minimizedRMSD -1
REMARK  2 active torsions:
REMARK  status: ('A' for Active; 'I' for Inactive)
REMARK    1  A    between atoms: C2'_3  and  C1'_4 
REMARK    2  A    between atoms: C1'_4  and  C1_5 
ROOT
ATOM      1  C1  I4B d   1      -0.262   0.184   0.716  0.00  0.00    -0.075 A 
ATOM      2  C2  I4B d   1      -1.322   0.961   1.112  0.00  0.00     0.003 A 
ATOM      3  C3  I4B d   1      -2.327   0.420   1.951  0.00  0.00     0.002 A 
ATOM      4  C4  I4B d   1      -2.259  -0.906   2.325  0.00  0.00    -0.004 A 
ATOM      5  C5  I4B d   1      -1.171  -1.685   1.941  0.00  0.00     0.002 A 
ATOM      6  C6  I4B d   1      -0.160  -1.134   1.141  0.00  0.00     0.003 A 
ENDROOT
BRANCH   1   7
ATOM      7  C1' I4B d   1       0.765   0.778  -0.197  0.00  0.00     0.060 C 
BRANCH   7   8
ATOM      8  C2' I4B d   1       0.356   0.469  -1.623  0.00  0.00    -0.013 C 
ATOM      9  C4' I4B d   1       0.949   1.461  -2.587  0.00  0.00     0.013 C 
ATOM     10  C3' I4B d   1       0.802  -0.928  -1.940  0.00  0.00     0.013 C 
ENDBRANCH   7   8
ENDBRANCH   1   7
TORSDOF 2
ENDMDL
