MODEL 1
REMARK minimizedAffinity -2.9527514
REMARK minimizedRMSD -1
REMARK  2 active torsions:
REMARK  status: ('A' for Active; 'I' for Inactive)
REMARK    1  A    between atoms: C2'_3  and  C1'_4 
REMARK    2  A    between atoms: C1'_4  and  C1_5 
ROOT
ATOM      1  C1  I4B d   1       1.169   1.372  -0.985  0.00  0.00    -0.075 A 
ATOM      2  C2  I4B d   1       2.359   1.947  -1.355  0.00  0.00     0.003 A 
ATOM      3  C3  I4B d   1       2.503   2.523  -2.641  0.00  0.00     0.002 A 
ATOM      4  C4  I4B d   1       1.455   2.456  -3.536  0.00  0.00    -0.004 A 
ATOM      5  C5  I4B d   1       0.242   1.893  -3.151  0.00  0.00     0.002 A 
ATOM      6  C6  I4B d   1       0.094   1.358  -1.863  0.00  0.00     0.003 A 
ENDROOT
BRANCH   1   7
ATOM      7  C1' I4B d   1       1.063   0.745   0.369  0.00  0.00     0.060 C 
BRANCH   7   8
ATOM      8  C2' I4B d   1       1.532  -0.692   0.256  0.00  0.00    -0.013 C 
ATOM      9  C4' I4B d   1       2.909  -0.863   0.843  0.00  0.00     0.013 C 
ATOM     10  C3' I4B d   1       0.532  -1.562   0.957  0.00  0.00     0.013 C 
ENDBRANCH   7   8
ENDBRANCH   1   7
TORSDOF 2
ENDMDL
