MODEL 1
REMARK minimizedAffinity 2.77748275
REMARK minimizedRMSD -1
REMARK  2 active torsions:
REMARK  status: ('A' for Active; 'I' for Inactive)
REMARK    1  A    between atoms: C2'_3  and  C1'_4 
REMARK    2  A    between atoms: C1'_4  and  C1_5 
ROOT
ATOM      1  C1  I4B d   1       0.324   0.495  -0.217  0.00  0.00    -0.075 A 
ATOM      2  C2  I4B d   1       0.883  -0.712  -0.558  0.00  0.00     0.003 A 
ATOM      3  C3  I4B d   1       0.301  -1.920  -0.105  0.00  0.00     0.002 A 
ATOM      4  C4  I4B d   1      -0.802  -1.875   0.722  0.00  0.00    -0.004 A 
ATOM      5  C5  I4B d   1      -1.381  -0.652   1.048  0.00  0.00     0.002 A 
ATOM      6  C6  I4B d   1      -0.822   0.540   0.566  0.00  0.00     0.003 A 
ENDROOT
BRANCH   1   7
ATOM      7  C1' I4B d   1       0.984   1.753  -0.685  0.00  0.00     0.060 C 
BRANCH   7   8
ATOM      8  C2' I4B d   1       1.723   1.442  -1.971  0.00  0.00    -0.013 C 
ATOM      9  C4' I4B d   1       1.004   2.013  -3.164  0.00  0.00     0.013 C 
ATOM     10  C3' I4B d   1       3.109   2.003  -1.855  0.00  0.00     0.013 C 
ENDBRANCH   7   8
ENDBRANCH   1   7
TORSDOF 2
ENDMDL
