MODEL 1
REMARK minimizedAffinity -0.794184387
REMARK minimizedRMSD -1
REMARK  2 active torsions:
REMARK  status: ('A' for Active; 'I' for Inactive)
REMARK    1  A    between atoms: C2'_3  and  C1'_4 
REMARK    2  A    between atoms: C1'_4  and  C1_5 
ROOT
ATOM      1  C1  I4B d   1       0.787   1.171  -0.885  0.00  0.00    -0.075 A 
ATOM      2  C2  I4B d   1       1.962   1.573  -1.470  0.00  0.00     0.003 A 
ATOM      3  C3  I4B d   1       1.943   2.280  -2.696  0.00  0.00     0.002 A 
ATOM      4  C4  I4B d   1       0.737   2.519  -3.324  0.00  0.00    -0.004 A 
ATOM      5  C5  I4B d   1      -0.455   2.132  -2.718  0.00  0.00     0.002 A 
ATOM      6  C6  I4B d   1      -0.431   1.464  -1.485  0.00  0.00     0.003 A 
ENDROOT
BRANCH   1   7
ATOM      7  C1' I4B d   1       0.846   0.397   0.394  0.00  0.00     0.060 C 
BRANCH   7   8
ATOM      8  C2' I4B d   1       0.737  -1.075   0.053  0.00  0.00    -0.013 C 
ATOM      9  C4' I4B d   1       2.098  -1.704  -0.087  0.00  0.00     0.013 C 
ATOM     10  C3' I4B d   1      -0.059  -1.743   1.135  0.00  0.00     0.013 C 
ENDBRANCH   7   8
ENDBRANCH   1   7
TORSDOF 2
ENDMDL
