MODEL 1
REMARK minimizedAffinity -4.39276648
REMARK minimizedRMSD -1
REMARK  2 active torsions:
REMARK  status: ('A' for Active; 'I' for Inactive)
REMARK    1  A    between atoms: C2'_3  and  C1'_4 
REMARK    2  A    between atoms: C1'_4  and  C1_5 
ROOT
ATOM      1  C1  I4B d   1      -1.401  -1.515   1.202  0.00  0.00    -0.075 A 
ATOM      2  C2  I4B d   1      -0.832  -0.396   0.647  0.00  0.00     0.003 A 
ATOM      3  C3  I4B d   1       0.505  -0.432   0.181  0.00  0.00     0.002 A 
ATOM      4  C4  I4B d   1       1.248  -1.585   0.336  0.00  0.00    -0.004 A 
ATOM      5  C5  I4B d   1       0.662  -2.725   0.879  0.00  0.00     0.002 A 
ATOM      6  C6  I4B d   1      -0.674  -2.694   1.304  0.00  0.00     0.003 A 
ENDROOT
BRANCH   1   7
ATOM      7  C1' I4B d   1      -2.804  -1.432   1.714  0.00  0.00     0.060 C 
BRANCH   7   8
ATOM      8  C2' I4B d   1      -2.977  -0.085   2.387  0.00  0.00    -0.013 C 
ATOM      9  C4' I4B d   1      -4.258   0.579   1.958  0.00  0.00     0.013 C 
ATOM     10  C3' I4B d   1      -2.950  -0.303   3.871  0.00  0.00     0.013 C 
ENDBRANCH   7   8
ENDBRANCH   1   7
TORSDOF 2
ENDMDL
