MODEL 1
REMARK minimizedAffinity -3.98635101
REMARK minimizedRMSD -1
REMARK  2 active torsions:
REMARK  status: ('A' for Active; 'I' for Inactive)
REMARK    1  A    between atoms: C2'_3  and  C1'_4 
REMARK    2  A    between atoms: C1'_4  and  C1_5 
ROOT
ATOM      1  C1  I4B d   1       0.554   0.667  -0.375  0.00  0.00    -0.075 A 
ATOM      2  C2  I4B d   1      -0.425   1.003   0.526  0.00  0.00     0.003 A 
ATOM      3  C3  I4B d   1      -0.990   0.013   1.366  0.00  0.00     0.002 A 
ATOM      4  C4  I4B d   1      -0.585  -1.300   1.237  0.00  0.00    -0.004 A 
ATOM      5  C5  I4B d   1       0.425  -1.634   0.339  0.00  0.00     0.002 A 
ATOM      6  C6  I4B d   1       1.007  -0.642  -0.464  0.00  0.00     0.003 A 
ENDROOT
BRANCH   1   7
ATOM      7  C1' I4B d   1       1.105   1.732  -1.270  0.00  0.00     0.060 C 
BRANCH   7   8
ATOM      8  C2' I4B d   1       0.570   1.492  -2.667  0.00  0.00    -0.013 C 
ATOM      9  C4' I4B d   1      -0.529   2.464  -3.004  0.00  0.00     0.013 C 
ATOM     10  C3' I4B d   1       1.714   1.612  -3.628  0.00  0.00     0.013 C 
ENDBRANCH   7   8
ENDBRANCH   1   7
TORSDOF 2
ENDMDL
