MODEL 1
REMARK minimizedAffinity -4.96191454
REMARK minimizedRMSD -1
REMARK  2 active torsions:
REMARK  status: ('A' for Active; 'I' for Inactive)
REMARK    1  A    between atoms: C2'_3  and  C1'_4 
REMARK    2  A    between atoms: C1'_4  and  C1_5 
ROOT
ATOM      1  C1  I4B d   1      -0.719  -0.670   0.197  0.00  0.00    -0.075 A 
ATOM      2  C2  I4B d   1      -2.055  -0.525   0.478  0.00  0.00     0.003 A 
ATOM      3  C3  I4B d   1      -2.647  -1.262   1.532  0.00  0.00     0.002 A 
ATOM      4  C4  I4B d   1      -1.882  -2.164   2.243  0.00  0.00    -0.004 A 
ATOM      5  C5  I4B d   1      -0.522  -2.293   1.972  0.00  0.00     0.002 A 
ATOM      6  C6  I4B d   1       0.066  -1.533   0.951  0.00  0.00     0.003 A 
ENDROOT
BRANCH   1   7
ATOM      7  C1' I4B d   1      -0.135   0.099  -0.944  0.00  0.00     0.060 C 
BRANCH   7   8
ATOM      8  C2' I4B d   1       0.962   0.989  -0.395  0.00  0.00    -0.013 C 
ATOM      9  C4' I4B d   1       1.724   1.664  -1.505  0.00  0.00     0.013 C 
ATOM     10  C3' I4B d   1       0.327   1.996   0.517  0.00  0.00     0.013 C 
ENDBRANCH   7   8
ENDBRANCH   1   7
TORSDOF 2
ENDMDL
