MODEL 1
REMARK minimizedAffinity -3.38366199
REMARK minimizedRMSD -1
REMARK  2 active torsions:
REMARK  status: ('A' for Active; 'I' for Inactive)
REMARK    1  A    between atoms: C2'_3  and  C1'_4 
REMARK    2  A    between atoms: C1'_4  and  C1_5 
ROOT
ATOM      1  C1  I4B d   1       0.138   0.585  -0.107  0.00  0.00    -0.075 A 
ATOM      2  C2  I4B d   1       1.106  -0.355  -0.358  0.00  0.00     0.003 A 
ATOM      3  C3  I4B d   1       1.031  -1.634   0.246  0.00  0.00     0.002 A 
ATOM      4  C4  I4B d   1       0.006  -1.910   1.127  0.00  0.00    -0.004 A 
ATOM      5  C5  I4B d   1      -0.987  -0.963   1.363  0.00  0.00     0.002 A 
ATOM      6  C6  I4B d   1      -0.927   0.288   0.733  0.00  0.00     0.003 A 
ENDROOT
BRANCH   1   7
ATOM      7  C1' I4B d   1       0.266   1.937  -0.736  0.00  0.00     0.060 C 
BRANCH   7   8
ATOM      8  C2' I4B d   1       0.504   1.741  -2.219  0.00  0.00    -0.013 C 
ATOM      9  C4' I4B d   1      -0.499   2.510  -3.038  0.00  0.00     0.013 C 
ATOM     10  C3' I4B d   1       1.905   2.180  -2.526  0.00  0.00     0.013 C 
ENDBRANCH   7   8
ENDBRANCH   1   7
TORSDOF 2
ENDMDL
