MODEL 1
REMARK minimizedAffinity -5.97043562
REMARK minimizedRMSD -1
REMARK  2 active torsions:
REMARK  status: ('A' for Active; 'I' for Inactive)
REMARK    1  A    between atoms: C2'_3  and  C1'_4 
REMARK    2  A    between atoms: C1'_4  and  C1_5 
ROOT
ATOM      1  C1  I4B d   1      -0.410  -1.134   0.485  0.00  0.00    -0.075 A 
ATOM      2  C2  I4B d   1      -0.446  -1.501   1.807  0.00  0.00     0.003 A 
ATOM      3  C3  I4B d   1      -1.525  -2.272   2.303  0.00  0.00     0.002 A 
ATOM      4  C4  I4B d   1      -2.564  -2.608   1.460  0.00  0.00    -0.004 A 
ATOM      5  C5  I4B d   1      -2.515  -2.254   0.115  0.00  0.00     0.002 A 
ATOM      6  C6  I4B d   1      -1.425  -1.523  -0.379  0.00  0.00     0.003 A 
ENDROOT
BRANCH   1   7
ATOM      7  C1' I4B d   1       0.728  -0.292   0.001  0.00  0.00     0.060 C 
BRANCH   7   8
ATOM      8  C2' I4B d   1       0.156   1.009  -0.523  0.00  0.00    -0.013 C 
ATOM      9  C4' I4B d   1      -0.008   2.018   0.583  0.00  0.00     0.013 C 
ATOM     10  C3' I4B d   1       1.076   1.522  -1.591  0.00  0.00     0.013 C 
ENDBRANCH   7   8
ENDBRANCH   1   7
TORSDOF 2
ENDMDL
