MODEL 1
REMARK minimizedAffinity -5.63253307
REMARK minimizedRMSD -1
REMARK  2 active torsions:
REMARK  status: ('A' for Active; 'I' for Inactive)
REMARK    1  A    between atoms: C2'_3  and  C1'_4 
REMARK    2  A    between atoms: C1'_4  and  C1_5 
ROOT
ATOM      1  C1  I4B d   1       0.276   0.077  -0.167  0.00  0.00    -0.075 A 
ATOM      2  C2  I4B d   1       1.215  -0.879   0.130  0.00  0.00     0.003 A 
ATOM      3  C3  I4B d   1       0.819  -2.120   0.685  0.00  0.00     0.002 A 
ATOM      4  C4  I4B d   1      -0.512  -2.341   0.973  0.00  0.00    -0.004 A 
ATOM      5  C5  I4B d   1      -1.466  -1.381   0.650  0.00  0.00     0.002 A 
ATOM      6  C6  I4B d   1      -1.072  -0.169   0.065  0.00  0.00     0.003 A 
ENDROOT
BRANCH   1   7
ATOM      7  C1' I4B d   1       0.732   1.388  -0.723  0.00  0.00     0.060 C 
BRANCH   7   8
ATOM      8  C2' I4B d   1       1.089   1.179  -2.180  0.00  0.00    -0.013 C 
ATOM      9  C4' I4B d   1      -0.011   1.665  -3.086  0.00  0.00     0.013 C 
ATOM     10  C3' I4B d   1       2.373   1.905  -2.451  0.00  0.00     0.013 C 
ENDBRANCH   7   8
ENDBRANCH   1   7
TORSDOF 2
ENDMDL
