MODEL 1
REMARK minimizedAffinity -3.4134388
REMARK minimizedRMSD -1
REMARK  0 active torsions:
REMARK  status: ('A' for Active; 'I' for Inactive)
ROOT
ATOM      1  O1  BZF d   1       0.362  -0.142  -1.327  0.00  0.00    -0.204 OA
ATOM      2  C2  BZF d   1      -0.727  -0.911  -0.966  0.00  0.00     0.174 A 
ATOM      3  C3  BZF d   1      -1.192  -0.544   0.246  0.00  0.00    -0.012 A 
ATOM      4  C3A BZF d   1      -0.397   0.583   0.628  0.00  0.00    -0.107 A 
ATOM      5  C4  BZF d   1      -0.389   1.398   1.723  0.00  0.00     0.055 A 
ATOM      6  C5  BZF d   1       0.563   2.362   1.823  0.00  0.00    -0.016 A 
ATOM      7  C6  BZF d   1       1.525   2.535   0.849  0.00  0.00     0.022 A 
ATOM      8  C7  BZF d   1       1.555   1.754  -0.258  0.00  0.00     0.029 A 
ATOM      9  C7A BZF d   1       0.574   0.801  -0.377  0.00  0.00     0.058 A 
ENDROOT
TORSDOF 0
ENDMDL
