MODEL 1
REMARK minimizedAffinity -3.73747993
REMARK minimizedRMSD -1
REMARK  0 active torsions:
REMARK  status: ('A' for Active; 'I' for Inactive)
ROOT
ATOM      1  O1  BZF d   1       1.947   0.071  -0.471  0.00  0.00    -0.204 OA
ATOM      2  C2  BZF d   1       1.305  -1.099  -0.829  0.00  0.00     0.174 A 
ATOM      3  C3  BZF d   1       0.146  -1.235  -0.154  0.00  0.00    -0.012 A 
ATOM      4  C3A BZF d   1       0.012  -0.032   0.610  0.00  0.00    -0.107 A 
ATOM      5  C4  BZF d   1      -0.941   0.433   1.470  0.00  0.00     0.055 A 
ATOM      6  C5  BZF d   1      -0.735   1.615   2.108  0.00  0.00    -0.016 A 
ATOM      7  C6  BZF d   1       0.413   2.355   1.913  0.00  0.00     0.022 A 
ATOM      8  C7  BZF d   1       1.384   1.937   1.065  0.00  0.00     0.029 A 
ATOM      9  C7A BZF d   1       1.165   0.759   0.394  0.00  0.00     0.058 A 
ENDROOT
TORSDOF 0
ENDMDL
