MODEL 1
REMARK minimizedAffinity -2.91378355
REMARK minimizedRMSD -1
REMARK  0 active torsions:
REMARK  status: ('A' for Active; 'I' for Inactive)
ROOT
ATOM      1  O1  BZF d   1       0.349   2.364   1.907  0.00  0.00    -0.204 OA
ATOM      2  C2  BZF d   1       1.100   3.059   0.978  0.00  0.00     0.174 A 
ATOM      3  C3  BZF d   1       1.287   2.320  -0.135  0.00  0.00    -0.012 A 
ATOM      4  C3A BZF d   1       0.533   1.123   0.078  0.00  0.00    -0.107 A 
ATOM      5  C4  BZF d   1       0.311   0.007  -0.677  0.00  0.00     0.055 A 
ATOM      6  C5  BZF d   1      -0.414  -1.014  -0.150  0.00  0.00    -0.016 A 
ATOM      7  C6  BZF d   1      -0.927  -0.955   1.129  0.00  0.00     0.022 A 
ATOM      8  C7  BZF d   1      -0.738   0.133   1.914  0.00  0.00     0.029 A 
ATOM      9  C7A BZF d   1      -0.033   1.180   1.372  0.00  0.00     0.058 A 
ENDROOT
TORSDOF 0
ENDMDL
