MODEL 1
REMARK minimizedAffinity -0.818096519
REMARK minimizedRMSD -1
REMARK  0 active torsions:
REMARK  status: ('A' for Active; 'I' for Inactive)
ROOT
ATOM      1  O1  BZF d   1       0.103   2.340   2.110  0.00  0.00    -0.204 OA
ATOM      2  C2  BZF d   1       0.909   3.141   1.324  0.00  0.00     0.174 A 
ATOM      3  C3  BZF d   1       1.279   2.492   0.201  0.00  0.00    -0.012 A 
ATOM      4  C3A BZF d   1       0.592   1.238   0.247  0.00  0.00    -0.107 A 
ATOM      5  C4  BZF d   1       0.541   0.163  -0.594  0.00  0.00     0.055 A 
ATOM      6  C5  BZF d   1      -0.168  -0.934  -0.222  0.00  0.00    -0.016 A 
ATOM      7  C6  BZF d   1      -0.834  -0.993   0.985  0.00  0.00     0.022 A 
ATOM      8  C7  BZF d   1      -0.817   0.050   1.851  0.00  0.00     0.029 A 
ATOM      9  C7A BZF d   1      -0.128   1.173   1.462  0.00  0.00     0.058 A 
ENDROOT
TORSDOF 0
ENDMDL
