MODEL 1
REMARK minimizedAffinity -4.2189064
REMARK minimizedRMSD -1
REMARK  0 active torsions:
REMARK  status: ('A' for Active; 'I' for Inactive)
ROOT
ATOM      1  O1  BZF d   1       1.823  -0.804  -0.495  0.00  0.00    -0.204 OA
ATOM      2  C2  BZF d   1       0.722  -1.635  -0.560  0.00  0.00     0.174 A 
ATOM      3  C3  BZF d   1      -0.335  -1.078   0.066  0.00  0.00    -0.012 A 
ATOM      4  C3A BZF d   1       0.109   0.221   0.471  0.00  0.00    -0.107 A 
ATOM      5  C4  BZF d   1      -0.494   1.258   1.124  0.00  0.00     0.055 A 
ATOM      6  C5  BZF d   1       0.239   2.360   1.431  0.00  0.00    -0.016 A 
ATOM      7  C6  BZF d   1       1.576   2.457   1.105  0.00  0.00     0.022 A 
ATOM      8  C7  BZF d   1       2.216   1.456   0.452  0.00  0.00     0.029 A 
ATOM      9  C7A BZF d   1       1.470   0.355   0.112  0.00  0.00     0.058 A 
ENDROOT
TORSDOF 0
ENDMDL
