MODEL 1
REMARK minimizedAffinity -4.0183754
REMARK minimizedRMSD -1
REMARK  0 active torsions:
REMARK  status: ('A' for Active; 'I' for Inactive)
ROOT
ATOM      1  O1  BZF d   1      -0.387  -0.760   1.705  0.00  0.00    -0.204 OA
ATOM      2  C2  BZF d   1      -1.239  -0.149   2.604  0.00  0.00     0.174 A 
ATOM      3  C3  BZF d   1      -1.176   1.193   2.487  0.00  0.00    -0.012 A 
ATOM      4  C3A BZF d   1      -0.293   1.434   1.386  0.00  0.00    -0.107 A 
ATOM      5  C4  BZF d   1       0.156   2.568   0.773  0.00  0.00     0.055 A 
ATOM      6  C5  BZF d   1       1.068   2.461  -0.228  0.00  0.00    -0.016 A 
ATOM      7  C6  BZF d   1       1.557   1.238  -0.637  0.00  0.00     0.022 A 
ATOM      8  C7  BZF d   1       1.138   0.084  -0.062  0.00  0.00     0.029 A 
ATOM      9  C7A BZF d   1       0.191   0.187   0.927  0.00  0.00     0.058 A 
ENDROOT
TORSDOF 0
ENDMDL
