MODEL 1
REMARK minimizedAffinity -3.77744722
REMARK minimizedRMSD -1
REMARK  0 active torsions:
REMARK  status: ('A' for Active; 'I' for Inactive)
ROOT
ATOM      1  O1  BZF d   1       0.410   2.065   1.964  0.00  0.00    -0.204 OA
ATOM      2  C2  BZF d   1       1.093   2.878   1.080  0.00  0.00     0.174 A 
ATOM      3  C3  BZF d   1       1.160   2.308  -0.140  0.00  0.00    -0.012 A 
ATOM      4  C3A BZF d   1       0.397   1.103  -0.035  0.00  0.00    -0.107 A 
ATOM      5  C4  BZF d   1       0.079   0.112  -0.921  0.00  0.00     0.055 A 
ATOM      6  C5  BZF d   1      -0.622  -0.966  -0.482  0.00  0.00    -0.016 A 
ATOM      7  C6  BZF d   1      -1.018  -1.088   0.834  0.00  0.00     0.022 A 
ATOM      8  C7  BZF d   1      -0.731  -0.129   1.748  0.00  0.00     0.029 A 
ATOM      9  C7A BZF d   1      -0.050   0.977   1.300  0.00  0.00     0.058 A 
ENDROOT
TORSDOF 0
ENDMDL
