MODEL 1
REMARK minimizedAffinity -4.85123777
REMARK minimizedRMSD -1
REMARK  0 active torsions:
REMARK  status: ('A' for Active; 'I' for Inactive)
ROOT
ATOM      1  O1  BZF d   1      -0.326   0.587  -1.553  0.00  0.00    -0.204 OA
ATOM      2  C2  BZF d   1      -0.119  -0.764  -1.349  0.00  0.00     0.174 A 
ATOM      3  C3  BZF d   1       0.360  -0.993  -0.109  0.00  0.00    -0.012 A 
ATOM      4  C3A BZF d   1       0.371   0.286   0.532  0.00  0.00    -0.107 A 
ATOM      5  C4  BZF d   1       0.727   0.707   1.782  0.00  0.00     0.055 A 
ATOM      6  C5  BZF d   1       0.688   2.036   2.067  0.00  0.00    -0.016 A 
ATOM      7  C6  BZF d   1       0.305   2.969   1.127  0.00  0.00     0.022 A 
ATOM      8  C7  BZF d   1      -0.062   2.599  -0.124  0.00  0.00     0.029 A 
ATOM      9  C7A BZF d   1      -0.056   1.255  -0.405  0.00  0.00     0.058 A 
ENDROOT
TORSDOF 0
ENDMDL
