MODEL 1
REMARK minimizedAffinity -2.27106333
REMARK minimizedRMSD -1
REMARK  0 active torsions:
REMARK  status: ('A' for Active; 'I' for Inactive)
ROOT
ATOM      1  O1  BZF d   1       1.984   1.385   0.292  0.00  0.00    -0.204 OA
ATOM      2  C2  BZF d   1       1.448   2.038   1.385  0.00  0.00     0.174 A 
ATOM      3  C3  BZF d   1       0.301   1.449   1.780  0.00  0.00    -0.012 A 
ATOM      4  C3A BZF d   1       0.157   0.303   0.935  0.00  0.00    -0.107 A 
ATOM      5  C4  BZF d   1      -0.777  -0.690   0.851  0.00  0.00     0.055 A 
ATOM      6  C5  BZF d   1      -0.664  -1.620  -0.133  0.00  0.00    -0.016 A 
ATOM      7  C6  BZF d   1       0.364  -1.585  -1.052  0.00  0.00     0.022 A 
ATOM      8  C7  BZF d   1       1.317  -0.623  -1.006  0.00  0.00     0.029 A 
ATOM      9  C7A BZF d   1       1.225   0.300   0.008  0.00  0.00     0.058 A 
ENDROOT
TORSDOF 0
ENDMDL
