MODEL 1
REMARK minimizedAffinity -2.94884014
REMARK minimizedRMSD -1
REMARK  0 active torsions:
REMARK  status: ('A' for Active; 'I' for Inactive)
ROOT
ATOM      1  O1  BZF d   1      -1.625  -1.628  -0.612  0.00  0.00    -0.204 OA
ATOM      2  C2  BZF d   1      -1.219  -2.037  -1.868  0.00  0.00     0.174 A 
ATOM      3  C3  BZF d   1      -0.183  -1.290  -2.302  0.00  0.00    -0.012 A 
ATOM      4  C3A BZF d   1       0.133  -0.417  -1.214  0.00  0.00    -0.107 A 
ATOM      5  C4  BZF d   1       1.080   0.551  -1.032  0.00  0.00     0.055 A 
ATOM      6  C5  BZF d   1       1.074   1.272   0.120  0.00  0.00    -0.016 A 
ATOM      7  C6  BZF d   1       0.135   1.055   1.107  0.00  0.00     0.022 A 
ATOM      8  C7  BZF d   1      -0.820   0.103   0.974  0.00  0.00     0.029 A 
ATOM      9  C7A BZF d   1      -0.797  -0.649  -0.175  0.00  0.00     0.058 A 
ENDROOT
TORSDOF 0
ENDMDL
