MODEL 1
REMARK minimizedAffinity -0.470573336
REMARK minimizedRMSD -1
REMARK  0 active torsions:
REMARK  status: ('A' for Active; 'I' for Inactive)
ROOT
ATOM      1  O1  BZF d   1       0.450  -0.579  -1.134  0.00  0.00    -0.204 OA
ATOM      2  C2  BZF d   1      -0.553  -1.474  -0.817  0.00  0.00     0.174 A 
ATOM      3  C3  BZF d   1      -1.112  -1.165   0.371  0.00  0.00    -0.012 A 
ATOM      4  C3A BZF d   1      -0.479   0.051   0.780  0.00  0.00    -0.107 A 
ATOM      5  C4  BZF d   1      -0.620   0.863   1.869  0.00  0.00     0.055 A 
ATOM      6  C5  BZF d   1       0.203   1.936   2.004  0.00  0.00    -0.016 A 
ATOM      7  C6  BZF d   1       1.180   2.224   1.073  0.00  0.00     0.022 A 
ATOM      8  C7  BZF d   1       1.354   1.450  -0.027  0.00  0.00     0.029 A 
ATOM      9  C7A BZF d   1       0.502   0.384  -0.182  0.00  0.00     0.058 A 
ENDROOT
TORSDOF 0
ENDMDL
