MODEL 1
REMARK minimizedAffinity -5.12533426
REMARK minimizedRMSD -1
REMARK  0 active torsions:
REMARK  status: ('A' for Active; 'I' for Inactive)
ROOT
ATOM      1  O1  BZF d   1       0.297   2.409   1.771  0.00  0.00    -0.204 OA
ATOM      2  C2  BZF d   1       1.053   2.981   0.766  0.00  0.00     0.174 A 
ATOM      3  C3  BZF d   1       1.277   2.096  -0.226  0.00  0.00    -0.012 A 
ATOM      4  C3A BZF d   1       0.543   0.924   0.142  0.00  0.00    -0.107 A 
ATOM      5  C4  BZF d   1       0.358  -0.293  -0.450  0.00  0.00     0.055 A 
ATOM      6  C5  BZF d   1      -0.358  -1.244   0.205  0.00  0.00    -0.016 A 
ATOM      7  C6  BZF d   1      -0.898  -1.015   1.454  0.00  0.00     0.022 A 
ATOM      8  C7  BZF d   1      -0.746   0.178   2.078  0.00  0.00     0.029 A 
ATOM      9  C7A BZF d   1      -0.051   1.153   1.404  0.00  0.00     0.058 A 
ENDROOT
TORSDOF 0
ENDMDL
