MODEL 1
REMARK minimizedAffinity -3.11012745
REMARK minimizedRMSD -1
REMARK  0 active torsions:
REMARK  status: ('A' for Active; 'I' for Inactive)
ROOT
ATOM      1  O1  BZF d   1       0.804  -0.716  -1.028  0.00  0.00    -0.204 OA
ATOM      2  C2  BZF d   1      -0.251  -1.488  -1.474  0.00  0.00     0.174 A 
ATOM      3  C3  BZF d   1      -1.370  -1.225  -0.768  0.00  0.00    -0.012 A 
ATOM      4  C3A BZF d   1      -1.013  -0.159   0.117  0.00  0.00    -0.107 A 
ATOM      5  C4  BZF d   1      -1.702   0.550   1.059  0.00  0.00     0.055 A 
ATOM      6  C5  BZF d   1      -1.042   1.476   1.803  0.00  0.00    -0.016 A 
ATOM      7  C6  BZF d   1       0.306   1.715   1.636  0.00  0.00     0.022 A 
ATOM      8  C7  BZF d   1       1.031   1.041   0.710  0.00  0.00     0.029 A 
ATOM      9  C7A BZF d   1       0.360   0.127  -0.066  0.00  0.00     0.058 A 
ENDROOT
TORSDOF 0
ENDMDL
