MODEL 1
REMARK minimizedAffinity -2.08718491
REMARK minimizedRMSD -1
REMARK  0 active torsions:
REMARK  status: ('A' for Active; 'I' for Inactive)
ROOT
ATOM      1  O1  BZF d   1       0.491  -0.115  -1.273  0.00  0.00    -0.204 OA
ATOM      2  C2  BZF d   1      -0.455  -1.122  -1.248  0.00  0.00     0.174 A 
ATOM      3  C3  BZF d   1      -1.103  -1.139  -0.065  0.00  0.00    -0.012 A 
ATOM      4  C3A BZF d   1      -0.589  -0.019   0.662  0.00  0.00    -0.107 A 
ATOM      5  C4  BZF d   1      -0.853   0.499   1.898  0.00  0.00     0.055 A 
ATOM      6  C5  BZF d   1      -0.125   1.559   2.339  0.00  0.00    -0.016 A 
ATOM      7  C6  BZF d   1       0.876   2.120   1.574  0.00  0.00     0.022 A 
ATOM      8  C7  BZF d   1       1.171   1.644   0.340  0.00  0.00     0.029 A 
ATOM      9  C7A BZF d   1       0.415   0.594  -0.122  0.00  0.00     0.058 A 
ENDROOT
TORSDOF 0
ENDMDL
