MODEL 1
REMARK minimizedAffinity -4.05252314
REMARK minimizedRMSD -1
REMARK  0 active torsions:
REMARK  status: ('A' for Active; 'I' for Inactive)
ROOT
ATOM      1  O1  BZF d   1       1.662   2.310   0.278  0.00  0.00    -0.204 OA
ATOM      2  C2  BZF d   1       1.146   3.021   1.344  0.00  0.00     0.174 A 
ATOM      3  C3  BZF d   1       0.120   2.356   1.912  0.00  0.00    -0.012 A 
ATOM      4  C3A BZF d   1       0.045   1.111   1.211  0.00  0.00    -0.107 A 
ATOM      5  C4  BZF d   1      -0.763   0.016   1.325  0.00  0.00     0.055 A 
ATOM      6  C5  BZF d   1      -0.623  -1.004   0.438  0.00  0.00    -0.016 A 
ATOM      7  C6  BZF d   1       0.310  -0.960  -0.578  0.00  0.00     0.022 A 
ATOM      8  C7  BZF d   1       1.137   0.103  -0.729  0.00  0.00     0.029 A 
ATOM      9  C7A BZF d   1       1.020   1.121   0.187  0.00  0.00     0.058 A 
ENDROOT
TORSDOF 0
ENDMDL
