MODEL 1
REMARK minimizedAffinity -5.56313133
REMARK minimizedRMSD -1
REMARK  0 active torsions:
REMARK  status: ('A' for Active; 'I' for Inactive)
ROOT
ATOM      1  O1  BZF d   1       0.293   2.053   2.025  0.00  0.00    -0.204 OA
ATOM      2  C2  BZF d   1       1.332   2.756   1.447  0.00  0.00     0.174 A 
ATOM      3  C3  BZF d   1       1.659   2.228   0.249  0.00  0.00    -0.012 A 
ATOM      4  C3A BZF d   1       0.707   1.183   0.027  0.00  0.00    -0.107 A 
ATOM      5  C4  BZF d   1       0.502   0.302  -0.996  0.00  0.00     0.055 A 
ATOM      6  C5  BZF d   1      -0.468  -0.641  -0.872  0.00  0.00    -0.016 A 
ATOM      7  C6  BZF d   1      -1.247  -0.735   0.263  0.00  0.00     0.022 A 
ATOM      8  C7  BZF d   1      -1.085   0.120   1.302  0.00  0.00     0.029 A 
ATOM      9  C7A BZF d   1      -0.127   1.095   1.165  0.00  0.00     0.058 A 
ENDROOT
TORSDOF 0
ENDMDL
