MODEL 1
REMARK minimizedAffinity -2.79953074
REMARK minimizedRMSD -1
REMARK  0 active torsions:
REMARK  status: ('A' for Active; 'I' for Inactive)
ROOT
ATOM      1  O1  BZF d   1       0.806   0.061  -1.350  0.00  0.00    -0.204 OA
ATOM      2  C2  BZF d   1       0.711   0.084   0.028  0.00  0.00     0.174 A 
ATOM      3  C3  BZF d   1      -0.435  -0.497   0.438  0.00  0.00    -0.012 A 
ATOM      4  C3A BZF d   1      -1.054  -0.991  -0.754  0.00  0.00    -0.107 A 
ATOM      5  C4  BZF d   1      -2.209  -1.678  -0.997  0.00  0.00     0.055 A 
ATOM      6  C5  BZF d   1      -2.561  -1.945  -2.282  0.00  0.00    -0.016 A 
ATOM      7  C6  BZF d   1      -1.785  -1.537  -3.347  0.00  0.00     0.022 A 
ATOM      8  C7  BZF d   1      -0.628  -0.857  -3.156  0.00  0.00     0.029 A 
ATOM      9  C7A BZF d   1      -0.253  -0.614  -1.857  0.00  0.00     0.058 A 
ENDROOT
TORSDOF 0
ENDMDL
