MODEL 1
REMARK minimizedAffinity -3.62676048
REMARK minimizedRMSD -1
REMARK  0 active torsions:
REMARK  status: ('A' for Active; 'I' for Inactive)
ROOT
ATOM      1  O1  BZF d   1       1.017  -1.036  -0.265  0.00  0.00    -0.204 OA
ATOM      2  C2  BZF d   1       2.114  -0.803  -1.073  0.00  0.00     0.174 A 
ATOM      3  C3  BZF d   1       2.506   0.485  -0.988  0.00  0.00    -0.012 A 
ATOM      4  C3A BZF d   1       1.654   1.073   0.000  0.00  0.00    -0.107 A 
ATOM      5  C4  BZF d   1       1.565   2.326   0.537  0.00  0.00     0.055 A 
ATOM      6  C5  BZF d   1       0.576   2.593   1.429  0.00  0.00    -0.016 A 
ATOM      7  C6  BZF d   1      -0.343   1.634   1.803  0.00  0.00     0.022 A 
ATOM      8  C7  BZF d   1      -0.292   0.376   1.302  0.00  0.00     0.029 A 
ATOM      9  C7A BZF d   1       0.727   0.094   0.425  0.00  0.00     0.058 A 
ENDROOT
TORSDOF 0
ENDMDL
