MODEL 1
REMARK minimizedAffinity 7.95751524
REMARK minimizedRMSD -1
REMARK  0 active torsions:
REMARK  status: ('A' for Active; 'I' for Inactive)
ROOT
ATOM      1  C   UNL d   1       2.246  -1.936   1.131  0.00  0.00    -0.002 A 
ATOM      2  C1  UNL d   1       1.544  -3.105   0.875  0.00  0.00     0.010 A 
ATOM      3  C2  UNL d   1       2.203  -4.237   0.391  0.00  0.00     0.041 A 
ATOM      4  C3  UNL d   1       3.593  -4.175   0.169  0.00  0.00    -0.075 A 
ATOM      5  S   UNL d   1       4.609  -5.437  -0.419  0.00  0.00     0.015 SA
ATOM      6  C4  UNL d   1       6.000  -4.454  -0.343  0.00  0.00     0.022 A 
ATOM      7  C5  UNL d   1       5.713  -3.191   0.118  0.00  0.00     0.026 A 
ATOM      8  C6  UNL d   1       4.322  -3.009   0.420  0.00  0.00    -0.082 A 
ATOM      9  C7  UNL d   1       3.625  -1.878   0.910  0.00  0.00     0.045 A 
ENDROOT
TORSDOF 0
ENDMDL
