MODEL 1
REMARK minimizedAffinity 13.5580635
REMARK minimizedRMSD -1
REMARK  0 active torsions:
REMARK  status: ('A' for Active; 'I' for Inactive)
ROOT
ATOM      1  C   UNL d   1       3.995   5.996  -5.683  0.00  0.00    -0.002 A 
ATOM      2  C1  UNL d   1       2.902   5.516  -4.977  0.00  0.00     0.010 A 
ATOM      3  C2  UNL d   1       2.847   4.180  -4.574  0.00  0.00     0.041 A 
ATOM      4  C3  UNL d   1       3.921   3.327  -4.895  0.00  0.00    -0.075 A 
ATOM      5  S   UNL d   1       4.073   1.655  -4.505  0.00  0.00     0.015 SA
ATOM      6  C4  UNL d   1       5.594   1.539  -5.266  0.00  0.00     0.022 A 
ATOM      7  C5  UNL d   1       5.991   2.737  -5.810  0.00  0.00     0.026 A 
ATOM      8  C6  UNL d   1       5.034   3.788  -5.605  0.00  0.00    -0.082 A 
ATOM      9  C7  UNL d   1       5.059   5.147  -5.999  0.00  0.00     0.045 A 
ENDROOT
TORSDOF 0
ENDMDL
