MODEL 1
REMARK minimizedAffinity 15.5450239
REMARK minimizedRMSD -1
REMARK  0 active torsions:
REMARK  status: ('A' for Active; 'I' for Inactive)
ROOT
ATOM      1  C   UNL d   1      -1.953   3.475  -3.122  0.00  0.00    -0.002 A 
ATOM      2  C1  UNL d   1      -3.045   3.353  -3.969  0.00  0.00     0.010 A 
ATOM      3  C2  UNL d   1      -3.803   2.180  -3.986  0.00  0.00     0.041 A 
ATOM      4  C3  UNL d   1      -3.441   1.122  -3.129  0.00  0.00    -0.075 A 
ATOM      5  S   UNL d   1      -4.223  -0.407  -2.978  0.00  0.00     0.015 SA
ATOM      6  C4  UNL d   1      -3.125  -0.934  -1.785  0.00  0.00     0.022 A 
ATOM      7  C5  UNL d   1      -2.179   0.020  -1.497  0.00  0.00     0.026 A 
ATOM      8  C6  UNL d   1      -2.346   1.222  -2.266  0.00  0.00    -0.082 A 
ATOM      9  C7  UNL d   1      -1.597   2.423  -2.273  0.00  0.00     0.045 A 
ENDROOT
TORSDOF 0
ENDMDL
