MODEL 1
REMARK minimizedAffinity 12.2803278
REMARK minimizedRMSD -1
REMARK  0 active torsions:
REMARK  status: ('A' for Active; 'I' for Inactive)
ROOT
ATOM      1  C   UNL d   1       1.500  -1.841   0.753  0.00  0.00    -0.002 A 
ATOM      2  C1  UNL d   1       2.485  -1.211   0.005  0.00  0.00     0.010 A 
ATOM      3  C2  UNL d   1       3.705  -1.843  -0.239  0.00  0.00     0.041 A 
ATOM      4  C3  UNL d   1       3.921  -3.133   0.285  0.00  0.00    -0.075 A 
ATOM      5  S   UNL d   1       5.338  -4.101   0.113  0.00  0.00     0.015 SA
ATOM      6  C4  UNL d   1       4.669  -5.374   1.027  0.00  0.00     0.022 A 
ATOM      7  C5  UNL d   1       3.397  -5.085   1.461  0.00  0.00     0.026 A 
ATOM      8  C6  UNL d   1       2.945  -3.789   1.040  0.00  0.00    -0.082 A 
ATOM      9  C7  UNL d   1       1.718  -3.121   1.271  0.00  0.00     0.045 A 
ENDROOT
TORSDOF 0
ENDMDL
