MODEL 1
REMARK minimizedAffinity 19.4061127
REMARK minimizedRMSD -1
REMARK  0 active torsions:
REMARK  status: ('A' for Active; 'I' for Inactive)
ROOT
ATOM      1  C   UNL d   1       4.147  -5.999   2.570  0.00  0.00    -0.002 A 
ATOM      2  C1  UNL d   1       4.413  -4.909   1.753  0.00  0.00     0.010 A 
ATOM      3  C2  UNL d   1       4.983  -3.749   2.281  0.00  0.00     0.041 A 
ATOM      4  C3  UNL d   1       5.288  -3.703   3.656  0.00  0.00    -0.075 A 
ATOM      5  S   UNL d   1       5.992  -2.389   4.522  0.00  0.00     0.015 SA
ATOM      6  C4  UNL d   1       5.958  -3.245   5.995  0.00  0.00     0.022 A 
ATOM      7  C5  UNL d   1       5.425  -4.504   5.849  0.00  0.00     0.026 A 
ATOM      8  C6  UNL d   1       5.031  -4.789   4.498  0.00  0.00    -0.082 A 
ATOM      9  C7  UNL d   1       4.451  -5.950   3.933  0.00  0.00     0.045 A 
ENDROOT
TORSDOF 0
ENDMDL
