MODEL 1
REMARK minimizedAffinity 18.8140011
REMARK minimizedRMSD -1
REMARK  0 active torsions:
REMARK  status: ('A' for Active; 'I' for Inactive)
ROOT
ATOM      1  C   UNL d   1       5.738  -3.856   5.941  0.00  0.00    -0.002 A 
ATOM      2  C1  UNL d   1       5.345  -5.186   5.998  0.00  0.00     0.010 A 
ATOM      3  C2  UNL d   1       5.160  -5.923   4.826  0.00  0.00     0.041 A 
ATOM      4  C3  UNL d   1       5.381  -5.295   3.585  0.00  0.00    -0.075 A 
ATOM      5  S   UNL d   1       5.218  -6.000   2.020  0.00  0.00     0.015 SA
ATOM      6  C4  UNL d   1       5.667  -4.553   1.239  0.00  0.00     0.022 A 
ATOM      7  C5  UNL d   1       5.938  -3.546   2.135  0.00  0.00     0.026 A 
ATOM      8  C6  UNL d   1       5.778  -3.957   3.502  0.00  0.00    -0.082 A 
ATOM      9  C7  UNL d   1       5.956  -3.237   4.708  0.00  0.00     0.045 A 
ENDROOT
TORSDOF 0
ENDMDL
