MODEL 1
REMARK minimizedAffinity 10.3445864
REMARK minimizedRMSD -1
REMARK  0 active torsions:
REMARK  status: ('A' for Active; 'I' for Inactive)
ROOT
ATOM      1  C   UNL d   1      -6.000   2.080  -5.238  0.00  0.00    -0.002 A 
ATOM      2  C1  UNL d   1      -5.459   3.358  -5.211  0.00  0.00     0.010 A 
ATOM      3  C2  UNL d   1      -4.345   3.641  -4.419  0.00  0.00     0.041 A 
ATOM      4  C3  UNL d   1      -3.776   2.608  -3.648  0.00  0.00    -0.075 A 
ATOM      5  S   UNL d   1      -2.408   2.723  -2.605  0.00  0.00     0.015 SA
ATOM      6  C4  UNL d   1      -2.509   1.078  -2.170  0.00  0.00     0.022 A 
ATOM      7  C5  UNL d   1      -3.554   0.442  -2.797  0.00  0.00     0.026 A 
ATOM      8  C6  UNL d   1      -4.302   1.313  -3.659  0.00  0.00    -0.082 A 
ATOM      9  C7  UNL d   1      -5.433   1.058  -4.472  0.00  0.00     0.045 A 
ENDROOT
TORSDOF 0
ENDMDL
