MODEL 1
REMARK minimizedAffinity -4.2481761
REMARK minimizedRMSD -1
REMARK  0 active torsions:
REMARK  status: ('A' for Active; 'I' for Inactive)
ROOT
ATOM      1  C   UNL d   1      -0.734  -0.549   3.073  0.00  0.00     0.020 A 
ATOM      2  C1  UNL d   1      -1.632  -0.990   2.101  0.00  0.00     0.020 A 
ATOM      3  C2  UNL d   1      -1.310  -0.871   0.748  0.00  0.00     0.034 A 
ATOM      4  C3  UNL d   1      -0.088  -0.310   0.361  0.00  0.00     0.017 A 
ATOM      5  C4  UNL d   1       0.813   0.133   1.337  0.00  0.00     0.017 A 
ATOM      6  C5  UNL d   1       0.485   0.011   2.691  0.00  0.00     0.034 A 
ATOM      7 Cl   UNL d   1       2.340   0.836   0.938  0.00  0.00    -0.070 Cl
ATOM      8 Cl1  UNL d   1       0.244  -0.194  -1.330  0.00  0.00    -0.070 Cl
ENDROOT
TORSDOF 0
ENDMDL
