MODEL 1
REMARK minimizedAffinity -3.5322485
REMARK minimizedRMSD -1
REMARK  0 active torsions:
REMARK  status: ('A' for Active; 'I' for Inactive)
ROOT
ATOM      1  C   UNL d   1       0.506   0.522  -1.090  0.00  0.00     0.020 A 
ATOM      2  C1  UNL d   1       1.324   0.352   0.026  0.00  0.00     0.020 A 
ATOM      3  C2  UNL d   1       0.764  -0.002   1.255  0.00  0.00     0.034 A 
ATOM      4  C3  UNL d   1      -0.618  -0.185   1.372  0.00  0.00     0.017 A 
ATOM      5  C4  UNL d   1      -1.439  -0.014   0.251  0.00  0.00     0.017 A 
ATOM      6  C5  UNL d   1      -0.873   0.340  -0.977  0.00  0.00     0.034 A 
ATOM      7 Cl   UNL d   1      -3.154  -0.223   0.318  0.00  0.00    -0.070 Cl
ATOM      8 Cl1  UNL d   1      -1.242  -0.622   2.923  0.00  0.00    -0.070 Cl
ENDROOT
TORSDOF 0
ENDMDL
