MODEL 1
REMARK minimizedAffinity -3.86319995
REMARK minimizedRMSD -1
REMARK  0 active torsions:
REMARK  status: ('A' for Active; 'I' for Inactive)
ROOT
ATOM      1  C   UNL d   1      -0.679  -0.630   0.134  0.00  0.00     0.020 A 
ATOM      2  C1  UNL d   1      -0.737   0.651  -0.412  0.00  0.00     0.020 A 
ATOM      3  C2  UNL d   1      -0.041   0.941  -1.588  0.00  0.00     0.034 A 
ATOM      4  C3  UNL d   1       0.715  -0.052  -2.221  0.00  0.00     0.017 A 
ATOM      5  C4  UNL d   1       0.772  -1.338  -1.672  0.00  0.00     0.017 A 
ATOM      6  C5  UNL d   1       0.074  -1.623  -0.495  0.00  0.00     0.034 A 
ATOM      7 Cl   UNL d   1       1.684  -2.616  -2.396  0.00  0.00    -0.070 Cl
ATOM      8 Cl1  UNL d   1       1.550   0.376  -3.672  0.00  0.00    -0.070 Cl
ENDROOT
TORSDOF 0
ENDMDL
