MODEL 1
REMARK minimizedAffinity -1.34340668
REMARK minimizedRMSD -1
REMARK  0 active torsions:
REMARK  status: ('A' for Active; 'I' for Inactive)
ROOT
ATOM      1  C   UNL d   1       1.586  -2.317  -3.318  0.00  0.00     0.020 A 
ATOM      2  C1  UNL d   1       1.185  -1.091  -3.848  0.00  0.00     0.020 A 
ATOM      3  C2  UNL d   1       0.643  -0.113  -3.011  0.00  0.00     0.034 A 
ATOM      4  C3  UNL d   1       0.500  -0.360  -1.641  0.00  0.00     0.017 A 
ATOM      5  C4  UNL d   1       0.903  -1.591  -1.110  0.00  0.00     0.017 A 
ATOM      6  C5  UNL d   1       1.445  -2.566  -1.953  0.00  0.00     0.034 A 
ATOM      7 Cl   UNL d   1       0.758  -1.968   0.570  0.00  0.00    -0.070 Cl
ATOM      8 Cl1  UNL d   1      -0.177   0.895  -0.665  0.00  0.00    -0.070 Cl
ENDROOT
TORSDOF 0
ENDMDL
