MODEL 1
REMARK minimizedAffinity -1.89221752
REMARK minimizedRMSD -1
REMARK  0 active torsions:
REMARK  status: ('A' for Active; 'I' for Inactive)
ROOT
ATOM      1  C   UNL d   1       1.073  -0.878   1.082  0.00  0.00     0.020 A 
ATOM      2  C1  UNL d   1      -0.006  -0.110   1.516  0.00  0.00     0.020 A 
ATOM      3  C2  UNL d   1      -0.849   0.499   0.584  0.00  0.00     0.034 A 
ATOM      4  C3  UNL d   1      -0.615   0.340  -0.787  0.00  0.00     0.017 A 
ATOM      5  C4  UNL d   1       0.469  -0.432  -1.221  0.00  0.00     0.017 A 
ATOM      6  C5  UNL d   1       1.310  -1.039  -0.284  0.00  0.00     0.034 A 
ATOM      7 Cl   UNL d   1       0.822  -0.675  -2.896  0.00  0.00    -0.070 Cl
ATOM      8 Cl1  UNL d   1      -1.698   1.120  -1.883  0.00  0.00    -0.070 Cl
ENDROOT
TORSDOF 0
ENDMDL
