MODEL 1
REMARK minimizedAffinity -2.36211586
REMARK minimizedRMSD -1
REMARK  0 active torsions:
REMARK  status: ('A' for Active; 'I' for Inactive)
ROOT
ATOM      1  C   UNL d   1      -0.145  -0.196   3.272  0.00  0.00     0.020 A 
ATOM      2  C1  UNL d   1       1.023  -0.349   2.525  0.00  0.00     0.020 A 
ATOM      3  C2  UNL d   1       0.972  -0.293   1.131  0.00  0.00     0.034 A 
ATOM      4  C3  UNL d   1      -0.249  -0.085   0.479  0.00  0.00     0.017 A 
ATOM      5  C4  UNL d   1      -1.420   0.068   1.229  0.00  0.00     0.017 A 
ATOM      6  C5  UNL d   1      -1.364   0.011   2.625  0.00  0.00     0.034 A 
ATOM      7 Cl   UNL d   1      -2.964   0.328   0.495  0.00  0.00    -0.070 Cl
ATOM      8 Cl1  UNL d   1      -0.237  -0.028  -1.248  0.00  0.00    -0.070 Cl
ENDROOT
TORSDOF 0
ENDMDL
