MODEL 1
REMARK minimizedAffinity -2.73783946
REMARK minimizedRMSD -1
REMARK  0 active torsions:
REMARK  status: ('A' for Active; 'I' for Inactive)
ROOT
ATOM      1  C   UNL d   1      -1.618  -0.109   2.099  0.00  0.00     0.020 A 
ATOM      2  C1  UNL d   1      -0.621   0.230   3.013  0.00  0.00     0.020 A 
ATOM      3  C2  UNL d   1       0.687   0.442   2.572  0.00  0.00     0.034 A 
ATOM      4  C3  UNL d   1       1.002   0.314   1.215  0.00  0.00     0.017 A 
ATOM      5  C4  UNL d   1       0.001  -0.027   0.298  0.00  0.00     0.017 A 
ATOM      6  C5  UNL d   1      -1.307  -0.237   0.744  0.00  0.00     0.034 A 
ATOM      7 Cl   UNL d   1       0.313  -0.202  -1.393  0.00  0.00    -0.070 Cl
ATOM      8 Cl1  UNL d   1       2.641   0.591   0.741  0.00  0.00    -0.070 Cl
ENDROOT
TORSDOF 0
ENDMDL
