MODEL 1
REMARK minimizedAffinity -3.50806332
REMARK minimizedRMSD -1
REMARK  0 active torsions:
REMARK  status: ('A' for Active; 'I' for Inactive)
ROOT
ATOM      1  C   UNL d   1      -0.431  -1.128   2.617  0.00  0.00     0.020 A 
ATOM      2  C1  UNL d   1      -1.402  -1.270   1.626  0.00  0.00     0.020 A 
ATOM      3  C2  UNL d   1      -1.178  -0.752   0.349  0.00  0.00     0.034 A 
ATOM      4  C3  UNL d   1       0.020  -0.090   0.059  0.00  0.00     0.017 A 
ATOM      5  C4  UNL d   1       0.994   0.053   1.053  0.00  0.00     0.017 A 
ATOM      6  C5  UNL d   1       0.765  -0.468   2.331  0.00  0.00     0.034 A 
ATOM      7 Cl   UNL d   1       2.497   0.858   0.770  0.00  0.00    -0.070 Cl
ATOM      8 Cl1  UNL d   1       0.230   0.526  -1.542  0.00  0.00    -0.070 Cl
ENDROOT
TORSDOF 0
ENDMDL
