MODEL 1
REMARK minimizedAffinity -4.43416548
REMARK minimizedRMSD -1
REMARK  0 active torsions:
REMARK  status: ('A' for Active; 'I' for Inactive)
ROOT
ATOM      1  C   UNL d   1      -2.114   0.347  -0.499  0.00  0.00     0.020 A 
ATOM      2  C1  UNL d   1      -1.002   0.950  -1.086  0.00  0.00     0.020 A 
ATOM      3  C2  UNL d   1       0.209   1.007  -0.393  0.00  0.00     0.034 A 
ATOM      4  C3  UNL d   1       0.311   0.461   0.892  0.00  0.00     0.017 A 
ATOM      5  C4  UNL d   1      -0.806  -0.144   1.480  0.00  0.00     0.017 A 
ATOM      6  C5  UNL d   1      -2.016  -0.199   0.781  0.00  0.00     0.034 A 
ATOM      7 Cl   UNL d   1      -0.757  -0.840   3.061  0.00  0.00    -0.070 Cl
ATOM      8 Cl1  UNL d   1       1.839   0.567   1.691  0.00  0.00    -0.070 Cl
ENDROOT
TORSDOF 0
ENDMDL
