MODEL 1
REMARK minimizedAffinity -4.20004702
REMARK minimizedRMSD -1
REMARK  0 active torsions:
REMARK  status: ('A' for Active; 'I' for Inactive)
ROOT
ATOM      1  C   UNL d   1       0.232   0.307   0.707  0.00  0.00     0.020 A 
ATOM      2  C1  UNL d   1       0.245  -1.082   0.831  0.00  0.00     0.020 A 
ATOM      3  C2  UNL d   1       0.543  -1.879  -0.276  0.00  0.00     0.034 A 
ATOM      4  C3  UNL d   1       0.830  -1.288  -1.513  0.00  0.00     0.017 A 
ATOM      5  C4  UNL d   1       0.816   0.106  -1.636  0.00  0.00     0.017 A 
ATOM      6  C5  UNL d   1       0.517   0.899  -0.524  0.00  0.00     0.034 A 
ATOM      7 Cl   UNL d   1       1.159   0.907  -3.129  0.00  0.00    -0.070 Cl
ATOM      8 Cl1  UNL d   1       1.190  -2.335  -2.839  0.00  0.00    -0.070 Cl
ENDROOT
TORSDOF 0
ENDMDL
