MODEL 1
REMARK minimizedAffinity -3.04970884
REMARK minimizedRMSD -1
REMARK  0 active torsions:
REMARK  status: ('A' for Active; 'I' for Inactive)
ROOT
ATOM      1  C   UNL d   1      -0.189  -0.138   2.075  0.00  0.00     0.020 A 
ATOM      2  C1  UNL d   1       0.954  -0.770   1.588  0.00  0.00     0.020 A 
ATOM      3  C2  UNL d   1       1.119  -0.953   0.213  0.00  0.00     0.034 A 
ATOM      4  C3  UNL d   1       0.140  -0.503  -0.679  0.00  0.00     0.017 A 
ATOM      5  C4  UNL d   1      -1.008   0.131  -0.190  0.00  0.00     0.017 A 
ATOM      6  C5  UNL d   1      -1.168   0.312   1.188  0.00  0.00     0.034 A 
ATOM      7 Cl   UNL d   1      -2.260   0.713  -1.229  0.00  0.00    -0.070 Cl
ATOM      8 Cl1  UNL d   1       0.410  -0.762  -2.366  0.00  0.00    -0.070 Cl
ENDROOT
TORSDOF 0
ENDMDL
