MODEL 1
REMARK minimizedAffinity -2.44980693
REMARK minimizedRMSD -1
REMARK  0 active torsions:
REMARK  status: ('A' for Active; 'I' for Inactive)
ROOT
ATOM      1  C   UNL d   1       0.768  -0.576  -1.401  0.00  0.00     0.020 A 
ATOM      2  C1  UNL d   1       1.835  -0.548  -0.505  0.00  0.00     0.020 A 
ATOM      3  C2  UNL d   1       1.616  -0.210   0.832  0.00  0.00     0.034 A 
ATOM      4  C3  UNL d   1       0.326   0.100   1.277  0.00  0.00     0.017 A 
ATOM      5  C4  UNL d   1      -0.746   0.071   0.377  0.00  0.00     0.017 A 
ATOM      6  C5  UNL d   1      -0.520  -0.268  -0.961  0.00  0.00     0.034 A 
ATOM      7 Cl   UNL d   1      -2.366   0.442   0.852  0.00  0.00    -0.070 Cl
ATOM      8 Cl1  UNL d   1       0.127   0.509   2.944  0.00  0.00    -0.070 Cl
ENDROOT
TORSDOF 0
ENDMDL
