MODEL 1
REMARK minimizedAffinity -2.94150138
REMARK minimizedRMSD -1
REMARK  0 active torsions:
REMARK  status: ('A' for Active; 'I' for Inactive)
ROOT
ATOM      1  C   UNL d   1       0.074   0.057   0.421  0.00  0.00     0.020 A 
ATOM      2  C1  UNL d   1       0.115  -1.337   0.429  0.00  0.00     0.020 A 
ATOM      3  C2  UNL d   1       0.408  -2.034  -0.745  0.00  0.00     0.034 A 
ATOM      4  C3  UNL d   1       0.662  -1.338  -1.932  0.00  0.00     0.017 A 
ATOM      5  C4  UNL d   1       0.621   0.061  -1.940  0.00  0.00     0.017 A 
ATOM      6  C5  UNL d   1       0.327   0.754  -0.761  0.00  0.00     0.034 A 
ATOM      7 Cl   UNL d   1       0.923   0.990  -3.366  0.00  0.00    -0.070 Cl
ATOM      8 Cl1  UNL d   1       1.018  -2.264  -3.346  0.00  0.00    -0.070 Cl
ENDROOT
TORSDOF 0
ENDMDL
