MODEL 1
REMARK minimizedAffinity -4.65634108
REMARK minimizedRMSD -1
REMARK  0 active torsions:
REMARK  status: ('A' for Active; 'I' for Inactive)
ROOT
ATOM      1  C   UNL d   1       0.755  -0.188   2.545  0.00  0.00     0.020 A 
ATOM      2  C1  UNL d   1       1.611   0.011   1.462  0.00  0.00     0.020 A 
ATOM      3  C2  UNL d   1       1.097   0.437   0.235  0.00  0.00     0.034 A 
ATOM      4  C3  UNL d   1      -0.276   0.665   0.089  0.00  0.00     0.017 A 
ATOM      5  C4  UNL d   1      -1.134   0.465   1.176  0.00  0.00     0.017 A 
ATOM      6  C5  UNL d   1      -0.614   0.038   2.402  0.00  0.00     0.034 A 
ATOM      7 Cl   UNL d   1      -2.839   0.725   1.072  0.00  0.00    -0.070 Cl
ATOM      8 Cl1  UNL d   1      -0.843   1.191  -1.457  0.00  0.00    -0.070 Cl
ENDROOT
TORSDOF 0
ENDMDL
