MODEL 1
REMARK minimizedAffinity -2.00948858
REMARK minimizedRMSD -1
REMARK  0 active torsions:
REMARK  status: ('A' for Active; 'I' for Inactive)
ROOT
ATOM      1  C   UNL d   1       0.425   0.288  -0.084  0.00  0.00     0.020 A 
ATOM      2  C1  UNL d   1       0.118  -1.072  -0.065  0.00  0.00     0.020 A 
ATOM      3  C2  UNL d   1       0.332  -1.852  -1.204  0.00  0.00     0.034 A 
ATOM      4  C3  UNL d   1       0.853  -1.272  -2.366  0.00  0.00     0.017 A 
ATOM      5  C4  UNL d   1       1.160   0.093  -2.385  0.00  0.00     0.017 A 
ATOM      6  C5  UNL d   1       0.945   0.869  -1.242  0.00  0.00     0.034 A 
ATOM      7 Cl   UNL d   1       1.806   0.879  -3.782  0.00  0.00    -0.070 Cl
ATOM      8 Cl1  UNL d   1       1.092  -2.297  -3.737  0.00  0.00    -0.070 Cl
ENDROOT
TORSDOF 0
ENDMDL
