MODEL 1
REMARK minimizedAffinity -2.77823305
REMARK minimizedRMSD -1
REMARK  0 active torsions:
REMARK  status: ('A' for Active; 'I' for Inactive)
ROOT
ATOM      1  C   UNL d   1       0.874   0.023   2.272  0.00  0.00     0.020 A 
ATOM      2  C1  UNL d   1      -0.386   0.059   2.869  0.00  0.00     0.020 A 
ATOM      3  C2  UNL d   1      -1.533   0.112   2.074  0.00  0.00     0.034 A 
ATOM      4  C3  UNL d   1      -1.423   0.129   0.679  0.00  0.00     0.017 A 
ATOM      5  C4  UNL d   1      -0.158   0.093   0.081  0.00  0.00     0.017 A 
ATOM      6  C5  UNL d   1       0.988   0.040   0.882  0.00  0.00     0.034 A 
ATOM      7 Cl   UNL d   1       0.058   0.111  -1.633  0.00  0.00    -0.070 Cl
ATOM      8 Cl1  UNL d   1      -2.883   0.194  -0.242  0.00  0.00    -0.070 Cl
ENDROOT
TORSDOF 0
ENDMDL
