MODEL 1
REMARK minimizedAffinity 8.41646099
REMARK minimizedRMSD -1
REMARK  0 active torsions:
REMARK  status: ('A' for Active; 'I' for Inactive)
ROOT
ATOM      1  C   UNL d   1       2.776   3.127   3.113  0.00  0.00    -0.002 A 
ATOM      2  C1  UNL d   1       3.128   2.261   4.139  0.00  0.00     0.010 A 
ATOM      3  C2  UNL d   1       4.096   2.626   5.076  0.00  0.00     0.041 A 
ATOM      4  C3  UNL d   1       4.710   3.889   4.966  0.00  0.00    -0.075 A 
ATOM      5  S   UNL d   1       5.921   4.551   5.999  0.00  0.00     0.015 SA
ATOM      6  C4  UNL d   1       5.998   5.999   5.105  0.00  0.00     0.022 A 
ATOM      7  C5  UNL d   1       5.129   5.995   4.040  0.00  0.00     0.026 A 
ATOM      8  C6  UNL d   1       4.371   4.779   3.943  0.00  0.00    -0.082 A 
ATOM      9  C7  UNL d   1       3.387   4.380   3.007  0.00  0.00     0.045 A 
ENDROOT
TORSDOF 0
ENDMDL
