MODEL 1
REMARK minimizedAffinity 10.4047871
REMARK minimizedRMSD -1
REMARK  0 active torsions:
REMARK  status: ('A' for Active; 'I' for Inactive)
ROOT
ATOM      1  C   UNL d   1       1.840   0.203  -0.218  0.00  0.00    -0.002 A 
ATOM      2  C1  UNL d   1       2.968   1.003  -0.333  0.00  0.00     0.010 A 
ATOM      3  C2  UNL d   1       3.265   1.956   0.644  0.00  0.00     0.041 A 
ATOM      4  C3  UNL d   1       2.403   2.091   1.749  0.00  0.00    -0.075 A 
ATOM      5  S   UNL d   1       2.567   3.190   3.068  0.00  0.00     0.015 SA
ATOM      6  C4  UNL d   1       1.144   2.622   3.815  0.00  0.00     0.022 A 
ATOM      7  C5  UNL d   1       0.546   1.619   3.090  0.00  0.00     0.026 A 
ATOM      8  C6  UNL d   1       1.261   1.296   1.888  0.00  0.00    -0.082 A 
ATOM      9  C7  UNL d   1       0.986   0.340   0.880  0.00  0.00     0.045 A 
ENDROOT
TORSDOF 0
ENDMDL
