MODEL 1
REMARK minimizedAffinity 15.5302982
REMARK minimizedRMSD -1
REMARK  0 active torsions:
REMARK  status: ('A' for Active; 'I' for Inactive)
ROOT
ATOM      1  C   UNL d   1       1.038   1.622   3.750  0.00  0.00    -0.002 A 
ATOM      2  C1  UNL d   1       1.822   2.765   3.679  0.00  0.00     0.010 A 
ATOM      3  C2  UNL d   1       2.591   3.030   2.544  0.00  0.00     0.041 A 
ATOM      4  C3  UNL d   1       2.556   2.120   1.469  0.00  0.00    -0.075 A 
ATOM      5  S   UNL d   1       3.413   2.238  -0.022  0.00  0.00     0.015 SA
ATOM      6  C4  UNL d   1       2.758   0.775  -0.601  0.00  0.00     0.022 A 
ATOM      7  C5  UNL d   1       1.904   0.197   0.308  0.00  0.00     0.026 A 
ATOM      8  C6  UNL d   1       1.773   0.962   1.516  0.00  0.00    -0.082 A 
ATOM      9  C7  UNL d   1       1.007   0.721   2.682  0.00  0.00     0.045 A 
ENDROOT
TORSDOF 0
ENDMDL
