MODEL 1
REMARK minimizedAffinity 23.9406319
REMARK minimizedRMSD -1
REMARK  0 active torsions:
REMARK  status: ('A' for Active; 'I' for Inactive)
ROOT
ATOM      1  C   UNL d   1       1.653  -5.654   5.999  0.00  0.00    -0.002 A 
ATOM      2  C1  UNL d   1       0.309  -5.999   6.000  0.00  0.00     0.010 A 
ATOM      3  C2  UNL d   1      -0.640  -5.162   5.410  0.00  0.00     0.041 A 
ATOM      4  C3  UNL d   1      -0.211  -3.961   4.812  0.00  0.00    -0.075 A 
ATOM      5  S   UNL d   1      -1.194  -2.780   4.029  0.00  0.00     0.015 SA
ATOM      6  C4  UNL d   1       0.147  -1.790   3.674  0.00  0.00     0.022 A 
ATOM      7  C5  UNL d   1       1.324  -2.332   4.135  0.00  0.00     0.026 A 
ATOM      8  C6  UNL d   1       1.137  -3.592   4.798  0.00  0.00    -0.082 A 
ATOM      9  C7  UNL d   1       2.075  -4.462   5.405  0.00  0.00     0.045 A 
ENDROOT
TORSDOF 0
ENDMDL
