MODEL 1
REMARK minimizedAffinity 10.8566761
REMARK minimizedRMSD -1
REMARK  0 active torsions:
REMARK  status: ('A' for Active; 'I' for Inactive)
ROOT
ATOM      1  C   UNL d   1      -5.999   3.254  -3.309  0.00  0.00    -0.002 A 
ATOM      2  C1  UNL d   1      -5.794   4.360  -2.496  0.00  0.00     0.010 A 
ATOM      3  C2  UNL d   1      -5.588   4.203  -1.123  0.00  0.00     0.041 A 
ATOM      4  C3  UNL d   1      -5.590   2.905  -0.578  0.00  0.00    -0.075 A 
ATOM      5  S   UNL d   1      -5.358   2.471   1.075  0.00  0.00     0.015 SA
ATOM      6  C4  UNL d   1      -5.525   0.809   0.740  0.00  0.00     0.022 A 
ATOM      7  C5  UNL d   1      -5.752   0.572  -0.595  0.00  0.00     0.026 A 
ATOM      8  C6  UNL d   1      -5.793   1.776  -1.377  0.00  0.00    -0.082 A 
ATOM      9  C7  UNL d   1      -6.000   1.968  -2.764  0.00  0.00     0.045 A 
ENDROOT
TORSDOF 0
ENDMDL
