MODEL 1
REMARK minimizedAffinity 21.1102734
REMARK minimizedRMSD -1
REMARK  0 active torsions:
REMARK  status: ('A' for Active; 'I' for Inactive)
ROOT
ATOM      1  C   UNL d   1       5.240   6.000   0.586  0.00  0.00    -0.002 A 
ATOM      2  C1  UNL d   1       4.714   5.352  -0.523  0.00  0.00     0.010 A 
ATOM      3  C2  UNL d   1       3.723   4.380  -0.374  0.00  0.00     0.041 A 
ATOM      4  C3  UNL d   1       3.262   4.069   0.921  0.00  0.00    -0.075 A 
ATOM      5  S   UNL d   1       2.054   2.915   1.346  0.00  0.00     0.015 SA
ATOM      6  C4  UNL d   1       2.207   3.256   3.009  0.00  0.00     0.022 A 
ATOM      7  C5  UNL d   1       3.152   4.224   3.252  0.00  0.00     0.026 A 
ATOM      8  C6  UNL d   1       3.776   4.709   2.053  0.00  0.00    -0.082 A 
ATOM      9  C7  UNL d   1       4.781   5.689   1.868  0.00  0.00     0.045 A 
ENDROOT
TORSDOF 0
ENDMDL
