MODEL 1
REMARK minimizedAffinity 0.335010409
REMARK minimizedRMSD -1
REMARK  0 active torsions:
REMARK  status: ('A' for Active; 'I' for Inactive)
ROOT
ATOM      1  C   UNL d   1       5.107   1.270   0.326  0.00  0.00    -0.002 A 
ATOM      2  C1  UNL d   1       4.673   1.767  -0.894  0.00  0.00     0.010 A 
ATOM      3  C2  UNL d   1       3.621   1.153  -1.578  0.00  0.00     0.041 A 
ATOM      4  C3  UNL d   1       3.006   0.021  -1.007  0.00  0.00    -0.075 A 
ATOM      5  S   UNL d   1       1.700  -0.894  -1.663  0.00  0.00     0.015 SA
ATOM      6  C4  UNL d   1       1.688  -1.966  -0.338  0.00  0.00     0.022 A 
ATOM      7  C5  UNL d   1       2.651  -1.648   0.591  0.00  0.00     0.026 A 
ATOM      8  C6  UNL d   1       3.426  -0.498   0.221  0.00  0.00    -0.082 A 
ATOM      9  C7  UNL d   1       4.495   0.147   0.889  0.00  0.00     0.045 A 
ENDROOT
TORSDOF 0
ENDMDL
