MODEL 1
REMARK minimizedAffinity 12.0894547
REMARK minimizedRMSD -1
REMARK  0 active torsions:
REMARK  status: ('A' for Active; 'I' for Inactive)
ROOT
ATOM      1  C   UNL d   1      -5.620   4.888   4.053  0.00  0.00    -0.002 A 
ATOM      2  C1  UNL d   1      -5.961   5.995   3.289  0.00  0.00     0.010 A 
ATOM      3  C2  UNL d   1      -5.991   5.915   1.896  0.00  0.00     0.041 A 
ATOM      4  C3  UNL d   1      -5.670   4.691   1.277  0.00  0.00    -0.075 A 
ATOM      5  S   UNL d   1      -5.640   4.358  -0.415  0.00  0.00     0.015 SA
ATOM      6  C4  UNL d   1      -5.174   2.738  -0.163  0.00  0.00     0.022 A 
ATOM      7  C5  UNL d   1      -5.040   2.441   1.172  0.00  0.00     0.026 A 
ATOM      8  C6  UNL d   1      -5.323   3.562   2.024  0.00  0.00    -0.082 A 
ATOM      9  C7  UNL d   1      -5.302   3.676   3.435  0.00  0.00     0.045 A 
ENDROOT
TORSDOF 0
ENDMDL
