MODEL 1
REMARK minimizedAffinity 8.98609447
REMARK minimizedRMSD -1
REMARK  0 active torsions:
REMARK  status: ('A' for Active; 'I' for Inactive)
ROOT
ATOM      1  C   UNL d   1       4.968   3.085   0.401  0.00  0.00    -0.002 A 
ATOM      2  C1  UNL d   1       5.416   3.034  -0.911  0.00  0.00     0.010 A 
ATOM      3  C2  UNL d   1       4.915   2.076  -1.795  0.00  0.00     0.041 A 
ATOM      4  C3  UNL d   1       3.945   1.164  -1.334  0.00  0.00    -0.075 A 
ATOM      5  S   UNL d   1       3.188  -0.094  -2.238  0.00  0.00     0.015 SA
ATOM      6  C4  UNL d   1       2.253  -0.592  -0.903  0.00  0.00     0.022 A 
ATOM      7  C5  UNL d   1       2.499   0.172   0.213  0.00  0.00     0.026 A 
ATOM      8  C6  UNL d   1       3.478   1.197  -0.017  0.00  0.00    -0.082 A 
ATOM      9  C7  UNL d   1       4.007   2.179   0.855  0.00  0.00     0.045 A 
ENDROOT
TORSDOF 0
ENDMDL
