MODEL 1
REMARK minimizedAffinity -3.05868435
REMARK minimizedRMSD -1
REMARK  1 active torsions:
REMARK  status: ('A' for Active; 'I' for Inactive)
REMARK    1  A    between atoms: C1_2  and  C2_3 
ROOT
ATOM      1  C2  UNL d   1      -1.359   0.919   0.338  0.00  0.00    -0.073 A 
ATOM      2  C3  UNL d   1      -1.545   1.624   1.533  0.00  0.00    -0.002 A 
ATOM      3  C4  UNL d   1      -2.832   1.866   2.015  0.00  0.00     0.004 A 
ATOM      4  C5  UNL d   1      -3.944   1.400   1.313  0.00  0.00    -0.004 A 
ATOM      5  C6  UNL d   1      -3.778   0.684   0.123  0.00  0.00    -0.075 A 
ATOM      6  C7  UNL d   1      -4.963   0.178  -0.645  0.00  0.00     0.076 C 
ATOM      7  C8  UNL d   1      -2.482   0.447  -0.356  0.00  0.00     0.001 A 
ENDROOT
BRANCH   1   8
ATOM      8  C1  UNL d   1       0.029   0.649  -0.183  0.00  0.00     0.053 C 
ATOM      9  C   UNL d   1       0.269  -0.832  -0.427  0.00  0.00     0.018 C 
ENDBRANCH   1   8
TORSDOF 1
ENDMDL
