MODEL 1
REMARK minimizedAffinity -4.61455488
REMARK minimizedRMSD -1
REMARK  1 active torsions:
REMARK  status: ('A' for Active; 'I' for Inactive)
REMARK    1  A    between atoms: C1_2  and  C2_3 
ROOT
ATOM      1  C2  UNL d   1       1.291  -0.787   0.050  0.00  0.00    -0.073 A 
ATOM      2  C3  UNL d   1       0.158  -1.334  -0.563  0.00  0.00    -0.002 A 
ATOM      3  C4  UNL d   1      -0.862  -0.504  -1.029  0.00  0.00     0.004 A 
ATOM      4  C5  UNL d   1      -0.758   0.880  -0.894  0.00  0.00    -0.004 A 
ATOM      5  C6  UNL d   1       0.372   1.447  -0.295  0.00  0.00    -0.075 A 
ATOM      6  C7  UNL d   1       0.499   2.934  -0.141  0.00  0.00     0.076 C 
ATOM      7  C8  UNL d   1       1.391   0.607   0.172  0.00  0.00     0.001 A 
ENDROOT
BRANCH   1   8
ATOM      8  C1  UNL d   1       2.398  -1.679   0.549  0.00  0.00     0.053 C 
ATOM      9  C   UNL d   1       3.206  -2.277  -0.592  0.00  0.00     0.018 C 
ENDBRANCH   1   8
TORSDOF 1
ENDMDL
