MODEL 1
REMARK minimizedAffinity -4.55795956
REMARK minimizedRMSD -1
REMARK  1 active torsions:
REMARK  status: ('A' for Active; 'I' for Inactive)
REMARK    1  A    between atoms: C1_2  and  C2_3 
ROOT
ATOM      1  C2  UNL d   1       0.657   0.182   0.181  0.00  0.00    -0.073 A 
ATOM      2  C3  UNL d   1       1.208   1.427  -0.142  0.00  0.00    -0.002 A 
ATOM      3  C4  UNL d   1       0.387   2.474  -0.562  0.00  0.00     0.004 A 
ATOM      4  C5  UNL d   1      -0.992   2.290  -0.658  0.00  0.00    -0.004 A 
ATOM      5  C6  UNL d   1      -1.563   1.057  -0.329  0.00  0.00    -0.075 A 
ATOM      6  C7  UNL d   1      -3.045   0.841  -0.428  0.00  0.00     0.076 C 
ATOM      7  C8  UNL d   1      -0.732   0.009   0.090  0.00  0.00     0.001 A 
ENDROOT
BRANCH   1   8
ATOM      8  C1  UNL d   1       1.538  -0.950   0.641  0.00  0.00     0.053 C 
ATOM      9  C   UNL d   1       2.028  -1.800  -0.520  0.00  0.00     0.018 C 
ENDBRANCH   1   8
TORSDOF 1
ENDMDL
