MODEL 1
REMARK minimizedAffinity -3.81965137
REMARK minimizedRMSD -1
REMARK  1 active torsions:
REMARK  status: ('A' for Active; 'I' for Inactive)
REMARK    1  A    between atoms: C1_2  and  C2_3 
ROOT
ATOM      1  C2  UNL d   1      -4.773   0.443   0.197  0.00  0.00    -0.073 A 
ATOM      2  C3  UNL d   1      -4.881   1.307   1.293  0.00  0.00    -0.002 A 
ATOM      3  C4  UNL d   1      -3.744   1.916   1.825  0.00  0.00     0.004 A 
ATOM      4  C5  UNL d   1      -2.490   1.673   1.264  0.00  0.00    -0.004 A 
ATOM      5  C6  UNL d   1      -2.363   0.822   0.162  0.00  0.00    -0.075 A 
ATOM      6  C7  UNL d   1      -1.021   0.548  -0.451  0.00  0.00     0.076 C 
ATOM      7  C8  UNL d   1      -3.509   0.212  -0.365  0.00  0.00     0.001 A 
ENDROOT
BRANCH   1   8
ATOM      8  C1  UNL d   1      -5.999  -0.212  -0.384  0.00  0.00     0.053 C 
ATOM      9  C   UNL d   1      -5.844  -0.492  -1.871  0.00  0.00     0.018 C 
ENDBRANCH   1   8
TORSDOF 1
ENDMDL
