MODEL 1
REMARK minimizedAffinity 0.751541197
REMARK minimizedRMSD -1
REMARK  0 active torsions:
REMARK  status: ('A' for Active; 'I' for Inactive)
ROOT
ATOM      1  N1  IND d   1       4.664   2.199   5.924  0.00  0.00    -0.196 N 
ATOM      2  C2  IND d   1       3.726   1.204   5.941  0.00  0.00     0.054 A 
ATOM      3  C3  IND d   1       2.483   1.731   6.000  0.00  0.00    -0.031 A 
ATOM      4  C4  IND d   1       1.748   4.198   5.972  0.00  0.00     0.051 A 
ATOM      5  C5  IND d   1       2.246   5.470   5.999  0.00  0.00    -0.031 A 
ATOM      6  C6  IND d   1       3.603   5.723   6.000  0.00  0.00     0.015 A 
ATOM      7  C7  IND d   1       4.516   4.707   5.962  0.00  0.00    -0.016 A 
ATOM      8  C8  IND d   1       4.014   3.414   5.941  0.00  0.00    -0.047 A 
ATOM      9  C9  IND d   1       2.639   3.151   5.984  0.00  0.00    -0.096 A 
ATOM     10  HN1 IND d   1       5.516   2.085   5.905  0.00  0.00     0.298 HD
ENDROOT
TORSDOF 0
ENDMDL
