MODEL 1
REMARK minimizedAffinity 13.765275
REMARK minimizedRMSD -1
REMARK  0 active torsions:
REMARK  status: ('A' for Active; 'I' for Inactive)
ROOT
ATOM      1  N1  IND d   1       3.491   0.411  -1.212  0.00  0.00    -0.196 N 
ATOM      2  C2  IND d   1       2.209   0.311  -0.747  0.00  0.00     0.054 A 
ATOM      3  C3  IND d   1       2.084   0.961   0.432  0.00  0.00    -0.031 A 
ATOM      4  C4  IND d   1       3.825   2.345   1.728  0.00  0.00     0.051 A 
ATOM      5  C5  IND d   1       5.146   2.696   1.719  0.00  0.00    -0.031 A 
ATOM      6  C6  IND d   1       5.999   2.298   0.710  0.00  0.00     0.015 A 
ATOM      7  C7  IND d   1       5.558   1.540  -0.338  0.00  0.00    -0.016 A 
ATOM      8  C8  IND d   1       4.219   1.175  -0.328  0.00  0.00    -0.047 A 
ATOM      9  C9  IND d   1       3.359   1.541   0.715  0.00  0.00    -0.096 A 
ATOM     10  HN1 IND d   1       3.791   0.057  -1.936  0.00  0.00     0.298 HD
ENDROOT
TORSDOF 0
ENDMDL
