MODEL 1
REMARK minimizedAffinity 4.79182434
REMARK minimizedRMSD -1
REMARK  0 active torsions:
REMARK  status: ('A' for Active; 'I' for Inactive)
ROOT
ATOM      1  N1  IND d   1      -0.906   1.059   0.356  0.00  0.00    -0.196 N 
ATOM      2  C2  IND d   1      -0.517   1.247  -0.941  0.00  0.00     0.054 A 
ATOM      3  C3  IND d   1      -1.591   1.503  -1.721  0.00  0.00    -0.031 A 
ATOM      4  C4  IND d   1      -4.067   1.762  -1.064  0.00  0.00     0.051 A 
ATOM      5  C5  IND d   1      -4.917   1.644  -0.000  0.00  0.00    -0.031 A 
ATOM      6  C6  IND d   1      -4.464   1.321   1.263  0.00  0.00     0.015 A 
ATOM      7  C7  IND d   1      -3.137   1.115   1.512  0.00  0.00    -0.016 A 
ATOM      8  C8  IND d   1      -2.271   1.227   0.433  0.00  0.00    -0.047 A 
ATOM      9  C9  IND d   1      -2.730   1.512  -0.859  0.00  0.00    -0.096 A 
ATOM     10  HN1 IND d   1      -0.385   0.869   1.014  0.00  0.00     0.298 HD
ENDROOT
TORSDOF 0
ENDMDL
