MODEL 1
REMARK minimizedAffinity 1.30487013
REMARK minimizedRMSD -1
REMARK  0 active torsions:
REMARK  status: ('A' for Active; 'I' for Inactive)
ROOT
ATOM      1  N1  IND d   1       0.237  -1.583  -1.915  0.00  0.00    -0.196 N 
ATOM      2  C2  IND d   1       0.023  -2.883  -1.548  0.00  0.00     0.054 A 
ATOM      3  C3  IND d   1       0.965  -3.284  -0.666  0.00  0.00    -0.031 A 
ATOM      4  C4  IND d   1       2.891  -1.943   0.393  0.00  0.00     0.051 A 
ATOM      5  C5  IND d   1       3.512  -0.727   0.343  0.00  0.00    -0.031 A 
ATOM      6  C6  IND d   1       3.062   0.288  -0.478  0.00  0.00     0.015 A 
ATOM      7  C7  IND d   1       1.963   0.126  -1.273  0.00  0.00    -0.016 A 
ATOM      8  C8  IND d   1       1.334  -1.110  -1.229  0.00  0.00    -0.047 A 
ATOM      9  C9  IND d   1       1.811  -2.157  -0.431  0.00  0.00    -0.096 A 
ATOM     10  HN1 IND d   1      -0.235  -1.137  -2.478  0.00  0.00     0.298 HD
ENDROOT
TORSDOF 0
ENDMDL
