MODEL 1
REMARK minimizedAffinity 11.2057981
REMARK minimizedRMSD -1
REMARK  0 active torsions:
REMARK  status: ('A' for Active; 'I' for Inactive)
ROOT
ATOM      1  N1  IND d   1       4.013   0.338  -2.421  0.00  0.00    -0.196 N 
ATOM      2  C2  IND d   1       4.538   1.063  -1.387  0.00  0.00     0.054 A 
ATOM      3  C3  IND d   1       4.351   0.414  -0.216  0.00  0.00    -0.031 A 
ATOM      4  C4  IND d   1       3.300  -1.895   0.225  0.00  0.00     0.051 A 
ATOM      5  C5  IND d   1       2.647  -2.918  -0.402  0.00  0.00    -0.031 A 
ATOM      6  C6  IND d   1       2.413  -2.910  -1.762  0.00  0.00     0.015 A 
ATOM      7  C7  IND d   1       2.836  -1.878  -2.551  0.00  0.00    -0.016 A 
ATOM      8  C8  IND d   1       3.494  -0.833  -1.916  0.00  0.00    -0.047 A 
ATOM      9  C9  IND d   1       3.696  -0.817  -0.530  0.00  0.00    -0.096 A 
ATOM     10  HN1 IND d   1       4.009   0.575  -3.248  0.00  0.00     0.298 HD
ENDROOT
TORSDOF 0
ENDMDL
