MODEL 1
REMARK minimizedAffinity 12.0828552
REMARK minimizedRMSD -1
REMARK  0 active torsions:
REMARK  status: ('A' for Active; 'I' for Inactive)
ROOT
ATOM      1  N1  IND d   1      -1.495   0.169  -3.538  0.00  0.00    -0.196 N 
ATOM      2  C2  IND d   1      -1.645  -0.667  -2.467  0.00  0.00     0.054 A 
ATOM      3  C3  IND d   1      -2.955  -0.927  -2.252  0.00  0.00    -0.031 A 
ATOM      4  C4  IND d   1      -5.014  -0.169  -3.598  0.00  0.00     0.051 A 
ATOM      5  C5  IND d   1      -5.384   0.635  -4.640  0.00  0.00    -0.031 A 
ATOM      6  C6  IND d   1      -4.458   1.337  -5.384  0.00  0.00     0.015 A 
ATOM      7  C7  IND d   1      -3.120   1.251  -5.120  0.00  0.00    -0.016 A 
ATOM      8  C8  IND d   1      -2.741   0.442  -4.059  0.00  0.00    -0.047 A 
ATOM      9  C9  IND d   1      -3.680  -0.240  -3.273  0.00  0.00    -0.096 A 
ATOM     10  HN1 IND d   1      -0.749   0.474  -3.836  0.00  0.00     0.298 HD
ENDROOT
TORSDOF 0
ENDMDL
