MODEL 1
REMARK minimizedAffinity -2.78390622
REMARK minimizedRMSD -1
REMARK  0 active torsions:
REMARK  status: ('A' for Active; 'I' for Inactive)
ROOT
ATOM      1  N1  IND d   1       2.998   2.434   5.944  0.00  0.00    -0.196 N 
ATOM      2  C2  IND d   1       3.587   1.638   5.001  0.00  0.00     0.054 A 
ATOM      3  C3  IND d   1       3.862   2.353   3.887  0.00  0.00    -0.031 A 
ATOM      4  C4  IND d   1       3.526   4.865   3.432  0.00  0.00     0.051 A 
ATOM      5  C5  IND d   1       2.990   5.996   3.979  0.00  0.00    -0.031 A 
ATOM      6  C6  IND d   1       2.420   5.999   5.236  0.00  0.00     0.015 A 
ATOM      7  C7  IND d   1       2.375   4.868   6.000  0.00  0.00    -0.016 A 
ATOM      8  C8  IND d   1       2.912   3.715   5.445  0.00  0.00    -0.047 A 
ATOM      9  C9  IND d   1       3.454   3.696   4.153  0.00  0.00    -0.096 A 
ATOM     10  HN1 IND d   1       2.727   2.177   6.719  0.00  0.00     0.298 HD
ENDROOT
TORSDOF 0
ENDMDL
