MODEL 1
REMARK minimizedAffinity -2.25102329
REMARK minimizedRMSD -1
REMARK  0 active torsions:
REMARK  status: ('A' for Active; 'I' for Inactive)
ROOT
ATOM      1  C   UNL d   1       0.121   0.164  -0.146  0.00  0.00     0.020 A 
ATOM      2  C1  UNL d   1      -1.154   0.537   0.278  0.00  0.00     0.020 A 
ATOM      3  C2  UNL d   1      -2.218  -0.360   0.165  0.00  0.00     0.034 A 
ATOM      4  C3  UNL d   1      -2.009  -1.635  -0.374  0.00  0.00     0.017 A 
ATOM      5  C4  UNL d   1      -0.729  -2.008  -0.800  0.00  0.00     0.017 A 
ATOM      6  C5  UNL d   1       0.332  -1.106  -0.684  0.00  0.00     0.034 A 
ATOM      7 Cl   UNL d   1      -0.394  -3.563  -1.475  0.00  0.00    -0.070 Cl
ATOM      8 Cl1  UNL d   1      -3.370  -2.693  -0.484  0.00  0.00    -0.070 Cl
ENDROOT
TORSDOF 0
ENDMDL
