MODEL 1
REMARK minimizedAffinity 0.273693055
REMARK minimizedRMSD -1
REMARK  0 active torsions:
REMARK  status: ('A' for Active; 'I' for Inactive)
ROOT
ATOM      1  C   UNL d   1       0.298   0.617   0.375  0.00  0.00     0.020 A 
ATOM      2  C1  UNL d   1       0.145  -0.046  -0.842  0.00  0.00     0.020 A 
ATOM      3  C2  UNL d   1      -0.908  -0.946  -1.020  0.00  0.00     0.034 A 
ATOM      4  C3  UNL d   1      -1.811  -1.186   0.022  0.00  0.00     0.017 A 
ATOM      5  C4  UNL d   1      -1.657  -0.521   1.243  0.00  0.00     0.017 A 
ATOM      6  C5  UNL d   1      -0.601   0.380   1.415  0.00  0.00     0.034 A 
ATOM      7 Cl   UNL d   1      -2.731  -0.765   2.575  0.00  0.00    -0.070 Cl
ATOM      8 Cl1  UNL d   1      -3.090  -2.312  -0.267  0.00  0.00    -0.070 Cl
ENDROOT
TORSDOF 0
ENDMDL
