MODEL 1
REMARK minimizedAffinity -3.73713374
REMARK minimizedRMSD -1
REMARK  0 active torsions:
REMARK  status: ('A' for Active; 'I' for Inactive)
ROOT
ATOM      1  C   UNL d   1       1.096   1.464   2.222  0.00  0.00     0.020 A 
ATOM      2  C1  UNL d   1      -0.221   1.768   2.567  0.00  0.00     0.020 A 
ATOM      3  C2  UNL d   1      -1.278   1.190   1.861  0.00  0.00     0.034 A 
ATOM      4  C3  UNL d   1      -1.021   0.305   0.807  0.00  0.00     0.017 A 
ATOM      5  C4  UNL d   1       0.301   0.001   0.462  0.00  0.00     0.017 A 
ATOM      6  C5  UNL d   1       1.356   0.583   1.172  0.00  0.00     0.034 A 
ATOM      7 Cl   UNL d   1       0.697  -1.081  -0.826  0.00  0.00    -0.070 Cl
ATOM      8 Cl1  UNL d   1      -2.377  -0.372  -0.022  0.00  0.00    -0.070 Cl
ENDROOT
TORSDOF 0
ENDMDL
