MODEL 1
REMARK minimizedAffinity -3.60664678
REMARK minimizedRMSD -1
REMARK  0 active torsions:
REMARK  status: ('A' for Active; 'I' for Inactive)
ROOT
ATOM      1  C   UNL d   1      -0.916   0.943   2.794  0.00  0.00     0.020 A 
ATOM      2  C1  UNL d   1       0.204   1.544   2.220  0.00  0.00     0.020 A 
ATOM      3  C2  UNL d   1       0.555   1.249   0.901  0.00  0.00     0.034 A 
ATOM      4  C3  UNL d   1      -0.213   0.351   0.151  0.00  0.00     0.017 A 
ATOM      5  C4  UNL d   1      -1.337  -0.252   0.728  0.00  0.00     0.017 A 
ATOM      6  C5  UNL d   1      -1.684   0.047   2.050  0.00  0.00     0.034 A 
ATOM      7 Cl   UNL d   1      -2.334  -1.370  -0.133  0.00  0.00    -0.070 Cl
ATOM      8 Cl1  UNL d   1       0.279   0.033  -1.474  0.00  0.00    -0.070 Cl
ENDROOT
TORSDOF 0
ENDMDL
