MODEL 1
REMARK minimizedAffinity -1.73000741
REMARK minimizedRMSD -1
REMARK  0 active torsions:
REMARK  status: ('A' for Active; 'I' for Inactive)
ROOT
ATOM      1  C   UNL d   1      -0.001  -0.006  -5.996  0.00  0.00     0.020 A 
ATOM      2  C1  UNL d   1      -0.634  -0.866  -5.099  0.00  0.00     0.020 A 
ATOM      3  C2  UNL d   1      -0.285  -0.844  -3.747  0.00  0.00     0.034 A 
ATOM      4  C3  UNL d   1       0.700   0.038  -3.289  0.00  0.00     0.017 A 
ATOM      5  C4  UNL d   1       1.334   0.901  -4.190  0.00  0.00     0.017 A 
ATOM      6  C5  UNL d   1       0.981   0.875  -5.543  0.00  0.00     0.034 A 
ATOM      7 Cl   UNL d   1       2.559   2.018  -3.699  0.00  0.00    -0.070 Cl
ATOM      8 Cl1  UNL d   1       1.082   0.011  -1.604  0.00  0.00    -0.070 Cl
ENDROOT
TORSDOF 0
ENDMDL
