MODEL 1
REMARK minimizedAffinity 2.33108139
REMARK minimizedRMSD -1
REMARK  0 active torsions:
REMARK  status: ('A' for Active; 'I' for Inactive)
ROOT
ATOM      1  C   UNL d   1      -1.882   0.399   2.677  0.00  0.00     0.020 A 
ATOM      2  C1  UNL d   1      -2.377   0.300   1.377  0.00  0.00     0.020 A 
ATOM      3  C2  UNL d   1      -1.501   0.090   0.310  0.00  0.00     0.034 A 
ATOM      4  C3  UNL d   1      -0.125  -0.022   0.541  0.00  0.00     0.017 A 
ATOM      5  C4  UNL d   1       0.371   0.077   1.846  0.00  0.00     0.017 A 
ATOM      6  C5  UNL d   1      -0.511   0.288   2.911  0.00  0.00     0.034 A 
ATOM      7 Cl   UNL d   1       2.056  -0.050   2.209  0.00  0.00    -0.070 Cl
ATOM      8 Cl1  UNL d   1       0.900  -0.282  -0.825  0.00  0.00    -0.070 Cl
ENDROOT
TORSDOF 0
ENDMDL
