MODEL 1
REMARK minimizedAffinity -2.984056
REMARK minimizedRMSD -1
REMARK  1 active torsions:
REMARK  status: ('A' for Active; 'I' for Inactive)
REMARK    1  A    between atoms: C1_2  and  C2_3 
ROOT
ATOM      1  C2  UNL d   1       0.356   0.052  -0.085  0.00  0.00    -0.076 A 
ATOM      2  C3  UNL d   1      -1.033  -0.082  -0.260  0.00  0.00     0.004 A 
ATOM      3  C4  UNL d   1      -1.727  -1.150   0.305  0.00  0.00    -0.003 A 
ATOM      4  C5  UNL d   1      -1.045  -2.102   1.054  0.00  0.00     0.000 A 
ATOM      5  C6  UNL d   1       0.329  -1.975   1.253  0.00  0.00     0.000 A 
ATOM      6  C7  UNL d   1       1.042  -0.895   0.704  0.00  0.00    -0.073 A 
ATOM      7  C8  UNL d   1       2.525  -0.812   0.945  0.00  0.00     0.078 C 
ENDROOT
BRANCH   1   8
ATOM      8  C1  UNL d   1       1.060   1.217  -0.744  0.00  0.00     0.053 C 
ATOM      9  C   UNL d   1       0.389   1.645  -2.040  0.00  0.00     0.018 C 
ENDBRANCH   1   8
TORSDOF 1
ENDMDL
