MODEL 1
REMARK minimizedAffinity -3.11991882
REMARK minimizedRMSD -1
REMARK  1 active torsions:
REMARK  status: ('A' for Active; 'I' for Inactive)
REMARK    1  A    between atoms: C1_2  and  C2_3 
ROOT
ATOM      1  C2  UNL d   1      -0.420   0.380  -0.185  0.00  0.00    -0.076 A 
ATOM      2  C3  UNL d   1      -1.813   0.471  -0.023  0.00  0.00     0.004 A 
ATOM      3  C4  UNL d   1      -2.550  -0.607   0.464  0.00  0.00    -0.003 A 
ATOM      4  C5  UNL d   1      -1.906  -1.794   0.796  0.00  0.00     0.000 A 
ATOM      5  C6  UNL d   1      -0.522  -1.896   0.658  0.00  0.00     0.000 A 
ATOM      6  C7  UNL d   1       0.238  -0.813   0.184  0.00  0.00    -0.073 A 
ATOM      7  C8  UNL d   1       1.727  -0.980   0.049  0.00  0.00     0.078 C 
ENDROOT
BRANCH   1   8
ATOM      8  C1  UNL d   1       0.324   1.573  -0.743  0.00  0.00     0.053 C 
ATOM      9  C   UNL d   1       0.390   1.560  -2.262  0.00  0.00     0.018 C 
ENDBRANCH   1   8
TORSDOF 1
ENDMDL
