MODEL 1
REMARK minimizedAffinity -3.2581687
REMARK minimizedRMSD -1
REMARK  1 active torsions:
REMARK  status: ('A' for Active; 'I' for Inactive)
REMARK    1  A    between atoms: C1_2  and  C2_3 
ROOT
ATOM      1  C2  UNL d   1       0.056  -0.307  -0.136  0.00  0.00    -0.076 A 
ATOM      2  C3  UNL d   1      -1.265  -0.553  -0.550  0.00  0.00     0.004 A 
ATOM      3  C4  UNL d   1      -1.891  -1.766  -0.266  0.00  0.00    -0.003 A 
ATOM      4  C5  UNL d   1      -1.207  -2.752   0.436  0.00  0.00     0.000 A 
ATOM      5  C6  UNL d   1       0.097  -2.518   0.869  0.00  0.00     0.000 A 
ATOM      6  C7  UNL d   1       0.738  -1.295   0.606  0.00  0.00    -0.073 A 
ATOM      7  C8  UNL d   1       2.148  -1.100   1.092  0.00  0.00     0.078 C 
ENDROOT
BRANCH   1   8
ATOM      8  C1  UNL d   1       0.693   1.016  -0.495  0.00  0.00     0.053 C 
ATOM      9  C   UNL d   1       0.443   1.408  -1.943  0.00  0.00     0.018 C 
ENDBRANCH   1   8
TORSDOF 1
ENDMDL
