MODEL 1
REMARK minimizedAffinity -5.19184637
REMARK minimizedRMSD -1
REMARK  1 active torsions:
REMARK  status: ('A' for Active; 'I' for Inactive)
REMARK    1  A    between atoms: C1_2  and  C2_3 
ROOT
ATOM      1  C2  UNL d   1      -0.290  -0.521   0.439  0.00  0.00    -0.076 A 
ATOM      2  C3  UNL d   1       0.103  -1.867   0.346  0.00  0.00     0.004 A 
ATOM      3  C4  UNL d   1      -0.693  -2.884   0.871  0.00  0.00    -0.003 A 
ATOM      4  C5  UNL d   1      -1.894  -2.572   1.497  0.00  0.00     0.000 A 
ATOM      5  C6  UNL d   1      -2.308  -1.243   1.583  0.00  0.00     0.000 A 
ATOM      6  C7  UNL d   1      -1.526  -0.206   1.044  0.00  0.00    -0.073 A 
ATOM      7  C8  UNL d   1      -2.017   1.209   1.170  0.00  0.00     0.078 C 
ENDROOT
BRANCH   1   8
ATOM      8  C1  UNL d   1       0.627   0.542  -0.125  0.00  0.00     0.053 C 
ATOM      9  C   UNL d   1       0.468   0.710  -1.628  0.00  0.00     0.018 C 
ENDBRANCH   1   8
TORSDOF 1
ENDMDL
