MODEL 1
REMARK minimizedAffinity -2.70838642
REMARK minimizedRMSD -1
REMARK  1 active torsions:
REMARK  status: ('A' for Active; 'I' for Inactive)
REMARK    1  A    between atoms: C1_2  and  C2_3 
ROOT
ATOM      1  C2  UNL d   1       0.088  -0.071   0.166  0.00  0.00    -0.076 A 
ATOM      2  C3  UNL d   1       0.858  -1.205  -0.145  0.00  0.00     0.004 A 
ATOM      3  C4  UNL d   1       0.414  -2.485   0.182  0.00  0.00    -0.003 A 
ATOM      4  C5  UNL d   1      -0.808  -2.653   0.824  0.00  0.00     0.000 A 
ATOM      5  C6  UNL d   1      -1.593  -1.540   1.124  0.00  0.00     0.000 A 
ATOM      6  C7  UNL d   1      -1.168  -0.243   0.787  0.00  0.00    -0.073 A 
ATOM      7  C8  UNL d   1      -2.052   0.921   1.140  0.00  0.00     0.078 C 
ENDROOT
BRANCH   1   8
ATOM      8  C1  UNL d   1       0.633   1.294  -0.187  0.00  0.00     0.053 C 
ATOM      9  C   UNL d   1       0.707   1.520  -1.690  0.00  0.00     0.018 C 
ENDBRANCH   1   8
TORSDOF 1
ENDMDL
