MODEL 1
REMARK minimizedAffinity -2.12574744
REMARK minimizedRMSD -1
REMARK  1 active torsions:
REMARK  status: ('A' for Active; 'I' for Inactive)
REMARK    1  A    between atoms: C1_2  and  C2_3 
ROOT
ATOM      1  C2  UNL d   1      -0.047  -2.120   2.013  0.00  0.00    -0.076 A 
ATOM      2  C3  UNL d   1       0.916  -1.116   1.811  0.00  0.00     0.004 A 
ATOM      3  C4  UNL d   1       0.820  -0.236   0.735  0.00  0.00    -0.003 A 
ATOM      4  C5  UNL d   1      -0.240  -0.345  -0.158  0.00  0.00     0.000 A 
ATOM      5  C6  UNL d   1      -1.214  -1.324   0.036  0.00  0.00     0.000 A 
ATOM      6  C7  UNL d   1      -1.142  -2.209   1.126  0.00  0.00    -0.073 A 
ATOM      7  C8  UNL d   1      -2.216  -3.250   1.284  0.00  0.00     0.078 C 
ENDROOT
BRANCH   1   8
ATOM      8  C1  UNL d   1       0.123  -3.063   3.182  0.00  0.00     0.053 C 
ATOM      9  C   UNL d   1      -0.446  -2.498   4.474  0.00  0.00     0.018 C 
ENDBRANCH   1   8
TORSDOF 1
ENDMDL
