MODEL 1
REMARK minimizedAffinity -1.84809971
REMARK minimizedRMSD -1
REMARK  1 active torsions:
REMARK  status: ('A' for Active; 'I' for Inactive)
REMARK    1  A    between atoms: C1_2  and  C2_3 
ROOT
ATOM      1  C2  UNL d   1       0.836   0.855  -0.816  0.00  0.00    -0.076 A 
ATOM      2  C3  UNL d   1       1.419  -0.424  -0.805  0.00  0.00     0.004 A 
ATOM      3  C4  UNL d   1       0.817  -1.482  -0.125  0.00  0.00    -0.003 A 
ATOM      4  C5  UNL d   1      -0.379  -1.277   0.554  0.00  0.00     0.000 A 
ATOM      5  C6  UNL d   1      -0.981  -0.019   0.539  0.00  0.00     0.000 A 
ATOM      6  C7  UNL d   1      -0.395   1.053  -0.155  0.00  0.00    -0.073 A 
ATOM      7  C8  UNL d   1      -1.084   2.390  -0.132  0.00  0.00     0.078 C 
ENDROOT
BRANCH   1   8
ATOM      8  C1  UNL d   1       1.549   1.970  -1.547  0.00  0.00     0.053 C 
ATOM      9  C   UNL d   1       1.239   1.982  -3.036  0.00  0.00     0.018 C 
ENDBRANCH   1   8
TORSDOF 1
ENDMDL
