MODEL 1
REMARK minimizedAffinity -2.14693236
REMARK minimizedRMSD -1
REMARK  1 active torsions:
REMARK  status: ('A' for Active; 'I' for Inactive)
REMARK    1  A    between atoms: C1_2  and  C2_3 
ROOT
ATOM      1  C2  UNL d   1      -0.135   0.111   0.015  0.00  0.00    -0.076 A 
ATOM      2  C3  UNL d   1      -1.535   0.018  -0.071  0.00  0.00     0.004 A 
ATOM      3  C4  UNL d   1      -2.207  -1.123   0.363  0.00  0.00    -0.003 A 
ATOM      4  C5  UNL d   1      -1.489  -2.190   0.892  0.00  0.00     0.000 A 
ATOM      5  C6  UNL d   1      -0.102  -2.109   1.001  0.00  0.00     0.000 A 
ATOM      6  C7  UNL d   1       0.590  -0.959   0.583  0.00  0.00    -0.073 A 
ATOM      7  C8  UNL d   1       2.087  -0.928   0.718  0.00  0.00     0.078 C 
ENDROOT
BRANCH   1   8
ATOM      8  C1  UNL d   1       0.541   1.362  -0.497  0.00  0.00     0.053 C 
ATOM      9  C   UNL d   1       0.678   1.373  -2.012  0.00  0.00     0.018 C 
ENDBRANCH   1   8
TORSDOF 1
ENDMDL
