MODEL 1
REMARK minimizedAffinity -3.64491248
REMARK minimizedRMSD -1
REMARK  1 active torsions:
REMARK  status: ('A' for Active; 'I' for Inactive)
REMARK    1  A    between atoms: C1_2  and  C2_3 
ROOT
ATOM      1  C2  UNL d   1       0.001   0.189  -0.021  0.00  0.00    -0.076 A 
ATOM      2  C3  UNL d   1       0.470  -1.102  -0.320  0.00  0.00     0.004 A 
ATOM      3  C4  UNL d   1      -0.243  -2.233   0.074  0.00  0.00    -0.003 A 
ATOM      4  C5  UNL d   1      -1.438  -2.091   0.772  0.00  0.00     0.000 A 
ATOM      5  C6  UNL d   1      -1.927  -0.818   1.061  0.00  0.00     0.000 A 
ATOM      6  C7  UNL d   1      -1.228   0.333   0.657  0.00  0.00    -0.073 A 
ATOM      7  C8  UNL d   1      -1.799   1.682   1.001  0.00  0.00     0.078 C 
ENDROOT
BRANCH   1   8
ATOM      8  C1  UNL d   1       0.831   1.378  -0.450  0.00  0.00     0.053 C 
ATOM      9  C   UNL d   1       0.732   1.650  -1.943  0.00  0.00     0.018 C 
ENDBRANCH   1   8
TORSDOF 1
ENDMDL
