MODEL 1
REMARK minimizedAffinity -5.18036652
REMARK minimizedRMSD -1
REMARK  1 active torsions:
REMARK  status: ('A' for Active; 'I' for Inactive)
REMARK    1  A    between atoms: C1_2  and  C2_3 
ROOT
ATOM      1  C2  UNL d   1      -0.257  -0.150   0.354  0.00  0.00    -0.076 A 
ATOM      2  C3  UNL d   1      -1.454   0.227   0.987  0.00  0.00     0.004 A 
ATOM      3  C4  UNL d   1      -2.376  -0.730   1.406  0.00  0.00    -0.003 A 
ATOM      4  C5  UNL d   1      -2.116  -2.080   1.200  0.00  0.00     0.000 A 
ATOM      5  C6  UNL d   1      -0.926  -2.473   0.589  0.00  0.00     0.000 A 
ATOM      6  C7  UNL d   1       0.022  -1.522   0.176  0.00  0.00    -0.073 A 
ATOM      7  C8  UNL d   1       1.287  -2.002  -0.483  0.00  0.00     0.078 C 
ENDROOT
BRANCH   1   8
ATOM      8  C1  UNL d   1       0.694   0.934  -0.103  0.00  0.00     0.053 C 
ATOM      9  C   UNL d   1       0.612   1.186  -1.601  0.00  0.00     0.018 C 
ENDBRANCH   1   8
TORSDOF 1
ENDMDL
