MODEL 1
REMARK minimizedAffinity -3.67316413
REMARK minimizedRMSD -1
REMARK  1 active torsions:
REMARK  status: ('A' for Active; 'I' for Inactive)
REMARK    1  A    between atoms: C1_2  and  C2_3 
ROOT
ATOM      1  C2  UNL d   1      -0.890  -0.464   0.505  0.00  0.00    -0.076 A 
ATOM      2  C3  UNL d   1       0.459  -0.457   0.108  0.00  0.00     0.004 A 
ATOM      3  C4  UNL d   1       1.171   0.737   0.007  0.00  0.00    -0.003 A 
ATOM      4  C5  UNL d   1       0.546   1.944   0.302  0.00  0.00     0.000 A 
ATOM      5  C6  UNL d   1      -0.786   1.954   0.714  0.00  0.00     0.000 A 
ATOM      6  C7  UNL d   1      -1.514   0.758   0.837  0.00  0.00    -0.073 A 
ATOM      7  C8  UNL d   1      -2.949   0.828   1.280  0.00  0.00     0.078 C 
ENDROOT
BRANCH   1   8
ATOM      8  C1  UNL d   1      -1.619  -1.787   0.570  0.00  0.00     0.053 C 
ATOM      9  C   UNL d   1      -0.887  -2.814   1.420  0.00  0.00     0.018 C 
ENDBRANCH   1   8
TORSDOF 1
ENDMDL
