MODEL 1
REMARK minimizedAffinity -3.73506951
REMARK minimizedRMSD -1
REMARK  1 active torsions:
REMARK  status: ('A' for Active; 'I' for Inactive)
REMARK    1  A    between atoms: C1_2  and  C2_3 
ROOT
ATOM      1  C2  UNL d   1       0.498  -0.411  -0.235  0.00  0.00    -0.076 A 
ATOM      2  C3  UNL d   1      -0.901  -0.286  -0.304  0.00  0.00     0.004 A 
ATOM      3  C4  UNL d   1      -1.734  -1.173   0.375  0.00  0.00    -0.003 A 
ATOM      4  C5  UNL d   1      -1.183  -2.199   1.135  0.00  0.00     0.000 A 
ATOM      5  C6  UNL d   1       0.203  -2.327   1.228  0.00  0.00     0.000 A 
ATOM      6  C7  UNL d   1       1.057  -1.431   0.563  0.00  0.00    -0.073 A 
ATOM      7  C8  UNL d   1       2.544  -1.620   0.694  0.00  0.00     0.078 C 
ENDROOT
BRANCH   1   8
ATOM      8  C1  UNL d   1       1.351   0.564  -1.015  0.00  0.00     0.053 C 
ATOM      9  C   UNL d   1       0.578   1.802  -1.443  0.00  0.00     0.018 C 
ENDBRANCH   1   8
TORSDOF 1
ENDMDL
