MODEL 1
REMARK minimizedAffinity -5.42936802
REMARK minimizedRMSD -1
REMARK  1 active torsions:
REMARK  status: ('A' for Active; 'I' for Inactive)
REMARK    1  A    between atoms: C1_2  and  C2_3 
ROOT
ATOM      1  C2  UNL d   1      -0.535   0.089   0.627  0.00  0.00    -0.076 A 
ATOM      2  C3  UNL d   1      -1.938   0.084   0.708  0.00  0.00     0.004 A 
ATOM      3  C4  UNL d   1      -2.640  -1.098   0.938  0.00  0.00    -0.003 A 
ATOM      4  C5  UNL d   1      -1.949  -2.295   1.090  0.00  0.00     0.000 A 
ATOM      5  C6  UNL d   1      -0.556  -2.306   1.030  0.00  0.00     0.000 A 
ATOM      6  C7  UNL d   1       0.167  -1.121   0.816  0.00  0.00    -0.073 A 
ATOM      7  C8  UNL d   1       1.669  -1.192   0.754  0.00  0.00     0.078 C 
ENDROOT
BRANCH   1   8
ATOM      8  C1  UNL d   1       0.170   1.397   0.349  0.00  0.00     0.053 C 
ATOM      9  C   UNL d   1       0.753   1.459  -1.055  0.00  0.00     0.018 C 
ENDBRANCH   1   8
TORSDOF 1
ENDMDL
