MODEL 1
REMARK minimizedAffinity -5.39291048
REMARK minimizedRMSD -1
REMARK  1 active torsions:
REMARK  status: ('A' for Active; 'I' for Inactive)
REMARK    1  A    between atoms: C1_2  and  C2_3 
ROOT
ATOM      1  C2  UNL d   1      -1.036  -0.495   0.767  0.00  0.00    -0.076 A 
ATOM      2  C3  UNL d   1      -1.830   0.575   1.214  0.00  0.00     0.004 A 
ATOM      3  C4  UNL d   1      -1.379   1.890   1.124  0.00  0.00    -0.003 A 
ATOM      4  C5  UNL d   1      -0.125   2.157   0.584  0.00  0.00     0.000 A 
ATOM      5  C6  UNL d   1       0.669   1.109   0.119  0.00  0.00     0.000 A 
ATOM      6  C7  UNL d   1       0.222  -0.221   0.188  0.00  0.00    -0.073 A 
ATOM      7  C8  UNL d   1       1.122  -1.313  -0.322  0.00  0.00     0.078 C 
ENDROOT
BRANCH   1   8
ATOM      8  C1  UNL d   1      -1.567  -1.903   0.916  0.00  0.00     0.053 C 
ATOM      9  C   UNL d   1      -1.000  -2.614   2.135  0.00  0.00     0.018 C 
ENDBRANCH   1   8
TORSDOF 1
ENDMDL
