MODEL 1
REMARK minimizedAffinity -0.386116683
REMARK minimizedRMSD -1
REMARK  0 active torsions:
REMARK  status: ('A' for Active; 'I' for Inactive)
ROOT
ATOM      1  C1  BNZ d   1      -1.601   1.267   2.359  0.00  0.00     0.000 A 
ATOM      2  C2  BNZ d   1      -1.393  -0.035   1.987  0.00  0.00     0.000 A 
ATOM      3  C3  BNZ d   1      -0.307  -0.382   1.233  0.00  0.00     0.000 A 
ATOM      4  C4  BNZ d   1       0.547   0.576   0.819  0.00  0.00     0.000 A 
ATOM      5  C5  BNZ d   1       0.346   1.894   1.179  0.00  0.00     0.000 A 
ATOM      6  C6  BNZ d   1      -0.727   2.235   1.970  0.00  0.00     0.000 A 
ENDROOT
TORSDOF 0
ENDMDL
