MODEL 1
REMARK minimizedAffinity -3.49180245
REMARK minimizedRMSD -1
REMARK  0 active torsions:
REMARK  status: ('A' for Active; 'I' for Inactive)
ROOT
ATOM      1  C1  BNZ d   1      -1.105   2.111   2.237  0.00  0.00     0.000 A 
ATOM      2  C2  BNZ d   1       0.014   1.612   1.626  0.00  0.00     0.000 A 
ATOM      3  C3  BNZ d   1       0.061   0.313   1.204  0.00  0.00     0.000 A 
ATOM      4  C4  BNZ d   1      -0.994  -0.496   1.429  0.00  0.00     0.000 A 
ATOM      5  C5  BNZ d   1      -2.127  -0.010   2.052  0.00  0.00     0.000 A 
ATOM      6  C6  BNZ d   1      -2.185   1.309   2.440  0.00  0.00     0.000 A 
ENDROOT
TORSDOF 0
ENDMDL
