MODEL 1
REMARK minimizedAffinity -3.64955068
REMARK minimizedRMSD -1
REMARK  0 active torsions:
REMARK  status: ('A' for Active; 'I' for Inactive)
ROOT
ATOM      1  C1  BNZ d   1      -0.788  -0.818   1.882  0.00  0.00     0.000 A 
ATOM      2  C2  BNZ d   1       0.263  -0.065   1.432  0.00  0.00     0.000 A 
ATOM      3  C3  BNZ d   1       0.270   1.293   1.589  0.00  0.00     0.000 A 
ATOM      4  C4  BNZ d   1      -0.791   1.899   2.159  0.00  0.00     0.000 A 
ATOM      5  C5  BNZ d   1      -1.863   1.155   2.610  0.00  0.00     0.000 A 
ATOM      6  C6  BNZ d   1      -1.849  -0.215   2.485  0.00  0.00     0.000 A 
ENDROOT
TORSDOF 0
ENDMDL
