MODEL 1
REMARK minimizedAffinity -0.222292125
REMARK minimizedRMSD -1
REMARK  0 active torsions:
REMARK  status: ('A' for Active; 'I' for Inactive)
ROOT
ATOM      1  C1  BNZ d   1      -0.446   0.981   1.901  0.00  0.00     0.000 A 
ATOM      2  C2  BNZ d   1      -0.679   2.271   2.297  0.00  0.00     0.000 A 
ATOM      3  C3  BNZ d   1      -1.789   2.589   3.029  0.00  0.00     0.000 A 
ATOM      4  C4  BNZ d   1      -2.683   1.625   3.329  0.00  0.00     0.000 A 
ATOM      5  C5  BNZ d   1      -2.467   0.321   2.930  0.00  0.00     0.000 A 
ATOM      6  C6  BNZ d   1      -1.329  -0.002   2.227  0.00  0.00     0.000 A 
ENDROOT
TORSDOF 0
ENDMDL
