MODEL 1
REMARK minimizedAffinity -4.59448767
REMARK minimizedRMSD -1
REMARK  0 active torsions:
REMARK  status: ('A' for Active; 'I' for Inactive)
ROOT
ATOM      1  C1  BNZ d   1      -0.674  -0.226   1.445  0.00  0.00     0.000 A 
ATOM      2  C2  BNZ d   1      -1.862  -0.126   2.119  0.00  0.00     0.000 A 
ATOM      3  C3  BNZ d   1      -2.276   1.070   2.634  0.00  0.00     0.000 A 
ATOM      4  C4  BNZ d   1      -1.485   2.155   2.509  0.00  0.00     0.000 A 
ATOM      5  C5  BNZ d   1      -0.280   2.068   1.841  0.00  0.00     0.000 A 
ATOM      6  C6  BNZ d   1       0.116   0.871   1.290  0.00  0.00     0.000 A 
ENDROOT
TORSDOF 0
ENDMDL
