MODEL 1
REMARK minimizedAffinity -5.09768486
REMARK minimizedRMSD -1
REMARK  0 active torsions:
REMARK  status: ('A' for Active; 'I' for Inactive)
ROOT
ATOM      1  C1  BNZ d   1      -0.086   1.277   1.208  0.00  0.00     0.000 A 
ATOM      2  C2  BNZ d   1      -0.589   2.319   1.941  0.00  0.00     0.000 A 
ATOM      3  C3  BNZ d   1      -1.849   2.261   2.466  0.00  0.00     0.000 A 
ATOM      4  C4  BNZ d   1      -2.619   1.180   2.226  0.00  0.00     0.000 A 
ATOM      5  C5  BNZ d   1      -2.130   0.125   1.481  0.00  0.00     0.000 A 
ATOM      6  C6  BNZ d   1      -0.847   0.170   0.987  0.00  0.00     0.000 A 
ENDROOT
TORSDOF 0
ENDMDL
