MODEL 1
REMARK minimizedAffinity -4.92683792
REMARK minimizedRMSD -1
REMARK  0 active torsions:
REMARK  status: ('A' for Active; 'I' for Inactive)
ROOT
ATOM      1  C1  BNZ d   1       0.467   0.457   1.208  0.00  0.00     0.000 A 
ATOM      2  C2  BNZ d   1       0.322   1.765   1.586  0.00  0.00     0.000 A 
ATOM      3  C3  BNZ d   1      -0.915   2.286   1.844  0.00  0.00     0.000 A 
ATOM      4  C4  BNZ d   1      -2.007   1.511   1.684  0.00  0.00     0.000 A 
ATOM      5  C5  BNZ d   1      -1.878   0.193   1.294  0.00  0.00     0.000 A 
ATOM      6  C6  BNZ d   1      -0.628  -0.339   1.073  0.00  0.00     0.000 A 
ENDROOT
TORSDOF 0
ENDMDL
