MODEL 1
REMARK minimizedAffinity -4.97585773
REMARK minimizedRMSD -1
REMARK  0 active torsions:
REMARK  status: ('A' for Active; 'I' for Inactive)
ROOT
ATOM      1  C1  BNZ d   1      -1.469   1.063   2.078  0.00  0.00     0.000 A 
ATOM      2  C2  BNZ d   1      -0.374   1.849   1.839  0.00  0.00     0.000 A 
ATOM      3  C3  BNZ d   1       0.666   1.388   1.081  0.00  0.00     0.000 A 
ATOM      4  C4  BNZ d   1       0.627   0.130   0.597  0.00  0.00     0.000 A 
ATOM      5  C5  BNZ d   1      -0.467  -0.678   0.836  0.00  0.00     0.000 A 
ATOM      6  C6  BNZ d   1      -1.529  -0.197   1.567  0.00  0.00     0.000 A 
ENDROOT
TORSDOF 0
ENDMDL
