MODEL 1
REMARK minimizedAffinity 0.0227502305
REMARK minimizedRMSD -1
REMARK  0 active torsions:
REMARK  status: ('A' for Active; 'I' for Inactive)
ROOT
ATOM      1  C1  BNZ d   1      -1.366   2.578   2.438  0.00  0.00     0.000 A 
ATOM      2  C2  BNZ d   1      -0.487   1.752   1.790  0.00  0.00     0.000 A 
ATOM      3  C3  BNZ d   1      -0.734   0.412   1.684  0.00  0.00     0.000 A 
ATOM      4  C4  BNZ d   1      -1.837  -0.106   2.261  0.00  0.00     0.000 A 
ATOM      5  C5  BNZ d   1      -2.728   0.712   2.926  0.00  0.00     0.000 A 
ATOM      6  C6  BNZ d   1      -2.496   2.066   2.997  0.00  0.00     0.000 A 
ENDROOT
TORSDOF 0
ENDMDL
