MODEL 1
REMARK minimizedAffinity 1.13675559
REMARK minimizedRMSD -1
REMARK  0 active torsions:
REMARK  status: ('A' for Active; 'I' for Inactive)
ROOT
ATOM      1  C1  BNZ d   1      -0.031  -1.081   1.945  0.00  0.00     0.000 A 
ATOM      2  C2  BNZ d   1       0.994  -0.679   1.131  0.00  0.00     0.000 A 
ATOM      3  C3  BNZ d   1       0.917   0.497   0.438  0.00  0.00     0.000 A 
ATOM      4  C4  BNZ d   1      -0.199   1.249   0.529  0.00  0.00     0.000 A 
ATOM      5  C5  BNZ d   1      -1.245   0.852   1.338  0.00  0.00     0.000 A 
ATOM      6  C6  BNZ d   1      -1.148  -0.313   2.064  0.00  0.00     0.000 A 
ENDROOT
TORSDOF 0
ENDMDL
