MODEL 1
REMARK minimizedAffinity -1.57547247
REMARK minimizedRMSD -1
REMARK  0 active torsions:
REMARK  status: ('A' for Active; 'I' for Inactive)
ROOT
ATOM      1  C1  BNZ d   1       0.674   0.745   0.742  0.00  0.00     0.000 A 
ATOM      2  C2  BNZ d   1       0.306  -0.573   0.790  0.00  0.00     0.000 A 
ATOM      3  C3  BNZ d   1      -0.866  -0.952   1.383  0.00  0.00     0.000 A 
ATOM      4  C4  BNZ d   1      -1.647  -0.018   1.963  0.00  0.00     0.000 A 
ATOM      5  C5  BNZ d   1      -1.286   1.314   1.931  0.00  0.00     0.000 A 
ATOM      6  C6  BNZ d   1      -0.125   1.696   1.298  0.00  0.00     0.000 A 
ENDROOT
TORSDOF 0
ENDMDL
