MODEL 1
REMARK minimizedAffinity 0.632346749
REMARK minimizedRMSD -1
REMARK  0 active torsions:
REMARK  status: ('A' for Active; 'I' for Inactive)
ROOT
ATOM      1  C1  BNZ d   1      -2.675   0.965   2.565  0.00  0.00     0.000 A 
ATOM      2  C2  BNZ d   1      -1.594   0.222   2.173  0.00  0.00     0.000 A 
ATOM      3  C3  BNZ d   1      -0.479   0.825   1.660  0.00  0.00     0.000 A 
ATOM      4  C4  BNZ d   1      -0.463   2.164   1.502  0.00  0.00     0.000 A 
ATOM      5  C5  BNZ d   1      -1.550   2.926   1.883  0.00  0.00     0.000 A 
ATOM      6  C6  BNZ d   1      -2.654   2.320   2.435  0.00  0.00     0.000 A 
ENDROOT
TORSDOF 0
ENDMDL
