MODEL 1
REMARK minimizedAffinity -1.80888474
REMARK minimizedRMSD -1
REMARK  0 active torsions:
REMARK  status: ('A' for Active; 'I' for Inactive)
ROOT
ATOM      1  C1  BNZ d   1       0.566   1.445   1.447  0.00  0.00     0.000 A 
ATOM      2  C2  BNZ d   1       0.465   0.133   1.068  0.00  0.00     0.000 A 
ATOM      3  C3  BNZ d   1      -0.595  -0.631   1.469  0.00  0.00     0.000 A 
ATOM      4  C4  BNZ d   1      -1.530  -0.096   2.280  0.00  0.00     0.000 A 
ATOM      5  C5  BNZ d   1      -1.437   1.223   2.678  0.00  0.00     0.000 A 
ATOM      6  C6  BNZ d   1      -0.390   2.001   2.241  0.00  0.00     0.000 A 
ENDROOT
TORSDOF 0
ENDMDL
