MODEL 1
REMARK minimizedAffinity 0.160505593
REMARK minimizedRMSD -1
REMARK  0 active torsions:
REMARK  status: ('A' for Active; 'I' for Inactive)
ROOT
ATOM      1  C1  BNZ d   1       0.274   1.746   0.610  0.00  0.00     0.000 A 
ATOM      2  C2  BNZ d   1       1.396   1.851  -0.167  0.00  0.00     0.000 A 
ATOM      3  C3  BNZ d   1       2.350   0.871  -0.156  0.00  0.00     0.000 A 
ATOM      4  C4  BNZ d   1       2.199  -0.191   0.660  0.00  0.00     0.000 A 
ATOM      5  C5  BNZ d   1       1.077  -0.308   1.456  0.00  0.00     0.000 A 
ATOM      6  C6  BNZ d   1       0.101   0.661   1.414  0.00  0.00     0.000 A 
ENDROOT
TORSDOF 0
ENDMDL
