MODEL 1
REMARK minimizedAffinity -1.09259892
REMARK minimizedRMSD -1
REMARK  0 active torsions:
REMARK  status: ('A' for Active; 'I' for Inactive)
ROOT
ATOM      1  C1  BNZ d   1       0.974  -0.593   1.164  0.00  0.00     0.000 A 
ATOM      2  C2  BNZ d   1      -0.144  -1.251   1.601  0.00  0.00     0.000 A 
ATOM      3  C3  BNZ d   1      -1.331  -0.590   1.750  0.00  0.00     0.000 A 
ATOM      4  C4  BNZ d   1      -1.389   0.734   1.500  0.00  0.00     0.000 A 
ATOM      5  C5  BNZ d   1      -0.267   1.413   1.067  0.00  0.00     0.000 A 
ATOM      6  C6  BNZ d   1       0.916   0.737   0.881  0.00  0.00     0.000 A 
ENDROOT
TORSDOF 0
ENDMDL
