MODEL 1
REMARK minimizedAffinity 0.150060698
REMARK minimizedRMSD -1
REMARK  0 active torsions:
REMARK  status: ('A' for Active; 'I' for Inactive)
ROOT
ATOM      1  C1  BNZ d   1      -0.367   0.880   2.611  0.00  0.00     0.000 A 
ATOM      2  C2  BNZ d   1       0.724   1.568   2.149  0.00  0.00     0.000 A 
ATOM      3  C3  BNZ d   1       0.616   2.417   1.084  0.00  0.00     0.000 A 
ATOM      4  C4  BNZ d   1      -0.571   2.547   0.457  0.00  0.00     0.000 A 
ATOM      5  C5  BNZ d   1      -1.677   1.853   0.904  0.00  0.00     0.000 A 
ATOM      6  C6  BNZ d   1      -1.574   1.029   2.001  0.00  0.00     0.000 A 
ENDROOT
TORSDOF 0
ENDMDL
