MODEL 1
REMARK minimizedAffinity -3.30948544
REMARK minimizedRMSD -1
REMARK  1 active torsions:
REMARK  status: ('A' for Active; 'I' for Inactive)
REMARK    1  A    between atoms: C1_2  and  C2_3 
ROOT
ATOM      1  C2  UNL d   1      -1.418   0.138  -0.546  0.00  0.00    -0.081 A 
ATOM      2  C3  UNL d   1      -1.253  -0.988   0.270  0.00  0.00     0.006 A 
ATOM      3  C4  UNL d   1      -0.169  -1.073   1.148  0.00  0.00     0.002 A 
ATOM      4  C5  UNL d   1       0.762  -0.033   1.230  0.00  0.00    -0.080 A 
ATOM      5  C6  UNL d   1       1.912  -0.099   2.190  0.00  0.00     0.076 C 
ATOM      6  C7  UNL d   1       0.607   1.084   0.402  0.00  0.00     0.002 A 
ATOM      7  C8  UNL d   1      -0.476   1.170  -0.476  0.00  0.00     0.006 A 
ENDROOT
BRANCH   1   8
ATOM      8  C1  UNL d   1      -2.620   0.262  -1.447  0.00  0.00     0.054 C 
ATOM      9  C   UNL d   1      -2.675  -0.876  -2.455  0.00  0.00     0.018 C 
ENDBRANCH   1   8
TORSDOF 1
ENDMDL
