MODEL 1
REMARK minimizedAffinity -3.44891238
REMARK minimizedRMSD -1
REMARK  1 active torsions:
REMARK  status: ('A' for Active; 'I' for Inactive)
REMARK    1  A    between atoms: C1_2  and  C2_3 
ROOT
ATOM      1  C2  UNL d   1      -0.694  -0.558  -0.812  0.00  0.00    -0.081 A 
ATOM      2  C3  UNL d   1      -0.890   0.717  -0.266  0.00  0.00     0.006 A 
ATOM      3  C4  UNL d   1       0.113   1.323   0.494  0.00  0.00     0.002 A 
ATOM      4  C5  UNL d   1       1.330   0.669   0.714  0.00  0.00    -0.080 A 
ATOM      5  C6  UNL d   1       2.426   1.322   1.503  0.00  0.00     0.076 C 
ATOM      6  C7  UNL d   1       1.519  -0.611   0.183  0.00  0.00     0.002 A 
ATOM      7  C8  UNL d   1       0.516  -1.218  -0.576  0.00  0.00     0.006 A 
ENDROOT
BRANCH   1   8
ATOM      8  C1  UNL d   1      -1.749  -1.187  -1.686  0.00  0.00     0.054 C 
ATOM      9  C   UNL d   1      -2.263  -0.204  -2.728  0.00  0.00     0.018 C 
ENDBRANCH   1   8
TORSDOF 1
ENDMDL
