MODEL 1
REMARK minimizedAffinity -4.71844339
REMARK minimizedRMSD -1
REMARK  1 active torsions:
REMARK  status: ('A' for Active; 'I' for Inactive)
REMARK    1  A    between atoms: C1_2  and  C2_3 
ROOT
ATOM      1  C2  UNL d   1       1.882   0.367   1.003  0.00  0.00    -0.081 A 
ATOM      2  C3  UNL d   1       1.290  -0.872   0.729  0.00  0.00     0.006 A 
ATOM      3  C4  UNL d   1       0.046  -0.938   0.098  0.00  0.00     0.002 A 
ATOM      4  C5  UNL d   1      -0.623   0.233  -0.277  0.00  0.00    -0.080 A 
ATOM      5  C6  UNL d   1      -1.945   0.175  -0.982  0.00  0.00     0.076 C 
ATOM      6  C7  UNL d   1      -0.040   1.471   0.012  0.00  0.00     0.002 A 
ATOM      7  C8  UNL d   1       1.204   1.538   0.644  0.00  0.00     0.006 A 
ENDROOT
BRANCH   1   8
ATOM      8  C1  UNL d   1       3.253   0.441   1.625  0.00  0.00     0.054 C 
ATOM      9  C   UNL d   1       3.865  -0.944   1.781  0.00  0.00     0.018 C 
ENDBRANCH   1   8
TORSDOF 1
ENDMDL
