MODEL 1
REMARK minimizedAffinity 0.134456545
REMARK minimizedRMSD -1
REMARK  1 active torsions:
REMARK  status: ('A' for Active; 'I' for Inactive)
REMARK    1  A    between atoms: C1_2  and  C2_3 
ROOT
ATOM      1  C2  UNL d   1       1.272   0.064   0.796  0.00  0.00    -0.081 A 
ATOM      2  C3  UNL d   1       0.483  -1.090   0.711  0.00  0.00     0.006 A 
ATOM      3  C4  UNL d   1      -0.765  -1.049   0.085  0.00  0.00     0.002 A 
ATOM      4  C5  UNL d   1      -1.241   0.142  -0.473  0.00  0.00    -0.080 A 
ATOM      5  C6  UNL d   1      -2.566   0.192  -1.175  0.00  0.00     0.076 C 
ATOM      6  C7  UNL d   1      -0.460   1.298  -0.373  0.00  0.00     0.002 A 
ATOM      7  C8  UNL d   1       0.787   1.259   0.254  0.00  0.00     0.006 A 
ENDROOT
BRANCH   1   8
ATOM      8  C1  UNL d   1       2.646   0.008   1.413  0.00  0.00     0.054 C 
ATOM      9  C   UNL d   1       2.803   1.054   2.508  0.00  0.00     0.018 C 
ENDBRANCH   1   8
TORSDOF 1
ENDMDL
