MODEL 1
REMARK minimizedAffinity -1.30817282
REMARK minimizedRMSD -1
REMARK  1 active torsions:
REMARK  status: ('A' for Active; 'I' for Inactive)
REMARK    1  A    between atoms: C1_2  and  C2_3 
ROOT
ATOM      1  C2  UNL d   1      -0.395   0.122   0.499  0.00  0.00    -0.081 A 
ATOM      2  C3  UNL d   1       0.414   1.231   0.775  0.00  0.00     0.006 A 
ATOM      3  C4  UNL d   1       1.805   1.106   0.788  0.00  0.00     0.002 A 
ATOM      4  C5  UNL d   1       2.411  -0.126   0.519  0.00  0.00    -0.080 A 
ATOM      5  C6  UNL d   1       3.904  -0.266   0.500  0.00  0.00     0.076 C 
ATOM      6  C7  UNL d   1       1.602  -1.238   0.261  0.00  0.00     0.002 A 
ATOM      7  C8  UNL d   1       0.211  -1.114   0.248  0.00  0.00     0.006 A 
ENDROOT
BRANCH   1   8
ATOM      8  C1  UNL d   1      -1.893   0.267   0.420  0.00  0.00     0.054 C 
ATOM      9  C   UNL d   1      -2.333   0.725  -0.963  0.00  0.00     0.018 C 
ENDBRANCH   1   8
TORSDOF 1
ENDMDL
