MODEL 1
REMARK minimizedAffinity -2.43747425
REMARK minimizedRMSD -1
REMARK  2 active torsions:
REMARK  status: ('A' for Active; 'I' for Inactive)
REMARK    1  A    between atoms: C2'_3  and  C1'_4 
REMARK    2  A    between atoms: C1'_4  and  C1_5 
ROOT
ATOM      1  C1  I4B d   1       0.044   0.319  -0.347  0.00  0.00    -0.075 A 
ATOM      2  C2  I4B d   1       1.265   0.809  -0.737  0.00  0.00     0.003 A 
ATOM      3  C3  I4B d   1       2.443   0.059  -0.500  0.00  0.00     0.002 A 
ATOM      4  C4  I4B d   1       2.359  -1.144   0.171  0.00  0.00    -0.004 A 
ATOM      5  C5  I4B d   1       1.117  -1.650   0.545  0.00  0.00     0.002 A 
ATOM      6  C6  I4B d   1      -0.049  -0.920   0.274  0.00  0.00     0.003 A 
ENDROOT
BRANCH   1   7
ATOM      7  C1' I4B d   1      -1.176   1.152  -0.583  0.00  0.00     0.060 C 
BRANCH   7   8
ATOM      8  C2' I4B d   1      -1.195   1.548  -2.045  0.00  0.00    -0.013 C 
ATOM      9  C4' I4B d   1      -2.518   1.214  -2.683  0.00  0.00     0.013 C 
ATOM     10  C3' I4B d   1      -0.907   3.017  -2.132  0.00  0.00     0.013 C 
ENDBRANCH   7   8
ENDBRANCH   1   7
TORSDOF 2
ENDMDL
