MODEL 1
REMARK minimizedAffinity -4.9811244
REMARK minimizedRMSD -1
REMARK  2 active torsions:
REMARK  status: ('A' for Active; 'I' for Inactive)
REMARK    1  A    between atoms: C2'_3  and  C1'_4 
REMARK    2  A    between atoms: C1'_4  and  C1_5 
ROOT
ATOM      1  C1  I4B d   1      -0.071  -0.226  -0.713  0.00  0.00    -0.075 A 
ATOM      2  C2  I4B d   1       0.167  -0.493   0.612  0.00  0.00     0.003 A 
ATOM      3  C3  I4B d   1       1.460  -0.881   1.040  0.00  0.00     0.002 A 
ATOM      4  C4  I4B d   1       2.466  -1.037   0.109  0.00  0.00    -0.004 A 
ATOM      5  C5  I4B d   1       2.229  -0.744  -1.231  0.00  0.00     0.002 A 
ATOM      6  C6  I4B d   1       0.956  -0.324  -1.643  0.00  0.00     0.003 A 
ENDROOT
BRANCH   1   7
ATOM      7  C1' I4B d   1      -1.456   0.150  -1.135  0.00  0.00     0.060 C 
BRANCH   7   8
ATOM      8  C2' I4B d   1      -1.344   1.141  -2.276  0.00  0.00    -0.013 C 
ATOM      9  C4' I4B d   1      -2.060   0.642  -3.503  0.00  0.00     0.013 C 
ATOM     10  C3' I4B d   1      -1.912   2.448  -1.810  0.00  0.00     0.013 C 
ENDBRANCH   7   8
ENDBRANCH   1   7
TORSDOF 2
ENDMDL
