MODEL 1
REMARK minimizedAffinity 0.201006785
REMARK minimizedRMSD -1
REMARK  2 active torsions:
REMARK  status: ('A' for Active; 'I' for Inactive)
REMARK    1  A    between atoms: C2'_3  and  C1'_4 
REMARK    2  A    between atoms: C1'_4  and  C1_5 
ROOT
ATOM      1  C1  I4B d   1       1.644   0.770  -0.164  0.00  0.00    -0.075 A 
ATOM      2  C2  I4B d   1       2.097  -0.408   0.374  0.00  0.00     0.003 A 
ATOM      3  C3  I4B d   1       3.394  -0.882   0.062  0.00  0.00     0.002 A 
ATOM      4  C4  I4B d   1       4.180  -0.177  -0.827  0.00  0.00    -0.004 A 
ATOM      5  C5  I4B d   1       3.727   1.029  -1.354  0.00  0.00     0.002 A 
ATOM      6  C6  I4B d   1       2.456   1.512  -1.011  0.00  0.00     0.003 A 
ENDROOT
BRANCH   1   7
ATOM      7  C1' I4B d   1       0.256   1.224   0.161  0.00  0.00     0.060 C 
BRANCH   7   8
ATOM      8  C2' I4B d   1      -0.609  -0.007   0.340  0.00  0.00    -0.013 C 
ATOM      9  C4' I4B d   1      -1.390   0.056   1.625  0.00  0.00     0.013 C 
ATOM     10  C3' I4B d   1      -1.523  -0.107  -0.845  0.00  0.00     0.013 C 
ENDBRANCH   7   8
ENDBRANCH   1   7
TORSDOF 2
ENDMDL
