MODEL 1
REMARK minimizedAffinity -4.9662056
REMARK minimizedRMSD -1
REMARK  2 active torsions:
REMARK  status: ('A' for Active; 'I' for Inactive)
REMARK    1  A    between atoms: C2'_3  and  C1'_4 
REMARK    2  A    between atoms: C1'_4  and  C1_5 
ROOT
ATOM      1  C1  I4B d   1       0.064   0.087  -0.075  0.00  0.00    -0.075 A 
ATOM      2  C2  I4B d   1      -0.005  -0.971   0.797  0.00  0.00     0.003 A 
ATOM      3  C3  I4B d   1       1.081  -1.872   0.912  0.00  0.00     0.002 A 
ATOM      4  C4  I4B d   1       2.188  -1.708   0.104  0.00  0.00    -0.004 A 
ATOM      5  C5  I4B d   1       2.266  -0.622  -0.763  0.00  0.00     0.002 A 
ATOM      6  C6  I4B d   1       1.202   0.288  -0.845  0.00  0.00     0.003 A 
ENDROOT
BRANCH   1   7
ATOM      7  C1' I4B d   1      -1.115   1.000  -0.195  0.00  0.00     0.060 C 
BRANCH   7   8
ATOM      8  C2' I4B d   1      -1.364   1.250  -1.669  0.00  0.00    -0.013 C 
ATOM      9  C4' I4B d   1      -2.677   0.657  -2.108  0.00  0.00     0.013 C 
ATOM     10  C3' I4B d   1      -1.335   2.732  -1.898  0.00  0.00     0.013 C 
ENDBRANCH   7   8
ENDBRANCH   1   7
TORSDOF 2
ENDMDL
