MODEL 1
REMARK minimizedAffinity -5.29333496
REMARK minimizedRMSD -1
REMARK  2 active torsions:
REMARK  status: ('A' for Active; 'I' for Inactive)
REMARK    1  A    between atoms: C2'_3  and  C1'_4 
REMARK    2  A    between atoms: C1'_4  and  C1_5 
ROOT
ATOM      1  C1  I4B d   1      -0.843   1.171  -0.784  0.00  0.00    -0.075 A 
ATOM      2  C2  I4B d   1      -1.002   2.507  -1.051  0.00  0.00     0.003 A 
ATOM      3  C3  I4B d   1      -1.800   2.926  -2.144  0.00  0.00     0.002 A 
ATOM      4  C4  I4B d   1      -2.375   1.979  -2.967  0.00  0.00    -0.004 A 
ATOM      5  C5  I4B d   1      -2.231   0.625  -2.681  0.00  0.00     0.002 A 
ATOM      6  C6  I4B d   1      -1.471   0.217  -1.575  0.00  0.00     0.003 A 
ENDROOT
BRANCH   1   7
ATOM      7  C1' I4B d   1       0.033   0.763   0.358  0.00  0.00     0.060 C 
BRANCH   7   8
ATOM      8  C2' I4B d   1       0.591  -0.612   0.051  0.00  0.00    -0.013 C 
ATOM      9  C4' I4B d   1       1.670  -0.541  -0.997  0.00  0.00     0.013 C 
ATOM     10  C3' I4B d   1       1.115  -1.195   1.330  0.00  0.00     0.013 C 
ENDBRANCH   7   8
ENDBRANCH   1   7
TORSDOF 2
ENDMDL
