MODEL 1
REMARK minimizedAffinity -0.955822825
REMARK minimizedRMSD -1
REMARK  2 active torsions:
REMARK  status: ('A' for Active; 'I' for Inactive)
REMARK    1  A    between atoms: C2'_3  and  C1'_4 
REMARK    2  A    between atoms: C1'_4  and  C1_5 
ROOT
ATOM      1  C1  I4B d   1       0.360   0.284   0.046  0.00  0.00    -0.075 A 
ATOM      2  C2  I4B d   1      -0.423  -0.233   1.048  0.00  0.00     0.003 A 
ATOM      3  C3  I4B d   1       0.131  -1.128   1.996  0.00  0.00     0.002 A 
ATOM      4  C4  I4B d   1       1.450  -1.515   1.875  0.00  0.00    -0.004 A 
ATOM      5  C5  I4B d   1       2.248  -0.972   0.872  0.00  0.00     0.002 A 
ATOM      6  C6  I4B d   1       1.703  -0.058  -0.041  0.00  0.00     0.003 A 
ENDROOT
BRANCH   1   7
ATOM      7  C1' I4B d   1      -0.266   1.200  -0.957  0.00  0.00     0.060 C 
BRANCH   7   8
ATOM      8  C2' I4B d   1      -1.425   0.466  -1.600  0.00  0.00    -0.013 C 
ATOM      9  C4' I4B d   1      -2.106   1.324  -2.634  0.00  0.00     0.013 C 
ATOM     10  C3' I4B d   1      -0.893  -0.797  -2.209  0.00  0.00     0.013 C 
ENDBRANCH   7   8
ENDBRANCH   1   7
TORSDOF 2
ENDMDL
