MODEL 1
REMARK minimizedAffinity -1.46224046
REMARK minimizedRMSD -1
REMARK  2 active torsions:
REMARK  status: ('A' for Active; 'I' for Inactive)
REMARK    1  A    between atoms: C2'_3  and  C1'_4 
REMARK    2  A    between atoms: C1'_4  and  C1_5 
ROOT
ATOM      1  C1  I4B d   1      -0.505   0.685  -0.809  0.00  0.00    -0.075 A 
ATOM      2  C2  I4B d   1      -0.701   1.601  -1.812  0.00  0.00     0.003 A 
ATOM      3  C3  I4B d   1      -1.856   1.528  -2.629  0.00  0.00     0.002 A 
ATOM      4  C4  I4B d   1      -2.757   0.501  -2.441  0.00  0.00    -0.004 A 
ATOM      5  C5  I4B d   1      -2.569  -0.413  -1.408  0.00  0.00     0.002 A 
ATOM      6  C6  I4B d   1      -1.443  -0.314  -0.579  0.00  0.00     0.003 A 
ENDROOT
BRANCH   1   7
ATOM      7  C1' I4B d   1       0.741   0.771   0.013  0.00  0.00     0.060 C 
BRANCH   7   8
ATOM      8  C2' I4B d   1       1.482  -0.544  -0.122  0.00  0.00    -0.013 C 
ATOM      9  C4' I4B d   1       2.454  -0.507  -1.272  0.00  0.00     0.013 C 
ATOM     10  C3' I4B d   1       2.186  -0.814   1.174  0.00  0.00     0.013 C 
ENDBRANCH   7   8
ENDBRANCH   1   7
TORSDOF 2
ENDMDL
