MODEL 1
REMARK minimizedAffinity -3.9554925
REMARK minimizedRMSD -1
REMARK  2 active torsions:
REMARK  status: ('A' for Active; 'I' for Inactive)
REMARK    1  A    between atoms: C2'_3  and  C1'_4 
REMARK    2  A    between atoms: C1'_4  and  C1_5 
ROOT
ATOM      1  C1  I4B d   1       0.810  -0.153   0.167  0.00  0.00    -0.075 A 
ATOM      2  C2  I4B d   1       1.683  -0.038  -0.885  0.00  0.00     0.003 A 
ATOM      3  C3  I4B d   1       2.902  -0.759  -0.883  0.00  0.00     0.002 A 
ATOM      4  C4  I4B d   1       3.228  -1.539   0.208  0.00  0.00    -0.004 A 
ATOM      5  C5  I4B d   1       2.331  -1.672   1.264  0.00  0.00     0.002 A 
ATOM      6  C6  I4B d   1       1.109  -0.985   1.239  0.00  0.00     0.003 A 
ENDROOT
BRANCH   1   7
ATOM      7  C1' I4B d   1      -0.453   0.649   0.147  0.00  0.00     0.060 C 
BRANCH   7   8
ATOM      8  C2' I4B d   1      -1.590  -0.261   0.564  0.00  0.00    -0.013 C 
ATOM      9  C4' I4B d   1      -2.149   0.143   1.902  0.00  0.00     0.013 C 
ATOM     10  C3' I4B d   1      -2.643  -0.204  -0.503  0.00  0.00     0.013 C 
ENDBRANCH   7   8
ENDBRANCH   1   7
TORSDOF 2
ENDMDL
