MODEL 1
REMARK minimizedAffinity 11.1887264
REMARK minimizedRMSD -1
REMARK  2 active torsions:
REMARK  status: ('A' for Active; 'I' for Inactive)
REMARK    1  A    between atoms: C2'_3  and  C1'_4 
REMARK    2  A    between atoms: C1'_4  and  C1_5 
ROOT
ATOM      1  C1  I4B d   1       0.015   0.829  -1.044  0.00  0.00    -0.075 A 
ATOM      2  C2  I4B d   1       1.175   0.387  -1.629  0.00  0.00     0.003 A 
ATOM      3  C3  I4B d   1       2.281   0.017  -0.827  0.00  0.00     0.002 A 
ATOM      4  C4  I4B d   1       2.203   0.152   0.544  0.00  0.00    -0.004 A 
ATOM      5  C5  I4B d   1       1.018   0.579   1.137  0.00  0.00     0.002 A 
ATOM      6  C6  I4B d   1      -0.088   0.908   0.339  0.00  0.00     0.003 A 
ENDROOT
BRANCH   1   7
ATOM      7  C1' I4B d   1      -1.123   1.243  -1.922  0.00  0.00     0.060 C 
BRANCH   7   8
ATOM      8  C2' I4B d   1      -0.688   2.465  -2.706  0.00  0.00    -0.013 C 
ATOM      9  C4' I4B d   1      -1.168   2.398  -4.131  0.00  0.00     0.013 C 
ATOM     10  C3' I4B d   1      -1.228   3.678  -2.009  0.00  0.00     0.013 C 
ENDBRANCH   7   8
ENDBRANCH   1   7
TORSDOF 2
ENDMDL
