MODEL 1
REMARK minimizedAffinity -5.12948942
REMARK minimizedRMSD -1
REMARK  2 active torsions:
REMARK  status: ('A' for Active; 'I' for Inactive)
REMARK    1  A    between atoms: C2'_3  and  C1'_4 
REMARK    2  A    between atoms: C1'_4  and  C1_5 
ROOT
ATOM      1  C1  I4B d   1      -0.242  -0.085   0.353  0.00  0.00    -0.075 A 
ATOM      2  C2  I4B d   1       0.962   0.087  -0.284  0.00  0.00     0.003 A 
ATOM      3  C3  I4B d   1       2.021  -0.828  -0.066  0.00  0.00     0.002 A 
ATOM      4  C4  I4B d   1       1.851  -1.864   0.829  0.00  0.00    -0.004 A 
ATOM      5  C5  I4B d   1       0.622  -2.050   1.457  0.00  0.00     0.002 A 
ATOM      6  C6  I4B d   1      -0.435  -1.163   1.208  0.00  0.00     0.003 A 
ENDROOT
BRANCH   1   7
ATOM      7  C1' I4B d   1      -1.327   0.918   0.125  0.00  0.00     0.060 C 
BRANCH   7   8
ATOM      8  C2' I4B d   1      -1.249   1.371  -1.318  0.00  0.00    -0.013 C 
ATOM      9  C4' I4B d   1      -2.415   0.852  -2.117  0.00  0.00     0.013 C 
ATOM     10  C3' I4B d   1      -1.208   2.870  -1.331  0.00  0.00     0.013 C 
ENDBRANCH   7   8
ENDBRANCH   1   7
TORSDOF 2
ENDMDL
