MODEL 1
REMARK minimizedAffinity 1.80866051
REMARK minimizedRMSD -1
REMARK  0 active torsions:
REMARK  status: ('A' for Active; 'I' for Inactive)
ROOT
ATOM      1  C   UNL d   1       1.208  -0.514  -1.081  0.00  0.00     0.020 A 
ATOM      2  C1  UNL d   1       0.785  -1.152   0.084  0.00  0.00     0.020 A 
ATOM      3  C2  UNL d   1       0.931  -2.535   0.216  0.00  0.00     0.034 A 
ATOM      4  C3  UNL d   1       1.501  -3.284  -0.820  0.00  0.00     0.017 A 
ATOM      5  C4  UNL d   1       1.926  -2.643  -1.989  0.00  0.00     0.017 A 
ATOM      6  C5  UNL d   1       1.777  -1.258  -2.115  0.00  0.00     0.034 A 
ATOM      7 Cl   UNL d   1       2.639  -3.500  -3.310  0.00  0.00    -0.070 Cl
ATOM      8 Cl1  UNL d   1       1.651  -4.990  -0.589  0.00  0.00    -0.070 Cl
ENDROOT
TORSDOF 0
ENDMDL
