MODEL 1
REMARK minimizedAffinity 3.15992212
REMARK minimizedRMSD -1
REMARK  0 active torsions:
REMARK  status: ('A' for Active; 'I' for Inactive)
ROOT
ATOM      1  C   UNL d   1       4.756  -2.261  -1.268  0.00  0.00     0.020 A 
ATOM      2  C1  UNL d   1       4.173  -2.664  -2.469  0.00  0.00     0.020 A 
ATOM      3  C2  UNL d   1       3.193  -3.660  -2.470  0.00  0.00     0.034 A 
ATOM      4  C3  UNL d   1       2.794  -4.256  -1.268  0.00  0.00     0.017 A 
ATOM      5  C4  UNL d   1       3.380  -3.850  -0.063  0.00  0.00     0.017 A 
ATOM      6  C5  UNL d   1       4.361  -2.853  -0.068  0.00  0.00     0.034 A 
ATOM      7 Cl   UNL d   1       2.940  -4.539   1.460  0.00  0.00    -0.070 Cl
ATOM      8 Cl1  UNL d   1       1.578  -5.480  -1.343  0.00  0.00    -0.070 Cl
ENDROOT
TORSDOF 0
ENDMDL
