MODEL 1
REMARK minimizedAffinity 7.53092003
REMARK minimizedRMSD -1
REMARK  0 active torsions:
REMARK  status: ('A' for Active; 'I' for Inactive)
ROOT
ATOM      1  C   UNL d   1       2.804  -2.943  -0.830  0.00  0.00     0.020 A 
ATOM      2  C1  UNL d   1       2.944  -4.319  -0.654  0.00  0.00     0.020 A 
ATOM      3  C2  UNL d   1       3.570  -5.088  -1.636  0.00  0.00     0.034 A 
ATOM      4  C3  UNL d   1       4.058  -4.483  -2.800  0.00  0.00     0.017 A 
ATOM      5  C4  UNL d   1       3.917  -3.101  -2.976  0.00  0.00     0.017 A 
ATOM      6  C5  UNL d   1       3.289  -2.335  -1.989  0.00  0.00     0.034 A 
ATOM      7 Cl   UNL d   1       4.494  -2.283  -4.385  0.00  0.00    -0.070 Cl
ATOM      8 Cl1  UNL d   1       4.822  -5.496  -3.973  0.00  0.00    -0.070 Cl
ENDROOT
TORSDOF 0
ENDMDL
