MODEL 1
REMARK minimizedAffinity -0.711612403
REMARK minimizedRMSD -1
REMARK  0 active torsions:
REMARK  status: ('A' for Active; 'I' for Inactive)
ROOT
ATOM      1  C   UNL d   1       5.060  -3.442  -1.550  0.00  0.00     0.020 A 
ATOM      2  C1  UNL d   1       4.309  -3.805  -2.667  0.00  0.00     0.020 A 
ATOM      3  C2  UNL d   1       3.041  -4.367  -2.503  0.00  0.00     0.034 A 
ATOM      4  C3  UNL d   1       2.520  -4.567  -1.219  0.00  0.00     0.017 A 
ATOM      5  C4  UNL d   1       3.275  -4.202  -0.098  0.00  0.00     0.017 A 
ATOM      6  C5  UNL d   1       4.544  -3.640  -0.268  0.00  0.00     0.034 A 
ATOM      7 Cl   UNL d   1       2.700  -4.418   1.517  0.00  0.00    -0.070 Cl
ATOM      8 Cl1  UNL d   1       0.945  -5.266  -1.090  0.00  0.00    -0.070 Cl
ENDROOT
TORSDOF 0
ENDMDL
