MODEL 1
REMARK minimizedAffinity 0.216923445
REMARK minimizedRMSD -1
REMARK  0 active torsions:
REMARK  status: ('A' for Active; 'I' for Inactive)
ROOT
ATOM      1  C   UNL d   1       1.874  -5.089  -1.389  0.00  0.00     0.020 A 
ATOM      2  C1  UNL d   1       2.028  -4.176  -0.346  0.00  0.00     0.020 A 
ATOM      3  C2  UNL d   1       3.179  -3.390  -0.271  0.00  0.00     0.034 A 
ATOM      4  C3  UNL d   1       4.181  -3.514  -1.240  0.00  0.00     0.017 A 
ATOM      5  C4  UNL d   1       4.026  -4.430  -2.287  0.00  0.00     0.017 A 
ATOM      6  C5  UNL d   1       2.871  -5.215  -2.357  0.00  0.00     0.034 A 
ATOM      7 Cl   UNL d   1       5.219  -4.640  -3.520  0.00  0.00    -0.070 Cl
ATOM      8 Cl1  UNL d   1       5.578  -2.509  -1.085  0.00  0.00    -0.070 Cl
ENDROOT
TORSDOF 0
ENDMDL
