MODEL 1
REMARK minimizedAffinity 9.06208992
REMARK minimizedRMSD -1
REMARK  0 active torsions:
REMARK  status: ('A' for Active; 'I' for Inactive)
ROOT
ATOM      1  C   UNL d   1       0.461   5.216  -1.580  0.00  0.00     0.020 A 
ATOM      2  C1  UNL d   1       0.352   5.702  -0.278  0.00  0.00     0.020 A 
ATOM      3  C2  UNL d   1       0.052   4.830   0.771  0.00  0.00     0.034 A 
ATOM      4  C3  UNL d   1      -0.142   3.467   0.519  0.00  0.00     0.017 A 
ATOM      5  C4  UNL d   1      -0.033   2.980  -0.788  0.00  0.00     0.017 A 
ATOM      6  C5  UNL d   1       0.269   3.857  -1.834  0.00  0.00     0.034 A 
ATOM      7 Cl   UNL d   1      -0.257   1.311  -1.177  0.00  0.00    -0.070 Cl
ATOM      8 Cl1  UNL d   1      -0.510   2.446   1.864  0.00  0.00    -0.070 Cl
ENDROOT
TORSDOF 0
ENDMDL
