MODEL 1
REMARK minimizedAffinity -3.68151021
REMARK minimizedRMSD -1
REMARK  0 active torsions:
REMARK  status: ('A' for Active; 'I' for Inactive)
ROOT
ATOM      1  C   UNL d   1       0.777   0.988   0.245  0.00  0.00     0.020 A 
ATOM      2  C1  UNL d   1       1.263  -0.315   0.345  0.00  0.00     0.020 A 
ATOM      3  C2  UNL d   1       0.404  -1.355   0.708  0.00  0.00     0.034 A 
ATOM      4  C3  UNL d   1      -0.945  -1.093   0.973  0.00  0.00     0.017 A 
ATOM      5  C4  UNL d   1      -1.432   0.215   0.873  0.00  0.00     0.017 A 
ATOM      6  C5  UNL d   1      -0.567   1.252   0.508  0.00  0.00     0.034 A 
ATOM      7 Cl   UNL d   1      -3.084   0.616   1.184  0.00  0.00    -0.070 Cl
ATOM      8 Cl1  UNL d   1      -1.950  -2.427   1.417  0.00  0.00    -0.070 Cl
ENDROOT
TORSDOF 0
ENDMDL
