MODEL 1
REMARK minimizedAffinity -5.23865747
REMARK minimizedRMSD -1
REMARK  0 active torsions:
REMARK  status: ('A' for Active; 'I' for Inactive)
ROOT
ATOM      1  C   UNL d   1      -2.959  -1.452   1.598  0.00  0.00     0.020 A 
ATOM      2  C1  UNL d   1      -3.019  -0.093   1.292  0.00  0.00     0.020 A 
ATOM      3  C2  UNL d   1      -1.902   0.551   0.754  0.00  0.00     0.034 A 
ATOM      4  C3  UNL d   1      -0.721  -0.164   0.522  0.00  0.00     0.017 A 
ATOM      5  C4  UNL d   1      -0.663  -1.528   0.830  0.00  0.00     0.017 A 
ATOM      6  C5  UNL d   1      -1.784  -2.168   1.368  0.00  0.00     0.034 A 
ATOM      7 Cl   UNL d   1       0.759  -2.476   0.571  0.00  0.00    -0.070 Cl
ATOM      8 Cl1  UNL d   1       0.620   0.696  -0.145  0.00  0.00    -0.070 Cl
ENDROOT
TORSDOF 0
ENDMDL
