MODEL 1
REMARK minimizedAffinity -4.55720425
REMARK minimizedRMSD -1
REMARK  0 active torsions:
REMARK  status: ('A' for Active; 'I' for Inactive)
ROOT
ATOM      1  C   UNL d   1      -1.521  -2.614   1.083  0.00  0.00     0.020 A 
ATOM      2  C1  UNL d   1      -2.380  -1.522   0.964  0.00  0.00     0.020 A 
ATOM      3  C2  UNL d   1      -1.883  -0.283   0.555  0.00  0.00     0.034 A 
ATOM      4  C3  UNL d   1      -0.523  -0.132   0.263  0.00  0.00     0.017 A 
ATOM      5  C4  UNL d   1       0.340  -1.228   0.383  0.00  0.00     0.017 A 
ATOM      6  C5  UNL d   1      -0.164  -2.467   0.793  0.00  0.00     0.034 A 
ATOM      7 Cl   UNL d   1       2.030  -1.120   0.040  0.00  0.00    -0.070 Cl
ATOM      8 Cl1  UNL d   1       0.023   1.428  -0.238  0.00  0.00    -0.070 Cl
ENDROOT
TORSDOF 0
ENDMDL
