MODEL 1
REMARK minimizedAffinity -4.17409372
REMARK minimizedRMSD -1
REMARK  0 active torsions:
REMARK  status: ('A' for Active; 'I' for Inactive)
ROOT
ATOM      1  C   UNL d   1      -3.335  -2.158   1.740  0.00  0.00     0.020 A 
ATOM      2  C1  UNL d   1      -2.357  -2.820   0.999  0.00  0.00     0.020 A 
ATOM      3  C2  UNL d   1      -1.322  -2.096   0.403  0.00  0.00     0.034 A 
ATOM      4  C3  UNL d   1      -1.264  -0.705   0.547  0.00  0.00     0.017 A 
ATOM      5  C4  UNL d   1      -2.246  -0.041   1.292  0.00  0.00     0.017 A 
ATOM      6  C5  UNL d   1      -3.279  -0.772   1.886  0.00  0.00     0.034 A 
ATOM      7 Cl   UNL d   1      -2.240   1.673   1.514  0.00  0.00    -0.070 Cl
ATOM      8 Cl1  UNL d   1       0.044   0.128  -0.217  0.00  0.00    -0.070 Cl
ENDROOT
TORSDOF 0
ENDMDL
