MODEL 1
REMARK minimizedAffinity -1.40164912
REMARK minimizedRMSD -1
REMARK  0 active torsions:
REMARK  status: ('A' for Active; 'I' for Inactive)
ROOT
ATOM      1  C   UNL d   1      -1.272   1.696   0.932  0.00  0.00     0.020 A 
ATOM      2  C1  UNL d   1      -1.566   0.342   1.084  0.00  0.00     0.020 A 
ATOM      3  C2  UNL d   1      -0.988  -0.598   0.229  0.00  0.00     0.034 A 
ATOM      4  C3  UNL d   1      -0.113  -0.186  -0.782  0.00  0.00     0.017 A 
ATOM      5  C4  UNL d   1       0.182   1.174  -0.934  0.00  0.00     0.017 A 
ATOM      6  C5  UNL d   1      -0.400   2.111  -0.075  0.00  0.00     0.034 A 
ATOM      7 Cl   UNL d   1       1.253   1.759  -2.158  0.00  0.00    -0.070 Cl
ATOM      8 Cl1  UNL d   1       0.566  -1.403  -1.803  0.00  0.00    -0.070 Cl
ENDROOT
TORSDOF 0
ENDMDL
