MODEL 1
REMARK minimizedAffinity -0.590607226
REMARK minimizedRMSD -1
REMARK  0 active torsions:
REMARK  status: ('A' for Active; 'I' for Inactive)
ROOT
ATOM      1  C   UNL d   1      -0.067   1.541  -0.267  0.00  0.00     0.020 A 
ATOM      2  C1  UNL d   1      -1.349   1.114   0.075  0.00  0.00     0.020 A 
ATOM      3  C2  UNL d   1      -1.533  -0.131   0.678  0.00  0.00     0.034 A 
ATOM      4  C3  UNL d   1      -0.432  -0.955   0.942  0.00  0.00     0.017 A 
ATOM      5  C4  UNL d   1       0.855  -0.525   0.599  0.00  0.00     0.017 A 
ATOM      6  C5  UNL d   1       1.033   0.723  -0.005  0.00  0.00     0.034 A 
ATOM      7 Cl   UNL d   1       2.262  -1.485   0.894  0.00  0.00    -0.070 Cl
ATOM      8 Cl1  UNL d   1      -0.733  -2.482   1.691  0.00  0.00    -0.070 Cl
ENDROOT
TORSDOF 0
ENDMDL
