MODEL 1
REMARK minimizedAffinity -4.99372149
REMARK minimizedRMSD -1
REMARK  0 active torsions:
REMARK  status: ('A' for Active; 'I' for Inactive)
ROOT
ATOM      1  C   UNL d   1      -1.694  -2.280   1.690  0.00  0.00     0.020 A 
ATOM      2  C1  UNL d   1      -2.312  -1.064   1.401  0.00  0.00     0.020 A 
ATOM      3  C2  UNL d   1      -1.640  -0.102   0.645  0.00  0.00     0.034 A 
ATOM      4  C3  UNL d   1      -0.346  -0.354   0.174  0.00  0.00     0.017 A 
ATOM      5  C4  UNL d   1       0.273  -1.575   0.464  0.00  0.00     0.017 A 
ATOM      6  C5  UNL d   1      -0.404  -2.535   1.222  0.00  0.00     0.034 A 
ATOM      7 Cl   UNL d   1       1.868  -1.958  -0.082  0.00  0.00    -0.070 Cl
ATOM      8 Cl1  UNL d   1       0.425   0.881  -0.756  0.00  0.00    -0.070 Cl
ENDROOT
TORSDOF 0
ENDMDL
