MODEL 1
REMARK minimizedAffinity -3.81241202
REMARK minimizedRMSD -1
REMARK  0 active torsions:
REMARK  status: ('A' for Active; 'I' for Inactive)
ROOT
ATOM      1  C   UNL d   1      -1.376  -2.604   1.161  0.00  0.00     0.020 A 
ATOM      2  C1  UNL d   1      -2.089  -1.412   1.036  0.00  0.00     0.020 A 
ATOM      3  C2  UNL d   1      -1.480  -0.290   0.471  0.00  0.00     0.034 A 
ATOM      4  C3  UNL d   1      -0.154  -0.357   0.028  0.00  0.00     0.017 A 
ATOM      5  C4  UNL d   1       0.561  -1.554   0.154  0.00  0.00     0.017 A 
ATOM      6  C5  UNL d   1      -0.053  -2.674   0.721  0.00  0.00     0.034 A 
ATOM      7 Cl   UNL d   1       2.201  -1.713  -0.370  0.00  0.00    -0.070 Cl
ATOM      8 Cl1  UNL d   1       0.536   1.069  -0.661  0.00  0.00    -0.070 Cl
ENDROOT
TORSDOF 0
ENDMDL
