MODEL 1
REMARK minimizedAffinity 0.596604943
REMARK minimizedRMSD -1
REMARK  0 active torsions:
REMARK  status: ('A' for Active; 'I' for Inactive)
ROOT
ATOM      1  C   UNL d   1      -2.685   0.481   0.249  0.00  0.00     0.020 A 
ATOM      2  C1  UNL d   1      -1.506   1.122  -0.130  0.00  0.00     0.020 A 
ATOM      3  C2  UNL d   1      -0.296   0.425  -0.113  0.00  0.00     0.034 A 
ATOM      4  C3  UNL d   1      -0.262  -0.916   0.285  0.00  0.00     0.017 A 
ATOM      5  C4  UNL d   1      -1.445  -1.559   0.665  0.00  0.00     0.017 A 
ATOM      6  C5  UNL d   1      -2.654  -0.856   0.646  0.00  0.00     0.034 A 
ATOM      7 Cl   UNL d   1      -1.482  -3.212   1.167  0.00  0.00    -0.070 Cl
ATOM      8 Cl1  UNL d   1       1.270  -1.716   0.282  0.00  0.00    -0.070 Cl
ENDROOT
TORSDOF 0
ENDMDL
