MODEL 1
REMARK minimizedAffinity -4.69269371
REMARK minimizedRMSD -1
REMARK  0 active torsions:
REMARK  status: ('A' for Active; 'I' for Inactive)
ROOT
ATOM      1  C   UNL d   1      -1.398  -2.653   1.017  0.00  0.00     0.020 A 
ATOM      2  C1  UNL d   1      -0.631  -2.961  -0.106  0.00  0.00     0.020 A 
ATOM      3  C2  UNL d   1      -0.077  -1.936  -0.876  0.00  0.00     0.034 A 
ATOM      4  C3  UNL d   1      -0.288  -0.598  -0.524  0.00  0.00     0.017 A 
ATOM      5  C4  UNL d   1      -1.057  -0.290   0.604  0.00  0.00     0.017 A 
ATOM      6  C5  UNL d   1      -1.610  -1.320   1.371  0.00  0.00     0.034 A 
ATOM      7 Cl   UNL d   1      -1.361   1.337   1.102  0.00  0.00    -0.070 Cl
ATOM      8 Cl1  UNL d   1       0.428   0.618  -1.521  0.00  0.00    -0.070 Cl
ENDROOT
TORSDOF 0
ENDMDL
