MODEL 1
REMARK minimizedAffinity -4.03347063
REMARK minimizedRMSD -1
REMARK  0 active torsions:
REMARK  status: ('A' for Active; 'I' for Inactive)
ROOT
ATOM      1  C   UNL d   1       0.585  -2.046   0.308  0.00  0.00     0.020 A 
ATOM      2  C1  UNL d   1      -0.600  -2.318   0.990  0.00  0.00     0.020 A 
ATOM      3  C2  UNL d   1      -1.536  -1.302   1.196  0.00  0.00     0.034 A 
ATOM      4  C3  UNL d   1      -1.289  -0.010   0.718  0.00  0.00     0.017 A 
ATOM      5  C4  UNL d   1      -0.099   0.262   0.033  0.00  0.00     0.017 A 
ATOM      6  C5  UNL d   1       0.835  -0.759  -0.170  0.00  0.00     0.034 A 
ATOM      7 Cl   UNL d   1       0.276   1.831  -0.586  0.00  0.00    -0.070 Cl
ATOM      8 Cl1  UNL d   1      -2.491   1.197   1.007  0.00  0.00    -0.070 Cl
ENDROOT
TORSDOF 0
ENDMDL
