MODEL 1
REMARK minimizedAffinity -3.95811701
REMARK minimizedRMSD -1
REMARK  0 active torsions:
REMARK  status: ('A' for Active; 'I' for Inactive)
ROOT
ATOM      1  C   UNL d   1       1.145   0.871  -3.296  0.00  0.00     0.020 A 
ATOM      2  C1  UNL d   1       0.984   2.242  -3.094  0.00  0.00     0.020 A 
ATOM      3  C2  UNL d   1       0.480   2.714  -1.881  0.00  0.00     0.034 A 
ATOM      4  C3  UNL d   1       0.135   1.816  -0.865  0.00  0.00     0.017 A 
ATOM      5  C4  UNL d   1       0.297   0.440  -1.068  0.00  0.00     0.017 A 
ATOM      6  C5  UNL d   1       0.802  -0.027  -2.285  0.00  0.00     0.034 A 
ATOM      7 Cl   UNL d   1      -0.107  -0.729   0.138  0.00  0.00    -0.070 Cl
ATOM      8 Cl1  UNL d   1      -0.483   2.470   0.611  0.00  0.00    -0.070 Cl
ENDROOT
TORSDOF 0
ENDMDL
