MODEL 1
REMARK minimizedAffinity -3.65359807
REMARK minimizedRMSD -1
REMARK  0 active torsions:
REMARK  status: ('A' for Active; 'I' for Inactive)
ROOT
ATOM      1  C   UNL d   1      -1.297  -3.207   1.169  0.00  0.00     0.020 A 
ATOM      2  C1  UNL d   1      -0.073  -3.216   0.501  0.00  0.00     0.020 A 
ATOM      3  C2  UNL d   1       0.430  -2.035  -0.050  0.00  0.00     0.034 A 
ATOM      4  C3  UNL d   1      -0.291  -0.841   0.066  0.00  0.00     0.017 A 
ATOM      5  C4  UNL d   1      -1.520  -0.834   0.737  0.00  0.00     0.017 A 
ATOM      6  C5  UNL d   1      -2.019  -2.019   1.286  0.00  0.00     0.034 A 
ATOM      7 Cl   UNL d   1      -2.467   0.601   0.921  0.00  0.00    -0.070 Cl
ATOM      8 Cl1  UNL d   1       0.391   0.581  -0.638  0.00  0.00    -0.070 Cl
ENDROOT
TORSDOF 0
ENDMDL
