MODEL 1
REMARK minimizedAffinity -2.66713333
REMARK minimizedRMSD -1
REMARK  0 active torsions:
REMARK  status: ('A' for Active; 'I' for Inactive)
ROOT
ATOM      1  C   UNL d   1       1.263  -0.655   0.394  0.00  0.00     0.020 A 
ATOM      2  C1  UNL d   1       0.813   0.664   0.339  0.00  0.00     0.020 A 
ATOM      3  C2  UNL d   1      -0.540   0.949   0.533  0.00  0.00     0.034 A 
ATOM      4  C3  UNL d   1      -1.449  -0.086   0.784  0.00  0.00     0.017 A 
ATOM      5  C4  UNL d   1      -0.996  -1.410   0.839  0.00  0.00     0.017 A 
ATOM      6  C5  UNL d   1       0.360  -1.689   0.644  0.00  0.00     0.034 A 
ATOM      7 Cl   UNL d   1      -2.057  -2.740   1.144  0.00  0.00    -0.070 Cl
ATOM      8 Cl1  UNL d   1      -3.107   0.339   1.015  0.00  0.00    -0.070 Cl
ENDROOT
TORSDOF 0
ENDMDL
