MODEL 1
REMARK minimizedAffinity -4.56141758
REMARK minimizedRMSD -1
REMARK  0 active torsions:
REMARK  status: ('A' for Active; 'I' for Inactive)
ROOT
ATOM      1  C   UNL d   1      -0.406  -2.306   0.821  0.00  0.00     0.020 A 
ATOM      2  C1  UNL d   1       0.846  -1.972   0.308  0.00  0.00     0.020 A 
ATOM      3  C2  UNL d   1       1.169  -0.635   0.068  0.00  0.00     0.034 A 
ATOM      4  C3  UNL d   1       0.237   0.373   0.341  0.00  0.00     0.017 A 
ATOM      5  C4  UNL d   1      -1.020   0.037   0.857  0.00  0.00     0.017 A 
ATOM      6  C5  UNL d   1      -1.337  -1.304   1.095  0.00  0.00     0.034 A 
ATOM      7 Cl   UNL d   1      -2.221   1.226   1.220  0.00  0.00    -0.070 Cl
ATOM      8 Cl1  UNL d   1       0.703   2.006   0.021  0.00  0.00    -0.070 Cl
ENDROOT
TORSDOF 0
ENDMDL
