MODEL 1
REMARK minimizedAffinity -5.62748384
REMARK minimizedRMSD -1
REMARK  0 active torsions:
REMARK  status: ('A' for Active; 'I' for Inactive)
ROOT
ATOM      1  C   UNL d   1      -1.360  -2.325   1.077  0.00  0.00     0.020 A 
ATOM      2  C1  UNL d   1      -1.930  -1.083   0.804  0.00  0.00     0.020 A 
ATOM      3  C2  UNL d   1      -1.137  -0.041   0.319  0.00  0.00     0.034 A 
ATOM      4  C3  UNL d   1       0.232  -0.240   0.106  0.00  0.00     0.017 A 
ATOM      5  C4  UNL d   1       0.804  -1.488   0.380  0.00  0.00     0.017 A 
ATOM      6  C5  UNL d   1       0.005  -2.527   0.866  0.00  0.00     0.034 A 
ATOM      7 Cl   UNL d   1       2.486  -1.809   0.142  0.00  0.00    -0.070 Cl
ATOM      8 Cl1  UNL d   1       1.153   1.092  -0.496  0.00  0.00    -0.070 Cl
ENDROOT
TORSDOF 0
ENDMDL
