MODEL 1
REMARK minimizedAffinity -3.9227643
REMARK minimizedRMSD -1
REMARK  0 active torsions:
REMARK  status: ('A' for Active; 'I' for Inactive)
ROOT
ATOM      1  C   UNL d   1      -1.502  -1.994   1.172  0.00  0.00     0.020 A 
ATOM      2  C1  UNL d   1      -0.285  -2.264   0.548  0.00  0.00     0.020 A 
ATOM      3  C2  UNL d   1       0.487  -1.217   0.041  0.00  0.00     0.034 A 
ATOM      4  C3  UNL d   1       0.043   0.105   0.157  0.00  0.00     0.017 A 
ATOM      5  C4  UNL d   1      -1.179   0.375   0.783  0.00  0.00     0.017 A 
ATOM      6  C5  UNL d   1      -1.949  -0.677   1.289  0.00  0.00     0.034 A 
ATOM      7 Cl   UNL d   1      -1.794   1.981   0.963  0.00  0.00    -0.070 Cl
ATOM      8 Cl1  UNL d   1       1.049   1.351  -0.493  0.00  0.00    -0.070 Cl
ENDROOT
TORSDOF 0
ENDMDL
