MODEL 1
REMARK minimizedAffinity -0.960218668
REMARK minimizedRMSD -1
REMARK  0 active torsions:
REMARK  status: ('A' for Active; 'I' for Inactive)
ROOT
ATOM      1  C   UNL d   1      -0.234  -2.436   1.436  0.00  0.00     0.020 A 
ATOM      2  C1  UNL d   1       0.888  -2.522   0.613  0.00  0.00     0.020 A 
ATOM      3  C2  UNL d   1       1.310  -1.406  -0.112  0.00  0.00     0.034 A 
ATOM      4  C3  UNL d   1       0.610  -0.198  -0.014  0.00  0.00     0.017 A 
ATOM      5  C4  UNL d   1      -0.516  -0.112   0.812  0.00  0.00     0.017 A 
ATOM      6  C5  UNL d   1      -0.934  -1.233   1.536  0.00  0.00     0.034 A 
ATOM      7 Cl   UNL d   1      -1.432   1.344   0.984  0.00  0.00    -0.070 Cl
ATOM      8 Cl1  UNL d   1       1.188   1.143  -0.938  0.00  0.00    -0.070 Cl
ENDROOT
TORSDOF 0
ENDMDL
