MODEL 1
REMARK minimizedAffinity -2.13919377
REMARK minimizedRMSD -1
REMARK  0 active torsions:
REMARK  status: ('A' for Active; 'I' for Inactive)
ROOT
ATOM      1  C   UNL d   1       0.498  -0.819  -1.152  0.00  0.00     0.023 A 
ATOM      2  C1  UNL d   1      -0.740  -0.178  -1.142  0.00  0.00     0.003 A 
ATOM      3  C2  UNL d   1      -1.192   0.454   0.018  0.00  0.00     0.048 A 
ATOM      4  C3  UNL d   1      -0.400   0.441   1.165  0.00  0.00     0.023 A 
ATOM      5  C4  UNL d   1       0.841  -0.198   1.160  0.00  0.00     0.048 A 
ATOM      6  C5  UNL d   1       1.288  -0.829  -0.002  0.00  0.00     0.003 A 
ATOM      7  I   UNL d   1      -1.070   1.381   2.894  0.00  0.00    -0.146 I 
ENDROOT
TORSDOF 0
ENDMDL
