MODEL 1
REMARK minimizedAffinity -2.60127783
REMARK minimizedRMSD -1
REMARK  0 active torsions:
REMARK  status: ('A' for Active; 'I' for Inactive)
ROOT
ATOM      1  C   UNL d   1      -1.136   1.209   2.268  0.00  0.00     0.023 A 
ATOM      2  C1  UNL d   1       0.167   1.591   1.948  0.00  0.00     0.003 A 
ATOM      3  C2  UNL d   1       0.758   1.138   0.767  0.00  0.00     0.048 A 
ATOM      4  C3  UNL d   1       0.040   0.305  -0.091  0.00  0.00     0.023 A 
ATOM      5  C4  UNL d   1      -1.264  -0.078   0.225  0.00  0.00     0.048 A 
ATOM      6  C5  UNL d   1      -1.851   0.376   1.408  0.00  0.00     0.003 A 
ATOM      7  I   UNL d   1       0.918  -0.369  -1.850  0.00  0.00    -0.146 I 
ENDROOT
TORSDOF 0
ENDMDL
