MODEL 1
REMARK minimizedAffinity -4.29147577
REMARK minimizedRMSD -1
REMARK  0 active torsions:
REMARK  status: ('A' for Active; 'I' for Inactive)
ROOT
ATOM      1  C   UNL d   1      -0.940   1.077   2.470  0.00  0.00     0.023 A 
ATOM      2  C1  UNL d   1      -1.862   0.453   1.629  0.00  0.00     0.003 A 
ATOM      3  C2  UNL d   1      -1.463  -0.009   0.373  0.00  0.00     0.048 A 
ATOM      4  C3  UNL d   1      -0.140   0.156  -0.036  0.00  0.00     0.023 A 
ATOM      5  C4  UNL d   1       0.787   0.778   0.802  0.00  0.00     0.048 A 
ATOM      6  C5  UNL d   1       0.383   1.239   2.057  0.00  0.00     0.003 A 
ATOM      7  I   UNL d   1       0.457  -0.531  -1.904  0.00  0.00    -0.146 I 
ENDROOT
TORSDOF 0
ENDMDL
