MODEL 1
REMARK minimizedAffinity -1.47026575
REMARK minimizedRMSD -1
REMARK  0 active torsions:
REMARK  status: ('A' for Active; 'I' for Inactive)
ROOT
ATOM      1  C   UNL d   1      -1.167   0.867   2.056  0.00  0.00     0.023 A 
ATOM      2  C1  UNL d   1      -2.007   0.426   1.034  0.00  0.00     0.003 A 
ATOM      3  C2  UNL d   1      -1.469   0.038  -0.195  0.00  0.00     0.048 A 
ATOM      4  C3  UNL d   1      -0.090   0.093  -0.395  0.00  0.00     0.023 A 
ATOM      5  C4  UNL d   1       0.755   0.533   0.626  0.00  0.00     0.048 A 
ATOM      6  C5  UNL d   1       0.212   0.921   1.853  0.00  0.00     0.003 A 
ATOM      7  I   UNL d   1       0.713  -0.484  -2.223  0.00  0.00    -0.146 I 
ENDROOT
TORSDOF 0
ENDMDL
