MODEL 1
REMARK minimizedAffinity -3.82196999
REMARK minimizedRMSD -1
REMARK  0 active torsions:
REMARK  status: ('A' for Active; 'I' for Inactive)
ROOT
ATOM      1  C   UNL d   1      -1.214   1.524   2.199  0.00  0.00     0.023 A 
ATOM      2  C1  UNL d   1      -2.088   0.962   1.269  0.00  0.00     0.003 A 
ATOM      3  C2  UNL d   1      -1.591   0.416   0.083  0.00  0.00     0.048 A 
ATOM      4  C3  UNL d   1      -0.219   0.435  -0.165  0.00  0.00     0.023 A 
ATOM      5  C4  UNL d   1       0.659   0.996   0.764  0.00  0.00     0.048 A 
ATOM      6  C5  UNL d   1       0.158   1.541   1.947  0.00  0.00     0.003 A 
ATOM      7  I   UNL d   1       0.523  -0.377  -1.928  0.00  0.00    -0.146 I 
ENDROOT
TORSDOF 0
ENDMDL
