MODEL 1
REMARK minimizedAffinity -3.37389064
REMARK minimizedRMSD -1
REMARK  0 active torsions:
REMARK  status: ('A' for Active; 'I' for Inactive)
ROOT
ATOM      1  C   UNL d   1       1.959   1.687  -4.892  0.00  0.00     0.023 A 
ATOM      2  C1  UNL d   1       0.752   1.095  -4.518  0.00  0.00     0.003 A 
ATOM      3  C2  UNL d   1       0.625   0.501  -3.261  0.00  0.00     0.048 A 
ATOM      4  C3  UNL d   1       1.708   0.503  -2.382  0.00  0.00     0.023 A 
ATOM      5  C4  UNL d   1       2.917   1.096  -2.752  0.00  0.00     0.048 A 
ATOM      6  C5  UNL d   1       3.039   1.688  -4.010  0.00  0.00     0.003 A 
ATOM      7  I   UNL d   1       1.521  -0.380  -0.510  0.00  0.00    -0.146 I 
ENDROOT
TORSDOF 0
ENDMDL
