MODEL 1
REMARK minimizedAffinity 4.17175961
REMARK minimizedRMSD -1
REMARK  0 active torsions:
REMARK  status: ('A' for Active; 'I' for Inactive)
ROOT
ATOM      1  C   UNL d   1       2.274   2.252  -4.579  0.00  0.00     0.023 A 
ATOM      2  C1  UNL d   1       1.343   1.240  -4.345  0.00  0.00     0.003 A 
ATOM      3  C2  UNL d   1       1.754  -0.094  -4.310  0.00  0.00     0.048 A 
ATOM      4  C3  UNL d   1       3.097  -0.409  -4.509  0.00  0.00     0.023 A 
ATOM      5  C4  UNL d   1       4.033   0.600  -4.743  0.00  0.00     0.048 A 
ATOM      6  C5  UNL d   1       3.618   1.932  -4.778  0.00  0.00     0.003 A 
ATOM      7  I   UNL d   1       3.711  -2.395  -4.457  0.00  0.00    -0.146 I 
ENDROOT
TORSDOF 0
ENDMDL
