MODEL 1
REMARK minimizedAffinity 1.54417765
REMARK minimizedRMSD -1
REMARK  0 active torsions:
REMARK  status: ('A' for Active; 'I' for Inactive)
ROOT
ATOM      1  C   UNL d   1       0.914   0.927   3.927  0.00  0.00     0.023 A 
ATOM      2  C1  UNL d   1      -0.076  -0.048   3.805  0.00  0.00     0.003 A 
ATOM      3  C2  UNL d   1      -0.337  -0.629   2.563  0.00  0.00     0.048 A 
ATOM      4  C3  UNL d   1       0.396  -0.230   1.446  0.00  0.00     0.023 A 
ATOM      5  C4  UNL d   1       1.388   0.744   1.563  0.00  0.00     0.048 A 
ATOM      6  C5  UNL d   1       1.645   1.323   2.807  0.00  0.00     0.003 A 
ATOM      7  I   UNL d   1       0.010  -1.093  -0.405  0.00  0.00    -0.146 I 
ENDROOT
TORSDOF 0
ENDMDL
