MODEL 1
REMARK minimizedAffinity 0.679309964
REMARK minimizedRMSD -1
REMARK  0 active torsions:
REMARK  status: ('A' for Active; 'I' for Inactive)
ROOT
ATOM      1  C   UNL d   1       1.215  -1.595  -0.662  0.00  0.00     0.023 A 
ATOM      2  C1  UNL d   1       2.552  -1.309  -0.389  0.00  0.00     0.003 A 
ATOM      3  C2  UNL d   1       2.881  -0.329   0.551  0.00  0.00     0.048 A 
ATOM      4  C3  UNL d   1       1.866   0.361   1.214  0.00  0.00     0.023 A 
ATOM      5  C4  UNL d   1       0.526   0.077   0.944  0.00  0.00     0.048 A 
ATOM      6  C5  UNL d   1       0.203  -0.902   0.004  0.00  0.00     0.003 A 
ATOM      7  I   UNL d   1       2.353   1.819   2.612  0.00  0.00    -0.146 I 
ENDROOT
TORSDOF 0
ENDMDL
