MODEL 1
REMARK minimizedAffinity 6.90959835
REMARK minimizedRMSD -1
REMARK  0 active torsions:
REMARK  status: ('A' for Active; 'I' for Inactive)
ROOT
ATOM      1  C   UNL d   1       0.846  -4.974  -5.293  0.00  0.00     0.023 A 
ATOM      2  C1  UNL d   1      -0.087  -5.969  -5.000  0.00  0.00     0.003 A 
ATOM      3  C2  UNL d   1      -1.449  -5.731  -5.194  0.00  0.00     0.048 A 
ATOM      4  C3  UNL d   1      -1.871  -4.495  -5.683  0.00  0.00     0.023 A 
ATOM      5  C4  UNL d   1      -0.942  -3.497  -5.979  0.00  0.00     0.048 A 
ATOM      6  C5  UNL d   1       0.419  -3.739  -5.782  0.00  0.00     0.003 A 
ATOM      7  I   UNL d   1      -3.898  -4.138  -5.974  0.00  0.00    -0.146 I 
ENDROOT
TORSDOF 0
ENDMDL
