MODEL 1
REMARK minimizedAffinity 16.0735226
REMARK minimizedRMSD -1
REMARK  0 active torsions:
REMARK  status: ('A' for Active; 'I' for Inactive)
ROOT
ATOM      1  C   UNL d   1       1.665   1.104  -5.525  0.00  0.00     0.023 A 
ATOM      2  C1  UNL d   1       2.803   1.706  -4.990  0.00  0.00     0.003 A 
ATOM      3  C2  UNL d   1       3.367   1.212  -3.811  0.00  0.00     0.048 A 
ATOM      4  C3  UNL d   1       2.788   0.116  -3.174  0.00  0.00     0.023 A 
ATOM      5  C4  UNL d   1       1.649  -0.491  -3.707  0.00  0.00     0.048 A 
ATOM      6  C5  UNL d   1       1.088   0.007  -4.885  0.00  0.00     0.003 A 
ATOM      7  I   UNL d   1       3.625  -0.621  -1.421  0.00  0.00    -0.146 I 
ENDROOT
TORSDOF 0
ENDMDL
