MODEL 1
REMARK minimizedAffinity 7.02434206
REMARK minimizedRMSD -1
REMARK  0 active torsions:
REMARK  status: ('A' for Active; 'I' for Inactive)
ROOT
ATOM      1  C   UNL d   1       0.629  -4.082  -5.927  0.00  0.00     0.023 A 
ATOM      2  C1  UNL d   1      -0.636  -3.658  -5.518  0.00  0.00     0.003 A 
ATOM      3  C2  UNL d   1      -1.223  -4.208  -4.376  0.00  0.00     0.048 A 
ATOM      4  C3  UNL d   1      -0.538  -5.180  -3.647  0.00  0.00     0.023 A 
ATOM      5  C4  UNL d   1       0.728  -5.606  -4.052  0.00  0.00     0.048 A 
ATOM      6  C5  UNL d   1       1.310  -5.054  -5.195  0.00  0.00     0.003 A 
ATOM      7  I   UNL d   1      -1.409  -5.999  -1.947  0.00  0.00    -0.146 I 
ENDROOT
TORSDOF 0
ENDMDL
