MODEL 1
REMARK minimizedAffinity 4.41896248
REMARK minimizedRMSD -1
REMARK  0 active torsions:
REMARK  status: ('A' for Active; 'I' for Inactive)
ROOT
ATOM      1  C   UNL d   1      -2.302  -0.205   2.507  0.00  0.00     0.023 A 
ATOM      2  C1  UNL d   1      -2.707   1.004   1.941  0.00  0.00     0.003 A 
ATOM      3  C2  UNL d   1      -3.379   1.012   0.717  0.00  0.00     0.048 A 
ATOM      4  C3  UNL d   1      -3.643  -0.192   0.065  0.00  0.00     0.023 A 
ATOM      5  C4  UNL d   1      -3.241  -1.404   0.628  0.00  0.00     0.048 A 
ATOM      6  C5  UNL d   1      -2.569  -1.407   1.852  0.00  0.00     0.003 A 
ATOM      7  I   UNL d   1      -4.643  -0.182  -1.757  0.00  0.00    -0.146 I 
ENDROOT
TORSDOF 0
ENDMDL
