MODEL 1
REMARK minimizedAffinity -1.19018471
REMARK minimizedRMSD -1
REMARK  0 active torsions:
REMARK  status: ('A' for Active; 'I' for Inactive)
ROOT
ATOM      1  C   UNL d   1      -1.226   0.699   2.147  0.00  0.00    -0.002 A 
ATOM      2  C1  UNL d   1      -1.042   1.876   1.436  0.00  0.00     0.010 A 
ATOM      3  C2  UNL d   1      -0.256   1.894   0.283  0.00  0.00     0.041 A 
ATOM      4  C3  UNL d   1       0.347   0.697  -0.150  0.00  0.00    -0.075 A 
ATOM      5  S   UNL d   1       1.351   0.479  -1.535  0.00  0.00     0.015 SA
ATOM      6  C4  UNL d   1       1.558  -1.182  -1.216  0.00  0.00     0.022 A 
ATOM      7  C5  UNL d   1       0.885  -1.578  -0.085  0.00  0.00     0.026 A 
ATOM      8  C6  UNL d   1       0.176  -0.502   0.548  0.00  0.00    -0.082 A 
ATOM      9  C7  UNL d   1      -0.627  -0.487   1.715  0.00  0.00     0.045 A 
ENDROOT
TORSDOF 0
ENDMDL
