MODEL 1
REMARK minimizedAffinity -2.397578
REMARK minimizedRMSD -1
REMARK  0 active torsions:
REMARK  status: ('A' for Active; 'I' for Inactive)
ROOT
ATOM      1  C   UNL d   1      -1.995   2.465   1.885  0.00  0.00    -0.002 A 
ATOM      2  C1  UNL d   1      -1.496   3.277   0.876  0.00  0.00     0.010 A 
ATOM      3  C2  UNL d   1      -0.594   2.772  -0.062  0.00  0.00     0.041 A 
ATOM      4  C3  UNL d   1      -0.199   1.423   0.030  0.00  0.00    -0.075 A 
ATOM      5  S   UNL d   1       0.894   0.587  -1.008  0.00  0.00     0.015 SA
ATOM      6  C4  UNL d   1       0.725  -0.869  -0.138  0.00  0.00     0.022 A 
ATOM      7  C5  UNL d   1      -0.140  -0.738   0.922  0.00  0.00     0.026 A 
ATOM      8  C6  UNL d   1      -0.688   0.585   1.037  0.00  0.00    -0.082 A 
ATOM      9  C7  UNL d   1      -1.600   1.127   1.973  0.00  0.00     0.045 A 
ENDROOT
TORSDOF 0
ENDMDL
