MODEL 1
REMARK minimizedAffinity 0.495707273
REMARK minimizedRMSD -1
REMARK  0 active torsions:
REMARK  status: ('A' for Active; 'I' for Inactive)
ROOT
ATOM      1  C   UNL d   1       0.275   0.463   0.023  0.00  0.00    -0.002 A 
ATOM      2  C1  UNL d   1      -0.625  -0.258   0.795  0.00  0.00     0.010 A 
ATOM      3  C2  UNL d   1      -1.006  -1.549   0.422  0.00  0.00     0.041 A 
ATOM      4  C3  UNL d   1      -0.461  -2.109  -0.750  0.00  0.00    -0.075 A 
ATOM      5  S   UNL d   1      -0.781  -3.672  -1.402  0.00  0.00     0.015 SA
ATOM      6  C4  UNL d   1       0.271  -3.421  -2.719  0.00  0.00     0.022 A 
ATOM      7  C5  UNL d   1       0.860  -2.179  -2.679  0.00  0.00     0.026 A 
ATOM      8  C6  UNL d   1       0.449  -1.403  -1.543  0.00  0.00    -0.082 A 
ATOM      9  C7  UNL d   1       0.814  -0.096  -1.139  0.00  0.00     0.045 A 
ENDROOT
TORSDOF 0
ENDMDL
