MODEL 1
REMARK minimizedAffinity 0.420302242
REMARK minimizedRMSD -1
REMARK  0 active torsions:
REMARK  status: ('A' for Active; 'I' for Inactive)
ROOT
ATOM      1  C   UNL d   1      -1.334   1.452   2.321  0.00  0.00    -0.002 A 
ATOM      2  C1  UNL d   1      -1.130   2.543   1.488  0.00  0.00     0.010 A 
ATOM      3  C2  UNL d   1      -0.461   2.394   0.272  0.00  0.00     0.041 A 
ATOM      4  C3  UNL d   1       0.004   1.116  -0.098  0.00  0.00    -0.075 A 
ATOM      5  S   UNL d   1       0.848   0.695  -1.540  0.00  0.00     0.015 SA
ATOM      6  C4  UNL d   1       0.958  -0.944  -1.086  0.00  0.00     0.022 A 
ATOM      7  C5  UNL d   1       0.370  -1.182   0.134  0.00  0.00     0.026 A 
ATOM      8  C6  UNL d   1      -0.190   0.002   0.723  0.00  0.00    -0.082 A 
ATOM      9  C7  UNL d   1      -0.872   0.186   1.950  0.00  0.00     0.045 A 
ENDROOT
TORSDOF 0
ENDMDL
