MODEL 1
REMARK minimizedAffinity -2.23606849
REMARK minimizedRMSD -1
REMARK  0 active torsions:
REMARK  status: ('A' for Active; 'I' for Inactive)
ROOT
ATOM      1  C   UNL d   1       0.704  -1.345  -2.921  0.00  0.00    -0.002 A 
ATOM      2  C1  UNL d   1       0.365  -0.000  -2.959  0.00  0.00     0.010 A 
ATOM      3  C2  UNL d   1       0.083   0.695  -1.782  0.00  0.00     0.041 A 
ATOM      4  C3  UNL d   1       0.151   0.010  -0.553  0.00  0.00    -0.075 A 
ATOM      5  S   UNL d   1      -0.152   0.658   1.016  0.00  0.00     0.015 SA
ATOM      6  C4  UNL d   1       0.163  -0.835   1.775  0.00  0.00     0.022 A 
ATOM      7  C5  UNL d   1       0.493  -1.815   0.868  0.00  0.00     0.026 A 
ATOM      8  C6  UNL d   1       0.491  -1.344  -0.488  0.00  0.00    -0.082 A 
ATOM      9  C7  UNL d   1       0.770  -2.021  -1.700  0.00  0.00     0.045 A 
ENDROOT
TORSDOF 0
ENDMDL
