MODEL 1
REMARK minimizedAffinity -2.04570818
REMARK minimizedRMSD -1
REMARK  0 active torsions:
REMARK  status: ('A' for Active; 'I' for Inactive)
ROOT
ATOM      1  C   UNL d   1      -1.416   0.099   2.519  0.00  0.00    -0.002 A 
ATOM      2  C1  UNL d   1      -1.011  -0.589   1.384  0.00  0.00     0.010 A 
ATOM      3  C2  UNL d   1      -0.509   0.099   0.277  0.00  0.00     0.041 A 
ATOM      4  C3  UNL d   1      -0.420   1.504   0.332  0.00  0.00    -0.075 A 
ATOM      5  S   UNL d   1       0.163   2.557  -0.903  0.00  0.00     0.015 SA
ATOM      6  C4  UNL d   1      -0.112   3.945   0.047  0.00  0.00     0.022 A 
ATOM      7  C5  UNL d   1      -0.635   3.631   1.279  0.00  0.00     0.026 A 
ATOM      8  C6  UNL d   1      -0.821   2.219   1.464  0.00  0.00    -0.082 A 
ATOM      9  C7  UNL d   1      -1.326   1.493   2.569  0.00  0.00     0.045 A 
ENDROOT
TORSDOF 0
ENDMDL
