MODEL 1
REMARK minimizedAffinity -4.30640459
REMARK minimizedRMSD -1
REMARK  0 active torsions:
REMARK  status: ('A' for Active; 'I' for Inactive)
ROOT
ATOM      1  C   UNL d   1      -0.269   3.561   0.673  0.00  0.00    -0.002 A 
ATOM      2  C1  UNL d   1       0.404   3.385  -0.528  0.00  0.00     0.010 A 
ATOM      3  C2  UNL d   1       0.771   2.108  -0.957  0.00  0.00     0.041 A 
ATOM      4  C3  UNL d   1       0.446   0.999  -0.151  0.00  0.00    -0.075 A 
ATOM      5  S   UNL d   1       0.794  -0.658  -0.474  0.00  0.00     0.015 SA
ATOM      6  C4  UNL d   1       0.057  -1.173   0.974  0.00  0.00     0.022 A 
ATOM      7  C5  UNL d   1      -0.447  -0.119   1.699  0.00  0.00     0.026 A 
ATOM      8  C6  UNL d   1      -0.232   1.150   1.062  0.00  0.00    -0.082 A 
ATOM      9  C7  UNL d   1      -0.590   2.458   1.469  0.00  0.00     0.045 A 
ENDROOT
TORSDOF 0
ENDMDL
