MODEL 1
REMARK minimizedAffinity -1.87388873
REMARK minimizedRMSD -1
REMARK  0 active torsions:
REMARK  status: ('A' for Active; 'I' for Inactive)
ROOT
ATOM      1  C   UNL d   1      -0.154   0.347  -0.213  0.00  0.00    -0.002 A 
ATOM      2  C1  UNL d   1       0.714  -0.272   0.676  0.00  0.00     0.010 A 
ATOM      3  C2  UNL d   1       1.242  -1.533   0.391  0.00  0.00     0.041 A 
ATOM      4  C3  UNL d   1       0.881  -2.167  -0.814  0.00  0.00    -0.075 A 
ATOM      5  S   UNL d   1       1.404  -3.711  -1.373  0.00  0.00     0.015 SA
ATOM      6  C4  UNL d   1       0.489  -3.585  -2.806  0.00  0.00     0.022 A 
ATOM      7  C5  UNL d   1      -0.205  -2.401  -2.872  0.00  0.00     0.026 A 
ATOM      8  C6  UNL d   1       0.010  -1.563  -1.725  0.00  0.00    -0.082 A 
ATOM      9  C7  UNL d   1      -0.509  -0.285  -1.407  0.00  0.00     0.045 A 
ENDROOT
TORSDOF 0
ENDMDL
