MODEL 1
REMARK minimizedAffinity -0.730566919
REMARK minimizedRMSD -1
REMARK  0 active torsions:
REMARK  status: ('A' for Active; 'I' for Inactive)
ROOT
ATOM      1  C   UNL d   1      -0.816  -2.114  -0.748  0.00  0.00    -0.002 A 
ATOM      2  C1  UNL d   1       0.224  -1.538  -1.463  0.00  0.00     0.010 A 
ATOM      3  C2  UNL d   1       0.642  -0.235  -1.184  0.00  0.00     0.041 A 
ATOM      4  C3  UNL d   1      -0.008   0.485  -0.162  0.00  0.00    -0.075 A 
ATOM      5  S   UNL d   1       0.334   2.093   0.356  0.00  0.00     0.015 SA
ATOM      6  C4  UNL d   1      -0.891   2.053   1.539  0.00  0.00     0.022 A 
ATOM      7  C5  UNL d   1      -1.555   0.849   1.553  0.00  0.00     0.026 A 
ATOM      8  C6  UNL d   1      -1.057  -0.075   0.573  0.00  0.00    -0.082 A 
ATOM      9  C7  UNL d   1      -1.458  -1.397   0.265  0.00  0.00     0.045 A 
ENDROOT
TORSDOF 0
ENDMDL
