MODEL 1
REMARK minimizedAffinity -1.99896479
REMARK minimizedRMSD -1
REMARK  0 active torsions:
REMARK  status: ('A' for Active; 'I' for Inactive)
ROOT
ATOM      1  C   UNL d   1      -1.153   1.845   1.872  0.00  0.00    -0.002 A 
ATOM      2  C1  UNL d   1      -1.358   0.488   2.079  0.00  0.00     0.010 A 
ATOM      3  C2  UNL d   1      -0.773  -0.457   1.234  0.00  0.00     0.041 A 
ATOM      4  C3  UNL d   1       0.033  -0.010   0.168  0.00  0.00    -0.075 A 
ATOM      5  S   UNL d   1       0.852  -0.985  -0.995  0.00  0.00     0.015 SA
ATOM      6  C4  UNL d   1       1.496   0.376  -1.793  0.00  0.00     0.022 A 
ATOM      7  C5  UNL d   1       1.105   1.554  -1.201  0.00  0.00     0.026 A 
ATOM      8  C6  UNL d   1       0.255   1.350  -0.061  0.00  0.00    -0.082 A 
ATOM      9  C7  UNL d   1      -0.353   2.283   0.813  0.00  0.00     0.045 A 
ENDROOT
TORSDOF 0
ENDMDL
