MODEL 1
REMARK minimizedAffinity -3.10227823
REMARK minimizedRMSD -1
REMARK  0 active torsions:
REMARK  status: ('A' for Active; 'I' for Inactive)
ROOT
ATOM      1  O1  BZF d   1       1.104   5.952  -3.847  0.00  0.00    -0.204 OA
ATOM      2  C2  BZF d   1       1.500   5.933  -5.170  0.00  0.00     0.174 A 
ATOM      3  C3  BZF d   1       0.430   5.886  -5.990  0.00  0.00    -0.012 A 
ATOM      4  C3A BZF d   1      -0.708   5.968  -5.127  0.00  0.00    -0.107 A 
ATOM      5  C4  BZF d   1      -2.055   5.986  -5.350  0.00  0.00     0.055 A 
ATOM      6  C5  BZF d   1      -2.900   5.999  -4.286  0.00  0.00    -0.016 A 
ATOM      7  C6  BZF d   1      -2.434   5.990  -2.987  0.00  0.00     0.022 A 
ATOM      8  C7  BZF d   1      -1.106   5.978  -2.717  0.00  0.00     0.029 A 
ATOM      9  C7A BZF d   1      -0.249   5.998  -3.790  0.00  0.00     0.058 A 
ENDROOT
TORSDOF 0
ENDMDL
