MODEL 1
REMARK minimizedAffinity 4.75649405
REMARK minimizedRMSD -1
REMARK  0 active torsions:
REMARK  status: ('A' for Active; 'I' for Inactive)
ROOT
ATOM      1  O1  BZF d   1      -3.541   5.973  -4.392  0.00  0.00    -0.204 OA
ATOM      2  C2  BZF d   1      -3.934   5.982  -3.068  0.00  0.00     0.174 A 
ATOM      3  C3  BZF d   1      -2.863   5.935  -2.251  0.00  0.00    -0.012 A 
ATOM      4  C3A BZF d   1      -1.725   5.987  -3.117  0.00  0.00    -0.107 A 
ATOM      5  C4  BZF d   1      -0.377   5.990  -2.898  0.00  0.00     0.055 A 
ATOM      6  C5  BZF d   1       0.465   5.974  -3.964  0.00  0.00    -0.016 A 
ATOM      7  C6  BZF d   1      -0.005   5.949  -5.261  0.00  0.00     0.022 A 
ATOM      8  C7  BZF d   1      -1.334   5.950  -5.528  0.00  0.00     0.029 A 
ATOM      9  C7A BZF d   1      -2.188   6.000  -4.453  0.00  0.00     0.058 A 
ENDROOT
TORSDOF 0
ENDMDL
