MODEL 1
REMARK minimizedAffinity -2.97896457
REMARK minimizedRMSD -1
REMARK  0 active torsions:
REMARK  status: ('A' for Active; 'I' for Inactive)
ROOT
ATOM      1  O1  BZF d   1      -1.767   5.941  -5.997  0.00  0.00    -0.204 OA
ATOM      2  C2  BZF d   1      -0.389   5.933  -5.893  0.00  0.00     0.174 A 
ATOM      3  C3  BZF d   1      -0.007   5.996  -4.601  0.00  0.00    -0.012 A 
ATOM      4  C3A BZF d   1      -1.221   5.952  -3.847  0.00  0.00    -0.107 A 
ATOM      5  C4  BZF d   1      -1.497   5.965  -2.509  0.00  0.00     0.055 A 
ATOM      6  C5  BZF d   1      -2.793   5.986  -2.102  0.00  0.00    -0.016 A 
ATOM      7  C6  BZF d   1      -3.837   6.000  -3.003  0.00  0.00     0.022 A 
ATOM      8  C7  BZF d   1      -3.614   5.983  -4.340  0.00  0.00     0.029 A 
ATOM      9  C7A BZF d   1      -2.305   5.928  -4.754  0.00  0.00     0.058 A 
ENDROOT
TORSDOF 0
ENDMDL
