MODEL 1
REMARK minimizedAffinity 5.03729153
REMARK minimizedRMSD -1
REMARK  0 active torsions:
REMARK  status: ('A' for Active; 'I' for Inactive)
ROOT
ATOM      1  O1  BZF d   1       0.168   1.187   2.223  0.00  0.00    -0.204 OA
ATOM      2  C2  BZF d   1      -0.371  -0.085   2.200  0.00  0.00     0.174 A 
ATOM      3  C3  BZF d   1      -0.570  -0.497   0.931  0.00  0.00    -0.012 A 
ATOM      4  C3A BZF d   1      -0.042   0.547   0.109  0.00  0.00    -0.107 A 
ATOM      5  C4  BZF d   1       0.067   0.715  -1.242  0.00  0.00     0.055 A 
ATOM      6  C5  BZF d   1       0.566   1.883  -1.725  0.00  0.00    -0.016 A 
ATOM      7  C6  BZF d   1       0.961   2.905  -0.887  0.00  0.00     0.022 A 
ATOM      8  C7  BZF d   1       0.877   2.783   0.460  0.00  0.00     0.029 A 
ATOM      9  C7A BZF d   1       0.404   1.592   0.952  0.00  0.00     0.058 A 
ENDROOT
TORSDOF 0
ENDMDL
