MODEL 1
REMARK minimizedAffinity 0.99323678
REMARK minimizedRMSD -1
REMARK  0 active torsions:
REMARK  status: ('A' for Active; 'I' for Inactive)
ROOT
ATOM      1  O1  BZF d   1       0.362   5.956  -5.852  0.00  0.00    -0.204 OA
ATOM      2  C2  BZF d   1       1.697   5.946  -5.496  0.00  0.00     0.174 A 
ATOM      3  C3  BZF d   1       1.835   5.999  -4.156  0.00  0.00    -0.012 A 
ATOM      4  C3A BZF d   1       0.502   5.953  -3.638  0.00  0.00    -0.107 A 
ATOM      5  C4  BZF d   1      -0.015   5.957  -2.374  0.00  0.00     0.055 A 
ATOM      6  C5  BZF d   1      -1.364   5.977  -2.212  0.00  0.00    -0.016 A 
ATOM      7  C6  BZF d   1      -2.225   5.998  -3.290  0.00  0.00     0.022 A 
ATOM      8  C7  BZF d   1      -1.759   5.990  -4.563  0.00  0.00     0.029 A 
ATOM      9  C7A BZF d   1      -0.397   5.936  -4.730  0.00  0.00     0.058 A 
ENDROOT
TORSDOF 0
ENDMDL
