MODEL 1
REMARK minimizedAffinity 3.49448347
REMARK minimizedRMSD -1
REMARK  0 active torsions:
REMARK  status: ('A' for Active; 'I' for Inactive)
ROOT
ATOM      1  O1  BZF d   1       1.691   3.780  -5.123  0.00  0.00    -0.204 OA
ATOM      2  C2  BZF d   1       0.919   4.806  -5.633  0.00  0.00     0.174 A 
ATOM      3  C3  BZF d   1       1.692   5.849  -6.000  0.00  0.00    -0.012 A 
ATOM      4  C3A BZF d   1       3.038   5.414  -5.786  0.00  0.00    -0.107 A 
ATOM      5  C4  BZF d   1       4.256   6.000  -5.979  0.00  0.00     0.055 A 
ATOM      6  C5  BZF d   1       5.378   5.333  -5.600  0.00  0.00    -0.016 A 
ATOM      7  C6  BZF d   1       5.318   4.082  -5.021  0.00  0.00     0.022 A 
ATOM      8  C7  BZF d   1       4.133   3.458  -4.814  0.00  0.00     0.029 A 
ATOM      9  C7A BZF d   1       3.000   4.116  -5.226  0.00  0.00     0.058 A 
ENDROOT
TORSDOF 0
ENDMDL
