MODEL 1
REMARK minimizedAffinity 11.9867134
REMARK minimizedRMSD -1
REMARK  0 active torsions:
REMARK  status: ('A' for Active; 'I' for Inactive)
ROOT
ATOM      1  O1  BZF d   1      -2.626   5.925  -2.891  0.00  0.00    -0.204 OA
ATOM      2  C2  BZF d   1      -1.984   5.949  -1.669  0.00  0.00     0.174 A 
ATOM      3  C3  BZF d   1      -0.645   5.925  -1.831  0.00  0.00    -0.012 A 
ATOM      4  C3A BZF d   1      -0.437   5.978  -3.245  0.00  0.00    -0.107 A 
ATOM      5  C4  BZF d   1       0.681   5.999  -4.029  0.00  0.00     0.055 A 
ATOM      6  C5  BZF d   1       0.540   5.977  -5.381  0.00  0.00    -0.016 A 
ATOM      7  C6  BZF d   1      -0.701   5.928  -5.981  0.00  0.00     0.022 A 
ATOM      8  C7  BZF d   1      -1.839   5.911  -5.245  0.00  0.00     0.029 A 
ATOM      9  C7A BZF d   1      -1.701   5.966  -3.880  0.00  0.00     0.058 A 
ENDROOT
TORSDOF 0
ENDMDL
