MODEL 1
REMARK minimizedAffinity -0.604212701
REMARK minimizedRMSD -1
REMARK  0 active torsions:
REMARK  status: ('A' for Active; 'I' for Inactive)
ROOT
ATOM      1  O1  BZF d   1      -1.017   5.936  -5.849  0.00  0.00    -0.204 OA
ATOM      2  C2  BZF d   1       0.321   5.928  -5.504  0.00  0.00     0.174 A 
ATOM      3  C3  BZF d   1       0.470   5.979  -4.165  0.00  0.00    -0.012 A 
ATOM      4  C3A BZF d   1      -0.859   5.930  -3.636  0.00  0.00    -0.107 A 
ATOM      5  C4  BZF d   1      -1.366   5.931  -2.368  0.00  0.00     0.055 A 
ATOM      6  C5  BZF d   1      -2.713   5.948  -2.195  0.00  0.00    -0.016 A 
ATOM      7  C6  BZF d   1      -3.582   5.970  -3.266  0.00  0.00     0.022 A 
ATOM      8  C7  BZF d   1      -3.127   5.964  -4.543  0.00  0.00     0.029 A 
ATOM      9  C7A BZF d   1      -1.766   5.913  -4.721  0.00  0.00     0.058 A 
ENDROOT
TORSDOF 0
ENDMDL
