MODEL 1
REMARK minimizedAffinity -1.2799542
REMARK minimizedRMSD -1
REMARK  0 active torsions:
REMARK  status: ('A' for Active; 'I' for Inactive)
ROOT
ATOM      1  O1  BZF d   1       0.903  -0.401  -1.540  0.00  0.00    -0.204 OA
ATOM      2  C2  BZF d   1       1.559   0.394  -2.459  0.00  0.00     0.174 A 
ATOM      3  C3  BZF d   1       2.037   1.510  -1.871  0.00  0.00    -0.012 A 
ATOM      4  C3A BZF d   1       1.736   1.361  -0.481  0.00  0.00    -0.107 A 
ATOM      5  C4  BZF d   1       1.972   2.135   0.619  0.00  0.00     0.055 A 
ATOM      6  C5  BZF d   1       1.482   1.739   1.823  0.00  0.00    -0.016 A 
ATOM      7  C6  BZF d   1       0.749   0.579   1.963  0.00  0.00     0.022 A 
ATOM      8  C7  BZF d   1       0.493  -0.225   0.901  0.00  0.00     0.029 A 
ATOM      9  C7A BZF d   1       1.015   0.157  -0.311  0.00  0.00     0.058 A 
ENDROOT
TORSDOF 0
ENDMDL
