MODEL 1
REMARK minimizedAffinity -3.14070201
REMARK minimizedRMSD -1
REMARK  0 active torsions:
REMARK  status: ('A' for Active; 'I' for Inactive)
ROOT
ATOM      1  O1  BZF d   1       2.448   5.954  -5.990  0.00  0.00    -0.204 OA
ATOM      2  C2  BZF d   1       1.496   5.936  -4.988  0.00  0.00     0.174 A 
ATOM      3  C3  BZF d   1       2.081   5.889  -3.774  0.00  0.00    -0.012 A 
ATOM      4  C3A BZF d   1       3.486   5.970  -4.029  0.00  0.00    -0.107 A 
ATOM      5  C4  BZF d   1       4.587   5.987  -3.221  0.00  0.00     0.055 A 
ATOM      6  C5  BZF d   1       5.822   6.000  -3.789  0.00  0.00    -0.016 A 
ATOM      7  C6  BZF d   1       5.992   5.990  -5.158  0.00  0.00     0.022 A 
ATOM      8  C7  BZF d   1       4.930   5.979  -5.999  0.00  0.00     0.029 A 
ATOM      9  C7A BZF d   1       3.681   5.999  -5.429  0.00  0.00     0.058 A 
ENDROOT
TORSDOF 0
ENDMDL
