MODEL 1
REMARK minimizedAffinity -2.68194389
REMARK minimizedRMSD -1
REMARK  0 active torsions:
REMARK  status: ('A' for Active; 'I' for Inactive)
ROOT
ATOM      1  O1  BZF d   1       1.427   4.041  -4.997  0.00  0.00    -0.204 OA
ATOM      2  C2  BZF d   1       0.947   5.050  -5.811  0.00  0.00     0.174 A 
ATOM      3  C3  BZF d   1       1.886   5.999  -6.000  0.00  0.00    -0.012 A 
ATOM      4  C3A BZF d   1       3.055   5.511  -5.334  0.00  0.00    -0.107 A 
ATOM      5  C4  BZF d   1       4.320   6.000  -5.180  0.00  0.00     0.055 A 
ATOM      6  C5  BZF d   1       5.204   5.312  -4.410  0.00  0.00    -0.016 A 
ATOM      7  C6  BZF d   1       4.856   4.138  -3.777  0.00  0.00     0.022 A 
ATOM      8  C7  BZF d   1       3.613   3.611  -3.904  0.00  0.00     0.029 A 
ATOM      9  C7A BZF d   1       2.728   4.286  -4.708  0.00  0.00     0.058 A 
ENDROOT
TORSDOF 0
ENDMDL
