MODEL 1
REMARK minimizedAffinity 0.452149153
REMARK minimizedRMSD -1
REMARK  0 active torsions:
REMARK  status: ('A' for Active; 'I' for Inactive)
ROOT
ATOM      1  O1  BZF d   1       1.810   5.969  -3.707  0.00  0.00    -0.204 OA
ATOM      2  C2  BZF d   1       2.456   5.956  -4.929  0.00  0.00     0.174 A 
ATOM      3  C3  BZF d   1       1.565   5.898  -5.940  0.00  0.00    -0.012 A 
ATOM      4  C3A BZF d   1       0.280   5.967  -5.314  0.00  0.00    -0.107 A 
ATOM      5  C4  BZF d   1      -0.999   5.969  -5.793  0.00  0.00     0.055 A 
ATOM      6  C5  BZF d   1      -2.034   5.972  -4.912  0.00  0.00    -0.016 A 
ATOM      7  C6  BZF d   1      -1.827   5.967  -3.548  0.00  0.00     0.022 A 
ATOM      8  C7  BZF d   1      -0.576   5.969  -3.026  0.00  0.00     0.029 A 
ATOM      9  C7A BZF d   1       0.472   6.000  -3.913  0.00  0.00     0.058 A 
ENDROOT
TORSDOF 0
ENDMDL
