MODEL 1
REMARK minimizedAffinity 19.1167812
REMARK minimizedRMSD -1
REMARK  0 active torsions:
REMARK  status: ('A' for Active; 'I' for Inactive)
ROOT
ATOM      1  O1  BZF d   1      -4.294   0.265   4.886  0.00  0.00    -0.204 OA
ATOM      2  C2  BZF d   1      -5.506   0.473   5.514  0.00  0.00     0.174 A 
ATOM      3  C3  BZF d   1      -6.000  -0.684   5.999  0.00  0.00    -0.012 A 
ATOM      4  C3A BZF d   1      -4.991  -1.664   5.733  0.00  0.00    -0.107 A 
ATOM      5  C4  BZF d   1      -4.889  -3.001   5.992  0.00  0.00     0.055 A 
ATOM      6  C5  BZF d   1      -3.805  -3.681   5.536  0.00  0.00    -0.016 A 
ATOM      7  C6  BZF d   1      -2.808  -3.058   4.814  0.00  0.00     0.022 A 
ATOM      8  C7  BZF d   1      -2.862  -1.733   4.537  0.00  0.00     0.029 A 
ATOM      9  C7A BZF d   1      -3.940  -1.036   5.026  0.00  0.00     0.058 A 
ENDROOT
TORSDOF 0
ENDMDL
