MODEL 1
REMARK minimizedAffinity -1.89623952
REMARK minimizedRMSD -1
REMARK  0 active torsions:
REMARK  status: ('A' for Active; 'I' for Inactive)
ROOT
ATOM      1  O1  BZF d   1      -0.364   5.956  -5.977  0.00  0.00    -0.204 OA
ATOM      2  C2  BZF d   1       0.902   5.946  -5.422  0.00  0.00     0.174 A 
ATOM      3  C3  BZF d   1       0.835   6.000  -4.076  0.00  0.00    -0.012 A 
ATOM      4  C3A BZF d   1      -0.562   5.953  -3.767  0.00  0.00    -0.107 A 
ATOM      5  C4  BZF d   1      -1.265   5.958  -2.596  0.00  0.00     0.055 A 
ATOM      6  C5  BZF d   1      -2.623   5.978  -2.641  0.00  0.00    -0.016 A 
ATOM      7  C6  BZF d   1      -3.309   6.000  -3.838  0.00  0.00     0.022 A 
ATOM      8  C7  BZF d   1      -2.656   5.991  -5.025  0.00  0.00     0.029 A 
ATOM      9  C7A BZF d   1      -1.284   5.937  -4.983  0.00  0.00     0.058 A 
ENDROOT
TORSDOF 0
ENDMDL
