MODEL 1
REMARK minimizedAffinity 0.490713596
REMARK minimizedRMSD -1
REMARK  0 active torsions:
REMARK  status: ('A' for Active; 'I' for Inactive)
ROOT
ATOM      1  O1  BZF d   1      -1.128   5.935  -5.537  0.00  0.00    -0.204 OA
ATOM      2  C2  BZF d   1       0.244   5.931  -5.701  0.00  0.00     0.174 A 
ATOM      3  C3  BZF d   1       0.868   5.997  -4.507  0.00  0.00    -0.012 A 
ATOM      4  C3A BZF d   1      -0.178   5.952  -3.532  0.00  0.00    -0.107 A 
ATOM      5  C4  BZF d   1      -0.190   5.967  -2.167  0.00  0.00     0.055 A 
ATOM      6  C5  BZF d   1      -1.384   5.985  -1.517  0.00  0.00    -0.016 A 
ATOM      7  C6  BZF d   1      -2.582   5.994  -2.201  0.00  0.00     0.022 A 
ATOM      8  C7  BZF d   1      -2.621   5.975  -3.555  0.00  0.00     0.029 A 
ATOM      9  C7A BZF d   1      -1.417   5.923  -4.214  0.00  0.00     0.058 A 
ENDROOT
TORSDOF 0
ENDMDL
