MODEL 1
REMARK minimizedAffinity 2.41834664
REMARK minimizedRMSD -1
REMARK  0 active torsions:
REMARK  status: ('A' for Active; 'I' for Inactive)
ROOT
ATOM      1  O1  BZF d   1       0.789  -1.806  -2.369  0.00  0.00    -0.204 OA
ATOM      2  C2  BZF d   1       0.685  -1.448  -1.038  0.00  0.00     0.174 A 
ATOM      3  C3  BZF d   1      -0.603  -1.237  -0.700  0.00  0.00    -0.012 A 
ATOM      4  C3A BZF d   1      -1.359  -1.567  -1.869  0.00  0.00    -0.107 A 
ATOM      5  C4  BZF d   1      -2.695  -1.574  -2.153  0.00  0.00     0.055 A 
ATOM      6  C5  BZF d   1      -3.101  -1.877  -3.414  0.00  0.00    -0.016 A 
ATOM      7  C6  BZF d   1      -2.199  -2.173  -4.415  0.00  0.00     0.022 A 
ATOM      8  C7  BZF d   1      -0.864  -2.184  -4.180  0.00  0.00     0.029 A 
ATOM      9  C7A BZF d   1      -0.453  -1.910  -2.899  0.00  0.00     0.058 A 
ENDROOT
TORSDOF 0
ENDMDL
