MODEL 1
REMARK minimizedAffinity 4.63567305
REMARK minimizedRMSD -1
REMARK  0 active torsions:
REMARK  status: ('A' for Active; 'I' for Inactive)
ROOT
ATOM      1  O1  BZF d   1       3.519   3.909  -5.886  0.00  0.00    -0.204 OA
ATOM      2  C2  BZF d   1       2.274   3.397  -5.580  0.00  0.00     0.174 A 
ATOM      3  C3  BZF d   1       2.187   3.102  -4.267  0.00  0.00    -0.012 A 
ATOM      4  C3A BZF d   1       3.427   3.539  -3.701  0.00  0.00    -0.107 A 
ATOM      5  C4  BZF d   1       3.935   3.532  -2.433  0.00  0.00     0.055 A 
ATOM      6  C5  BZF d   1       5.206   3.964  -2.229  0.00  0.00    -0.016 A 
ATOM      7  C6  BZF d   1       5.999   4.405  -3.268  0.00  0.00     0.022 A 
ATOM      8  C7  BZF d   1       5.538   4.435  -4.542  0.00  0.00     0.029 A 
ATOM      9  C7A BZF d   1       4.242   4.030  -4.747  0.00  0.00     0.058 A 
ENDROOT
TORSDOF 0
ENDMDL
