MODEL 1
REMARK minimizedAffinity 7.7498312
REMARK minimizedRMSD -1
REMARK  0 active torsions:
REMARK  status: ('A' for Active; 'I' for Inactive)
ROOT
ATOM      1  O1  BZF d   1      -4.118   5.953  -1.373  0.00  0.00    -0.204 OA
ATOM      2  C2  BZF d   1      -3.085   5.929  -0.455  0.00  0.00     0.174 A 
ATOM      3  C3  BZF d   1      -1.891   5.878  -1.080  0.00  0.00    -0.012 A 
ATOM      4  C3A BZF d   1      -2.192   5.963  -2.476  0.00  0.00    -0.107 A 
ATOM      5  C4  BZF d   1      -1.422   5.979  -3.603  0.00  0.00     0.055 A 
ATOM      6  C5  BZF d   1      -2.030   5.997  -4.818  0.00  0.00    -0.016 A 
ATOM      7  C6  BZF d   1      -3.404   5.994  -4.943  0.00  0.00     0.022 A 
ATOM      8  C7  BZF d   1      -4.210   5.984  -3.853  0.00  0.00     0.029 A 
ATOM      9  C7A BZF d   1      -3.598   5.999  -2.624  0.00  0.00     0.058 A 
ENDROOT
TORSDOF 0
ENDMDL
