MODEL 1
REMARK minimizedAffinity 5.47360182
REMARK minimizedRMSD -1
REMARK  0 active torsions:
REMARK  status: ('A' for Active; 'I' for Inactive)
ROOT
ATOM      1  C1  BNZ d   1       0.146  -4.171   5.992  0.00  0.00     0.000 A 
ATOM      2  C2  BNZ d   1       1.260  -3.374   6.000  0.00  0.00     0.000 A 
ATOM      3  C3  BNZ d   1       1.515  -2.517   4.966  0.00  0.00     0.000 A 
ATOM      4  C4  BNZ d   1       0.679  -2.487   3.909  0.00  0.00     0.000 A 
ATOM      5  C5  BNZ d   1      -0.444  -3.290   3.881  0.00  0.00     0.000 A 
ATOM      6  C6  BNZ d   1      -0.718  -4.124   4.942  0.00  0.00     0.000 A 
ENDROOT
TORSDOF 0
ENDMDL
