MODEL 1
REMARK minimizedAffinity 0.215784743
REMARK minimizedRMSD -1
REMARK  0 active torsions:
REMARK  status: ('A' for Active; 'I' for Inactive)
ROOT
ATOM      1  C1  BNZ d   1       0.457  -0.151  -0.649  0.00  0.00     0.000 A 
ATOM      2  C2  BNZ d   1       1.741  -0.497  -0.319  0.00  0.00     0.000 A 
ATOM      3  C3  BNZ d   1       2.128  -1.808  -0.292  0.00  0.00     0.000 A 
ATOM      4  C4  BNZ d   1       1.222  -2.772  -0.555  0.00  0.00     0.000 A 
ATOM      5  C5  BNZ d   1      -0.078  -2.440  -0.879  0.00  0.00     0.000 A 
ATOM      6  C6  BNZ d   1      -0.454  -1.118  -0.944  0.00  0.00     0.000 A 
ENDROOT
TORSDOF 0
ENDMDL
