MODEL 1
REMARK minimizedAffinity -1.61650872
REMARK minimizedRMSD -1
REMARK  0 active torsions:
REMARK  status: ('A' for Active; 'I' for Inactive)
ROOT
ATOM      1  C1  BNZ d   1       2.242   1.903   3.599  0.00  0.00     0.000 A 
ATOM      2  C2  BNZ d   1       1.619   1.023   4.444  0.00  0.00     0.000 A 
ATOM      3  C3  BNZ d   1       2.199   0.657   5.626  0.00  0.00     0.000 A 
ATOM      4  C4  BNZ d   1       3.418   1.139   5.944  0.00  0.00     0.000 A 
ATOM      5  C5  BNZ d   1       4.063   2.020   5.099  0.00  0.00     0.000 A 
ATOM      6  C6  BNZ d   1       3.459   2.416   3.928  0.00  0.00     0.000 A 
ENDROOT
TORSDOF 0
ENDMDL
