MODEL 1
REMARK minimizedAffinity 4.54954529
REMARK minimizedRMSD -1
REMARK  0 active torsions:
REMARK  status: ('A' for Active; 'I' for Inactive)
ROOT
ATOM      1  C1  BNZ d   1      -0.726  -2.207  -1.646  0.00  0.00     0.000 A 
ATOM      2  C2  BNZ d   1      -1.130  -2.521  -2.917  0.00  0.00     0.000 A 
ATOM      3  C3  BNZ d   1      -1.722  -3.723  -3.186  0.00  0.00     0.000 A 
ATOM      4  C4  BNZ d   1      -1.874  -4.624  -2.194  0.00  0.00     0.000 A 
ATOM      5  C5  BNZ d   1      -1.464  -4.326  -0.910  0.00  0.00     0.000 A 
ATOM      6  C6  BNZ d   1      -0.903  -3.100  -0.635  0.00  0.00     0.000 A 
ENDROOT
TORSDOF 0
ENDMDL
