MODEL 1
REMARK minimizedAffinity -3.39606833
REMARK minimizedRMSD -1
REMARK  0 active torsions:
REMARK  status: ('A' for Active; 'I' for Inactive)
ROOT
ATOM      1  C1  BNZ d   1      -1.152   0.162  -2.121  0.00  0.00     0.000 A 
ATOM      2  C2  BNZ d   1      -0.396   0.876  -1.230  0.00  0.00     0.000 A 
ATOM      3  C3  BNZ d   1       0.487   0.245  -0.398  0.00  0.00     0.000 A 
ATOM      4  C4  BNZ d   1       0.583  -1.099  -0.430  0.00  0.00     0.000 A 
ATOM      5  C5  BNZ d   1      -0.180  -1.834  -1.316  0.00  0.00     0.000 A 
ATOM      6  C6  BNZ d   1      -1.039  -1.192  -2.179  0.00  0.00     0.000 A 
ENDROOT
TORSDOF 0
ENDMDL
