MODEL 1
REMARK minimizedAffinity 6.86321735
REMARK minimizedRMSD -1
REMARK  0 active torsions:
REMARK  status: ('A' for Active; 'I' for Inactive)
ROOT
ATOM      1  C1  BNZ d   1       3.287  -2.445   0.576  0.00  0.00     0.000 A 
ATOM      2  C2  BNZ d   1       3.735  -1.155   0.474  0.00  0.00     0.000 A 
ATOM      3  C3  BNZ d   1       3.529  -0.431  -0.667  0.00  0.00     0.000 A 
ATOM      4  C4  BNZ d   1       2.912  -1.009  -1.717  0.00  0.00     0.000 A 
ATOM      5  C5  BNZ d   1       2.462  -2.312  -1.633  0.00  0.00     0.000 A 
ATOM      6  C6  BNZ d   1       2.636  -3.025  -0.469  0.00  0.00     0.000 A 
ENDROOT
TORSDOF 0
ENDMDL
