MODEL 1
REMARK minimizedAffinity 2.67131972
REMARK minimizedRMSD -1
REMARK  0 active torsions:
REMARK  status: ('A' for Active; 'I' for Inactive)
ROOT
ATOM      1  C1  BNZ d   1       4.318   2.383  -0.738  0.00  0.00     0.000 A 
ATOM      2  C2  BNZ d   1       3.654   1.467  -1.510  0.00  0.00     0.000 A 
ATOM      3  C3  BNZ d   1       2.950   0.447  -0.936  0.00  0.00     0.000 A 
ATOM      4  C4  BNZ d   1       2.943   0.320   0.407  0.00  0.00     0.000 A 
ATOM      5  C5  BNZ d   1       3.615   1.229   1.199  0.00  0.00     0.000 A 
ATOM      6  C6  BNZ d   1       4.290   2.278   0.618  0.00  0.00     0.000 A 
ENDROOT
TORSDOF 0
ENDMDL
