MODEL 1
REMARK minimizedAffinity 5.73901987
REMARK minimizedRMSD -1
REMARK  0 active torsions:
REMARK  status: ('A' for Active; 'I' for Inactive)
ROOT
ATOM      1  C1  BNZ d   1       2.779  -0.097   0.040  0.00  0.00     0.000 A 
ATOM      2  C2  BNZ d   1       2.927   0.034  -1.315  0.00  0.00     0.000 A 
ATOM      3  C3  BNZ d   1       3.395   1.198  -1.858  0.00  0.00     0.000 A 
ATOM      4  C4  BNZ d   1       3.675   2.241  -1.051  0.00  0.00     0.000 A 
ATOM      5  C5  BNZ d   1       3.521   2.127   0.317  0.00  0.00     0.000 A 
ATOM      6  C6  BNZ d   1       3.088   0.941   0.863  0.00  0.00     0.000 A 
ENDROOT
TORSDOF 0
ENDMDL
