MODEL 1
REMARK minimizedAffinity 1.30351138
REMARK minimizedRMSD -1
REMARK  0 active torsions:
REMARK  status: ('A' for Active; 'I' for Inactive)
ROOT
ATOM      1  N1  IND d   1      -0.818   5.660  -5.989  0.00  0.00    -0.196 N 
ATOM      2  C2  IND d   1      -1.723   5.912  -4.997  0.00  0.00     0.054 A 
ATOM      3  C3  IND d   1      -1.214   5.560  -3.795  0.00  0.00    -0.031 A 
ATOM      4  C4  IND d   1       1.121   4.646  -3.213  0.00  0.00     0.051 A 
ATOM      5  C5  IND d   1       2.284   4.215  -3.788  0.00  0.00    -0.031 A 
ATOM      6  C6  IND d   1       2.477   4.247  -5.154  0.00  0.00     0.015 A 
ATOM      7  C7  IND d   1       1.514   4.724  -5.998  0.00  0.00    -0.016 A 
ATOM      8  C8  IND d   1       0.330   5.156  -5.418  0.00  0.00    -0.047 A 
ATOM      9  C9  IND d   1       0.112   5.086  -4.036  0.00  0.00    -0.096 A 
ATOM     10  HN1 IND d   1      -0.944   5.794  -6.829  0.00  0.00     0.298 HD
ENDROOT
TORSDOF 0
ENDMDL
