MODEL 1
REMARK minimizedAffinity 3.41919041
REMARK minimizedRMSD -1
REMARK  0 active torsions:
REMARK  status: ('A' for Active; 'I' for Inactive)
ROOT
ATOM      1  N1  IND d   1      -5.071  -5.943  -5.966  0.00  0.00    -0.196 N 
ATOM      2  C2  IND d   1      -5.995  -5.915  -4.959  0.00  0.00     0.054 A 
ATOM      3  C3  IND d   1      -5.380  -5.904  -3.755  0.00  0.00    -0.031 A 
ATOM      4  C4  IND d   1      -2.866  -5.825  -3.204  0.00  0.00     0.051 A 
ATOM      5  C5  IND d   1      -1.633  -5.873  -3.791  0.00  0.00    -0.031 A 
ATOM      6  C6  IND d   1      -1.479  -5.945  -5.160  0.00  0.00     0.015 A 
ATOM      7  C7  IND d   1      -2.558  -5.961  -5.998  0.00  0.00    -0.016 A 
ATOM      8  C8  IND d   1      -3.812  -5.920  -5.406  0.00  0.00    -0.047 A 
ATOM      9  C9  IND d   1      -3.975  -5.889  -4.015  0.00  0.00    -0.096 A 
ATOM     10  HN1 IND d   1      -5.246  -5.971  -6.807  0.00  0.00     0.298 HD
ENDROOT
TORSDOF 0
ENDMDL
