MODEL 1
REMARK minimizedAffinity 2.17888594
REMARK minimizedRMSD -1
REMARK  0 active torsions:
REMARK  status: ('A' for Active; 'I' for Inactive)
ROOT
ATOM      1  N1  IND d   1      -5.310  -5.999  -3.782  0.00  0.00    -0.196 N 
ATOM      2  C2  IND d   1      -5.998  -5.945  -4.962  0.00  0.00     0.054 A 
ATOM      3  C3  IND d   1      -5.145  -5.782  -5.998  0.00  0.00    -0.031 A 
ATOM      4  C4  IND d   1      -2.572  -5.681  -5.996  0.00  0.00     0.051 A 
ATOM      5  C5  IND d   1      -1.496  -5.651  -5.155  0.00  0.00    -0.031 A 
ATOM      6  C6  IND d   1      -1.639  -5.740  -3.785  0.00  0.00     0.015 A 
ATOM      7  C7  IND d   1      -2.868  -5.875  -3.204  0.00  0.00    -0.016 A 
ATOM      8  C8  IND d   1      -3.964  -5.898  -4.055  0.00  0.00    -0.047 A 
ATOM      9  C9  IND d   1      -3.828  -5.765  -5.443  0.00  0.00    -0.096 A 
ATOM     10  HN1 IND d   1      -5.659  -6.083  -3.001  0.00  0.00     0.298 HD
ENDROOT
TORSDOF 0
ENDMDL
