MODEL 1
REMARK minimizedAffinity 1.50065172
REMARK minimizedRMSD -1
REMARK  0 active torsions:
REMARK  status: ('A' for Active; 'I' for Inactive)
ROOT
ATOM      1  N1  IND d   1      -5.988   1.239  -5.529  0.00  0.00    -0.196 N 
ATOM      2  C2  IND d   1      -5.959  -0.123  -5.641  0.00  0.00     0.054 A 
ATOM      3  C3  IND d   1      -5.921  -0.695  -4.416  0.00  0.00    -0.031 A 
ATOM      4  C4  IND d   1      -6.000   0.410  -2.093  0.00  0.00     0.051 A 
ATOM      5  C5  IND d   1      -5.993   1.632  -1.480  0.00  0.00    -0.031 A 
ATOM      6  C6  IND d   1      -5.987   2.808  -2.200  0.00  0.00     0.015 A 
ATOM      7  C7  IND d   1      -5.999   2.808  -3.566  0.00  0.00    -0.016 A 
ATOM      8  C8  IND d   1      -5.999   1.569  -4.192  0.00  0.00    -0.047 A 
ATOM      9  C9  IND d   1      -5.962   0.371  -3.466  0.00  0.00    -0.096 A 
ATOM     10  HN1 IND d   1      -5.999   1.796  -6.184  0.00  0.00     0.298 HD
ENDROOT
TORSDOF 0
ENDMDL
