MODEL 1
REMARK minimizedAffinity 5.64978075
REMARK minimizedRMSD -1
REMARK  0 active torsions:
REMARK  status: ('A' for Active; 'I' for Inactive)
ROOT
ATOM      1  N1  IND d   1      -4.823   0.620   2.807  0.00  0.00    -0.196 N 
ATOM      2  C2  IND d   1      -4.957   0.144   1.533  0.00  0.00     0.054 A 
ATOM      3  C3  IND d   1      -3.871  -0.581   1.185  0.00  0.00    -0.031 A 
ATOM      4  C4  IND d   1      -1.801  -1.201   2.585  0.00  0.00     0.051 A 
ATOM      5  C5  IND d   1      -1.210  -0.967   3.795  0.00  0.00    -0.031 A 
ATOM      6  C6  IND d   1      -1.806  -0.179   4.758  0.00  0.00     0.015 A 
ATOM      7  C7  IND d   1      -3.027   0.399   4.550  0.00  0.00    -0.016 A 
ATOM      8  C8  IND d   1      -3.627   0.169   3.320  0.00  0.00    -0.047 A 
ATOM      9  C9  IND d   1      -3.007  -0.595   2.323  0.00  0.00    -0.096 A 
ATOM     10  HN1 IND d   1      -5.391   1.118   3.219  0.00  0.00     0.298 HD
ENDROOT
TORSDOF 0
ENDMDL
