MODEL 1
REMARK minimizedAffinity 1.00902247
REMARK minimizedRMSD -1
REMARK  0 active torsions:
REMARK  status: ('A' for Active; 'I' for Inactive)
ROOT
ATOM      1  N1  IND d   1      -1.494   0.031   3.121  0.00  0.00    -0.196 N 
ATOM      2  C2  IND d   1      -1.869  -0.596   1.966  0.00  0.00     0.054 A 
ATOM      3  C3  IND d   1      -3.104  -1.129   2.099  0.00  0.00    -0.031 A 
ATOM      4  C4  IND d   1      -4.732  -1.005   4.090  0.00  0.00     0.051 A 
ATOM      5  C5  IND d   1      -4.822  -0.571   5.383  0.00  0.00    -0.031 A 
ATOM      6  C6  IND d   1      -3.787   0.102   5.999  0.00  0.00     0.015 A 
ATOM      7  C7  IND d   1      -2.623   0.377   5.339  0.00  0.00    -0.016 A 
ATOM      8  C8  IND d   1      -2.525  -0.069   4.029  0.00  0.00    -0.047 A 
ATOM      9  C9  IND d   1      -3.556  -0.789   3.411  0.00  0.00    -0.096 A 
ATOM     10  HN1 IND d   1      -0.740   0.421   3.258  0.00  0.00     0.298 HD
ENDROOT
TORSDOF 0
ENDMDL
