MODEL 1
REMARK minimizedAffinity -0.218099609
REMARK minimizedRMSD -1
REMARK  0 active torsions:
REMARK  status: ('A' for Active; 'I' for Inactive)
ROOT
ATOM      1  N1  IND d   1      -1.920  -0.042   5.064  0.00  0.00    -0.196 N 
ATOM      2  C2  IND d   1      -3.024  -0.179   5.859  0.00  0.00     0.054 A 
ATOM      3  C3  IND d   1      -4.029  -0.766   5.171  0.00  0.00    -0.031 A 
ATOM      4  C4  IND d   1      -4.049  -1.678   2.763  0.00  0.00     0.051 A 
ATOM      5  C5  IND d   1      -3.285  -1.749   1.632  0.00  0.00    -0.031 A 
ATOM      6  C6  IND d   1      -2.000  -1.248   1.587  0.00  0.00     0.015 A 
ATOM      7  C7  IND d   1      -1.425  -0.664   2.680  0.00  0.00    -0.016 A 
ATOM      8  C8  IND d   1      -2.200  -0.583   3.828  0.00  0.00    -0.047 A 
ATOM      9  C9  IND d   1      -3.520  -1.052   3.867  0.00  0.00    -0.096 A 
ATOM     10  HN1 IND d   1      -1.176   0.320   5.297  0.00  0.00     0.298 HD
ENDROOT
TORSDOF 0
ENDMDL
