MODEL 1
REMARK minimizedAffinity 13.3560562
REMARK minimizedRMSD -1
REMARK  0 active torsions:
REMARK  status: ('A' for Active; 'I' for Inactive)
ROOT
ATOM      1  N1  IND d   1       2.030   3.357  -4.475  0.00  0.00    -0.196 N 
ATOM      2  C2  IND d   1       1.947   2.959  -3.170  0.00  0.00     0.054 A 
ATOM      3  C3  IND d   1       0.780   3.371  -2.626  0.00  0.00    -0.031 A 
ATOM      4  C4  IND d   1      -1.184   4.622  -3.722  0.00  0.00     0.051 A 
ATOM      5  C5  IND d   1      -1.558   5.231  -4.887  0.00  0.00    -0.031 A 
ATOM      6  C6  IND d   1      -0.739   5.244  -5.998  0.00  0.00     0.015 A 
ATOM      7  C7  IND d   1       0.484   4.636  -5.988  0.00  0.00    -0.016 A 
ATOM      8  C8  IND d   1       0.870   4.023  -4.805  0.00  0.00    -0.047 A 
ATOM      9  C9  IND d   1       0.061   4.044  -3.661  0.00  0.00    -0.096 A 
ATOM     10  HN1 IND d   1       2.694   3.214  -5.002  0.00  0.00     0.298 HD
ENDROOT
TORSDOF 0
ENDMDL
