MODEL 1
REMARK minimizedAffinity 0.675933242
REMARK minimizedRMSD -1
REMARK  0 active torsions:
REMARK  status: ('A' for Active; 'I' for Inactive)
ROOT
ATOM      1  N1  IND d   1      -5.919   2.373  -3.184  0.00  0.00    -0.196 N 
ATOM      2  C2  IND d   1      -5.939   1.977  -1.876  0.00  0.00     0.054 A 
ATOM      3  C3  IND d   1      -6.000   0.629  -1.794  0.00  0.00    -0.031 A 
ATOM      4  C4  IND d   1      -5.974  -1.127  -3.677  0.00  0.00     0.051 A 
ATOM      5  C5  IND d   1      -5.999  -1.247  -5.038  0.00  0.00    -0.031 A 
ATOM      6  C6  IND d   1      -5.997  -0.145  -5.867  0.00  0.00     0.015 A 
ATOM      7  C7  IND d   1      -5.957   1.125  -5.365  0.00  0.00    -0.016 A 
ATOM      8  C8  IND d   1      -5.938   1.251  -3.983  0.00  0.00    -0.047 A 
ATOM      9  C9  IND d   1      -5.983   0.137  -3.135  0.00  0.00    -0.096 A 
ATOM     10  HN1 IND d   1      -5.899   3.187  -3.461  0.00  0.00     0.298 HD
ENDROOT
TORSDOF 0
ENDMDL
