MODEL 1
REMARK minimizedAffinity 8.14352989
REMARK minimizedRMSD -1
REMARK  0 active torsions:
REMARK  status: ('A' for Active; 'I' for Inactive)
ROOT
ATOM      1  N1  IND d   1      -5.927   0.701  -3.069  0.00  0.00    -0.196 N 
ATOM      2  C2  IND d   1      -5.943   1.555  -4.136  0.00  0.00     0.054 A 
ATOM      3  C3  IND d   1      -5.994   2.838  -3.711  0.00  0.00    -0.031 A 
ATOM      4  C4  IND d   1      -5.956   3.769  -1.311  0.00  0.00     0.051 A 
ATOM      5  C5  IND d   1      -5.982   3.375  -0.003  0.00  0.00    -0.031 A 
ATOM      6  C6  IND d   1      -5.988   2.043   0.358  0.00  0.00     0.015 A 
ATOM      7  C7  IND d   1      -5.957   1.051  -0.580  0.00  0.00    -0.016 A 
ATOM      8  C8  IND d   1      -5.938   1.447  -1.910  0.00  0.00    -0.047 A 
ATOM      9  C9  IND d   1      -5.975   2.796  -2.283  0.00  0.00    -0.096 A 
ATOM     10  HN1 IND d   1      -5.913  -0.158  -3.113  0.00  0.00     0.298 HD
ENDROOT
TORSDOF 0
ENDMDL
