MODEL 1
REMARK minimizedAffinity 3.57022429
REMARK minimizedRMSD -1
REMARK  0 active torsions:
REMARK  status: ('A' for Active; 'I' for Inactive)
ROOT
ATOM      1  N1  IND d   1      -3.180  -0.356   4.319  0.00  0.00    -0.196 N 
ATOM      2  C2  IND d   1      -1.948   0.055   3.893  0.00  0.00     0.054 A 
ATOM      3  C3  IND d   1      -1.649  -0.512   2.702  0.00  0.00    -0.031 A 
ATOM      4  C4  IND d   1      -3.077  -2.062   1.225  0.00  0.00     0.051 A 
ATOM      5  C5  IND d   1      -4.260  -2.746   1.209  0.00  0.00    -0.031 A 
ATOM      6  C6  IND d   1      -5.164  -2.664   2.249  0.00  0.00     0.015 A 
ATOM      7  C7  IND d   1      -4.921  -1.882   3.343  0.00  0.00    -0.016 A 
ATOM      8  C8  IND d   1      -3.717  -1.193   3.366  0.00  0.00    -0.047 A 
ATOM      9  C9  IND d   1      -2.778  -1.306   2.333  0.00  0.00    -0.096 A 
ATOM     10  HN1 IND d   1      -3.556  -0.130   5.058  0.00  0.00     0.298 HD
ENDROOT
TORSDOF 0
ENDMDL
