MODEL 1
REMARK minimizedAffinity 1.42451024
REMARK minimizedRMSD -1
REMARK  0 active torsions:
REMARK  status: ('A' for Active; 'I' for Inactive)
ROOT
ATOM      1  N1  IND d   1      -5.990   1.861  -2.607  0.00  0.00    -0.196 N 
ATOM      2  C2  IND d   1      -5.989   1.357  -1.337  0.00  0.00     0.054 A 
ATOM      3  C3  IND d   1      -6.000   0.005  -1.367  0.00  0.00    -0.031 A 
ATOM      4  C4  IND d   1      -5.919  -1.585  -3.390  0.00  0.00     0.051 A 
ATOM      5  C5  IND d   1      -5.947  -1.593  -4.757  0.00  0.00    -0.031 A 
ATOM      6  C6  IND d   1      -5.989  -0.425  -5.491  0.00  0.00     0.015 A 
ATOM      7  C7  IND d   1      -5.993   0.799  -4.884  0.00  0.00    -0.016 A 
ATOM      8  C8  IND d   1      -5.972   0.810  -3.497  0.00  0.00    -0.047 A 
ATOM      9  C9  IND d   1      -5.972  -0.372  -2.745  0.00  0.00    -0.096 A 
ATOM     10  HN1 IND d   1      -6.001   2.696  -2.815  0.00  0.00     0.298 HD
ENDROOT
TORSDOF 0
ENDMDL
