MODEL 1
REMARK minimizedAffinity 7.01185131
REMARK minimizedRMSD -1
REMARK  0 active torsions:
REMARK  status: ('A' for Active; 'I' for Inactive)
ROOT
ATOM      1  N1  IND d   1      -5.832   0.894  -5.522  0.00  0.00    -0.196 N 
ATOM      2  C2  IND d   1      -5.716  -0.392  -5.968  0.00  0.00     0.054 A 
ATOM      3  C3  IND d   1      -5.668  -1.250  -4.925  0.00  0.00    -0.031 A 
ATOM      4  C4  IND d   1      -5.866  -0.770  -2.403  0.00  0.00     0.051 A 
ATOM      5  C5  IND d   1      -5.948   0.257  -1.505  0.00  0.00    -0.031 A 
ATOM      6  C6  IND d   1      -6.000   1.575  -1.908  0.00  0.00     0.015 A 
ATOM      7  C7  IND d   1      -5.982   1.917  -3.231  0.00  0.00    -0.016 A 
ATOM      8  C8  IND d   1      -5.892   0.877  -4.145  0.00  0.00    -0.047 A 
ATOM      9  C9  IND d   1      -5.796  -0.461  -3.741  0.00  0.00    -0.096 A 
ATOM     10  HN1 IND d   1      -5.862   1.597  -6.017  0.00  0.00     0.298 HD
ENDROOT
TORSDOF 0
ENDMDL
