MODEL 1
REMARK minimizedAffinity 4.1605382
REMARK minimizedRMSD -1
REMARK  0 active torsions:
REMARK  status: ('A' for Active; 'I' for Inactive)
ROOT
ATOM      1  N1  IND d   1       0.853   2.684  -3.715  0.00  0.00    -0.196 N 
ATOM      2  C2  IND d   1       1.949   3.241  -3.116  0.00  0.00     0.054 A 
ATOM      3  C3  IND d   1       2.056   4.546  -3.453  0.00  0.00    -0.031 A 
ATOM      4  C4  IND d   1       0.490   5.999  -4.889  0.00  0.00     0.051 A 
ATOM      5  C5  IND d   1      -0.622   5.926  -5.680  0.00  0.00    -0.031 A 
ATOM      6  C6  IND d   1      -1.315   4.746  -5.858  0.00  0.00     0.015 A 
ATOM      7  C7  IND d   1      -0.926   3.592  -5.240  0.00  0.00    -0.016 A 
ATOM      8  C8  IND d   1       0.207   3.660  -4.441  0.00  0.00    -0.047 A 
ATOM      9  C9  IND d   1       0.938   4.845  -4.291  0.00  0.00    -0.096 A 
ATOM     10  HN1 IND d   1       0.609   1.862  -3.649  0.00  0.00     0.298 HD
ENDROOT
TORSDOF 0
ENDMDL
