MODEL 1
REMARK minimizedAffinity 0.0201417655
REMARK minimizedRMSD -1
REMARK  0 active torsions:
REMARK  status: ('A' for Active; 'I' for Inactive)
ROOT
ATOM      1  N1  IND d   1      -5.999   1.625  -2.891  0.00  0.00    -0.196 N 
ATOM      2  C2  IND d   1      -5.994   1.019  -1.666  0.00  0.00     0.054 A 
ATOM      3  C3  IND d   1      -6.000  -0.326  -1.806  0.00  0.00    -0.031 A 
ATOM      4  C4  IND d   1      -5.914  -1.747  -3.951  0.00  0.00     0.051 A 
ATOM      5  C5  IND d   1      -5.944  -1.644  -5.314  0.00  0.00    -0.031 A 
ATOM      6  C6  IND d   1      -5.991  -0.421  -5.951  0.00  0.00     0.015 A 
ATOM      7  C7  IND d   1      -6.000   0.750  -5.247  0.00  0.00    -0.016 A 
ATOM      8  C8  IND d   1      -5.977   0.648  -3.863  0.00  0.00    -0.047 A 
ATOM      9  C9  IND d   1      -5.972  -0.591  -3.210  0.00  0.00    -0.096 A 
ATOM     10  HN1 IND d   1      -6.013   2.473  -3.032  0.00  0.00     0.298 HD
ENDROOT
TORSDOF 0
ENDMDL
