MODEL 1
REMARK minimizedAffinity 10.773077
REMARK minimizedRMSD -1
REMARK  0 active torsions:
REMARK  status: ('A' for Active; 'I' for Inactive)
ROOT
ATOM      1  C   UNL d   1       2.265  -2.412   0.400  0.00  0.00     0.020 A 
ATOM      2  C1  UNL d   1       1.345  -1.402   0.121  0.00  0.00     0.020 A 
ATOM      3  C2  UNL d   1       0.216  -1.679  -0.653  0.00  0.00     0.034 A 
ATOM      4  C3  UNL d   1       0.004  -2.970  -1.151  0.00  0.00     0.017 A 
ATOM      5  C4  UNL d   1       0.928  -3.983  -0.871  0.00  0.00     0.017 A 
ATOM      6  C5  UNL d   1       2.056  -3.700  -0.095  0.00  0.00     0.034 A 
ATOM      7 Cl   UNL d   1       0.734  -5.600  -1.450  0.00  0.00    -0.070 Cl
ATOM      8 Cl1  UNL d   1      -1.413  -3.241  -2.101  0.00  0.00    -0.070 Cl
ENDROOT
TORSDOF 0
ENDMDL
