MODEL 1
REMARK minimizedAffinity 1.54588544
REMARK minimizedRMSD -1
REMARK  0 active torsions:
REMARK  status: ('A' for Active; 'I' for Inactive)
ROOT
ATOM      1  C   UNL d   1      -5.984   1.271  -1.476  0.00  0.00     0.020 A 
ATOM      2  C1  UNL d   1      -5.968   2.665  -1.435  0.00  0.00     0.020 A 
ATOM      3  C2  UNL d   1      -5.961   3.398  -2.624  0.00  0.00     0.034 A 
ATOM      4  C3  UNL d   1      -5.971   2.737  -3.858  0.00  0.00     0.017 A 
ATOM      5  C4  UNL d   1      -5.987   1.339  -3.898  0.00  0.00     0.017 A 
ATOM      6  C5  UNL d   1      -5.994   0.610  -2.704  0.00  0.00     0.034 A 
ATOM      7 Cl   UNL d   1      -6.000   0.454  -5.382  0.00  0.00    -0.070 Cl
ATOM      8 Cl1  UNL d   1      -5.962   3.707  -5.288  0.00  0.00    -0.070 Cl
ENDROOT
TORSDOF 0
ENDMDL
