MODEL 1
REMARK minimizedAffinity 7.15175152
REMARK minimizedRMSD -1
REMARK  0 active torsions:
REMARK  status: ('A' for Active; 'I' for Inactive)
ROOT
ATOM      1  C   UNL d   1       1.430  -1.593  -0.012  0.00  0.00     0.020 A 
ATOM      2  C1  UNL d   1       2.472  -2.430   0.387  0.00  0.00     0.020 A 
ATOM      3  C2  UNL d   1       2.443  -3.787   0.059  0.00  0.00     0.034 A 
ATOM      4  C3  UNL d   1       1.369  -4.312  -0.669  0.00  0.00     0.017 A 
ATOM      5  C4  UNL d   1       0.324  -3.472  -1.069  0.00  0.00     0.017 A 
ATOM      6  C5  UNL d   1       0.358  -2.113  -0.738  0.00  0.00     0.034 A 
ATOM      7 Cl   UNL d   1      -1.035  -4.047  -1.970  0.00  0.00    -0.070 Cl
ATOM      8 Cl1  UNL d   1       1.398  -5.999  -1.040  0.00  0.00    -0.070 Cl
ENDROOT
TORSDOF 0
ENDMDL
