MODEL 1
REMARK minimizedAffinity 4.1925168
REMARK minimizedRMSD -1
REMARK  0 active torsions:
REMARK  status: ('A' for Active; 'I' for Inactive)
ROOT
ATOM      1  C   UNL d   1      -5.995   4.233  -2.613  0.00  0.00     0.020 A 
ATOM      2  C1  UNL d   1      -5.994   4.126  -4.004  0.00  0.00     0.020 A 
ATOM      3  C2  UNL d   1      -5.995   2.867  -4.607  0.00  0.00     0.034 A 
ATOM      4  C3  UNL d   1      -5.997   1.709  -3.821  0.00  0.00     0.017 A 
ATOM      5  C4  UNL d   1      -5.997   1.817  -2.425  0.00  0.00     0.017 A 
ATOM      6  C5  UNL d   1      -5.996   3.081  -1.826  0.00  0.00     0.034 A 
ATOM      7 Cl   UNL d   1      -6.000   0.434  -1.389  0.00  0.00    -0.070 Cl
ATOM      8 Cl1  UNL d   1      -5.999   0.185  -4.635  0.00  0.00    -0.070 Cl
ENDROOT
TORSDOF 0
ENDMDL
