MODEL 1
REMARK minimizedAffinity 2.59490037
REMARK minimizedRMSD -1
REMARK  0 active torsions:
REMARK  status: ('A' for Active; 'I' for Inactive)
ROOT
ATOM      1  C   UNL d   1      -5.999   0.996  -5.155  0.00  0.00     0.020 A 
ATOM      2  C1  UNL d   1      -5.999   2.261  -5.742  0.00  0.00     0.020 A 
ATOM      3  C2  UNL d   1      -5.998   3.403  -4.938  0.00  0.00     0.034 A 
ATOM      4  C3  UNL d   1      -5.997   3.283  -3.544  0.00  0.00     0.017 A 
ATOM      5  C4  UNL d   1      -5.998   2.013  -2.956  0.00  0.00     0.017 A 
ATOM      6  C5  UNL d   1      -5.999   0.873  -3.765  0.00  0.00     0.034 A 
ATOM      7 Cl   UNL d   1      -5.997   1.785  -1.243  0.00  0.00    -0.070 Cl
ATOM      8 Cl1  UNL d   1      -5.996   4.738  -2.612  0.00  0.00    -0.070 Cl
ENDROOT
TORSDOF 0
ENDMDL
