MODEL 1
REMARK minimizedAffinity 5.12869549
REMARK minimizedRMSD -1
REMARK  0 active torsions:
REMARK  status: ('A' for Active; 'I' for Inactive)
ROOT
ATOM      1  C   UNL d   1      -5.997   0.115   2.397  0.00  0.00     0.020 A 
ATOM      2  C1  UNL d   1      -4.925   0.126   3.289  0.00  0.00     0.020 A 
ATOM      3  C2  UNL d   1      -3.808   0.922   3.028  0.00  0.00     0.034 A 
ATOM      4  C3  UNL d   1      -3.760   1.709   1.872  0.00  0.00     0.017 A 
ATOM      5  C4  UNL d   1      -4.836   1.698   0.977  0.00  0.00     0.017 A 
ATOM      6  C5  UNL d   1      -5.952   0.899   1.244  0.00  0.00     0.034 A 
ATOM      7 Cl   UNL d   1      -4.849   2.643  -0.470  0.00  0.00    -0.070 Cl
ATOM      8 Cl1  UNL d   1      -2.346   2.669   1.612  0.00  0.00    -0.070 Cl
ENDROOT
TORSDOF 0
ENDMDL
