MODEL 1
REMARK minimizedAffinity 0.210561141
REMARK minimizedRMSD -1
REMARK  0 active torsions:
REMARK  status: ('A' for Active; 'I' for Inactive)
ROOT
ATOM      1  C   UNL d   1      -5.987   3.388  -1.655  0.00  0.00     0.020 A 
ATOM      2  C1  UNL d   1      -5.996   1.999  -1.537  0.00  0.00     0.020 A 
ATOM      3  C2  UNL d   1      -5.999   1.201  -2.683  0.00  0.00     0.034 A 
ATOM      4  C3  UNL d   1      -5.993   1.792  -3.952  0.00  0.00     0.017 A 
ATOM      5  C4  UNL d   1      -5.984   3.186  -4.069  0.00  0.00     0.017 A 
ATOM      6  C5  UNL d   1      -5.981   3.980  -2.918  0.00  0.00     0.034 A 
ATOM      7 Cl   UNL d   1      -5.976   3.988  -5.601  0.00  0.00    -0.070 Cl
ATOM      8 Cl1  UNL d   1      -5.998   0.744  -5.326  0.00  0.00    -0.070 Cl
ENDROOT
TORSDOF 0
ENDMDL
