MODEL 1
REMARK minimizedAffinity 6.69421721
REMARK minimizedRMSD -1
REMARK  0 active torsions:
REMARK  status: ('A' for Active; 'I' for Inactive)
ROOT
ATOM      1  C   UNL d   1      -1.234   6.000  -2.178  0.00  0.00     0.020 A 
ATOM      2  C1  UNL d   1      -2.081   4.909  -2.368  0.00  0.00     0.020 A 
ATOM      3  C2  UNL d   1      -1.686   3.637  -1.947  0.00  0.00     0.034 A 
ATOM      4  C3  UNL d   1      -0.441   3.453  -1.335  0.00  0.00     0.017 A 
ATOM      5  C4  UNL d   1       0.409   4.549  -1.146  0.00  0.00     0.017 A 
ATOM      6  C5  UNL d   1       0.008   5.820  -1.569  0.00  0.00     0.034 A 
ATOM      7 Cl   UNL d   1       1.960   4.401  -0.398  0.00  0.00    -0.070 Cl
ATOM      8 Cl1  UNL d   1      -0.017   1.853  -0.839  0.00  0.00    -0.070 Cl
ENDROOT
TORSDOF 0
ENDMDL
