MODEL 1
REMARK minimizedAffinity 0.370954722
REMARK minimizedRMSD -1
REMARK  0 active torsions:
REMARK  status: ('A' for Active; 'I' for Inactive)
ROOT
ATOM      1  C   UNL d   1       5.482  -3.751  -0.758  0.00  0.00     0.020 A 
ATOM      2  C1  UNL d   1       4.992  -5.056  -0.779  0.00  0.00     0.020 A 
ATOM      3  C2  UNL d   1       3.619  -5.289  -0.675  0.00  0.00     0.034 A 
ATOM      4  C3  UNL d   1       2.731  -4.214  -0.548  0.00  0.00     0.017 A 
ATOM      5  C4  UNL d   1       3.223  -2.904  -0.527  0.00  0.00     0.017 A 
ATOM      6  C5  UNL d   1       4.599  -2.677  -0.632  0.00  0.00     0.034 A 
ATOM      7 Cl   UNL d   1       2.189  -1.528  -0.374  0.00  0.00    -0.070 Cl
ATOM      8 Cl1  UNL d   1       1.046  -4.575  -0.424  0.00  0.00    -0.070 Cl
ENDROOT
TORSDOF 0
ENDMDL
