MODEL 1
REMARK minimizedAffinity 9.98001766
REMARK minimizedRMSD -1
REMARK  0 active torsions:
REMARK  status: ('A' for Active; 'I' for Inactive)
ROOT
ATOM      1  C   UNL d   1       5.570   5.942   5.984  0.00  0.00     0.172 C 
ATOM      2  N   UNL d   1       4.990   5.700   4.684  0.00  0.00    -0.070 N 
ATOM      3  C1  UNL d   1       5.636   5.143   3.613  0.00  0.00    -0.004 A 
ATOM      4  C2  UNL d   1       4.743   5.082   2.566  0.00  0.00    -0.047 A 
ATOM      5  C3  UNL d   1       3.518   5.623   3.022  0.00  0.00    -0.047 A 
ATOM      6  C4  UNL d   1       3.699   5.998   4.337  0.00  0.00    -0.004 A 
ENDROOT
TORSDOF 0
ENDMDL
