MODEL 1
REMARK minimizedAffinity 3.47211623
REMARK minimizedRMSD -1
REMARK  0 active torsions:
REMARK  status: ('A' for Active; 'I' for Inactive)
ROOT
ATOM      1  C   UNL d   1      -1.306  -1.880   1.266  0.00  0.00     0.172 C 
ATOM      2  N   UNL d   1      -0.542  -1.018   2.137  0.00  0.00    -0.070 N 
ATOM      3  C1  UNL d   1       0.139   0.105   1.751  0.00  0.00    -0.004 A 
ATOM      4  C2  UNL d   1       0.734   0.644   2.871  0.00  0.00    -0.047 A 
ATOM      5  C3  UNL d   1       0.399  -0.184   3.969  0.00  0.00    -0.047 A 
ATOM      6  C4  UNL d   1      -0.392  -1.205   3.486  0.00  0.00    -0.004 A 
ENDROOT
TORSDOF 0
ENDMDL
