MODEL 1
REMARK minimizedAffinity 12.637413
REMARK minimizedRMSD -1
REMARK  0 active torsions:
REMARK  status: ('A' for Active; 'I' for Inactive)
ROOT
ATOM      1  C   UNL d   1      -1.530  -2.273   2.081  0.00  0.00     0.172 C 
ATOM      2  N   UNL d   1      -0.932  -1.456   3.110  0.00  0.00    -0.070 N 
ATOM      3  C1  UNL d   1      -0.986  -1.701   4.456  0.00  0.00    -0.004 A 
ATOM      4  C2  UNL d   1      -0.295  -0.694   5.096  0.00  0.00    -0.047 A 
ATOM      5  C3  UNL d   1       0.190   0.186   4.100  0.00  0.00    -0.047 A 
ATOM      6  C4  UNL d   1      -0.218  -0.309   2.880  0.00  0.00    -0.004 A 
ENDROOT
TORSDOF 0
ENDMDL
