MODEL 1
REMARK minimizedAffinity 4.89810514
REMARK minimizedRMSD -1
REMARK  0 active torsions:
REMARK  status: ('A' for Active; 'I' for Inactive)
ROOT
ATOM      1  C   UNL d   1       0.621   5.999  -5.988  0.00  0.00     0.172 C 
ATOM      2  N   UNL d   1       1.746   5.447  -5.272  0.00  0.00    -0.070 N 
ATOM      3  C1  UNL d   1       1.731   4.300  -4.524  0.00  0.00    -0.004 A 
ATOM      4  C2  UNL d   1       2.996   4.117  -4.007  0.00  0.00    -0.047 A 
ATOM      5  C3  UNL d   1       3.798   5.191  -4.459  0.00  0.00    -0.047 A 
ATOM      6  C4  UNL d   1       2.999   6.000  -5.240  0.00  0.00    -0.004 A 
ENDROOT
TORSDOF 0
ENDMDL
