MODEL 1
REMARK minimizedAffinity 5.78460026
REMARK minimizedRMSD -1
REMARK  0 active torsions:
REMARK  status: ('A' for Active; 'I' for Inactive)
ROOT
ATOM      1  C   UNL d   1      -1.143  -2.828  -3.325  0.00  0.00     0.172 C 
ATOM      2  N   UNL d   1      -1.581  -2.549  -1.977  0.00  0.00    -0.070 N 
ATOM      3  C1  UNL d   1      -0.786  -2.553  -0.863  0.00  0.00    -0.004 A 
ATOM      4  C2  UNL d   1      -1.577  -2.239   0.221  0.00  0.00    -0.047 A 
ATOM      5  C3  UNL d   1      -2.893  -2.040  -0.259  0.00  0.00    -0.047 A 
ATOM      6  C4  UNL d   1      -2.867  -2.238  -1.623  0.00  0.00    -0.004 A 
ENDROOT
TORSDOF 0
ENDMDL
