MODEL 1
REMARK minimizedAffinity 3.47051334
REMARK minimizedRMSD -1
REMARK  0 active torsions:
REMARK  status: ('A' for Active; 'I' for Inactive)
ROOT
ATOM      1  C   UNL d   1      -1.032  -2.241  -4.396  0.00  0.00     0.172 C 
ATOM      2  N   UNL d   1      -1.800  -2.377  -3.181  0.00  0.00    -0.070 N 
ATOM      3  C1  UNL d   1      -1.587  -1.683  -2.020  0.00  0.00    -0.004 A 
ATOM      4  C2  UNL d   1      -2.526  -2.098  -1.101  0.00  0.00    -0.047 A 
ATOM      5  C3  UNL d   1      -3.331  -3.077  -1.731  0.00  0.00    -0.047 A 
ATOM      6  C4  UNL d   1      -2.859  -3.230  -3.018  0.00  0.00    -0.004 A 
ENDROOT
TORSDOF 0
ENDMDL
