MODEL 1
REMARK minimizedAffinity 5.39307213
REMARK minimizedRMSD -1
REMARK  0 active torsions:
REMARK  status: ('A' for Active; 'I' for Inactive)
ROOT
ATOM      1  C   UNL d   1      -4.287   1.488   3.402  0.00  0.00     0.172 C 
ATOM      2  N   UNL d   1      -2.860   1.611   3.221  0.00  0.00    -0.070 N 
ATOM      3  C1  UNL d   1      -1.942   0.612   3.407  0.00  0.00    -0.004 A 
ATOM      4  C2  UNL d   1      -0.694   1.128   3.134  0.00  0.00    -0.047 A 
ATOM      5  C3  UNL d   1      -0.867   2.485   2.773  0.00  0.00    -0.047 A 
ATOM      6  C4  UNL d   1      -2.218   2.758   2.835  0.00  0.00    -0.004 A 
ENDROOT
TORSDOF 0
ENDMDL
