MODEL 1
REMARK minimizedAffinity 3.77800703
REMARK minimizedRMSD -1
REMARK  0 active torsions:
REMARK  status: ('A' for Active; 'I' for Inactive)
ROOT
ATOM      1  C   UNL d   1       3.949   1.817  -3.340  0.00  0.00     0.172 C 
ATOM      2  N   UNL d   1       4.511   0.653  -3.983  0.00  0.00    -0.070 N 
ATOM      3  C1  UNL d   1       3.797  -0.353  -4.578  0.00  0.00    -0.004 A 
ATOM      4  C2  UNL d   1       4.696  -1.273  -5.072  0.00  0.00    -0.047 A 
ATOM      5  C3  UNL d   1       5.995  -0.805  -4.763  0.00  0.00    -0.047 A 
ATOM      6  C4  UNL d   1       5.851   0.389  -4.088  0.00  0.00    -0.004 A 
ENDROOT
TORSDOF 0
ENDMDL
