MODEL 1
REMARK minimizedAffinity 3.48062778
REMARK minimizedRMSD -1
REMARK  0 active torsions:
REMARK  status: ('A' for Active; 'I' for Inactive)
ROOT
ATOM      1  C   UNL d   1       2.128   0.940   1.979  0.00  0.00     0.172 C 
ATOM      2  N   UNL d   1       3.457   0.390   1.850  0.00  0.00    -0.070 N 
ATOM      3  C1  UNL d   1       3.995  -0.590   2.642  0.00  0.00    -0.004 A 
ATOM      4  C2  UNL d   1       5.277  -0.834   2.198  0.00  0.00    -0.047 A 
ATOM      5  C3  UNL d   1       5.517   0.029   1.103  0.00  0.00    -0.047 A 
ATOM      6  C4  UNL d   1       4.374   0.776   0.909  0.00  0.00    -0.004 A 
ENDROOT
TORSDOF 0
ENDMDL
