MODEL 1
REMARK minimizedAffinity 4.01930761
REMARK minimizedRMSD -1
REMARK  0 active torsions:
REMARK  status: ('A' for Active; 'I' for Inactive)
ROOT
ATOM      1  C   UNL d   1       2.998   1.920   1.126  0.00  0.00     0.172 C 
ATOM      2  N   UNL d   1       4.210   1.321   0.619  0.00  0.00    -0.070 N 
ATOM      3  C1  UNL d   1       4.839   0.224   1.144  0.00  0.00    -0.004 A 
ATOM      4  C2  UNL d   1       5.955  -0.030   0.377  0.00  0.00    -0.047 A 
ATOM      5  C3  UNL d   1       5.999   0.949  -0.644  0.00  0.00    -0.047 A 
ATOM      6  C4  UNL d   1       4.907   1.772  -0.471  0.00  0.00    -0.004 A 
ENDROOT
TORSDOF 0
ENDMDL
