MODEL 1
REMARK minimizedAffinity 6.41471958
REMARK minimizedRMSD -1
REMARK  0 active torsions:
REMARK  status: ('A' for Active; 'I' for Inactive)
ROOT
ATOM      1  C   UNL d   1       3.374   2.459  -4.802  0.00  0.00     0.172 C 
ATOM      2  N   UNL d   1       3.235   3.887  -4.965  0.00  0.00    -0.070 N 
ATOM      3  C1  UNL d   1       3.748   4.627  -5.997  0.00  0.00    -0.004 A 
ATOM      4  C2  UNL d   1       3.398   5.943  -5.787  0.00  0.00    -0.047 A 
ATOM      5  C3  UNL d   1       2.650   5.997  -4.587  0.00  0.00    -0.047 A 
ATOM      6  C4  UNL d   1       2.564   4.710  -4.099  0.00  0.00    -0.004 A 
ENDROOT
TORSDOF 0
ENDMDL
