MODEL 1
REMARK minimizedAffinity 9.37745953
REMARK minimizedRMSD -1
REMARK  0 active torsions:
REMARK  status: ('A' for Active; 'I' for Inactive)
ROOT
ATOM      1  C   UNL d   1      -1.885  -1.854  -2.626  0.00  0.00     0.172 C 
ATOM      2  N   UNL d   1      -1.259  -2.278  -3.856  0.00  0.00    -0.070 N 
ATOM      3  C1  UNL d   1      -1.485  -1.739  -5.094  0.00  0.00    -0.004 A 
ATOM      4  C2  UNL d   1      -0.698  -2.417  -6.000  0.00  0.00    -0.047 A 
ATOM      5  C3  UNL d   1       0.025  -3.398  -5.281  0.00  0.00    -0.047 A 
ATOM      6  C4  UNL d   1      -0.341  -3.290  -3.956  0.00  0.00    -0.004 A 
ENDROOT
TORSDOF 0
ENDMDL
