MODEL 1
REMARK minimizedAffinity 9.23374939
REMARK minimizedRMSD -1
REMARK  0 active torsions:
REMARK  status: ('A' for Active; 'I' for Inactive)
ROOT
ATOM      1  C   UNL d   1       4.334   6.000  -5.992  0.00  0.00     0.172 C 
ATOM      2  N   UNL d   1       3.045   5.531  -5.542  0.00  0.00    -0.070 N 
ATOM      3  C1  UNL d   1       2.833   4.557  -4.603  0.00  0.00    -0.004 A 
ATOM      4  C2  UNL d   1       1.472   4.402  -4.456  0.00  0.00    -0.047 A 
ATOM      5  C3  UNL d   1       0.844   5.313  -5.337  0.00  0.00    -0.047 A 
ATOM      6  C4  UNL d   1       1.841   5.999  -5.998  0.00  0.00    -0.004 A 
ENDROOT
TORSDOF 0
ENDMDL
