MODEL 1
REMARK minimizedAffinity 6.94365501
REMARK minimizedRMSD -1
REMARK  0 active torsions:
REMARK  status: ('A' for Active; 'I' for Inactive)
ROOT
ATOM      1  C   UNL d   1       3.005   3.170  -3.213  0.00  0.00     0.172 C 
ATOM      2  N   UNL d   1       2.499   4.107  -4.189  0.00  0.00    -0.070 N 
ATOM      3  C1  UNL d   1       2.620   5.469  -4.125  0.00  0.00    -0.004 A 
ATOM      4  C2  UNL d   1       2.008   6.000  -5.240  0.00  0.00    -0.047 A 
ATOM      5  C3  UNL d   1       1.501   4.919  -6.000  0.00  0.00    -0.047 A 
ATOM      6  C4  UNL d   1       1.819   3.759  -5.326  0.00  0.00    -0.004 A 
ENDROOT
TORSDOF 0
ENDMDL
