MODEL 1
REMARK minimizedAffinity 9.72724915
REMARK minimizedRMSD -1
REMARK  0 active torsions:
REMARK  status: ('A' for Active; 'I' for Inactive)
ROOT
ATOM      1  C   UNL d   1       3.755  -0.279  -5.232  0.00  0.00     0.172 C 
ATOM      2  N   UNL d   1       4.425   0.421  -4.161  0.00  0.00    -0.070 N 
ATOM      3  C1  UNL d   1       5.757   0.736  -4.123  0.00  0.00    -0.004 A 
ATOM      4  C2  UNL d   1       6.000   1.400  -2.940  0.00  0.00    -0.047 A 
ATOM      5  C3  UNL d   1       4.772   1.485  -2.242  0.00  0.00    -0.047 A 
ATOM      6  C4  UNL d   1       3.813   0.871  -3.021  0.00  0.00    -0.004 A 
ENDROOT
TORSDOF 0
ENDMDL
