MODEL 1
REMARK minimizedAffinity -1.6444416
REMARK minimizedRMSD -1
REMARK  0 active torsions:
REMARK  status: ('A' for Active; 'I' for Inactive)
ROOT
ATOM      1  C   UNL d   1       2.199   4.858  -5.797  0.00  0.00     0.172 C 
ATOM      2  N   UNL d   1       3.166   4.339  -4.859  0.00  0.00    -0.070 N 
ATOM      3  C1  UNL d   1       3.910   3.201  -5.027  0.00  0.00    -0.004 A 
ATOM      4  C2  UNL d   1       4.710   3.053  -3.915  0.00  0.00    -0.047 A 
ATOM      5  C3  UNL d   1       4.438   4.139  -3.049  0.00  0.00    -0.047 A 
ATOM      6  C4  UNL d   1       3.479   4.919  -3.658  0.00  0.00    -0.004 A 
ENDROOT
TORSDOF 0
ENDMDL
