MODEL 1
REMARK minimizedAffinity 8.00144863
REMARK minimizedRMSD -1
REMARK  0 active torsions:
REMARK  status: ('A' for Active; 'I' for Inactive)
ROOT
ATOM      1  N1  IND d   1       0.698  -2.601   3.722  0.00  0.00    -0.196 N 
ATOM      2  C2  IND d   1       1.930  -2.009   3.752  0.00  0.00     0.054 A 
ATOM      3  C3  IND d   1       2.783  -2.737   4.508  0.00  0.00    -0.031 A 
ATOM      4  C4  IND d   1       2.399  -4.984   5.704  0.00  0.00     0.051 A 
ATOM      5  C5  IND d   1       1.425  -5.897   5.995  0.00  0.00    -0.031 A 
ATOM      6  C6  IND d   1       0.132  -5.757   5.531  0.00  0.00     0.015 A 
ATOM      7  C7  IND d   1      -0.232  -4.699   4.747  0.00  0.00    -0.016 A 
ATOM      8  C8  IND d   1       0.753  -3.766   4.455  0.00  0.00    -0.047 A 
ATOM      9  C9  IND d   1       2.056  -3.881   4.958  0.00  0.00    -0.096 A 
ATOM     10  HN1 IND d   1       0.005  -2.297   3.314  0.00  0.00     0.298 HD
ENDROOT
TORSDOF 0
ENDMDL
