MODEL 1
REMARK minimizedAffinity 5.49933004
REMARK minimizedRMSD -1
REMARK  0 active torsions:
REMARK  status: ('A' for Active; 'I' for Inactive)
ROOT
ATOM      1  N1  IND d   1       3.006  -5.945  -1.923  0.00  0.00    -0.196 N 
ATOM      2  C2  IND d   1       4.372  -5.951  -1.963  0.00  0.00     0.054 A 
ATOM      3  C3  IND d   1       4.805  -5.992  -3.244  0.00  0.00    -0.031 A 
ATOM      4  C4  IND d   1       3.447  -5.950  -5.431  0.00  0.00     0.051 A 
ATOM      5  C5  IND d   1       2.165  -5.981  -5.903  0.00  0.00    -0.031 A 
ATOM      6  C6  IND d   1       1.076  -6.000  -5.057  0.00  0.00     0.015 A 
ATOM      7  C7  IND d   1       1.229  -5.976  -3.699  0.00  0.00    -0.016 A 
ATOM      8  C8  IND d   1       2.529  -5.951  -3.215  0.00  0.00    -0.047 A 
ATOM      9  C9  IND d   1       3.639  -5.975  -4.069  0.00  0.00    -0.096 A 
ATOM     10  HN1 IND d   1       2.525  -5.938  -1.210  0.00  0.00     0.298 HD
ENDROOT
TORSDOF 0
ENDMDL
