MODEL 1
REMARK minimizedAffinity 9.6286869
REMARK minimizedRMSD -1
REMARK  0 active torsions:
REMARK  status: ('A' for Active; 'I' for Inactive)
ROOT
ATOM      1  N1  IND d   1      -2.688  -0.774  -2.886  0.00  0.00    -0.196 N 
ATOM      2  C2  IND d   1      -3.250   0.463  -3.031  0.00  0.00     0.054 A 
ATOM      3  C3  IND d   1      -4.567   0.420  -2.728  0.00  0.00    -0.031 A 
ATOM      4  C4  IND d   1      -5.985  -1.551  -1.872  0.00  0.00     0.051 A 
ATOM      5  C5  IND d   1      -5.922  -2.892  -1.616  0.00  0.00    -0.031 A 
ATOM      6  C6  IND d   1      -4.753  -3.610  -1.771  0.00  0.00     0.015 A 
ATOM      7  C7  IND d   1      -3.596  -3.008  -2.178  0.00  0.00    -0.016 A 
ATOM      8  C8  IND d   1      -3.658  -1.648  -2.446  0.00  0.00    -0.047 A 
ATOM      9  C9  IND d   1      -4.851  -0.923  -2.332  0.00  0.00    -0.096 A 
ATOM     10  HN1 IND d   1      -1.867  -0.974  -3.043  0.00  0.00     0.298 HD
ENDROOT
TORSDOF 0
ENDMDL
