MODEL 1
REMARK minimizedAffinity 0.804021597
REMARK minimizedRMSD -1
REMARK  0 active torsions:
REMARK  status: ('A' for Active; 'I' for Inactive)
ROOT
ATOM      1  N1  IND d   1       1.116  -2.447   2.930  0.00  0.00    -0.196 N 
ATOM      2  C2  IND d   1       1.473  -1.409   2.115  0.00  0.00     0.054 A 
ATOM      3  C3  IND d   1       2.792  -1.141   2.245  0.00  0.00    -0.031 A 
ATOM      4  C4  IND d   1       4.574  -2.345   3.660  0.00  0.00     0.051 A 
ATOM      5  C5  IND d   1       4.721  -3.329   4.597  0.00  0.00    -0.031 A 
ATOM      6  C6  IND d   1       3.653  -4.087   5.032  0.00  0.00     0.015 A 
ATOM      7  C7  IND d   1       2.395  -3.895   4.537  0.00  0.00    -0.016 A 
ATOM      8  C8  IND d   1       2.240  -2.892   3.591  0.00  0.00    -0.047 A 
ATOM      9  C9  IND d   1       3.312  -2.092   3.176  0.00  0.00    -0.096 A 
ATOM     10  HN1 IND d   1       0.323  -2.769   3.015  0.00  0.00     0.298 HD
ENDROOT
TORSDOF 0
ENDMDL
