MODEL 1
REMARK minimizedAffinity 13.4823999
REMARK minimizedRMSD -1
REMARK  0 active torsions:
REMARK  status: ('A' for Active; 'I' for Inactive)
ROOT
ATOM      1  N1  IND d   1       1.313  -1.972   2.108  0.00  0.00    -0.196 N 
ATOM      2  C2  IND d   1       1.759  -0.694   2.300  0.00  0.00     0.054 A 
ATOM      3  C3  IND d   1       2.797  -0.683   3.166  0.00  0.00    -0.031 A 
ATOM      4  C4  IND d   1       3.994  -2.655   4.309  0.00  0.00     0.051 A 
ATOM      5  C5  IND d   1       3.924  -4.011   4.469  0.00  0.00    -0.031 A 
ATOM      6  C6  IND d   1       2.963  -4.771   3.836  0.00  0.00     0.015 A 
ATOM      7  C7  IND d   1       2.038  -4.204   3.006  0.00  0.00    -0.016 A 
ATOM      8  C8  IND d   1       2.102  -2.827   2.846  0.00  0.00    -0.047 A 
ATOM      9  C9  IND d   1       3.048  -2.044   3.519  0.00  0.00    -0.096 A 
ATOM     10  HN1 IND d   1       0.652  -2.203   1.609  0.00  0.00     0.298 HD
ENDROOT
TORSDOF 0
ENDMDL
