MODEL 1
REMARK minimizedAffinity 6.48574924
REMARK minimizedRMSD -1
REMARK  0 active torsions:
REMARK  status: ('A' for Active; 'I' for Inactive)
ROOT
ATOM      1  N1  IND d   1      -2.845  -0.997  -2.635  0.00  0.00    -0.196 N 
ATOM      2  C2  IND d   1      -3.586  -0.660  -3.734  0.00  0.00     0.054 A 
ATOM      3  C3  IND d   1      -3.934   0.645  -3.684  0.00  0.00    -0.031 A 
ATOM      4  C4  IND d   1      -3.312   2.439  -1.946  0.00  0.00     0.051 A 
ATOM      5  C5  IND d   1      -2.682   2.602  -0.744  0.00  0.00    -0.031 A 
ATOM      6  C6  IND d   1      -2.059   1.552  -0.099  0.00  0.00     0.015 A 
ATOM      7  C7  IND d   1      -2.033   0.298  -0.641  0.00  0.00    -0.016 A 
ATOM      8  C8  IND d   1      -2.678   0.128  -1.858  0.00  0.00    -0.047 A 
ATOM      9  C9  IND d   1      -3.348   1.179  -2.496  0.00  0.00    -0.096 A 
ATOM     10  HN1 IND d   1      -2.536  -1.780  -2.459  0.00  0.00     0.298 HD
ENDROOT
TORSDOF 0
ENDMDL
