MODEL 1
REMARK minimizedAffinity 12.5172586
REMARK minimizedRMSD -1
REMARK  0 active torsions:
REMARK  status: ('A' for Active; 'I' for Inactive)
ROOT
ATOM      1  N1  IND d   1      -3.791   1.873  -2.189  0.00  0.00    -0.196 N 
ATOM      2  C2  IND d   1      -2.595   1.408  -1.716  0.00  0.00     0.054 A 
ATOM      3  C3  IND d   1      -2.417   1.790  -0.431  0.00  0.00    -0.031 A 
ATOM      4  C4  IND d   1      -4.004   3.093   1.122  0.00  0.00     0.051 A 
ATOM      5  C5  IND d   1      -5.196   3.760   1.130  0.00  0.00    -0.031 A 
ATOM      6  C6  IND d   1      -5.999   3.831   0.010  0.00  0.00     0.015 A 
ATOM      7  C7  IND d   1      -5.643   3.225  -1.162  0.00  0.00    -0.016 A 
ATOM      8  C8  IND d   1      -4.429   2.553  -1.175  0.00  0.00    -0.047 A 
ATOM      9  C9  IND d   1      -3.590   2.513  -0.054  0.00  0.00    -0.096 A 
ATOM     10  HN1 IND d   1      -4.094   1.759  -2.986  0.00  0.00     0.298 HD
ENDROOT
TORSDOF 0
ENDMDL
