MODEL 1
REMARK minimizedAffinity 6.57503223
REMARK minimizedRMSD -1
REMARK  0 active torsions:
REMARK  status: ('A' for Active; 'I' for Inactive)
ROOT
ATOM      1  N1  IND d   1       2.095  -0.980   4.162  0.00  0.00    -0.196 N 
ATOM      2  C2  IND d   1       2.484  -0.528   2.932  0.00  0.00     0.054 A 
ATOM      3  C3  IND d   1       2.617  -1.562   2.071  0.00  0.00    -0.031 A 
ATOM      4  C4  IND d   1       2.150  -4.067   2.439  0.00  0.00     0.051 A 
ATOM      5  C5  IND d   1       1.811  -4.968   3.409  0.00  0.00    -0.031 A 
ATOM      6  C6  IND d   1       1.541  -4.578   4.705  0.00  0.00     0.015 A 
ATOM      7  C7  IND d   1       1.589  -3.265   5.078  0.00  0.00    -0.016 A 
ATOM      8  C8  IND d   1       1.940  -2.348   4.098  0.00  0.00    -0.047 A 
ATOM      9  C9  IND d   1       2.257  -2.742   2.791  0.00  0.00    -0.096 A 
ATOM     10  HN1 IND d   1       1.969  -0.493   4.859  0.00  0.00     0.298 HD
ENDROOT
TORSDOF 0
ENDMDL
