MODEL 1
REMARK minimizedAffinity 8.75741768
REMARK minimizedRMSD -1
REMARK  0 active torsions:
REMARK  status: ('A' for Active; 'I' for Inactive)
ROOT
ATOM      1  N1  IND d   1      -0.521  -5.311   4.467  0.00  0.00    -0.196 N 
ATOM      2  C2  IND d   1      -0.223  -5.999   5.611  0.00  0.00     0.054 A 
ATOM      3  C3  IND d   1       1.110  -5.988   5.832  0.00  0.00    -0.031 A 
ATOM      4  C4  IND d   1       2.980  -4.819   4.504  0.00  0.00     0.051 A 
ATOM      5  C5  IND d   1       3.203  -4.101   3.363  0.00  0.00    -0.031 A 
ATOM      6  C6  IND d   1       2.175  -3.740   2.516  0.00  0.00     0.015 A 
ATOM      7  C7  IND d   1       0.879  -4.075   2.785  0.00  0.00    -0.016 A 
ATOM      8  C8  IND d   1       0.649  -4.811   3.940  0.00  0.00    -0.047 A 
ATOM      9  C9  IND d   1       1.693  -5.216   4.781  0.00  0.00    -0.096 A 
ATOM     10  HN1 IND d   1      -1.307  -5.209   4.133  0.00  0.00     0.298 HD
ENDROOT
TORSDOF 0
ENDMDL
