MODEL 1
REMARK minimizedAffinity 6.10745144
REMARK minimizedRMSD -1
REMARK  0 active torsions:
REMARK  status: ('A' for Active; 'I' for Inactive)
ROOT
ATOM      1  N1  IND d   1       0.756  -1.505   2.266  0.00  0.00    -0.196 N 
ATOM      2  C2  IND d   1       1.802  -0.692   1.929  0.00  0.00     0.054 A 
ATOM      3  C3  IND d   1       2.950  -1.151   2.475  0.00  0.00    -0.031 A 
ATOM      4  C4  IND d   1       3.362  -3.274   3.872  0.00  0.00     0.051 A 
ATOM      5  C5  IND d   1       2.708  -4.314   4.469  0.00  0.00    -0.031 A 
ATOM      6  C6  IND d   1       1.342  -4.477   4.358  0.00  0.00     0.015 A 
ATOM      7  C7  IND d   1       0.578  -3.607   3.632  0.00  0.00    -0.016 A 
ATOM      8  C8  IND d   1       1.238  -2.545   3.030  0.00  0.00    -0.047 A 
ATOM      9  C9  IND d   1       2.618  -2.351   3.175  0.00  0.00    -0.096 A 
ATOM     10  HN1 IND d   1      -0.064  -1.388   2.038  0.00  0.00     0.298 HD
ENDROOT
TORSDOF 0
ENDMDL
