MODEL 1
REMARK minimizedAffinity 11.4555273
REMARK minimizedRMSD -1
REMARK  0 active torsions:
REMARK  status: ('A' for Active; 'I' for Inactive)
ROOT
ATOM      1  N1  IND d   1       1.295  -2.542   2.049  0.00  0.00    -0.196 N 
ATOM      2  C2  IND d   1       1.777  -1.308   2.385  0.00  0.00     0.054 A 
ATOM      3  C3  IND d   1       2.747  -1.420   3.320  0.00  0.00    -0.031 A 
ATOM      4  C4  IND d   1       3.773  -3.536   4.367  0.00  0.00     0.051 A 
ATOM      5  C5  IND d   1       3.635  -4.896   4.403  0.00  0.00    -0.031 A 
ATOM      6  C6  IND d   1       2.693  -5.553   3.638  0.00  0.00     0.015 A 
ATOM      7  C7  IND d   1       1.858  -4.874   2.797  0.00  0.00    -0.016 A 
ATOM      8  C8  IND d   1       1.990  -3.493   2.764  0.00  0.00    -0.047 A 
ATOM      9  C9  IND d   1       2.915  -2.817   3.569  0.00  0.00    -0.096 A 
ATOM     10  HN1 IND d   1       0.664  -2.698   1.487  0.00  0.00     0.298 HD
ENDROOT
TORSDOF 0
ENDMDL
