MODEL 1
REMARK minimizedAffinity 8.01503658
REMARK minimizedRMSD -1
REMARK  0 active torsions:
REMARK  status: ('A' for Active; 'I' for Inactive)
ROOT
ATOM      1  N1  IND d   1       1.816  -0.258   4.101  0.00  0.00    -0.196 N 
ATOM      2  C2  IND d   1       1.731  -1.434   3.408  0.00  0.00     0.054 A 
ATOM      3  C3  IND d   1       2.111  -1.252   2.124  0.00  0.00    -0.031 A 
ATOM      4  C4  IND d   1       3.005   0.867   0.968  0.00  0.00     0.051 A 
ATOM      5  C5  IND d   1       3.228   2.199   1.182  0.00  0.00    -0.031 A 
ATOM      6  C6  IND d   1       2.990   2.790   2.405  0.00  0.00     0.015 A 
ATOM      7  C7  IND d   1       2.528   2.067   3.468  0.00  0.00    -0.016 A 
ATOM      8  C8  IND d   1       2.294   0.716   3.253  0.00  0.00    -0.047 A 
ATOM      9  C9  IND d   1       2.494   0.119   2.001  0.00  0.00    -0.096 A 
ATOM     10  HN1 IND d   1       1.607  -0.147   4.927  0.00  0.00     0.298 HD
ENDROOT
TORSDOF 0
ENDMDL
