MODEL 1
REMARK minimizedAffinity -1.93771887
REMARK minimizedRMSD -1
REMARK  0 active torsions:
REMARK  status: ('A' for Active; 'I' for Inactive)
ROOT
ATOM      1  O1  BZF d   1       0.467  -0.143  -1.918  0.00  0.00    -0.204 OA
ATOM      2  C2  BZF d   1       0.797  -1.349  -1.331  0.00  0.00     0.174 A 
ATOM      3  C3  BZF d   1       0.536  -1.325  -0.008  0.00  0.00    -0.012 A 
ATOM      4  C3A BZF d   1      -0.077  -0.054   0.232  0.00  0.00    -0.107 A 
ATOM      5  C4  BZF d   1      -0.575   0.552   1.349  0.00  0.00     0.055 A 
ATOM      6  C5  BZF d   1      -1.039   1.826   1.258  0.00  0.00    -0.016 A 
ATOM      7  C6  BZF d   1      -1.013   2.525   0.069  0.00  0.00     0.022 A 
ATOM      8  C7  BZF d   1      -0.533   1.964  -1.067  0.00  0.00     0.029 A 
ATOM      9  C7A BZF d   1      -0.095   0.665  -0.986  0.00  0.00     0.058 A 
ENDROOT
TORSDOF 0
ENDMDL
