MODEL 1
REMARK minimizedAffinity -3.3586185
REMARK minimizedRMSD -1
REMARK  0 active torsions:
REMARK  status: ('A' for Active; 'I' for Inactive)
ROOT
ATOM      1  O1  BZF d   1      -0.478   0.459   1.534  0.00  0.00    -0.204 OA
ATOM      2  C2  BZF d   1      -1.311   1.560   1.526  0.00  0.00     0.174 A 
ATOM      3  C3  BZF d   1      -1.378   2.102   0.293  0.00  0.00    -0.012 A 
ATOM      4  C3A BZF d   1      -0.606   1.233  -0.541  0.00  0.00    -0.107 A 
ATOM      5  C4  BZF d   1      -0.308   1.232  -1.874  0.00  0.00     0.055 A 
ATOM      6  C5  BZF d   1       0.533   0.283  -2.362  0.00  0.00    -0.016 A 
ATOM      7  C6  BZF d   1       1.097  -0.676  -1.546  0.00  0.00     0.022 A 
ATOM      8  C7  BZF d   1       0.827  -0.719  -0.219  0.00  0.00     0.029 A 
ATOM      9  C7A BZF d   1      -0.048   0.220   0.271  0.00  0.00     0.058 A 
ENDROOT
TORSDOF 0
ENDMDL
