MODEL 1
REMARK minimizedAffinity -4.37517548
REMARK minimizedRMSD -1
REMARK  0 active torsions:
REMARK  status: ('A' for Active; 'I' for Inactive)
ROOT
ATOM      1  O1  BZF d   1       0.164   0.830  -1.009  0.00  0.00    -0.204 OA
ATOM      2  C2  BZF d   1       0.576  -0.444  -1.352  0.00  0.00     0.174 A 
ATOM      3  C3  BZF d   1       0.579  -1.252  -0.273  0.00  0.00    -0.012 A 
ATOM      4  C3A BZF d   1       0.053  -0.457   0.794  0.00  0.00    -0.107 A 
ATOM      5  C4  BZF d   1      -0.205  -0.707   2.112  0.00  0.00     0.055 A 
ATOM      6  C5  BZF d   1      -0.648   0.307   2.902  0.00  0.00    -0.016 A 
ATOM      7  C6  BZF d   1      -0.840   1.581   2.408  0.00  0.00     0.022 A 
ATOM      8  C7  BZF d   1      -0.603   1.875   1.107  0.00  0.00     0.029 A 
ATOM      9  C7A BZF d   1      -0.186   0.845   0.299  0.00  0.00     0.058 A 
ENDROOT
TORSDOF 0
ENDMDL
