MODEL 1
REMARK minimizedAffinity -6.12443924
REMARK minimizedRMSD -1
REMARK  0 active torsions:
REMARK  status: ('A' for Active; 'I' for Inactive)
ROOT
ATOM      1  O1  BZF d   1      -0.321   1.444   2.489  0.00  0.00    -0.204 OA
ATOM      2  C2  BZF d   1      -1.365   1.930   1.724  0.00  0.00     0.174 A 
ATOM      3  C3  BZF d   1      -1.269   1.492   0.452  0.00  0.00    -0.012 A 
ATOM      4  C3A BZF d   1      -0.145   0.608   0.442  0.00  0.00    -0.107 A 
ATOM      5  C4  BZF d   1       0.444  -0.150  -0.530  0.00  0.00     0.055 A 
ATOM      6  C5  BZF d   1       1.573  -0.846  -0.231  0.00  0.00    -0.016 A 
ATOM      7  C6  BZF d   1       2.142  -0.802   1.025  0.00  0.00     0.022 A 
ATOM      8  C7  BZF d   1       1.590  -0.068   2.022  0.00  0.00     0.029 A 
ATOM      9  C7A BZF d   1       0.431   0.609   1.733  0.00  0.00     0.058 A 
ENDROOT
TORSDOF 0
ENDMDL
