MODEL 1
REMARK minimizedAffinity -5.71977186
REMARK minimizedRMSD -1
REMARK  0 active torsions:
REMARK  status: ('A' for Active; 'I' for Inactive)
ROOT
ATOM      1  O1  BZF d   1      -1.350   2.507  -0.281  0.00  0.00    -0.204 OA
ATOM      2  C2  BZF d   1      -1.514   2.738   1.071  0.00  0.00     0.174 A 
ATOM      3  C3  BZF d   1      -0.877   1.798   1.798  0.00  0.00    -0.012 A 
ATOM      4  C3A BZF d   1      -0.200   0.977   0.841  0.00  0.00    -0.107 A 
ATOM      5  C4  BZF d   1       0.614  -0.114   0.949  0.00  0.00     0.055 A 
ATOM      6  C5  BZF d   1       1.052  -0.725  -0.183  0.00  0.00    -0.016 A 
ATOM      7  C6  BZF d   1       0.692  -0.276  -1.437  0.00  0.00     0.022 A 
ATOM      8  C7  BZF d   1      -0.109   0.805  -1.594  0.00  0.00     0.029 A 
ATOM      9  C7A BZF d   1      -0.526   1.445  -0.453  0.00  0.00     0.058 A 
ENDROOT
TORSDOF 0
ENDMDL
