MODEL 1
REMARK minimizedAffinity -1.38311672
REMARK minimizedRMSD -1
REMARK  0 active torsions:
REMARK  status: ('A' for Active; 'I' for Inactive)
ROOT
ATOM      1  O1  BZF d   1      -0.105   1.585   0.844  0.00  0.00    -0.204 OA
ATOM      2  C2  BZF d   1       0.039   1.124   2.139  0.00  0.00     0.174 A 
ATOM      3  C3  BZF d   1       0.392  -0.178   2.146  0.00  0.00    -0.012 A 
ATOM      4  C3A BZF d   1       0.564  -0.528   0.769  0.00  0.00    -0.107 A 
ATOM      5  C4  BZF d   1       0.928  -1.680   0.132  0.00  0.00     0.055 A 
ATOM      6  C5  BZF d   1       0.930  -1.711  -1.226  0.00  0.00    -0.016 A 
ATOM      7  C6  BZF d   1       0.569  -0.613  -1.978  0.00  0.00     0.022 A 
ATOM      8  C7  BZF d   1       0.205   0.553  -1.391  0.00  0.00     0.029 A 
ATOM      9  C7A BZF d   1       0.234   0.598  -0.019  0.00  0.00     0.058 A 
ENDROOT
TORSDOF 0
ENDMDL
