MODEL 1
REMARK minimizedAffinity -4.07240725
REMARK minimizedRMSD -1
REMARK  0 active torsions:
REMARK  status: ('A' for Active; 'I' for Inactive)
ROOT
ATOM      1  O1  BZF d   1      -0.929   2.479   2.092  0.00  0.00    -0.204 OA
ATOM      2  C2  BZF d   1      -1.740   3.108   1.166  0.00  0.00     0.174 A 
ATOM      3  C3  BZF d   1      -1.685   2.477  -0.024  0.00  0.00    -0.012 A 
ATOM      4  C3A BZF d   1      -0.856   1.332   0.194  0.00  0.00    -0.107 A 
ATOM      5  C4  BZF d   1      -0.438   0.309  -0.608  0.00  0.00     0.055 A 
ATOM      6  C5  BZF d   1       0.427  -0.612  -0.107  0.00  0.00    -0.016 A 
ATOM      7  C6  BZF d   1       0.898  -0.537   1.187  0.00  0.00     0.022 A 
ATOM      8  C7  BZF d   1       0.509   0.457   2.022  0.00  0.00     0.029 A 
ATOM      9  C7A BZF d   1      -0.391   1.371   1.529  0.00  0.00     0.058 A 
ENDROOT
TORSDOF 0
ENDMDL
