MODEL 1
REMARK minimizedAffinity 17.4061623
REMARK minimizedRMSD -1
REMARK  0 active torsions:
REMARK  status: ('A' for Active; 'I' for Inactive)
ROOT
ATOM      1  N1  IND d   1      -5.240   6.000   0.684  0.00  0.00    -0.196 N 
ATOM      2  C2  IND d   1      -4.171   5.952   1.535  0.00  0.00     0.054 A 
ATOM      3  C3  IND d   1      -3.091   5.440   0.904  0.00  0.00    -0.031 A 
ATOM      4  C4  IND d   1      -2.823   4.710  -1.551  0.00  0.00     0.051 A 
ATOM      5  C5  IND d   1      -3.532   4.535  -2.706  0.00  0.00    -0.031 A 
ATOM      6  C6  IND d   1      -4.873   4.848  -2.793  0.00  0.00     0.015 A 
ATOM      7  C7  IND d   1      -5.556   5.361  -1.726  0.00  0.00    -0.016 A 
ATOM      8  C8  IND d   1      -4.840   5.534  -0.549  0.00  0.00    -0.047 A 
ATOM      9  C9  IND d   1      -3.490   5.178  -0.443  0.00  0.00    -0.096 A 
ATOM     10  HN1 IND d   1      -6.029   6.275   0.885  0.00  0.00     0.298 HD
ENDROOT
TORSDOF 0
ENDMDL
