MODEL 1
REMARK minimizedAffinity 19.6208305
REMARK minimizedRMSD -1
REMARK  0 active torsions:
REMARK  status: ('A' for Active; 'I' for Inactive)
ROOT
ATOM      1  N1  IND d   1      -2.134  -5.415  -5.858  0.00  0.00    -0.196 N 
ATOM      2  C2  IND d   1      -1.229  -5.462  -4.835  0.00  0.00     0.054 A 
ATOM      3  C3  IND d   1      -1.864  -5.632  -3.653  0.00  0.00    -0.031 A 
ATOM      4  C4  IND d   1      -4.373  -5.957  -3.176  0.00  0.00     0.051 A 
ATOM      5  C5  IND d   1      -5.595  -5.952  -3.788  0.00  0.00    -0.031 A 
ATOM      6  C6  IND d   1      -5.728  -5.768  -5.149  0.00  0.00     0.015 A 
ATOM      7  C7  IND d   1      -4.639  -5.591  -5.954  0.00  0.00    -0.016 A 
ATOM      8  C8  IND d   1      -3.397  -5.588  -5.335  0.00  0.00    -0.047 A 
ATOM      9  C9  IND d   1      -3.258  -5.732  -3.949  0.00  0.00    -0.096 A 
ATOM     10  HN1 IND d   1      -1.946  -5.297  -6.689  0.00  0.00     0.298 HD
ENDROOT
TORSDOF 0
ENDMDL
