MODEL 1
REMARK minimizedAffinity 18.8712597
REMARK minimizedRMSD -1
REMARK  0 active torsions:
REMARK  status: ('A' for Active; 'I' for Inactive)
ROOT
ATOM      1  N1  IND d   1       1.974   4.566  -0.421  0.00  0.00    -0.196 N 
ATOM      2  C2  IND d   1       1.729   5.360  -1.506  0.00  0.00     0.054 A 
ATOM      3  C3  IND d   1       0.571   4.997  -2.102  0.00  0.00    -0.031 A 
ATOM      4  C4  IND d   1      -1.133   3.197  -1.407  0.00  0.00     0.051 A 
ATOM      5  C5  IND d   1      -1.328   2.190  -0.503  0.00  0.00    -0.031 A 
ATOM      6  C6  IND d   1      -0.415   1.920   0.496  0.00  0.00     0.015 A 
ATOM      7  C7  IND d   1       0.727   2.658   0.636  0.00  0.00    -0.016 A 
ATOM      8  C8  IND d   1       0.931   3.676  -0.284  0.00  0.00    -0.047 A 
ATOM      9  C9  IND d   1       0.029   3.928  -1.326  0.00  0.00    -0.096 A 
ATOM     10  HN1 IND d   1       2.664   4.614   0.090  0.00  0.00     0.298 HD
ENDROOT
TORSDOF 0
ENDMDL
