MODEL 1
REMARK minimizedAffinity 13.7589025
REMARK minimizedRMSD -1
REMARK  0 active torsions:
REMARK  status: ('A' for Active; 'I' for Inactive)
ROOT
ATOM      1  N1  IND d   1      -5.068   5.630   0.461  0.00  0.00    -0.196 N 
ATOM      2  C2  IND d   1      -4.377   6.000   1.580  0.00  0.00     0.054 A 
ATOM      3  C3  IND d   1      -3.045   5.939   1.352  0.00  0.00    -0.031 A 
ATOM      4  C4  IND d   1      -1.782   5.356  -0.814  0.00  0.00     0.051 A 
ATOM      5  C5  IND d   1      -1.982   4.916  -2.092  0.00  0.00    -0.031 A 
ATOM      6  C6  IND d   1      -3.247   4.689  -2.596  0.00  0.00     0.015 A 
ATOM      7  C7  IND d   1      -4.364   4.906  -1.840  0.00  0.00    -0.016 A 
ATOM      8  C8  IND d   1      -4.165   5.346  -0.539  0.00  0.00    -0.047 A 
ATOM      9  C9  IND d   1      -2.882   5.537  -0.009  0.00  0.00    -0.096 A 
ATOM     10  HN1 IND d   1      -5.924   5.582   0.393  0.00  0.00     0.298 HD
ENDROOT
TORSDOF 0
ENDMDL
