MODEL 1
REMARK minimizedAffinity 14.9230576
REMARK minimizedRMSD -1
REMARK  0 active torsions:
REMARK  status: ('A' for Active; 'I' for Inactive)
ROOT
ATOM      1  N1  IND d   1      -1.517  -3.727  -4.948  0.00  0.00    -0.196 N 
ATOM      2  C2  IND d   1      -0.857  -4.900  -4.709  0.00  0.00     0.054 A 
ATOM      3  C3  IND d   1      -1.685  -5.952  -4.893  0.00  0.00    -0.031 A 
ATOM      4  C4  IND d   1      -4.134  -5.986  -5.686  0.00  0.00     0.051 A 
ATOM      5  C5  IND d   1      -5.178  -5.160  -5.994  0.00  0.00    -0.031 A 
ATOM      6  C6  IND d   1      -5.052  -3.786  -5.972  0.00  0.00     0.015 A 
ATOM      7  C7  IND d   1      -3.868  -3.185  -5.649  0.00  0.00    -0.016 A 
ATOM      8  C8  IND d   1      -2.808  -4.021  -5.329  0.00  0.00    -0.047 A 
ATOM      9  C9  IND d   1      -2.942  -5.415  -5.309  0.00  0.00    -0.096 A 
ATOM     10  HN1 IND d   1      -1.182  -2.939  -4.873  0.00  0.00     0.298 HD
ENDROOT
TORSDOF 0
ENDMDL
