MODEL 1
REMARK minimizedAffinity 10.7544088
REMARK minimizedRMSD -1
REMARK  0 active torsions:
REMARK  status: ('A' for Active; 'I' for Inactive)
ROOT
ATOM      1  N1  IND d   1       1.549   3.890  -0.883  0.00  0.00    -0.196 N 
ATOM      2  C2  IND d   1       0.426   4.107  -1.632  0.00  0.00     0.054 A 
ATOM      3  C3  IND d   1      -0.631   3.457  -1.094  0.00  0.00    -0.031 A 
ATOM      4  C4  IND d   1      -0.767   2.063   1.065  0.00  0.00     0.051 A 
ATOM      5  C5  IND d   1       0.009   1.551   2.068  0.00  0.00    -0.031 A 
ATOM      6  C6  IND d   1       1.364   1.800   2.141  0.00  0.00     0.015 A 
ATOM      7  C7  IND d   1       1.995   2.583   1.216  0.00  0.00    -0.016 A 
ATOM      8  C8  IND d   1       1.212   3.099   0.193  0.00  0.00    -0.047 A 
ATOM      9  C9  IND d   1      -0.156   2.814   0.090  0.00  0.00    -0.096 A 
ATOM     10  HN1 IND d   1       2.334   4.196  -1.056  0.00  0.00     0.298 HD
ENDROOT
TORSDOF 0
ENDMDL
