MODEL 1
REMARK minimizedAffinity 14.0578089
REMARK minimizedRMSD -1
REMARK  0 active torsions:
REMARK  status: ('A' for Active; 'I' for Inactive)
ROOT
ATOM      1  N1  IND d   1       1.200  -5.011  -1.165  0.00  0.00    -0.196 N 
ATOM      2  C2  IND d   1       0.307  -4.345  -1.957  0.00  0.00     0.054 A 
ATOM      3  C3  IND d   1       0.837  -4.123  -3.181  0.00  0.00    -0.031 A 
ATOM      4  C4  IND d   1       3.114  -4.857  -4.134  0.00  0.00     0.051 A 
ATOM      5  C5  IND d   1       4.288  -5.458  -3.777  0.00  0.00    -0.031 A 
ATOM      6  C6  IND d   1       4.496  -5.954  -2.506  0.00  0.00     0.015 A 
ATOM      7  C7  IND d   1       3.529  -5.876  -1.544  0.00  0.00    -0.016 A 
ATOM      8  C8  IND d   1       2.338  -5.260  -1.901  0.00  0.00    -0.047 A 
ATOM      9  C9  IND d   1       2.137  -4.717  -3.176  0.00  0.00    -0.096 A 
ATOM     10  HN1 IND d   1       1.073  -5.237  -0.345  0.00  0.00     0.298 HD
ENDROOT
TORSDOF 0
ENDMDL
