MODEL 1
REMARK minimizedAffinity 21.4222069
REMARK minimizedRMSD -1
REMARK  0 active torsions:
REMARK  status: ('A' for Active; 'I' for Inactive)
ROOT
ATOM      1  N1  IND d   1       2.274  -4.836  -1.812  0.00  0.00    -0.196 N 
ATOM      2  C2  IND d   1       1.723  -4.538  -3.027  0.00  0.00     0.054 A 
ATOM      3  C3  IND d   1       2.629  -4.727  -4.013  0.00  0.00    -0.031 A 
ATOM      4  C4  IND d   1       5.041  -5.616  -3.870  0.00  0.00     0.051 A 
ATOM      5  C5  IND d   1       6.000  -5.989  -2.971  0.00  0.00    -0.031 A 
ATOM      6  C6  IND d   1       5.760  -5.999  -1.612  0.00  0.00     0.015 A 
ATOM      7  C7  IND d   1       4.544  -5.647  -1.100  0.00  0.00    -0.016 A 
ATOM      8  C8  IND d   1       3.570  -5.261  -2.010  0.00  0.00    -0.047 A 
ATOM      9  C9  IND d   1       3.820  -5.207  -3.387  0.00  0.00    -0.096 A 
ATOM     10  HN1 IND d   1       1.878  -4.770  -1.052  0.00  0.00     0.298 HD
ENDROOT
TORSDOF 0
ENDMDL
