MODEL 1
REMARK minimizedAffinity 11.5130234
REMARK minimizedRMSD -1
REMARK  0 active torsions:
REMARK  status: ('A' for Active; 'I' for Inactive)
ROOT
ATOM      1  N1  IND d   1      -0.063  -4.173  -1.925  0.00  0.00    -0.196 N 
ATOM      2  C2  IND d   1       0.660  -4.794  -0.945  0.00  0.00     0.054 A 
ATOM      3  C3  IND d   1       1.779  -5.347  -1.465  0.00  0.00    -0.031 A 
ATOM      4  C4  IND d   1       2.674  -5.268  -3.877  0.00  0.00     0.051 A 
ATOM      5  C5  IND d   1       2.344  -4.847  -5.135  0.00  0.00    -0.031 A 
ATOM      6  C6  IND d   1       1.173  -4.165  -5.392  0.00  0.00     0.015 A 
ATOM      7  C7  IND d   1       0.289  -3.866  -4.394  0.00  0.00    -0.016 A 
ATOM      8  C8  IND d   1       0.617  -4.297  -3.117  0.00  0.00    -0.047 A 
ATOM      9  C9  IND d   1       1.784  -5.027  -2.857  0.00  0.00    -0.096 A 
ATOM     10  HN1 IND d   1      -0.816  -3.772  -1.816  0.00  0.00     0.298 HD
ENDROOT
TORSDOF 0
ENDMDL
