MODEL 1
REMARK minimizedAffinity 9.79599285
REMARK minimizedRMSD -1
REMARK  0 active torsions:
REMARK  status: ('A' for Active; 'I' for Inactive)
ROOT
ATOM      1  N1  IND d   1       0.158   2.267   1.880  0.00  0.00    -0.196 N 
ATOM      2  C2  IND d   1       0.888   1.668   0.891  0.00  0.00     0.054 A 
ATOM      3  C3  IND d   1       0.217   1.712  -0.282  0.00  0.00    -0.031 A 
ATOM      4  C4  IND d   1      -2.047   2.807  -0.830  0.00  0.00     0.051 A 
ATOM      5  C5  IND d   1      -3.105   3.444  -0.245  0.00  0.00    -0.031 A 
ATOM      6  C6  IND d   1      -3.129   3.730   1.105  0.00  0.00     0.015 A 
ATOM      7  C7  IND d   1      -2.085   3.397   1.922  0.00  0.00    -0.016 A 
ATOM      8  C8  IND d   1      -1.012   2.744   1.332  0.00  0.00    -0.047 A 
ATOM      9  C9  IND d   1      -1.001   2.414  -0.029  0.00  0.00    -0.096 A 
ATOM     10  HN1 IND d   1       0.391   2.334   2.705  0.00  0.00     0.298 HD
ENDROOT
TORSDOF 0
ENDMDL
