MODEL 1
REMARK minimizedAffinity 12.3715525
REMARK minimizedRMSD -1
REMARK  0 active torsions:
REMARK  status: ('A' for Active; 'I' for Inactive)
ROOT
ATOM      1  C   UNL d   1       1.395   2.825   0.338  0.00  0.00     0.020 A 
ATOM      2  C1  UNL d   1       0.353   2.895   1.262  0.00  0.00     0.020 A 
ATOM      3  C2  UNL d   1       0.202   1.891   2.221  0.00  0.00     0.034 A 
ATOM      4  C3  UNL d   1       1.094   0.813   2.259  0.00  0.00     0.017 A 
ATOM      5  C4  UNL d   1       2.140   0.744   1.331  0.00  0.00     0.017 A 
ATOM      6  C5  UNL d   1       2.287   1.752   0.373  0.00  0.00     0.034 A 
ATOM      7 Cl   UNL d   1       3.281  -0.555   1.315  0.00  0.00    -0.070 Cl
ATOM      8 Cl1  UNL d   1       0.848  -0.392   3.472  0.00  0.00    -0.070 Cl
ENDROOT
TORSDOF 0
ENDMDL
