MODEL 1
REMARK minimizedAffinity 13.3539972
REMARK minimizedRMSD -1
REMARK  0 active torsions:
REMARK  status: ('A' for Active; 'I' for Inactive)
ROOT
ATOM      1  C   UNL d   1       4.030   2.649  -3.219  0.00  0.00     0.020 A 
ATOM      2  C1  UNL d   1       5.416   2.800  -3.248  0.00  0.00     0.020 A 
ATOM      3  C2  UNL d   1       5.999   3.729  -4.111  0.00  0.00     0.034 A 
ATOM      4  C3  UNL d   1       5.196   4.512  -4.949  0.00  0.00     0.017 A 
ATOM      5  C4  UNL d   1       3.805   4.360  -4.919  0.00  0.00     0.017 A 
ATOM      6  C5  UNL d   1       3.226   3.427  -4.053  0.00  0.00     0.034 A 
ATOM      7 Cl   UNL d   1       2.750   5.289  -5.924  0.00  0.00    -0.070 Cl
ATOM      8 Cl1  UNL d   1       5.985   5.642  -5.991  0.00  0.00    -0.070 Cl
ENDROOT
TORSDOF 0
ENDMDL
