MODEL 1
REMARK minimizedAffinity 19.3237972
REMARK minimizedRMSD -1
REMARK  0 active torsions:
REMARK  status: ('A' for Active; 'I' for Inactive)
ROOT
ATOM      1  C   UNL d   1       4.126   5.996   0.193  0.00  0.00     0.020 A 
ATOM      2  C1  UNL d   1       4.838   6.000  -1.006  0.00  0.00     0.020 A 
ATOM      3  C2  UNL d   1       4.878   4.850  -1.798  0.00  0.00     0.034 A 
ATOM      4  C3  UNL d   1       4.205   3.692  -1.391  0.00  0.00     0.017 A 
ATOM      5  C4  UNL d   1       3.491   3.689  -0.188  0.00  0.00     0.017 A 
ATOM      6  C5  UNL d   1       3.454   4.843   0.601  0.00  0.00     0.034 A 
ATOM      7 Cl   UNL d   1       2.635   2.299   0.380  0.00  0.00    -0.070 Cl
ATOM      8 Cl1  UNL d   1       4.297   2.307  -2.420  0.00  0.00    -0.070 Cl
ENDROOT
TORSDOF 0
ENDMDL
