MODEL 1
REMARK minimizedAffinity 19.0805721
REMARK minimizedRMSD -1
REMARK  0 active torsions:
REMARK  status: ('A' for Active; 'I' for Inactive)
ROOT
ATOM      1  C   UNL d   1      -1.232  -2.518  -0.514  0.00  0.00     0.020 A 
ATOM      2  C1  UNL d   1      -2.367  -2.975   0.155  0.00  0.00     0.020 A 
ATOM      3  C2  UNL d   1      -3.515  -3.311  -0.567  0.00  0.00     0.034 A 
ATOM      4  C3  UNL d   1      -3.530  -3.189  -1.961  0.00  0.00     0.017 A 
ATOM      5  C4  UNL d   1      -2.390  -2.729  -2.631  0.00  0.00     0.017 A 
ATOM      6  C5  UNL d   1      -1.244  -2.395  -1.904  0.00  0.00     0.034 A 
ATOM      7 Cl   UNL d   1      -2.333  -2.553  -4.350  0.00  0.00    -0.070 Cl
ATOM      8 Cl1  UNL d   1      -4.983  -3.621  -2.790  0.00  0.00    -0.070 Cl
ENDROOT
TORSDOF 0
ENDMDL
