MODEL 1
REMARK minimizedAffinity 6.66014767
REMARK minimizedRMSD -1
REMARK  0 active torsions:
REMARK  status: ('A' for Active; 'I' for Inactive)
ROOT
ATOM      1  C   UNL d   1       3.357   1.814   1.265  0.00  0.00     0.020 A 
ATOM      2  C1  UNL d   1       3.226   0.622   1.977  0.00  0.00     0.020 A 
ATOM      3  C2  UNL d   1       2.372  -0.380   1.509  0.00  0.00     0.034 A 
ATOM      4  C3  UNL d   1       1.647  -0.192   0.327  0.00  0.00     0.017 A 
ATOM      5  C4  UNL d   1       1.780   1.005  -0.387  0.00  0.00     0.017 A 
ATOM      6  C5  UNL d   1       2.636   2.004   0.086  0.00  0.00     0.034 A 
ATOM      7 Cl   UNL d   1       0.918   1.309  -1.853  0.00  0.00    -0.070 Cl
ATOM      8 Cl1  UNL d   1       0.611  -1.473  -0.192  0.00  0.00    -0.070 Cl
ENDROOT
TORSDOF 0
ENDMDL
