MODEL 1
REMARK minimizedAffinity 9.91371727
REMARK minimizedRMSD -1
REMARK  0 active torsions:
REMARK  status: ('A' for Active; 'I' for Inactive)
ROOT
ATOM      1  C   UNL d   1       2.010   0.401   2.174  0.00  0.00     0.020 A 
ATOM      2  C1  UNL d   1       0.942   0.975   2.863  0.00  0.00     0.020 A 
ATOM      3  C2  UNL d   1       0.474   2.238   2.496  0.00  0.00     0.034 A 
ATOM      4  C3  UNL d   1       1.073   2.932   1.439  0.00  0.00     0.017 A 
ATOM      5  C4  UNL d   1       2.145   2.355   0.749  0.00  0.00     0.017 A 
ATOM      6  C5  UNL d   1       2.611   1.089   1.120  0.00  0.00     0.034 A 
ATOM      7 Cl   UNL d   1       2.936   3.150  -0.567  0.00  0.00    -0.070 Cl
ATOM      8 Cl1  UNL d   1       0.442   4.490   1.040  0.00  0.00    -0.070 Cl
ENDROOT
TORSDOF 0
ENDMDL
