MODEL 1
REMARK minimizedAffinity 7.76051807
REMARK minimizedRMSD -1
REMARK  0 active torsions:
REMARK  status: ('A' for Active; 'I' for Inactive)
ROOT
ATOM      1  C   UNL d   1      -5.626  -4.107  -3.881  0.00  0.00     0.020 A 
ATOM      2  C1  UNL d   1      -5.999  -5.343  -3.354  0.00  0.00     0.020 A 
ATOM      3  C2  UNL d   1      -5.260  -5.910  -2.313  0.00  0.00     0.034 A 
ATOM      4  C3  UNL d   1      -4.145  -5.241  -1.796  0.00  0.00     0.017 A 
ATOM      5  C4  UNL d   1      -3.772  -4.000  -2.325  0.00  0.00     0.017 A 
ATOM      6  C5  UNL d   1      -4.515  -3.437  -3.367  0.00  0.00     0.034 A 
ATOM      7 Cl   UNL d   1      -2.408  -3.114  -1.739  0.00  0.00    -0.070 Cl
ATOM      8 Cl1  UNL d   1      -3.278  -6.000  -0.508  0.00  0.00    -0.070 Cl
ENDROOT
TORSDOF 0
ENDMDL
