MODEL 1
REMARK minimizedAffinity 16.6793442
REMARK minimizedRMSD -1
REMARK  0 active torsions:
REMARK  status: ('A' for Active; 'I' for Inactive)
ROOT
ATOM      1  C   UNL d   1       0.113   0.323   5.287  0.00  0.00     0.020 A 
ATOM      2  C1  UNL d   1      -0.781  -0.745   5.221  0.00  0.00     0.020 A 
ATOM      3  C2  UNL d   1      -1.025  -1.377   4.000  0.00  0.00     0.034 A 
ATOM      4  C3  UNL d   1      -0.376  -0.940   2.840  0.00  0.00     0.017 A 
ATOM      5  C4  UNL d   1       0.521   0.132   2.907  0.00  0.00     0.017 A 
ATOM      6  C5  UNL d   1       0.763   0.760   4.132  0.00  0.00     0.034 A 
ATOM      7 Cl   UNL d   1       1.361   0.727   1.518  0.00  0.00    -0.070 Cl
ATOM      8 Cl1  UNL d   1      -0.726  -1.767   1.364  0.00  0.00    -0.070 Cl
ENDROOT
TORSDOF 0
ENDMDL
