MODEL 1
REMARK minimizedAffinity 8.9732132
REMARK minimizedRMSD -1
REMARK  0 active torsions:
REMARK  status: ('A' for Active; 'I' for Inactive)
ROOT
ATOM      1  C   UNL d   1       4.107   1.125  -3.390  0.00  0.00     0.020 A 
ATOM      2  C1  UNL d   1       3.335   1.957  -4.199  0.00  0.00     0.020 A 
ATOM      3  C2  UNL d   1       2.099   2.423  -3.743  0.00  0.00     0.034 A 
ATOM      4  C3  UNL d   1       1.633   2.057  -2.475  0.00  0.00     0.017 A 
ATOM      5  C4  UNL d   1       2.409   1.221  -1.664  0.00  0.00     0.017 A 
ATOM      6  C5  UNL d   1       3.645   0.758  -2.125  0.00  0.00     0.034 A 
ATOM      7 Cl   UNL d   1       1.901   0.727  -0.088  0.00  0.00    -0.070 Cl
ATOM      8 Cl1  UNL d   1       0.097   2.670  -1.976  0.00  0.00    -0.070 Cl
ENDROOT
TORSDOF 0
ENDMDL
