MODEL 1
REMARK minimizedAffinity 14.2812347
REMARK minimizedRMSD -1
REMARK  0 active torsions:
REMARK  status: ('A' for Active; 'I' for Inactive)
ROOT
ATOM      1  C   UNL d   1       3.442   1.771  -4.434  0.00  0.00     0.020 A 
ATOM      2  C1  UNL d   1       4.305   1.344  -3.424  0.00  0.00     0.020 A 
ATOM      3  C2  UNL d   1       3.910   1.429  -2.087  0.00  0.00     0.034 A 
ATOM      4  C3  UNL d   1       2.651   1.941  -1.756  0.00  0.00     0.017 A 
ATOM      5  C4  UNL d   1       1.786   2.369  -2.770  0.00  0.00     0.017 A 
ATOM      6  C5  UNL d   1       2.186   2.282  -4.107  0.00  0.00     0.034 A 
ATOM      7 Cl   UNL d   1       0.216   3.012  -2.439  0.00  0.00    -0.070 Cl
ATOM      8 Cl1  UNL d   1       2.229   2.016  -0.082  0.00  0.00    -0.070 Cl
ENDROOT
TORSDOF 0
ENDMDL
