MODEL 1
REMARK minimizedAffinity 2.25170612
REMARK minimizedRMSD -1
REMARK  0 active torsions:
REMARK  status: ('A' for Active; 'I' for Inactive)
ROOT
ATOM      1  C   UNL d   1       2.632   5.302  -5.780  0.00  0.00     0.020 A 
ATOM      2  C1  UNL d   1       3.200   5.870  -4.641  0.00  0.00     0.020 A 
ATOM      3  C2  UNL d   1       3.872   5.065  -3.719  0.00  0.00     0.034 A 
ATOM      4  C3  UNL d   1       3.977   3.686  -3.934  0.00  0.00     0.017 A 
ATOM      5  C4  UNL d   1       3.406   3.116  -5.078  0.00  0.00     0.017 A 
ATOM      6  C5  UNL d   1       2.735   3.927  -5.998  0.00  0.00     0.034 A 
ATOM      7 Cl   UNL d   1       3.495   1.422  -5.412  0.00  0.00    -0.070 Cl
ATOM      8 Cl1  UNL d   1       4.822   2.750  -2.753  0.00  0.00    -0.070 Cl
ENDROOT
TORSDOF 0
ENDMDL
