MODEL 1
REMARK minimizedAffinity 10.6396837
REMARK minimizedRMSD -1
REMARK  0 active torsions:
REMARK  status: ('A' for Active; 'I' for Inactive)
ROOT
ATOM      1  C   UNL d   1       0.233   1.580   3.736  0.00  0.00     0.020 A 
ATOM      2  C1  UNL d   1       0.881   0.749   4.648  0.00  0.00     0.020 A 
ATOM      3  C2  UNL d   1       2.177   0.300   4.384  0.00  0.00     0.034 A 
ATOM      4  C3  UNL d   1       2.828   0.681   3.205  0.00  0.00     0.017 A 
ATOM      5  C4  UNL d   1       2.176   1.516   2.290  0.00  0.00     0.017 A 
ATOM      6  C5  UNL d   1       0.879   1.963   2.560  0.00  0.00     0.034 A 
ATOM      7 Cl   UNL d   1       2.914   2.029   0.814  0.00  0.00    -0.070 Cl
ATOM      8 Cl1  UNL d   1       4.430   0.089   2.944  0.00  0.00    -0.070 Cl
ENDROOT
TORSDOF 0
ENDMDL
