MODEL 1
REMARK minimizedAffinity 12.7874613
REMARK minimizedRMSD -1
REMARK  0 active torsions:
REMARK  status: ('A' for Active; 'I' for Inactive)
ROOT
ATOM      1  C   UNL d   1       3.293   1.090   0.112  0.00  0.00     0.020 A 
ATOM      2  C1  UNL d   1       3.191   2.203   0.945  0.00  0.00     0.020 A 
ATOM      3  C2  UNL d   1       2.129   2.305   1.846  0.00  0.00     0.034 A 
ATOM      4  C3  UNL d   1       1.165   1.292   1.916  0.00  0.00     0.017 A 
ATOM      5  C4  UNL d   1       1.269   0.175   1.079  0.00  0.00     0.017 A 
ATOM      6  C5  UNL d   1       2.335   0.078   0.179  0.00  0.00     0.034 A 
ATOM      7 Cl   UNL d   1       0.119  -1.115   1.108  0.00  0.00    -0.070 Cl
ATOM      8 Cl1  UNL d   1      -0.121   1.483   3.054  0.00  0.00    -0.070 Cl
ENDROOT
TORSDOF 0
ENDMDL
