MODEL 1
REMARK minimizedAffinity 5.00205421
REMARK minimizedRMSD -1
REMARK  0 active torsions:
REMARK  status: ('A' for Active; 'I' for Inactive)
ROOT
ATOM      1  C   UNL d   1      -6.000   3.065   5.778  0.00  0.00     0.020 A 
ATOM      2  C1  UNL d   1      -5.623   3.570   4.534  0.00  0.00     0.020 A 
ATOM      3  C2  UNL d   1      -5.246   2.696   3.511  0.00  0.00     0.034 A 
ATOM      4  C3  UNL d   1      -5.245   1.314   3.731  0.00  0.00     0.017 A 
ATOM      5  C4  UNL d   1      -5.623   0.809   4.980  0.00  0.00     0.017 A 
ATOM      6  C5  UNL d   1      -6.000   1.687   6.000  0.00  0.00     0.034 A 
ATOM      7 Cl   UNL d   1      -5.647  -0.885   5.326  0.00  0.00    -0.070 Cl
ATOM      8 Cl1  UNL d   1      -4.767   0.293   2.421  0.00  0.00    -0.070 Cl
ENDROOT
TORSDOF 0
ENDMDL
