MODEL 1
REMARK minimizedAffinity 9.39570427
REMARK minimizedRMSD -1
REMARK  0 active torsions:
REMARK  status: ('A' for Active; 'I' for Inactive)
ROOT
ATOM      1  C   UNL d   1      -4.274   4.076   5.065  0.00  0.00     0.020 A 
ATOM      2  C1  UNL d   1      -5.484   3.937   5.745  0.00  0.00     0.020 A 
ATOM      3  C2  UNL d   1      -5.999   2.664   5.999  0.00  0.00     0.034 A 
ATOM      4  C3  UNL d   1      -5.304   1.526   5.573  0.00  0.00     0.017 A 
ATOM      5  C4  UNL d   1      -4.090   1.667   4.891  0.00  0.00     0.017 A 
ATOM      6  C5  UNL d   1      -3.579   2.944   4.639  0.00  0.00     0.034 A 
ATOM      7 Cl   UNL d   1      -3.176   0.309   4.335  0.00  0.00    -0.070 Cl
ATOM      8 Cl1  UNL d   1      -6.000  -0.017   5.922  0.00  0.00    -0.070 Cl
ENDROOT
TORSDOF 0
ENDMDL
