MODEL 1
REMARK minimizedAffinity 8.28263283
REMARK minimizedRMSD -1
REMARK  0 active torsions:
REMARK  status: ('A' for Active; 'I' for Inactive)
ROOT
ATOM      1  C   UNL d   1      -5.732   3.601   5.510  0.00  0.00     0.020 A 
ATOM      2  C1  UNL d   1      -5.097   3.756   4.278  0.00  0.00     0.020 A 
ATOM      3  C2  UNL d   1      -4.728   2.632   3.536  0.00  0.00     0.034 A 
ATOM      4  C3  UNL d   1      -4.995   1.348   4.025  0.00  0.00     0.017 A 
ATOM      5  C4  UNL d   1      -5.633   1.193   5.261  0.00  0.00     0.017 A 
ATOM      6  C5  UNL d   1      -6.000   2.322   6.000  0.00  0.00     0.034 A 
ATOM      7 Cl   UNL d   1      -5.996  -0.359   5.929  0.00  0.00    -0.070 Cl
ATOM      8 Cl1  UNL d   1      -4.512   0.002   3.054  0.00  0.00    -0.070 Cl
ENDROOT
TORSDOF 0
ENDMDL
