MODEL 1
REMARK minimizedAffinity 7.74027395
REMARK minimizedRMSD -1
REMARK  0 active torsions:
REMARK  status: ('A' for Active; 'I' for Inactive)
ROOT
ATOM      1  C   UNL d   1      -1.942  -1.734  -0.142  0.00  0.00     0.020 A 
ATOM      2  C1  UNL d   1      -1.565  -2.184   1.122  0.00  0.00     0.020 A 
ATOM      3  C2  UNL d   1      -1.822  -3.504   1.498  0.00  0.00     0.034 A 
ATOM      4  C3  UNL d   1      -2.458  -4.378   0.609  0.00  0.00     0.017 A 
ATOM      5  C4  UNL d   1      -2.837  -3.925  -0.659  0.00  0.00     0.017 A 
ATOM      6  C5  UNL d   1      -2.577  -2.602  -1.031  0.00  0.00     0.034 A 
ATOM      7 Cl   UNL d   1      -3.625  -4.945  -1.811  0.00  0.00    -0.070 Cl
ATOM      8 Cl1  UNL d   1      -2.744  -5.998   1.141  0.00  0.00    -0.070 Cl
ENDROOT
TORSDOF 0
ENDMDL
