MODEL 1
REMARK minimizedAffinity 11.8283148
REMARK minimizedRMSD -1
REMARK  0 active torsions:
REMARK  status: ('A' for Active; 'I' for Inactive)
ROOT
ATOM      1  C   UNL d   1       0.320  -4.202  -3.798  0.00  0.00     0.020 A 
ATOM      2  C1  UNL d   1       0.254  -4.035  -5.181  0.00  0.00     0.020 A 
ATOM      3  C2  UNL d   1      -0.905  -3.526  -5.769  0.00  0.00     0.034 A 
ATOM      4  C3  UNL d   1      -2.004  -3.181  -4.974  0.00  0.00     0.017 A 
ATOM      5  C4  UNL d   1      -1.938  -3.348  -3.586  0.00  0.00     0.017 A 
ATOM      6  C5  UNL d   1      -0.774  -3.859  -3.002  0.00  0.00     0.034 A 
ATOM      7 Cl   UNL d   1      -3.253  -2.946  -2.539  0.00  0.00    -0.070 Cl
ATOM      8 Cl1  UNL d   1      -3.406  -2.556  -5.768  0.00  0.00    -0.070 Cl
ENDROOT
TORSDOF 0
ENDMDL
