MODEL 1
REMARK minimizedAffinity 4.33681345
REMARK minimizedRMSD -1
REMARK  0 active torsions:
REMARK  status: ('A' for Active; 'I' for Inactive)
ROOT
ATOM      1  C   UNL d   1       1.574   0.877   1.000  0.00  0.00     0.020 A 
ATOM      2  C1  UNL d   1       1.198   2.214   0.878  0.00  0.00     0.020 A 
ATOM      3  C2  UNL d   1      -0.081   2.618   1.267  0.00  0.00     0.034 A 
ATOM      4  C3  UNL d   1      -0.988   1.684   1.780  0.00  0.00     0.017 A 
ATOM      5  C4  UNL d   1      -0.609   0.342   1.902  0.00  0.00     0.017 A 
ATOM      6  C5  UNL d   1       0.672  -0.057   1.511  0.00  0.00     0.034 A 
ATOM      7 Cl   UNL d   1      -1.674  -0.868   2.527  0.00  0.00    -0.070 Cl
ATOM      8 Cl1  UNL d   1      -2.553   2.253   2.243  0.00  0.00    -0.070 Cl
ENDROOT
TORSDOF 0
ENDMDL
