MODEL 1
REMARK minimizedAffinity 2.35648394
REMARK minimizedRMSD -1
REMARK  0 active torsions:
REMARK  status: ('A' for Active; 'I' for Inactive)
ROOT
ATOM      1  C   UNL d   1       0.088  -2.727   3.389  0.00  0.00     0.078 C 
ATOM      2  C1  UNL d   1       0.259  -1.549   2.478  0.00  0.00    -0.077 A 
ATOM      3  C2  UNL d   1       1.429  -0.781   2.502  0.00  0.00    -0.001 A 
ATOM      4  C3  UNL d   1       1.570   0.319   1.655  0.00  0.00     0.003 A 
ATOM      5  C4  UNL d   1       0.544   0.662   0.777  0.00  0.00    -0.005 A 
ATOM      6  C5  UNL d   1      -0.626  -0.094   0.747  0.00  0.00     0.003 A 
ATOM      7  C6  UNL d   1      -0.769  -1.195   1.594  0.00  0.00    -0.001 A 
ENDROOT
TORSDOF 0
ENDMDL
