MODEL 1
REMARK minimizedAffinity -1.37246275
REMARK minimizedRMSD -1
REMARK  0 active torsions:
REMARK  status: ('A' for Active; 'I' for Inactive)
ROOT
ATOM      1  C   UNL d   1      -0.582  -2.285   2.741  0.00  0.00     0.078 C 
ATOM      2  C1  UNL d   1      -0.708  -1.165   1.752  0.00  0.00    -0.077 A 
ATOM      3  C2  UNL d   1       0.283  -0.937   0.789  0.00  0.00    -0.001 A 
ATOM      4  C3  UNL d   1       0.156   0.115  -0.118  0.00  0.00     0.003 A 
ATOM      5  C4  UNL d   1      -0.959   0.949  -0.072  0.00  0.00    -0.005 A 
ATOM      6  C5  UNL d   1      -1.949   0.732   0.884  0.00  0.00     0.003 A 
ATOM      7  C6  UNL d   1      -1.824  -0.320   1.793  0.00  0.00    -0.001 A 
ENDROOT
TORSDOF 0
ENDMDL
