MODEL 1
REMARK minimizedAffinity -2.4262898
REMARK minimizedRMSD -1
REMARK  0 active torsions:
REMARK  status: ('A' for Active; 'I' for Inactive)
ROOT
ATOM      1  C   UNL d   1      -3.534   2.865  -2.126  0.00  0.00     0.078 C 
ATOM      2  C1  UNL d   1      -2.058   2.658  -2.293  0.00  0.00    -0.077 A 
ATOM      3  C2  UNL d   1      -1.265   3.612  -2.943  0.00  0.00    -0.001 A 
ATOM      4  C3  UNL d   1       0.106   3.402  -3.100  0.00  0.00     0.003 A 
ATOM      5  C4  UNL d   1       0.696   2.238  -2.611  0.00  0.00    -0.005 A 
ATOM      6  C5  UNL d   1      -0.085   1.282  -1.965  0.00  0.00     0.003 A 
ATOM      7  C6  UNL d   1      -1.456   1.491  -1.807  0.00  0.00    -0.001 A 
ENDROOT
TORSDOF 0
ENDMDL
