MODEL 1
REMARK minimizedAffinity -5.05345726
REMARK minimizedRMSD -1
REMARK  0 active torsions:
REMARK  status: ('A' for Active; 'I' for Inactive)
ROOT
ATOM      1  C   UNL d   1      -2.202   0.313   1.832  0.00  0.00     0.078 C 
ATOM      2  C1  UNL d   1      -0.878  -0.142   1.294  0.00  0.00    -0.077 A 
ATOM      3  C2  UNL d   1      -0.575  -0.026  -0.068  0.00  0.00    -0.001 A 
ATOM      4  C3  UNL d   1       0.658  -0.462  -0.556  0.00  0.00     0.003 A 
ATOM      5  C4  UNL d   1       1.597  -1.018   0.310  0.00  0.00    -0.005 A 
ATOM      6  C5  UNL d   1       1.303  -1.140   1.667  0.00  0.00     0.003 A 
ATOM      7  C6  UNL d   1       0.071  -0.704   2.157  0.00  0.00    -0.001 A 
ENDROOT
TORSDOF 0
ENDMDL
