MODEL 1
REMARK minimizedAffinity -3.81371641
REMARK minimizedRMSD -1
REMARK  0 active torsions:
REMARK  status: ('A' for Active; 'I' for Inactive)
ROOT
ATOM      1  C   UNL d   1       2.773  -2.269  -0.286  0.00  0.00     0.078 C 
ATOM      2  C1  UNL d   1       1.524  -1.441  -0.251  0.00  0.00    -0.077 A 
ATOM      3  C2  UNL d   1       0.890  -1.143   0.962  0.00  0.00    -0.001 A 
ATOM      4  C3  UNL d   1      -0.277  -0.378   0.979  0.00  0.00     0.003 A 
ATOM      5  C4  UNL d   1      -0.822   0.094  -0.214  0.00  0.00    -0.005 A 
ATOM      6  C5  UNL d   1      -0.199  -0.199  -1.425  0.00  0.00     0.003 A 
ATOM      7  C6  UNL d   1       0.968  -0.963  -1.444  0.00  0.00    -0.001 A 
ENDROOT
TORSDOF 0
ENDMDL
