MODEL 1
REMARK minimizedAffinity 8.98519516
REMARK minimizedRMSD -1
REMARK  0 active torsions:
REMARK  status: ('A' for Active; 'I' for Inactive)
ROOT
ATOM      1  C   UNL d   1      -4.540   0.005  -4.871  0.00  0.00     0.078 C 
ATOM      2  C1  UNL d   1      -4.479   1.415  -4.367  0.00  0.00    -0.077 A 
ATOM      3  C2  UNL d   1      -5.442   2.359  -4.746  0.00  0.00    -0.001 A 
ATOM      4  C3  UNL d   1      -5.367   3.671  -4.277  0.00  0.00     0.003 A 
ATOM      5  C4  UNL d   1      -4.332   4.052  -3.426  0.00  0.00    -0.005 A 
ATOM      6  C5  UNL d   1      -3.368   3.121  -3.044  0.00  0.00     0.003 A 
ATOM      7  C6  UNL d   1      -3.441   1.808  -3.513  0.00  0.00    -0.001 A 
ENDROOT
TORSDOF 0
ENDMDL
