MODEL 1
REMARK minimizedAffinity -4.43027878
REMARK minimizedRMSD -1
REMARK  0 active torsions:
REMARK  status: ('A' for Active; 'I' for Inactive)
ROOT
ATOM      1  C   UNL d   1      -0.002  -0.753   2.406  0.00  0.00     0.078 C 
ATOM      2  C1  UNL d   1      -0.593  -0.196   1.146  0.00  0.00    -0.077 A 
ATOM      3  C2  UNL d   1       0.184  -0.041  -0.009  0.00  0.00    -0.001 A 
ATOM      4  C3  UNL d   1      -0.377   0.488  -1.172  0.00  0.00     0.003 A 
ATOM      5  C4  UNL d   1      -1.718   0.868  -1.192  0.00  0.00    -0.005 A 
ATOM      6  C5  UNL d   1      -2.499   0.719  -0.048  0.00  0.00     0.003 A 
ATOM      7  C6  UNL d   1      -1.939   0.191   1.116  0.00  0.00    -0.001 A 
ENDROOT
TORSDOF 0
ENDMDL
