MODEL 1
REMARK minimizedAffinity 0.357552081
REMARK minimizedRMSD -1
REMARK  2 active torsions:
REMARK  status: ('A' for Active; 'I' for Inactive)
REMARK    1  A    between atoms: C2'_3  and  C1'_4 
REMARK    2  A    between atoms: C1'_4  and  C1_5 
ROOT
ATOM      1  C1  I4B d   1       0.659  -0.966   0.675  0.00  0.00    -0.075 A 
ATOM      2  C2  I4B d   1       0.236  -1.380   1.913  0.00  0.00     0.003 A 
ATOM      3  C3  I4B d   1       0.780  -2.550   2.498  0.00  0.00     0.002 A 
ATOM      4  C4  I4B d   1       1.700  -3.298   1.792  0.00  0.00    -0.004 A 
ATOM      5  C5  I4B d   1       2.144  -2.864   0.546  0.00  0.00     0.002 A 
ATOM      6  C6  I4B d   1       1.630  -1.684  -0.011  0.00  0.00     0.003 A 
ENDROOT
BRANCH   1   7
ATOM      7  C1' I4B d   1       0.039   0.255   0.074  0.00  0.00     0.060 C 
BRANCH   7   8
ATOM      8  C2' I4B d   1      -1.096  -0.191  -0.825  0.00  0.00    -0.013 C 
ATOM      9  C4' I4B d   1      -2.325  -0.530  -0.023  0.00  0.00     0.013 C 
ATOM     10  C3' I4B d   1      -1.374   0.912  -1.802  0.00  0.00     0.013 C 
ENDBRANCH   7   8
ENDBRANCH   1   7
TORSDOF 2
ENDMDL
