MODEL 1
REMARK minimizedAffinity -4.90488195
REMARK minimizedRMSD -1
REMARK  2 active torsions:
REMARK  status: ('A' for Active; 'I' for Inactive)
REMARK    1  A    between atoms: C2'_3  and  C1'_4 
REMARK    2  A    between atoms: C1'_4  and  C1_5 
ROOT
ATOM      1  C1  I4B d   1      -0.623   0.461  -0.008  0.00  0.00    -0.075 A 
ATOM      2  C2  I4B d   1      -1.344   0.695   1.135  0.00  0.00     0.003 A 
ATOM      3  C3  I4B d   1      -0.917   0.152   2.371  0.00  0.00     0.002 A 
ATOM      4  C4  I4B d   1       0.201  -0.656   2.409  0.00  0.00    -0.004 A 
ATOM      5  C5  I4B d   1       0.944  -0.874   1.252  0.00  0.00     0.002 A 
ATOM      6  C6  I4B d   1       0.537  -0.302   0.038  0.00  0.00     0.003 A 
ENDROOT
BRANCH   1   7
ATOM      7  C1' I4B d   1      -1.120   1.023  -1.302  0.00  0.00     0.060 C 
BRANCH   7   8
ATOM      8  C2' I4B d   1      -0.321   2.274  -1.606  0.00  0.00    -0.013 C 
ATOM      9  C4' I4B d   1       0.433   2.137  -2.902  0.00  0.00     0.013 C 
ATOM     10  C3' I4B d   1      -1.274   3.431  -1.653  0.00  0.00     0.013 C 
ENDBRANCH   7   8
ENDBRANCH   1   7
TORSDOF 2
ENDMDL
