MODEL 1
REMARK minimizedAffinity 12.3396378
REMARK minimizedRMSD -1
REMARK  0 active torsions:
REMARK  status: ('A' for Active; 'I' for Inactive)
ROOT
ATOM      1  C   UNL d   1       1.899   2.389   0.134  0.00  0.00     0.023 A 
ATOM      2  C1  UNL d   1       0.819   2.778   0.927  0.00  0.00     0.003 A 
ATOM      3  C2  UNL d   1       0.408   1.975   1.992  0.00  0.00     0.048 A 
ATOM      4  C3  UNL d   1       1.081   0.783   2.260  0.00  0.00     0.023 A 
ATOM      5  C4  UNL d   1       2.163   0.390   1.470  0.00  0.00     0.048 A 
ATOM      6  C5  UNL d   1       2.569   1.196   0.405  0.00  0.00     0.003 A 
ATOM      7  I   UNL d   1       0.471  -0.414   3.845  0.00  0.00    -0.146 I 
ENDROOT
TORSDOF 0
ENDMDL
