MODEL 1
REMARK minimizedAffinity 12.9586744
REMARK minimizedRMSD -1
REMARK  0 active torsions:
REMARK  status: ('A' for Active; 'I' for Inactive)
ROOT
ATOM      1  C   UNL d   1      -4.653  -3.994  -3.160  0.00  0.00     0.023 A 
ATOM      2  C1  UNL d   1      -3.755  -2.928  -3.227  0.00  0.00     0.003 A 
ATOM      3  C2  UNL d   1      -2.848  -2.710  -2.188  0.00  0.00     0.048 A 
ATOM      4  C3  UNL d   1      -2.844  -3.563  -1.084  0.00  0.00     0.023 A 
ATOM      5  C4  UNL d   1      -3.740  -4.631  -1.013  0.00  0.00     0.048 A 
ATOM      6  C5  UNL d   1      -4.645  -4.844  -2.055  0.00  0.00     0.003 A 
ATOM      7  I   UNL d   1      -1.496  -3.241   0.464  0.00  0.00    -0.146 I 
ENDROOT
TORSDOF 0
ENDMDL
