MODEL 1
REMARK minimizedAffinity 17.9442806
REMARK minimizedRMSD -1
REMARK  0 active torsions:
REMARK  status: ('A' for Active; 'I' for Inactive)
ROOT
ATOM      1  C   UNL d   1       4.816   6.000  -0.885  0.00  0.00     0.023 A 
ATOM      2  C1  UNL d   1       4.891   4.881  -1.715  0.00  0.00     0.003 A 
ATOM      3  C2  UNL d   1       4.215   3.708  -1.371  0.00  0.00     0.048 A 
ATOM      4  C3  UNL d   1       3.466   3.662  -0.196  0.00  0.00     0.023 A 
ATOM      5  C4  UNL d   1       3.387   4.779   0.637  0.00  0.00     0.048 A 
ATOM      6  C5  UNL d   1       4.065   5.949   0.289  0.00  0.00     0.003 A 
ATOM      7  I   UNL d   1       2.459   1.917   0.319  0.00  0.00    -0.146 I 
ENDROOT
TORSDOF 0
ENDMDL
