MODEL 1
REMARK minimizedAffinity 6.86194897
REMARK minimizedRMSD -1
REMARK  0 active torsions:
REMARK  status: ('A' for Active; 'I' for Inactive)
ROOT
ATOM      1  C   UNL d   1       1.221   0.636  -1.186  0.00  0.00     0.023 A 
ATOM      2  C1  UNL d   1       0.992  -0.306  -0.184  0.00  0.00     0.003 A 
ATOM      3  C2  UNL d   1       1.848  -0.380   0.917  0.00  0.00     0.048 A 
ATOM      4  C3  UNL d   1       2.932   0.493   1.009  0.00  0.00     0.023 A 
ATOM      5  C4  UNL d   1       3.165   1.438   0.009  0.00  0.00     0.048 A 
ATOM      6  C5  UNL d   1       2.307   1.507  -1.090  0.00  0.00     0.003 A 
ATOM      7  I   UNL d   1       4.208   0.386   2.646  0.00  0.00    -0.146 I 
ENDROOT
TORSDOF 0
ENDMDL
