MODEL 1
REMARK minimizedAffinity 18.6289749
REMARK minimizedRMSD -1
REMARK  0 active torsions:
REMARK  status: ('A' for Active; 'I' for Inactive)
ROOT
ATOM      1  C   UNL d   1      -3.336  -2.931  -3.362  0.00  0.00     0.023 A 
ATOM      2  C1  UNL d   1      -3.954  -3.371  -2.191  0.00  0.00     0.003 A 
ATOM      3  C2  UNL d   1      -3.262  -3.334  -0.979  0.00  0.00     0.048 A 
ATOM      4  C3  UNL d   1      -1.954  -2.854  -0.944  0.00  0.00     0.023 A 
ATOM      5  C4  UNL d   1      -1.332  -2.411  -2.113  0.00  0.00     0.048 A 
ATOM      6  C5  UNL d   1      -2.027  -2.452  -3.323  0.00  0.00     0.003 A 
ATOM      7  I   UNL d   1      -0.922  -2.796   0.860  0.00  0.00    -0.146 I 
ENDROOT
TORSDOF 0
ENDMDL
