MODEL 1
REMARK minimizedAffinity 16.4014187
REMARK minimizedRMSD -1
REMARK  0 active torsions:
REMARK  status: ('A' for Active; 'I' for Inactive)
ROOT
ATOM      1  C   UNL d   1       4.612   2.810  -3.346  0.00  0.00     0.023 A 
ATOM      2  C1  UNL d   1       3.840   2.819  -4.508  0.00  0.00     0.003 A 
ATOM      3  C2  UNL d   1       3.487   1.617  -5.123  0.00  0.00     0.048 A 
ATOM      4  C3  UNL d   1       3.908   0.408  -4.570  0.00  0.00     0.023 A 
ATOM      5  C4  UNL d   1       4.679   0.393  -3.407  0.00  0.00     0.048 A 
ATOM      6  C5  UNL d   1       5.031   1.598  -2.796  0.00  0.00     0.003 A 
ATOM      7  I   UNL d   1       3.383  -1.384  -5.484  0.00  0.00    -0.146 I 
ENDROOT
TORSDOF 0
ENDMDL
