MODEL 1
REMARK minimizedAffinity 5.02138948
REMARK minimizedRMSD -1
REMARK  0 active torsions:
REMARK  status: ('A' for Active; 'I' for Inactive)
ROOT
ATOM      1  C   UNL d   1      -6.000  -5.627  -3.002  0.00  0.00     0.023 A 
ATOM      2  C1  UNL d   1      -5.963  -4.388  -3.643  0.00  0.00     0.003 A 
ATOM      3  C2  UNL d   1      -4.890  -3.521  -3.429  0.00  0.00     0.048 A 
ATOM      4  C3  UNL d   1      -3.857  -3.898  -2.572  0.00  0.00     0.023 A 
ATOM      5  C4  UNL d   1      -3.889  -5.136  -1.928  0.00  0.00     0.048 A 
ATOM      6  C5  UNL d   1      -4.964  -6.000  -2.145  0.00  0.00     0.003 A 
ATOM      7  I   UNL d   1      -2.259  -2.608  -2.251  0.00  0.00    -0.146 I 
ENDROOT
TORSDOF 0
ENDMDL
