MODEL 1
REMARK minimizedAffinity 10.9654408
REMARK minimizedRMSD -1
REMARK  0 active torsions:
REMARK  status: ('A' for Active; 'I' for Inactive)
ROOT
ATOM      1  C   UNL d   1       1.319  -0.126   2.956  0.00  0.00     0.023 A 
ATOM      2  C1  UNL d   1       0.567   1.008   3.267  0.00  0.00     0.003 A 
ATOM      3  C2  UNL d   1       0.761   2.193   2.555  0.00  0.00     0.048 A 
ATOM      4  C3  UNL d   1       1.708   2.238   1.533  0.00  0.00     0.023 A 
ATOM      5  C4  UNL d   1       2.462   1.106   1.217  0.00  0.00     0.048 A 
ATOM      6  C5  UNL d   1       2.265  -0.076   1.933  0.00  0.00     0.003 A 
ATOM      7  I   UNL d   1       1.999   4.001   0.471  0.00  0.00    -0.146 I 
ENDROOT
TORSDOF 0
ENDMDL
