MODEL 1
REMARK minimizedAffinity 1.37349081
REMARK minimizedRMSD -1
REMARK  0 active torsions:
REMARK  status: ('A' for Active; 'I' for Inactive)
ROOT
ATOM      1  C   UNL d   1       2.366   6.000  -4.969  0.00  0.00     0.023 A 
ATOM      2  C1  UNL d   1       3.340   5.691  -5.918  0.00  0.00     0.003 A 
ATOM      3  C2  UNL d   1       3.851   4.394  -6.000  0.00  0.00     0.048 A 
ATOM      4  C3  UNL d   1       3.382   3.410  -5.130  0.00  0.00     0.023 A 
ATOM      5  C4  UNL d   1       2.407   3.714  -4.179  0.00  0.00     0.048 A 
ATOM      6  C5  UNL d   1       1.900   5.013  -4.100  0.00  0.00     0.003 A 
ATOM      7  I   UNL d   1       4.141   1.479  -5.250  0.00  0.00    -0.146 I 
ENDROOT
TORSDOF 0
ENDMDL
