MODEL 1
REMARK minimizedAffinity 8.88198471
REMARK minimizedRMSD -1
REMARK  0 active torsions:
REMARK  status: ('A' for Active; 'I' for Inactive)
ROOT
ATOM      1  C   UNL d   1       2.899   2.190  -4.218  0.00  0.00     0.023 A 
ATOM      2  C1  UNL d   1       1.791   2.648  -3.505  0.00  0.00     0.003 A 
ATOM      3  C2  UNL d   1       1.554   2.186  -2.209  0.00  0.00     0.048 A 
ATOM      4  C3  UNL d   1       2.429   1.267  -1.631  0.00  0.00     0.023 A 
ATOM      5  C4  UNL d   1       3.540   0.807  -2.341  0.00  0.00     0.048 A 
ATOM      6  C5  UNL d   1       3.772   1.271  -3.637  0.00  0.00     0.003 A 
ATOM      7  I   UNL d   1       2.079   0.579   0.298  0.00  0.00    -0.146 I 
ENDROOT
TORSDOF 0
ENDMDL
