MODEL 1
REMARK minimizedAffinity 5.9616828
REMARK minimizedRMSD -1
REMARK  0 active torsions:
REMARK  status: ('A' for Active; 'I' for Inactive)
ROOT
ATOM      1  C   UNL d   1      -5.860   3.338   5.954  0.00  0.00     0.023 A 
ATOM      2  C1  UNL d   1      -5.851   2.531   4.817  0.00  0.00     0.003 A 
ATOM      3  C2  UNL d   1      -5.891   3.110   3.547  0.00  0.00     0.048 A 
ATOM      4  C3  UNL d   1      -5.939   4.498   3.422  0.00  0.00     0.023 A 
ATOM      5  C4  UNL d   1      -5.948   5.310   4.557  0.00  0.00     0.048 A 
ATOM      6  C5  UNL d   1      -5.909   4.726   5.825  0.00  0.00     0.003 A 
ATOM      7  I   UNL d   1      -5.999   5.363   1.533  0.00  0.00    -0.146 I 
ENDROOT
TORSDOF 0
ENDMDL
