MODEL 1
REMARK minimizedAffinity 7.09509563
REMARK minimizedRMSD -1
REMARK  0 active torsions:
REMARK  status: ('A' for Active; 'I' for Inactive)
ROOT
ATOM      1  C   UNL d   1      -2.268  -1.679  -0.558  0.00  0.00     0.023 A 
ATOM      2  C1  UNL d   1      -1.770  -1.734   0.743  0.00  0.00     0.003 A 
ATOM      3  C2  UNL d   1      -1.681  -2.959   1.407  0.00  0.00     0.048 A 
ATOM      4  C3  UNL d   1      -2.091  -4.126   0.763  0.00  0.00     0.023 A 
ATOM      5  C4  UNL d   1      -2.589  -4.076  -0.540  0.00  0.00     0.048 A 
ATOM      6  C5  UNL d   1      -2.677  -2.849  -1.199  0.00  0.00     0.003 A 
ATOM      7  I   UNL d   1      -1.959  -5.951   1.749  0.00  0.00    -0.146 I 
ENDROOT
TORSDOF 0
ENDMDL
