MODEL 1
REMARK minimizedAffinity 5.31109953
REMARK minimizedRMSD -1
REMARK  0 active torsions:
REMARK  status: ('A' for Active; 'I' for Inactive)
ROOT
ATOM      1  C   UNL d   1      -5.511   0.157   4.207  0.00  0.00     0.023 A 
ATOM      2  C1  UNL d   1      -5.854   0.396   5.538  0.00  0.00     0.003 A 
ATOM      3  C2  UNL d   1      -5.993   1.707   5.999  0.00  0.00     0.048 A 
ATOM      4  C3  UNL d   1      -5.790   2.773   5.124  0.00  0.00     0.023 A 
ATOM      5  C4  UNL d   1      -5.448   2.538   3.792  0.00  0.00     0.048 A 
ATOM      6  C5  UNL d   1      -5.308   1.226   3.335  0.00  0.00     0.003 A 
ATOM      7  I   UNL d   1      -5.998   4.725   5.808  0.00  0.00    -0.146 I 
ENDROOT
TORSDOF 0
ENDMDL
