MODEL 1
REMARK minimizedAffinity 13.9319334
REMARK minimizedRMSD -1
REMARK  0 active torsions:
REMARK  status: ('A' for Active; 'I' for Inactive)
ROOT
ATOM      1  C   UNL d   1       2.698   2.150   1.311  0.00  0.00     0.023 A 
ATOM      2  C1  UNL d   1       3.004   1.172   0.364  0.00  0.00     0.003 A 
ATOM      3  C2  UNL d   1       2.186   0.048   0.229  0.00  0.00     0.048 A 
ATOM      4  C3  UNL d   1       1.063  -0.092   1.044  0.00  0.00     0.023 A 
ATOM      5  C4  UNL d   1       0.752   0.884   1.992  0.00  0.00     0.048 A 
ATOM      6  C5  UNL d   1       1.573   2.006   2.124  0.00  0.00     0.003 A 
ATOM      7  I   UNL d   1      -0.155  -1.764   0.845  0.00  0.00    -0.146 I 
ENDROOT
TORSDOF 0
ENDMDL
