MODEL 1
REMARK minimizedAffinity 8.27703667
REMARK minimizedRMSD -1
REMARK  0 active torsions:
REMARK  status: ('A' for Active; 'I' for Inactive)
ROOT
ATOM      1  C   UNL d   1      -5.877   3.088   5.713  0.00  0.00     0.023 A 
ATOM      2  C1  UNL d   1      -5.234   3.500   4.546  0.00  0.00     0.003 A 
ATOM      3  C2  UNL d   1      -4.711   2.552   3.663  0.00  0.00     0.048 A 
ATOM      4  C3  UNL d   1      -4.836   1.194   3.953  0.00  0.00     0.023 A 
ATOM      5  C4  UNL d   1      -5.479   0.777   5.120  0.00  0.00     0.048 A 
ATOM      6  C5  UNL d   1      -6.000   1.728   6.000  0.00  0.00     0.003 A 
ATOM      7  I   UNL d   1      -4.059  -0.218   2.641  0.00  0.00    -0.146 I 
ENDROOT
TORSDOF 0
ENDMDL
