MODEL 1
REMARK minimizedAffinity 11.2182293
REMARK minimizedRMSD -1
REMARK  0 active torsions:
REMARK  status: ('A' for Active; 'I' for Inactive)
ROOT
ATOM      1  C   UNL d   1      -3.321  -2.929  -4.888  0.00  0.00     0.023 A 
ATOM      2  C1  UNL d   1      -2.572  -3.318  -5.999  0.00  0.00     0.003 A 
ATOM      3  C2  UNL d   1      -1.242  -3.712  -5.842  0.00  0.00     0.048 A 
ATOM      4  C3  UNL d   1      -0.667  -3.716  -4.572  0.00  0.00     0.023 A 
ATOM      5  C4  UNL d   1      -1.413  -3.329  -3.457  0.00  0.00     0.048 A 
ATOM      6  C5  UNL d   1      -2.743  -2.935  -3.619  0.00  0.00     0.003 A 
ATOM      7  I   UNL d   1       1.313  -4.302  -4.336  0.00  0.00    -0.146 I 
ENDROOT
TORSDOF 0
ENDMDL
