MODEL 1
REMARK minimizedAffinity 14.3637257
REMARK minimizedRMSD -1
REMARK  2 active torsions:
REMARK  status: ('A' for Active; 'I' for Inactive)
REMARK    1  A    between atoms: C2'_3  and  C1'_4 
REMARK    2  A    between atoms: C1'_4  and  C1_5 
ROOT
ATOM      1  C1  I4B d   1       1.353  -3.057   2.392  0.00  0.00    -0.075 A 
ATOM      2  C2  I4B d   1       1.114  -1.959   1.604  0.00  0.00     0.003 A 
ATOM      3  C3  I4B d   1       0.991  -0.675   2.188  0.00  0.00     0.002 A 
ATOM      4  C4  I4B d   1       1.064  -0.543   3.560  0.00  0.00    -0.004 A 
ATOM      5  C5  I4B d   1       1.328  -1.654   4.355  0.00  0.00     0.002 A 
ATOM      6  C6  I4B d   1       1.486  -2.918   3.767  0.00  0.00     0.003 A 
ENDROOT
BRANCH   1   7
ATOM      7  C1' I4B d   1       1.444  -4.402   1.744  0.00  0.00     0.060 C 
BRANCH   7   8
ATOM      8  C2' I4B d   1       2.605  -5.146   2.374  0.00  0.00    -0.013 C 
ATOM      9  C4' I4B d   1       2.148  -5.981   3.541  0.00  0.00     0.013 C 
ATOM     10  C3' I4B d   1       3.239  -5.996   1.315  0.00  0.00     0.013 C 
ENDBRANCH   7   8
ENDBRANCH   1   7
TORSDOF 2
ENDMDL
