MODEL 1
REMARK minimizedAffinity 13.4096088
REMARK minimizedRMSD -1
REMARK  2 active torsions:
REMARK  status: ('A' for Active; 'I' for Inactive)
REMARK    1  A    between atoms: C2'_3  and  C1'_4 
REMARK    2  A    between atoms: C1'_4  and  C1_5 
ROOT
ATOM      1  C1  I4B d   1      -5.147  -3.434  -5.195  0.00  0.00    -0.075 A 
ATOM      2  C2  I4B d   1      -5.999  -4.500  -5.051  0.00  0.00     0.003 A 
ATOM      3  C3  I4B d   1      -5.562  -5.809  -5.369  0.00  0.00     0.002 A 
ATOM      4  C4  I4B d   1      -4.291  -5.998  -5.871  0.00  0.00    -0.004 A 
ATOM      5  C5  I4B d   1      -3.421  -4.919  -5.995  0.00  0.00     0.002 A 
ATOM      6  C6  I4B d   1      -3.848  -3.630  -5.643  0.00  0.00     0.003 A 
ENDROOT
BRANCH   1   7
ATOM      7  C1' I4B d   1      -5.652  -2.061  -4.882  0.00  0.00     0.060 C 
BRANCH   7   8
ATOM      8  C2' I4B d   1      -4.974  -1.593  -3.611  0.00  0.00    -0.013 C 
ATOM      9  C4' I4B d   1      -4.356  -0.231  -3.792  0.00  0.00     0.013 C 
ATOM     10  C3' I4B d   1      -5.999  -1.581  -2.516  0.00  0.00     0.013 C 
ENDBRANCH   7   8
ENDBRANCH   1   7
TORSDOF 2
ENDMDL
