MODEL 1
REMARK minimizedAffinity 8.07749462
REMARK minimizedRMSD -1
REMARK  2 active torsions:
REMARK  status: ('A' for Active; 'I' for Inactive)
REMARK    1  A    between atoms: C2'_3  and  C1'_4 
REMARK    2  A    between atoms: C1'_4  and  C1_5 
ROOT
ATOM      1  C1  I4B d   1      -4.952  -3.286  -4.999  0.00  0.00    -0.075 A 
ATOM      2  C2  I4B d   1      -5.998  -3.840  -5.693  0.00  0.00     0.003 A 
ATOM      3  C3  I4B d   1      -5.997  -5.223  -6.000  0.00  0.00     0.002 A 
ATOM      4  C4  I4B d   1      -4.915  -5.998  -5.639  0.00  0.00    -0.004 A 
ATOM      5  C5  I4B d   1      -3.866  -5.440  -4.915  0.00  0.00     0.002 A 
ATOM      6  C6  I4B d   1      -3.890  -4.078  -4.581  0.00  0.00     0.003 A 
ENDROOT
BRANCH   1   7
ATOM      7  C1' I4B d   1      -4.969  -1.816  -4.721  0.00  0.00     0.060 C 
BRANCH   7   8
ATOM      8  C2' I4B d   1      -4.581  -1.611  -3.270  0.00  0.00    -0.013 C 
ATOM      9  C4' I4B d   1      -4.171  -0.185  -3.013  0.00  0.00     0.013 C 
ATOM     10  C3' I4B d   1      -5.751  -2.001  -2.418  0.00  0.00     0.013 C 
ENDBRANCH   7   8
ENDBRANCH   1   7
TORSDOF 2
ENDMDL
