MODEL 1
REMARK minimizedAffinity 11.3141022
REMARK minimizedRMSD -1
REMARK  2 active torsions:
REMARK  status: ('A' for Active; 'I' for Inactive)
REMARK    1  A    between atoms: C2'_3  and  C1'_4 
REMARK    2  A    between atoms: C1'_4  and  C1_5 
ROOT
ATOM      1  C1  I4B d   1      -4.106   2.875  -1.120  0.00  0.00    -0.075 A 
ATOM      2  C2  I4B d   1      -3.423   2.704   0.058  0.00  0.00     0.003 A 
ATOM      3  C3  I4B d   1      -4.033   3.039   1.291  0.00  0.00     0.002 A 
ATOM      4  C4  I4B d   1      -5.300   3.587   1.296  0.00  0.00    -0.004 A 
ATOM      5  C5  I4B d   1      -6.000   3.738   0.102  0.00  0.00     0.002 A 
ATOM      6  C6  I4B d   1      -5.404   3.369  -1.113  0.00  0.00     0.003 A 
ENDROOT
BRANCH   1   7
ATOM      7  C1' I4B d   1      -3.420   2.542  -2.406  0.00  0.00     0.060 C 
BRANCH   7   8
ATOM      8  C2' I4B d   1      -4.380   1.729  -3.251  0.00  0.00    -0.013 C 
ATOM      9  C4' I4B d   1      -4.787   2.482  -4.491  0.00  0.00     0.013 C 
ATOM     10  C3' I4B d   1      -3.709   0.435  -3.600  0.00  0.00     0.013 C 
ENDBRANCH   7   8
ENDBRANCH   1   7
TORSDOF 2
ENDMDL
