MODEL 1
REMARK minimizedAffinity 21.1518574
REMARK minimizedRMSD -1
REMARK  2 active torsions:
REMARK  status: ('A' for Active; 'I' for Inactive)
REMARK    1  A    between atoms: C2'_3  and  C1'_4 
REMARK    2  A    between atoms: C1'_4  and  C1_5 
ROOT
ATOM      1  C1  I4B d   1      -3.913   1.872  -2.520  0.00  0.00    -0.075 A 
ATOM      2  C2  I4B d   1      -4.925   2.380  -1.742  0.00  0.00     0.003 A 
ATOM      3  C3  I4B d   1      -6.000   3.081  -2.340  0.00  0.00     0.002 A 
ATOM      4  C4  I4B d   1      -5.998   3.293  -3.704  0.00  0.00    -0.004 A 
ATOM      5  C5  I4B d   1      -4.984   2.758  -4.493  0.00  0.00     0.002 A 
ATOM      6  C6  I4B d   1      -3.941   2.032  -3.899  0.00  0.00     0.003 A 
ENDROOT
BRANCH   1   7
ATOM      7  C1' I4B d   1      -2.776   1.166  -1.852  0.00  0.00     0.060 C 
BRANCH   7   8
ATOM      8  C2' I4B d   1      -2.109   2.145  -0.907  0.00  0.00    -0.013 C 
ATOM      9  C4' I4B d   1      -2.227   3.558  -1.414  0.00  0.00     0.013 C 
ATOM     10  C3' I4B d   1      -2.749   1.997   0.441  0.00  0.00     0.013 C 
ENDBRANCH   7   8
ENDBRANCH   1   7
TORSDOF 2
ENDMDL
