MODEL 1
REMARK minimizedAffinity 16.0355968
REMARK minimizedRMSD -1
REMARK  0 active torsions:
REMARK  status: ('A' for Active; 'I' for Inactive)
ROOT
ATOM      1  C   UNL d   1      -2.016   0.333   1.960  0.00  0.00     0.077 C 
ATOM      2  C1  UNL d   1      -0.815   0.370   1.062  0.00  0.00    -0.074 A 
ATOM      3  C2  UNL d   1       0.191  -0.596   1.167  0.00  0.00    -0.005 A 
ATOM      4  C3  UNL d   1       1.298  -0.553   0.319  0.00  0.00     0.006 A 
ATOM      5  C4  UNL d   1       1.409   0.453  -0.642  0.00  0.00    -0.005 A 
ATOM      6  C5  UNL d   1       0.412   1.426  -0.762  0.00  0.00    -0.074 A 
ATOM      7  C6  UNL d   1       0.511   2.509  -1.795  0.00  0.00     0.077 C 
ATOM      8  C7  UNL d   1      -0.700   1.373   0.090  0.00  0.00    -0.001 A 
ENDROOT
TORSDOF 0
ENDMDL
