MODEL 1
REMARK minimizedAffinity -1.43300402
REMARK minimizedRMSD -1
REMARK  0 active torsions:
REMARK  status: ('A' for Active; 'I' for Inactive)
ROOT
ATOM      1  C   UNL d   1      -2.013  -0.360   1.956  0.00  0.00     0.077 C 
ATOM      2  C1  UNL d   1      -0.931   0.123   1.038  0.00  0.00    -0.074 A 
ATOM      3  C2  UNL d   1      -0.608  -0.582  -0.126  0.00  0.00    -0.005 A 
ATOM      4  C3  UNL d   1       0.395  -0.115  -0.975  0.00  0.00     0.006 A 
ATOM      5  C4  UNL d   1       1.084   1.059  -0.670  0.00  0.00    -0.005 A 
ATOM      6  C5  UNL d   1       0.775   1.778   0.489  0.00  0.00    -0.074 A 
ATOM      7  C6  UNL d   1       1.499   3.047   0.827  0.00  0.00     0.077 C 
ATOM      8  C7  UNL d   1      -0.239   1.306   1.334  0.00  0.00    -0.001 A 
ENDROOT
TORSDOF 0
ENDMDL
