MODEL 1
REMARK minimizedAffinity 6.26151228
REMARK minimizedRMSD -1
REMARK  0 active torsions:
REMARK  status: ('A' for Active; 'I' for Inactive)
ROOT
ATOM      1  C   UNL d   1      -3.340   1.620  -3.062  0.00  0.00     0.077 C 
ATOM      2  C1  UNL d   1      -2.589   2.851  -2.646  0.00  0.00    -0.074 A 
ATOM      3  C2  UNL d   1      -2.466   3.196  -1.296  0.00  0.00    -0.005 A 
ATOM      4  C3  UNL d   1      -1.757   4.338  -0.925  0.00  0.00     0.006 A 
ATOM      5  C4  UNL d   1      -1.165   5.145  -1.897  0.00  0.00    -0.005 A 
ATOM      6  C5  UNL d   1      -1.276   4.815  -3.251  0.00  0.00    -0.074 A 
ATOM      7  C6  UNL d   1      -0.638   5.666  -4.309  0.00  0.00     0.077 C 
ATOM      8  C7  UNL d   1      -1.985   3.662  -3.617  0.00  0.00    -0.001 A 
ENDROOT
TORSDOF 0
ENDMDL
