MODEL 1
REMARK minimizedAffinity 15.2740335
REMARK minimizedRMSD -1
REMARK  0 active torsions:
REMARK  status: ('A' for Active; 'I' for Inactive)
ROOT
ATOM      1  C   UNL d   1       5.239   0.502   0.104  0.00  0.00     0.077 C 
ATOM      2  C1  UNL d   1       3.784   0.740  -0.170  0.00  0.00    -0.074 A 
ATOM      3  C2  UNL d   1       3.365   1.325  -1.370  0.00  0.00    -0.005 A 
ATOM      4  C3  UNL d   1       2.008   1.532  -1.615  0.00  0.00     0.006 A 
ATOM      5  C4  UNL d   1       1.057   1.157  -0.664  0.00  0.00    -0.005 A 
ATOM      6  C5  UNL d   1       1.457   0.571   0.541  0.00  0.00    -0.074 A 
ATOM      7  C6  UNL d   1       0.448   0.153   1.569  0.00  0.00     0.077 C 
ATOM      8  C7  UNL d   1       2.823   0.360   0.776  0.00  0.00    -0.001 A 
ENDROOT
TORSDOF 0
ENDMDL
