MODEL 1
REMARK minimizedAffinity 3.00714159
REMARK minimizedRMSD -1
REMARK  0 active torsions:
REMARK  status: ('A' for Active; 'I' for Inactive)
ROOT
ATOM      1  C   UNL d   1       1.701   5.186  -5.337  0.00  0.00     0.077 C 
ATOM      2  C1  UNL d   1       3.197   5.091  -5.293  0.00  0.00    -0.074 A 
ATOM      3  C2  UNL d   1       3.995   5.998  -5.998  0.00  0.00    -0.005 A 
ATOM      4  C3  UNL d   1       5.386   5.903  -5.941  0.00  0.00     0.006 A 
ATOM      5  C4  UNL d   1       5.991   4.902  -5.179  0.00  0.00    -0.005 A 
ATOM      6  C5  UNL d   1       5.209   3.988  -4.467  0.00  0.00    -0.074 A 
ATOM      7  C6  UNL d   1       5.843   2.912  -3.636  0.00  0.00     0.077 C 
ATOM      8  C7  UNL d   1       3.813   4.094  -4.524  0.00  0.00    -0.001 A 
ENDROOT
TORSDOF 0
ENDMDL
