MODEL 1
REMARK minimizedAffinity 3.81466889
REMARK minimizedRMSD -1
REMARK  0 active torsions:
REMARK  status: ('A' for Active; 'I' for Inactive)
ROOT
ATOM      1  C   UNL d   1       1.576   3.373   0.533  0.00  0.00     0.077 C 
ATOM      2  C1  UNL d   1       0.993   1.992   0.508  0.00  0.00    -0.074 A 
ATOM      3  C2  UNL d   1       1.445   1.037  -0.408  0.00  0.00    -0.005 A 
ATOM      4  C3  UNL d   1       0.900  -0.247  -0.412  0.00  0.00     0.006 A 
ATOM      5  C4  UNL d   1      -0.102  -0.589   0.498  0.00  0.00    -0.005 A 
ATOM      6  C5  UNL d   1      -0.566   0.353   1.422  0.00  0.00    -0.074 A 
ATOM      7  C6  UNL d   1      -1.634  -0.001   2.413  0.00  0.00     0.077 C 
ATOM      8  C7  UNL d   1      -0.008   1.639   1.425  0.00  0.00    -0.001 A 
ENDROOT
TORSDOF 0
ENDMDL
