MODEL 1
REMARK minimizedAffinity 2.82880068
REMARK minimizedRMSD -1
REMARK  0 active torsions:
REMARK  status: ('A' for Active; 'I' for Inactive)
ROOT
ATOM      1  C   UNL d   1       2.098   5.903  -4.504  0.00  0.00     0.077 C 
ATOM      2  C1  UNL d   1       0.603   5.943  -4.387  0.00  0.00    -0.074 A 
ATOM      3  C2  UNL d   1      -0.208   5.953  -5.526  0.00  0.00    -0.005 A 
ATOM      4  C3  UNL d   1      -1.597   5.981  -5.401  0.00  0.00     0.006 A 
ATOM      5  C4  UNL d   1      -2.188   6.000  -4.137  0.00  0.00    -0.005 A 
ATOM      6  C5  UNL d   1      -1.393   5.990  -2.986  0.00  0.00    -0.074 A 
ATOM      7  C6  UNL d   1      -2.013   6.000  -1.620  0.00  0.00     0.077 C 
ATOM      8  C7  UNL d   1       0.001   5.954  -3.120  0.00  0.00    -0.001 A 
ENDROOT
TORSDOF 0
ENDMDL
