MODEL 1
REMARK minimizedAffinity 0.709100544
REMARK minimizedRMSD -1
REMARK  0 active torsions:
REMARK  status: ('A' for Active; 'I' for Inactive)
ROOT
ATOM      1  C   UNL d   1       2.650   5.829  -5.682  0.00  0.00     0.077 C 
ATOM      2  C1  UNL d   1       1.291   5.895  -5.051  0.00  0.00    -0.074 A 
ATOM      3  C2  UNL d   1       0.134   5.918  -5.837  0.00  0.00    -0.005 A 
ATOM      4  C3  UNL d   1      -1.124   5.970  -5.236  0.00  0.00     0.006 A 
ATOM      5  C4  UNL d   1      -1.237   5.998  -3.846  0.00  0.00    -0.005 A 
ATOM      6  C5  UNL d   1      -0.092   5.974  -3.044  0.00  0.00    -0.074 A 
ATOM      7  C6  UNL d   1      -0.197   5.994  -1.548  0.00  0.00     0.077 C 
ATOM      8  C7  UNL d   1       1.168   5.915  -3.655  0.00  0.00    -0.001 A 
ENDROOT
TORSDOF 0
ENDMDL
