MODEL 1
REMARK minimizedAffinity 5.05682325
REMARK minimizedRMSD -1
REMARK  0 active torsions:
REMARK  status: ('A' for Active; 'I' for Inactive)
ROOT
ATOM      1  C   UNL d   1      -0.780  -1.565   0.403  0.00  0.00     0.077 C 
ATOM      2  C1  UNL d   1      -0.386  -0.229   0.959  0.00  0.00    -0.074 A 
ATOM      3  C2  UNL d   1      -0.790   0.164   2.239  0.00  0.00    -0.005 A 
ATOM      4  C3  UNL d   1      -0.408   1.406   2.747  0.00  0.00     0.006 A 
ATOM      5  C4  UNL d   1       0.380   2.266   1.981  0.00  0.00    -0.005 A 
ATOM      6  C5  UNL d   1       0.795   1.889   0.700  0.00  0.00    -0.074 A 
ATOM      7  C6  UNL d   1       1.650   2.797  -0.133  0.00  0.00     0.077 C 
ATOM      8  C7  UNL d   1       0.412   0.637   0.199  0.00  0.00    -0.001 A 
ENDROOT
TORSDOF 0
ENDMDL
