MODEL 1
REMARK minimizedAffinity 6.56545973
REMARK minimizedRMSD -1
REMARK  0 active torsions:
REMARK  status: ('A' for Active; 'I' for Inactive)
ROOT
ATOM      1  C   UNL d   1       0.891   0.967   4.262  0.00  0.00     0.077 C 
ATOM      2  C1  UNL d   1       0.589   0.938   2.794  0.00  0.00    -0.074 A 
ATOM      3  C2  UNL d   1       1.542   1.350   1.856  0.00  0.00    -0.005 A 
ATOM      4  C3  UNL d   1       1.250   1.309   0.492  0.00  0.00     0.006 A 
ATOM      5  C4  UNL d   1       0.004   0.857   0.054  0.00  0.00    -0.005 A 
ATOM      6  C5  UNL d   1      -0.960   0.441   0.977  0.00  0.00    -0.074 A 
ATOM      7  C6  UNL d   1      -2.300  -0.057   0.522  0.00  0.00     0.077 C 
ATOM      8  C7  UNL d   1      -0.657   0.478   2.345  0.00  0.00    -0.001 A 
ENDROOT
TORSDOF 0
ENDMDL
