MODEL 1
REMARK minimizedAffinity 0.0740991533
REMARK minimizedRMSD -1
REMARK  0 active torsions:
REMARK  status: ('A' for Active; 'I' for Inactive)
ROOT
ATOM      1  C   UNL d   1       1.555   3.363   0.380  0.00  0.00     0.077 C 
ATOM      2  C1  UNL d   1       1.139   1.922   0.333  0.00  0.00    -0.074 A 
ATOM      3  C2  UNL d   1       1.733   1.032  -0.568  0.00  0.00    -0.005 A 
ATOM      4  C3  UNL d   1       1.343  -0.307  -0.593  0.00  0.00     0.006 A 
ATOM      5  C4  UNL d   1       0.357  -0.768   0.279  0.00  0.00    -0.005 A 
ATOM      6  C5  UNL d   1      -0.247   0.107   1.187  0.00  0.00    -0.074 A 
ATOM      7  C6  UNL d   1      -1.301  -0.375   2.139  0.00  0.00     0.077 C 
ATOM      8  C7  UNL d   1       0.155   1.449   1.212  0.00  0.00    -0.001 A 
ENDROOT
TORSDOF 0
ENDMDL
