MODEL 1
REMARK minimizedAffinity 3.34300423
REMARK minimizedRMSD -1
REMARK  0 active torsions:
REMARK  status: ('A' for Active; 'I' for Inactive)
ROOT
ATOM      1  C   UNL d   1      -0.652  -0.422  -4.491  0.00  0.00     0.077 C 
ATOM      2  C1  UNL d   1      -0.899  -0.262  -3.020  0.00  0.00    -0.074 A 
ATOM      3  C2  UNL d   1      -2.182  -0.413  -2.486  0.00  0.00    -0.005 A 
ATOM      4  C3  UNL d   1      -2.395  -0.271  -1.115  0.00  0.00     0.006 A 
ATOM      5  C4  UNL d   1      -1.328   0.023  -0.265  0.00  0.00    -0.005 A 
ATOM      6  C5  UNL d   1      -0.037   0.176  -0.781  0.00  0.00    -0.074 A 
ATOM      7  C6  UNL d   1       1.123   0.482   0.119  0.00  0.00     0.077 C 
ATOM      8  C7  UNL d   1       0.170   0.025  -2.159  0.00  0.00    -0.001 A 
ENDROOT
TORSDOF 0
ENDMDL
