MODEL 1
REMARK minimizedAffinity 2.13762379
REMARK minimizedRMSD -1
REMARK  0 active torsions:
REMARK  status: ('A' for Active; 'I' for Inactive)
ROOT
ATOM      1  C   UNL d   1       1.607   3.539   1.249  0.00  0.00     0.077 C 
ATOM      2  C1  UNL d   1       1.035   2.206   0.867  0.00  0.00    -0.074 A 
ATOM      3  C2  UNL d   1       1.463   1.544  -0.288  0.00  0.00    -0.005 A 
ATOM      4  C3  UNL d   1       0.929   0.300  -0.624  0.00  0.00     0.006 A 
ATOM      5  C4  UNL d   1      -0.037  -0.293   0.189  0.00  0.00    -0.005 A 
ATOM      6  C5  UNL d   1      -0.476   0.354   1.349  0.00  0.00    -0.074 A 
ATOM      7  C6  UNL d   1      -1.506  -0.275   2.240  0.00  0.00     0.077 C 
ATOM      8  C7  UNL d   1       0.070   1.600   1.684  0.00  0.00    -0.001 A 
ENDROOT
TORSDOF 0
ENDMDL
