MODEL 1
REMARK minimizedAffinity 5.90096712
REMARK minimizedRMSD -1
REMARK  0 active torsions:
REMARK  status: ('A' for Active; 'I' for Inactive)
ROOT
ATOM      1  C   UNL d   1       0.388   4.397  -5.054  0.00  0.00     0.077 C 
ATOM      2  C1  UNL d   1       1.853   4.718  -5.107  0.00  0.00    -0.074 A 
ATOM      3  C2  UNL d   1       2.341   5.706  -5.968  0.00  0.00    -0.005 A 
ATOM      4  C3  UNL d   1       3.704   5.999  -6.000  0.00  0.00     0.006 A 
ATOM      5  C4  UNL d   1       4.591   5.308  -5.173  0.00  0.00    -0.005 A 
ATOM      6  C5  UNL d   1       4.121   4.318  -4.306  0.00  0.00    -0.074 A 
ATOM      7  C6  UNL d   1       5.060   3.572  -3.404  0.00  0.00     0.077 C 
ATOM      8  C7  UNL d   1       2.749   4.033  -4.274  0.00  0.00    -0.001 A 
ENDROOT
TORSDOF 0
ENDMDL
