MODEL 1
REMARK minimizedAffinity 2.79061007
REMARK minimizedRMSD -1
REMARK  0 active torsions:
REMARK  status: ('A' for Active; 'I' for Inactive)
ROOT
ATOM      1  C   UNL d   1       1.224   0.923  -1.548  0.00  0.00     0.077 C 
ATOM      2  C1  UNL d   1       0.977   0.989  -0.070  0.00  0.00    -0.074 A 
ATOM      3  C2  UNL d   1       1.748   1.820   0.751  0.00  0.00    -0.005 A 
ATOM      4  C3  UNL d   1       1.501   1.878   2.122  0.00  0.00     0.006 A 
ATOM      5  C4  UNL d   1       0.483   1.107   2.686  0.00  0.00    -0.005 A 
ATOM      6  C5  UNL d   1      -0.298   0.272   1.881  0.00  0.00    -0.074 A 
ATOM      7  C6  UNL d   1      -1.402  -0.555   2.470  0.00  0.00     0.077 C 
ATOM      8  C7  UNL d   1      -0.048   0.225   0.503  0.00  0.00    -0.001 A 
ENDROOT
TORSDOF 0
ENDMDL
