MODEL 1
REMARK minimizedAffinity 7.52718306
REMARK minimizedRMSD -1
REMARK  3 active torsions:
REMARK  status: ('A' for Active; 'I' for Inactive)
REMARK    1  A    between atoms: C3'_2  and  C2'_3 
REMARK    2  A    between atoms: C2'_3  and  C1'_4 
REMARK    3  A    between atoms: C1'_4  and  C1_5 
ROOT
ATOM      1  C1  N4B d   1       1.990   0.943   1.524  0.00  0.00    -0.075 A 
ATOM      2  C2  N4B d   1       0.787   0.309   1.144  0.00  0.00     0.002 A 
ATOM      3  C3  N4B d   1       0.015   0.845   0.143  0.00  0.00     0.002 A 
ATOM      4  C4  N4B d   1       0.414   2.020  -0.477  0.00  0.00    -0.004 A 
ATOM      5  C5  N4B d   1       1.590   2.613  -0.120  0.00  0.00     0.002 A 
ATOM      6  C6  N4B d   1       2.378   2.083   0.881  0.00  0.00     0.002 A 
ENDROOT
BRANCH   1   7
ATOM      7  C1' N4B d   1       2.824   0.442   2.672  0.00  0.00     0.057 C 
BRANCH   7   8
ATOM      8  C2' N4B d   1       1.929  -0.316   3.648  0.00  0.00     0.009 C 
BRANCH   8   9
ATOM      9  C3' N4B d   1       2.513  -1.667   4.022  0.00  0.00     0.004 C 
ATOM     10  C4' N4B d   1       1.597  -2.808   3.691  0.00  0.00     0.003 C 
ENDBRANCH   8   9
ENDBRANCH   7   8
ENDBRANCH   1   7
TORSDOF 3
ENDMDL
