MODEL 1
REMARK minimizedAffinity -4.74158573
REMARK minimizedRMSD -1
REMARK  0 active torsions:
REMARK  status: ('A' for Active; 'I' for Inactive)
ROOT
ATOM      1  N1  IND d   1      -0.472   0.878  -0.106  0.00  0.00    -0.196 N 
ATOM      2  C2  IND d   1       0.592   0.405  -0.822  0.00  0.00     0.054 A 
ATOM      3  C3  IND d   1       0.784  -0.909  -0.565  0.00  0.00    -0.031 A 
ATOM      4  C4  IND d   1      -0.589  -2.503   0.918  0.00  0.00     0.051 A 
ATOM      5  C5  IND d   1      -1.632  -2.523   1.801  0.00  0.00    -0.031 A 
ATOM      6  C6  IND d   1      -2.357  -1.388   2.098  0.00  0.00     0.015 A 
ATOM      7  C7  IND d   1      -2.073  -0.187   1.511  0.00  0.00    -0.016 A 
ATOM      8  C8  IND d   1      -1.011  -0.162   0.619  0.00  0.00    -0.047 A 
ATOM      9  C9  IND d   1      -0.244  -1.302   0.346  0.00  0.00    -0.096 A 
ATOM     10  HN1 IND d   1      -0.757   1.690  -0.108  0.00  0.00     0.298 HD
ENDROOT
TORSDOF 0
ENDMDL
