MODEL 1
REMARK minimizedAffinity -1.80388165
REMARK minimizedRMSD -1
REMARK  0 active torsions:
REMARK  status: ('A' for Active; 'I' for Inactive)
ROOT
ATOM      1  N1  IND d   1       3.932   1.377  -4.192  0.00  0.00    -0.196 N 
ATOM      2  C2  IND d   1       4.937   1.685  -3.318  0.00  0.00     0.054 A 
ATOM      3  C3  IND d   1       4.432   2.252  -2.200  0.00  0.00    -0.031 A 
ATOM      4  C4  IND d   1       1.978   2.680  -1.549  0.00  0.00     0.051 A 
ATOM      5  C5  IND d   1       0.704   2.601  -2.039  0.00  0.00    -0.031 A 
ATOM      6  C6  IND d   1       0.436   2.098  -3.295  0.00  0.00     0.015 A 
ATOM      7  C7  IND d   1       1.435   1.642  -4.108  0.00  0.00    -0.016 A 
ATOM      8  C8  IND d   1       2.730   1.727  -3.617  0.00  0.00    -0.047 A 
ATOM      9  C9  IND d   1       3.012   2.276  -2.360  0.00  0.00    -0.096 A 
ATOM     10  HN1 IND d   1       4.034   1.025  -4.970  0.00  0.00     0.298 HD
ENDROOT
TORSDOF 0
ENDMDL
