MODEL 1
REMARK minimizedAffinity -3.01675892
REMARK minimizedRMSD -1
REMARK  0 active torsions:
REMARK  status: ('A' for Active; 'I' for Inactive)
ROOT
ATOM      1  N1  IND d   1      -0.234  -2.644   1.582  0.00  0.00    -0.196 N 
ATOM      2  C2  IND d   1      -1.583  -2.802   1.430  0.00  0.00     0.054 A 
ATOM      3  C3  IND d   1      -2.102  -1.767   0.732  0.00  0.00    -0.031 A 
ATOM      4  C4  IND d   1      -0.906   0.242  -0.345  0.00  0.00     0.051 A 
ATOM      5  C5  IND d   1       0.319   0.839  -0.446  0.00  0.00    -0.031 A 
ATOM      6  C6  IND d   1       1.446   0.292   0.133  0.00  0.00     0.015 A 
ATOM      7  C7  IND d   1       1.392  -0.882   0.828  0.00  0.00    -0.016 A 
ATOM      8  C8  IND d   1       0.148  -1.487   0.939  0.00  0.00    -0.047 A 
ATOM      9  C9  IND d   1      -1.007  -0.915   0.390  0.00  0.00    -0.096 A 
ATOM     10  HN1 IND d   1       0.289  -3.178   2.007  0.00  0.00     0.298 HD
ENDROOT
TORSDOF 0
ENDMDL
