MODEL 1
REMARK minimizedAffinity -2.13538146
REMARK minimizedRMSD -1
REMARK  0 active torsions:
REMARK  status: ('A' for Active; 'I' for Inactive)
ROOT
ATOM      1  N1  IND d   1      -2.184   0.697   1.687  0.00  0.00    -0.196 N 
ATOM      2  C2  IND d   1      -2.735  -0.149   2.609  0.00  0.00     0.054 A 
ATOM      3  C3  IND d   1      -2.107  -1.346   2.582  0.00  0.00    -0.031 A 
ATOM      4  C4  IND d   1      -0.087  -2.103   1.177  0.00  0.00     0.051 A 
ATOM      5  C5  IND d   1       0.738  -1.691   0.169  0.00  0.00    -0.031 A 
ATOM      6  C6  IND d   1       0.631  -0.436  -0.395  0.00  0.00     0.015 A 
ATOM      7  C7  IND d   1      -0.302   0.462   0.039  0.00  0.00    -0.016 A 
ATOM      8  C8  IND d   1      -1.147   0.045   1.058  0.00  0.00    -0.047 A 
ATOM      9  C9  IND d   1      -1.070  -1.242   1.605  0.00  0.00    -0.096 A 
ATOM     10  HN1 IND d   1      -2.443   1.501   1.527  0.00  0.00     0.298 HD
ENDROOT
TORSDOF 0
ENDMDL
