MODEL 1
REMARK minimizedAffinity -3.18700075
REMARK minimizedRMSD -1
REMARK  0 active torsions:
REMARK  status: ('A' for Active; 'I' for Inactive)
ROOT
ATOM      1  N1  IND d   1      -0.838   0.828   0.142  0.00  0.00    -0.196 N 
ATOM      2  C2  IND d   1       0.178   0.337  -0.630  0.00  0.00     0.054 A 
ATOM      3  C3  IND d   1       0.388  -0.970  -0.358  0.00  0.00    -0.031 A 
ATOM      4  C4  IND d   1      -0.885  -2.531   1.246  0.00  0.00     0.051 A 
ATOM      5  C5  IND d   1      -1.868  -2.530   2.195  0.00  0.00    -0.031 A 
ATOM      6  C6  IND d   1      -2.574  -1.388   2.513  0.00  0.00     0.015 A 
ATOM      7  C7  IND d   1      -2.330  -0.201   1.883  0.00  0.00    -0.016 A 
ATOM      8  C8  IND d   1      -1.327  -0.196   0.923  0.00  0.00    -0.047 A 
ATOM      9  C9  IND d   1      -0.579  -1.342   0.626  0.00  0.00    -0.096 A 
ATOM     10  HN1 IND d   1      -1.122   1.639   0.141  0.00  0.00     0.298 HD
ENDROOT
TORSDOF 0
ENDMDL
