MODEL 1
REMARK minimizedAffinity -4.38986778
REMARK minimizedRMSD -1
REMARK  0 active torsions:
REMARK  status: ('A' for Active; 'I' for Inactive)
ROOT
ATOM      1  N1  IND d   1       1.088   2.548  -2.188  0.00  0.00    -0.196 N 
ATOM      2  C2  IND d   1       0.994   2.282  -3.526  0.00  0.00     0.054 A 
ATOM      3  C3  IND d   1       0.807   0.959  -3.731  0.00  0.00    -0.031 A 
ATOM      4  C4  IND d   1       0.520  -0.937  -2.013  0.00  0.00     0.051 A 
ATOM      5  C5  IND d   1       0.565  -1.191  -0.671  0.00  0.00    -0.031 A 
ATOM      6  C6  IND d   1       0.789  -0.191   0.253  0.00  0.00     0.015 A 
ATOM      7  C7  IND d   1       0.965   1.108  -0.132  0.00  0.00    -0.016 A 
ATOM      8  C8  IND d   1       0.927   1.368  -1.495  0.00  0.00    -0.047 A 
ATOM      9  C9  IND d   1       0.742   0.351  -2.440  0.00  0.00    -0.096 A 
ATOM     10  HN1 IND d   1       1.224   3.321  -1.839  0.00  0.00     0.298 HD
ENDROOT
TORSDOF 0
ENDMDL
