MODEL 1
REMARK minimizedAffinity -2.69918823
REMARK minimizedRMSD -1
REMARK  0 active torsions:
REMARK  status: ('A' for Active; 'I' for Inactive)
ROOT
ATOM      1  N1  IND d   1      -0.179   0.367  -1.836  0.00  0.00    -0.196 N 
ATOM      2  C2  IND d   1       0.435   1.438  -1.249  0.00  0.00     0.054 A 
ATOM      3  C3  IND d   1       0.507   1.263   0.090  0.00  0.00    -0.031 A 
ATOM      4  C4  IND d   1      -0.225  -0.749   1.519  0.00  0.00     0.051 A 
ATOM      5  C5  IND d   1      -0.870  -1.951   1.436  0.00  0.00    -0.031 A 
ATOM      6  C6  IND d   1      -1.324  -2.454   0.233  0.00  0.00     0.015 A 
ATOM      7  C7  IND d   1      -1.139  -1.774  -0.938  0.00  0.00    -0.016 A 
ATOM      8  C8  IND d   1      -0.492  -0.550  -0.856  0.00  0.00    -0.047 A 
ATOM      9  C9  IND d   1      -0.066  -0.015   0.367  0.00  0.00    -0.096 A 
ATOM     10  HN1 IND d   1      -0.343   0.281  -2.675  0.00  0.00     0.298 HD
ENDROOT
TORSDOF 0
ENDMDL
