MODEL 1
REMARK minimizedAffinity -3.16152406
REMARK minimizedRMSD -1
REMARK  0 active torsions:
REMARK  status: ('A' for Active; 'I' for Inactive)
ROOT
ATOM      1  N1  IND d   1      -0.012  -2.710   1.421  0.00  0.00    -0.196 N 
ATOM      2  C2  IND d   1       0.924  -2.462   0.456  0.00  0.00     0.054 A 
ATOM      3  C3  IND d   1       0.727  -1.240  -0.088  0.00  0.00    -0.031 A 
ATOM      4  C4  IND d   1      -1.009   0.560   0.521  0.00  0.00     0.051 A 
ATOM      5  C5  IND d   1      -2.100   0.780   1.314  0.00  0.00    -0.031 A 
ATOM      6  C6  IND d   1      -2.559  -0.170   2.203  0.00  0.00     0.015 A 
ATOM      7  C7  IND d   1      -1.933  -1.377   2.341  0.00  0.00    -0.016 A 
ATOM      8  C8  IND d   1      -0.829  -1.607   1.532  0.00  0.00    -0.047 A 
ATOM      9  C9  IND d   1      -0.385  -0.662   0.598  0.00  0.00    -0.096 A 
ATOM     10  HN1 IND d   1      -0.079  -3.434   1.880  0.00  0.00     0.298 HD
ENDROOT
TORSDOF 0
ENDMDL
