MODEL 1
REMARK minimizedAffinity -1.50745821
REMARK minimizedRMSD -1
REMARK  0 active torsions:
REMARK  status: ('A' for Active; 'I' for Inactive)
ROOT
ATOM      1  N1  IND d   1      -0.163  -1.047  -0.753  0.00  0.00    -0.196 N 
ATOM      2  C2  IND d   1       0.686  -1.101   0.317  0.00  0.00     0.054 A 
ATOM      3  C3  IND d   1       1.541  -0.054   0.293  0.00  0.00    -0.031 A 
ATOM      4  C4  IND d   1       1.658   1.923  -1.352  0.00  0.00     0.051 A 
ATOM      5  C5  IND d   1       1.112   2.391  -2.515  0.00  0.00    -0.031 A 
ATOM      6  C6  IND d   1       0.091   1.725  -3.160  0.00  0.00     0.015 A 
ATOM      7  C7  IND d   1      -0.433   0.567  -2.660  0.00  0.00    -0.016 A 
ATOM      8  C8  IND d   1       0.124   0.085  -1.484  0.00  0.00    -0.047 A 
ATOM      9  C9  IND d   1       1.189   0.734  -0.847  0.00  0.00    -0.096 A 
ATOM     10  HN1 IND d   1      -0.773  -1.624  -0.938  0.00  0.00     0.298 HD
ENDROOT
TORSDOF 0
ENDMDL
