MODEL 1
REMARK minimizedAffinity -2.41758204
REMARK minimizedRMSD -1
REMARK  0 active torsions:
REMARK  status: ('A' for Active; 'I' for Inactive)
ROOT
ATOM      1  N1  IND d   1       0.016   1.647  -0.651  0.00  0.00    -0.196 N 
ATOM      2  C2  IND d   1       0.944   1.582  -1.653  0.00  0.00     0.054 A 
ATOM      3  C3  IND d   1       1.552   0.374  -1.653  0.00  0.00    -0.031 A 
ATOM      4  C4  IND d   1       1.111  -1.679  -0.165  0.00  0.00     0.051 A 
ATOM      5  C5  IND d   1       0.383  -2.089   0.917  0.00  0.00    -0.031 A 
ATOM      6  C6  IND d   1      -0.524  -1.259   1.542  0.00  0.00     0.015 A 
ATOM      7  C7  IND d   1      -0.747   0.015   1.100  0.00  0.00    -0.016 A 
ATOM      8  C8  IND d   1      -0.005   0.437   0.006  0.00  0.00    -0.047 A 
ATOM      9  C9  IND d   1       0.948  -0.387  -0.606  0.00  0.00    -0.096 A 
ATOM     10  HN1 IND d   1      -0.472   2.330  -0.463  0.00  0.00     0.298 HD
ENDROOT
TORSDOF 0
ENDMDL
