MODEL 1
REMARK minimizedAffinity -4.48483849
REMARK minimizedRMSD -1
REMARK  0 active torsions:
REMARK  status: ('A' for Active; 'I' for Inactive)
ROOT
ATOM      1  N1  IND d   1      -1.474   1.091   0.978  0.00  0.00    -0.196 N 
ATOM      2  C2  IND d   1      -0.688   2.165   0.668  0.00  0.00     0.054 A 
ATOM      3  C3  IND d   1       0.541   1.752   0.283  0.00  0.00    -0.031 A 
ATOM      4  C4  IND d   1       1.446  -0.640  -0.008  0.00  0.00     0.051 A 
ATOM      5  C5  IND d   1       1.111  -1.950   0.188  0.00  0.00    -0.031 A 
ATOM      6  C6  IND d   1      -0.130  -2.321   0.665  0.00  0.00     0.015 A 
ATOM      7  C7  IND d   1      -1.089  -1.392   0.953  0.00  0.00    -0.016 A 
ATOM      8  C8  IND d   1      -0.749  -0.060   0.762  0.00  0.00    -0.047 A 
ATOM      9  C9  IND d   1       0.523   0.324   0.319  0.00  0.00    -0.096 A 
ATOM     10  HN1 IND d   1      -2.286   1.128   1.260  0.00  0.00     0.298 HD
ENDROOT
TORSDOF 0
ENDMDL
