MODEL 1
REMARK minimizedAffinity -3.81116629
REMARK minimizedRMSD -1
REMARK  0 active torsions:
REMARK  status: ('A' for Active; 'I' for Inactive)
ROOT
ATOM      1  N1  IND d   1       1.120   0.583  -3.326  0.00  0.00    -0.196 N 
ATOM      2  C2  IND d   1       1.318   1.934  -3.258  0.00  0.00     0.054 A 
ATOM      3  C3  IND d   1       0.990   2.397  -2.031  0.00  0.00    -0.031 A 
ATOM      4  C4  IND d   1       0.203   1.100   0.049  0.00  0.00     0.051 A 
ATOM      5  C5  IND d   1      -0.162  -0.150   0.465  0.00  0.00    -0.031 A 
ATOM      6  C6  IND d   1      -0.114  -1.242  -0.378  0.00  0.00     0.015 A 
ATOM      7  C7  IND d   1       0.312  -1.126  -1.670  0.00  0.00    -0.016 A 
ATOM      8  C8  IND d   1       0.677   0.143  -2.098  0.00  0.00    -0.047 A 
ATOM      9  C9  IND d   1       0.590   1.262  -1.260  0.00  0.00    -0.096 A 
ATOM     10  HN1 IND d   1       1.250   0.091  -4.019  0.00  0.00     0.298 HD
ENDROOT
TORSDOF 0
ENDMDL
