MODEL 1
REMARK minimizedAffinity -5.28561592
REMARK minimizedRMSD -1
REMARK  0 active torsions:
REMARK  status: ('A' for Active; 'I' for Inactive)
ROOT
ATOM      1  N1  IND d   1       0.651   0.525  -1.869  0.00  0.00    -0.196 N 
ATOM      2  C2  IND d   1       0.453   1.733  -1.260  0.00  0.00     0.054 A 
ATOM      3  C3  IND d   1       0.043   1.554   0.016  0.00  0.00    -0.031 A 
ATOM      4  C4  IND d   1      -0.273  -0.630   1.342  0.00  0.00     0.051 A 
ATOM      5  C5  IND d   1      -0.249  -1.989   1.201  0.00  0.00    -0.031 A 
ATOM      6  C6  IND d   1       0.085  -2.592   0.006  0.00  0.00     0.015 A 
ATOM      7  C7  IND d   1       0.421  -1.855  -1.095  0.00  0.00    -0.016 A 
ATOM      8  C8  IND d   1       0.391  -0.474  -0.957  0.00  0.00    -0.047 A 
ATOM      9  C9  IND d   1       0.011   0.144   0.242  0.00  0.00    -0.096 A 
ATOM     10  HN1 IND d   1       0.896   0.409  -2.685  0.00  0.00     0.298 HD
ENDROOT
TORSDOF 0
ENDMDL
