MODEL 1
REMARK minimizedAffinity -1.11641502
REMARK minimizedRMSD -1
REMARK  0 active torsions:
REMARK  status: ('A' for Active; 'I' for Inactive)
ROOT
ATOM      1  N1  IND d   1      -0.519   1.694  -1.890  0.00  0.00    -0.196 N 
ATOM      2  C2  IND d   1       0.747   1.952  -2.336  0.00  0.00     0.054 A 
ATOM      3  C3  IND d   1       1.642   1.176  -1.684  0.00  0.00    -0.031 A 
ATOM      4  C4  IND d   1       1.241  -0.657   0.078  0.00  0.00     0.051 A 
ATOM      5  C5  IND d   1       0.254  -1.229   0.831  0.00  0.00    -0.031 A 
ATOM      6  C6  IND d   1      -1.067  -0.850   0.712  0.00  0.00     0.015 A 
ATOM      7  C7  IND d   1      -1.455   0.111  -0.178  0.00  0.00    -0.016 A 
ATOM      8  C8  IND d   1      -0.455   0.699  -0.940  0.00  0.00    -0.047 A 
ATOM      9  C9  IND d   1       0.893   0.349  -0.792  0.00  0.00    -0.096 A 
ATOM     10  HN1 IND d   1      -1.235   2.088  -2.158  0.00  0.00     0.298 HD
ENDROOT
TORSDOF 0
ENDMDL
