MODEL 1
REMARK minimizedAffinity -1.41810191
REMARK minimizedRMSD -1
REMARK  0 active torsions:
REMARK  status: ('A' for Active; 'I' for Inactive)
ROOT
ATOM      1  N1  IND d   1       0.029   1.048   0.224  0.00  0.00    -0.196 N 
ATOM      2  C2  IND d   1       0.528   1.268  -1.030  0.00  0.00     0.054 A 
ATOM      3  C3  IND d   1       0.900   0.100  -1.600  0.00  0.00    -0.031 A 
ATOM      4  C4  IND d   1       0.688  -2.302  -0.696  0.00  0.00     0.051 A 
ATOM      5  C5  IND d   1       0.328  -3.005   0.419  0.00  0.00    -0.031 A 
ATOM      6  C6  IND d   1      -0.163  -2.381   1.547  0.00  0.00     0.015 A 
ATOM      7  C7  IND d   1      -0.323  -1.025   1.599  0.00  0.00    -0.016 A 
ATOM      8  C8  IND d   1       0.048  -0.307   0.472  0.00  0.00    -0.047 A 
ATOM      9  C9  IND d   1       0.587  -0.931  -0.661  0.00  0.00    -0.096 A 
ATOM     10  HN1 IND d   1      -0.249   1.654   0.766  0.00  0.00     0.298 HD
ENDROOT
TORSDOF 0
ENDMDL
