MODEL 1
REMARK minimizedAffinity -3.91456914
REMARK minimizedRMSD -1
REMARK  0 active torsions:
REMARK  status: ('A' for Active; 'I' for Inactive)
ROOT
ATOM      1  N1  IND d   1      -0.434   1.019   0.053  0.00  0.00    -0.196 N 
ATOM      2  C2  IND d   1       0.618   0.568  -0.695  0.00  0.00     0.054 A 
ATOM      3  C3  IND d   1       0.683  -0.781  -0.650  0.00  0.00    -0.031 A 
ATOM      4  C4  IND d   1      -0.893  -2.457   0.505  0.00  0.00     0.051 A 
ATOM      5  C5  IND d   1      -1.974  -2.520   1.339  0.00  0.00    -0.031 A 
ATOM      6  C6  IND d   1      -2.612  -1.384   1.793  0.00  0.00     0.015 A 
ATOM      7  C7  IND d   1      -2.197  -0.137   1.420  0.00  0.00    -0.016 A 
ATOM      8  C8  IND d   1      -1.095  -0.069   0.580  0.00  0.00    -0.047 A 
ATOM      9  C9  IND d   1      -0.418  -1.217   0.149  0.00  0.00    -0.096 A 
ATOM     10  HN1 IND d   1      -0.646   1.843   0.174  0.00  0.00     0.298 HD
ENDROOT
TORSDOF 0
ENDMDL
