MODEL 1
REMARK minimizedAffinity -5.47801447
REMARK minimizedRMSD -1
REMARK  0 active torsions:
REMARK  status: ('A' for Active; 'I' for Inactive)
ROOT
ATOM      1  N1  IND d   1       1.192   0.113  -0.394  0.00  0.00    -0.196 N 
ATOM      2  C2  IND d   1       0.377   0.609  -1.372  0.00  0.00     0.054 A 
ATOM      3  C3  IND d   1      -0.823  -0.011  -1.345  0.00  0.00    -0.031 A 
ATOM      4  C4  IND d   1      -1.703  -1.798   0.286  0.00  0.00     0.051 A 
ATOM      5  C5  IND d   1      -1.312  -2.594   1.326  0.00  0.00    -0.031 A 
ATOM      6  C6  IND d   1      -0.041  -2.524   1.859  0.00  0.00     0.015 A 
ATOM      7  C7  IND d   1       0.886  -1.645   1.377  0.00  0.00    -0.016 A 
ATOM      8  C8  IND d   1       0.495  -0.841   0.315  0.00  0.00    -0.047 A 
ATOM      9  C9  IND d   1      -0.780  -0.937  -0.257  0.00  0.00    -0.096 A 
ATOM     10  HN1 IND d   1       2.004   0.355  -0.246  0.00  0.00     0.298 HD
ENDROOT
TORSDOF 0
ENDMDL
