MODEL 1
REMARK minimizedAffinity -1.73195124
REMARK minimizedRMSD -1
REMARK  0 active torsions:
REMARK  status: ('A' for Active; 'I' for Inactive)
ROOT
ATOM      1  C   UNL d   1       1.637  -0.708  -0.576  0.00  0.00     0.077 C 
ATOM      2  C1  UNL d   1       0.447   0.204  -0.622  0.00  0.00    -0.074 A 
ATOM      3  C2  UNL d   1      -0.003   0.858   0.530  0.00  0.00    -0.005 A 
ATOM      4  C3  UNL d   1      -1.105   1.710   0.470  0.00  0.00     0.006 A 
ATOM      5  C4  UNL d   1      -1.768   1.917  -0.741  0.00  0.00    -0.005 A 
ATOM      6  C5  UNL d   1      -1.332   1.273  -1.903  0.00  0.00    -0.074 A 
ATOM      7  C6  UNL d   1      -2.028   1.492  -3.214  0.00  0.00     0.077 C 
ATOM      8  C7  UNL d   1      -0.220   0.423  -1.836  0.00  0.00    -0.001 A 
ENDROOT
TORSDOF 0
ENDMDL
