MODEL 1
REMARK minimizedAffinity -0.560833752
REMARK minimizedRMSD -1
REMARK  0 active torsions:
REMARK  status: ('A' for Active; 'I' for Inactive)
ROOT
ATOM      1  C   UNL d   1      -0.805  -1.604   3.380  0.00  0.00     0.077 C 
ATOM      2  C1  UNL d   1      -0.024  -1.196   2.165  0.00  0.00    -0.074 A 
ATOM      3  C2  UNL d   1       1.237  -1.740   1.905  0.00  0.00    -0.005 A 
ATOM      4  C3  UNL d   1       1.947  -1.358   0.767  0.00  0.00     0.006 A 
ATOM      5  C4  UNL d   1       1.403  -0.430  -0.121  0.00  0.00    -0.005 A 
ATOM      6  C5  UNL d   1       0.143   0.124   0.121  0.00  0.00    -0.074 A 
ATOM      7  C6  UNL d   1      -0.461   1.116  -0.828  0.00  0.00     0.077 C 
ATOM      8  C7  UNL d   1      -0.567  -0.270   1.264  0.00  0.00    -0.001 A 
ENDROOT
TORSDOF 0
ENDMDL
