MODEL 1
REMARK minimizedAffinity -4.37854052
REMARK minimizedRMSD -1
REMARK  0 active torsions:
REMARK  status: ('A' for Active; 'I' for Inactive)
ROOT
ATOM      1  C   UNL d   1      -0.851  -1.783   3.081  0.00  0.00     0.077 C 
ATOM      2  C1  UNL d   1      -0.026  -1.343   1.908  0.00  0.00    -0.074 A 
ATOM      3  C2  UNL d   1       1.251  -1.868   1.689  0.00  0.00    -0.005 A 
ATOM      4  C3  UNL d   1       2.002  -1.455   0.588  0.00  0.00     0.006 A 
ATOM      5  C4  UNL d   1       1.484  -0.515  -0.303  0.00  0.00    -0.005 A 
ATOM      6  C5  UNL d   1       0.208   0.021  -0.101  0.00  0.00    -0.074 A 
ATOM      7  C6  UNL d   1      -0.367   1.025  -1.054  0.00  0.00     0.077 C 
ATOM      8  C7  UNL d   1      -0.543  -0.404   1.004  0.00  0.00    -0.001 A 
ENDROOT
TORSDOF 0
ENDMDL
