MODEL 1
REMARK minimizedAffinity -3.49696302
REMARK minimizedRMSD -1
REMARK  0 active torsions:
REMARK  status: ('A' for Active; 'I' for Inactive)
ROOT
ATOM      1  C   UNL d   1      -2.491   1.458  -3.019  0.00  0.00     0.077 C 
ATOM      2  C1  UNL d   1      -1.719   1.337  -1.739  0.00  0.00    -0.074 A 
ATOM      3  C2  UNL d   1      -2.052   2.109  -0.622  0.00  0.00    -0.005 A 
ATOM      4  C3  UNL d   1      -1.331   1.978   0.564  0.00  0.00     0.006 A 
ATOM      5  C4  UNL d   1      -0.271   1.074   0.646  0.00  0.00    -0.005 A 
ATOM      6  C5  UNL d   1       0.076   0.292  -0.461  0.00  0.00    -0.074 A 
ATOM      7  C6  UNL d   1       1.206  -0.691  -0.387  0.00  0.00     0.077 C 
ATOM      8  C7  UNL d   1      -0.658   0.425  -1.647  0.00  0.00    -0.001 A 
ENDROOT
TORSDOF 0
ENDMDL
