MODEL 1
REMARK minimizedAffinity -2.65006161
REMARK minimizedRMSD -1
REMARK  0 active torsions:
REMARK  status: ('A' for Active; 'I' for Inactive)
ROOT
ATOM      1  C   UNL d   1      -0.638   1.291  -1.781  0.00  0.00     0.077 C 
ATOM      2  C1  UNL d   1      -0.446   0.528  -0.505  0.00  0.00    -0.074 A 
ATOM      3  C2  UNL d   1      -1.351   0.659   0.554  0.00  0.00    -0.005 A 
ATOM      4  C3  UNL d   1      -1.165  -0.065   1.732  0.00  0.00     0.006 A 
ATOM      5  C4  UNL d   1      -0.075  -0.925   1.863  0.00  0.00    -0.005 A 
ATOM      6  C5  UNL d   1       0.840  -1.070   0.815  0.00  0.00    -0.074 A 
ATOM      7  C6  UNL d   1       2.011  -1.999   0.936  0.00  0.00     0.077 C 
ATOM      8  C7  UNL d   1       0.642  -0.345  -0.368  0.00  0.00    -0.001 A 
ENDROOT
TORSDOF 0
ENDMDL
