MODEL 1
REMARK minimizedAffinity 3.69738007
REMARK minimizedRMSD -1
REMARK  0 active torsions:
REMARK  status: ('A' for Active; 'I' for Inactive)
ROOT
ATOM      1  C   UNL d   1      -0.561  -2.159   2.411  0.00  0.00     0.077 C 
ATOM      2  C1  UNL d   1       0.592  -1.833   1.508  0.00  0.00    -0.074 A 
ATOM      3  C2  UNL d   1       1.231  -2.834   0.769  0.00  0.00    -0.005 A 
ATOM      4  C3  UNL d   1       2.295  -2.515  -0.075  0.00  0.00     0.006 A 
ATOM      5  C4  UNL d   1       2.730  -1.194  -0.187  0.00  0.00    -0.005 A 
ATOM      6  C5  UNL d   1       2.103  -0.180   0.543  0.00  0.00    -0.074 A 
ATOM      7  C6  UNL d   1       2.552   1.246   0.426  0.00  0.00     0.077 C 
ATOM      8  C7  UNL d   1       1.030  -0.508   1.383  0.00  0.00    -0.001 A 
ENDROOT
TORSDOF 0
ENDMDL
