MODEL 1
REMARK minimizedAffinity -2.77993774
REMARK minimizedRMSD -1
REMARK  0 active torsions:
REMARK  status: ('A' for Active; 'I' for Inactive)
ROOT
ATOM      1  C   UNL d   1       1.093  -0.467  -0.156  0.00  0.00     0.077 C 
ATOM      2  C1  UNL d   1      -0.111   0.342  -0.536  0.00  0.00    -0.074 A 
ATOM      3  C2  UNL d   1      -0.952   0.883   0.441  0.00  0.00    -0.005 A 
ATOM      4  C3  UNL d   1      -2.062   1.642   0.072  0.00  0.00     0.006 A 
ATOM      5  C4  UNL d   1      -2.343   1.866  -1.276  0.00  0.00    -0.005 A 
ATOM      6  C5  UNL d   1      -1.513   1.334  -2.268  0.00  0.00    -0.074 A 
ATOM      7  C6  UNL d   1      -1.795   1.574  -3.721  0.00  0.00     0.077 C 
ATOM      8  C7  UNL d   1      -0.395   0.579  -1.889  0.00  0.00    -0.001 A 
ENDROOT
TORSDOF 0
ENDMDL
