MODEL 1
REMARK minimizedAffinity 0.55043608
REMARK minimizedRMSD -1
REMARK  0 active torsions:
REMARK  status: ('A' for Active; 'I' for Inactive)
ROOT
ATOM      1  C   UNL d   1       1.939  -0.375  -0.351  0.00  0.00     0.077 C 
ATOM      2  C1  UNL d   1       0.638   0.356  -0.505  0.00  0.00    -0.074 A 
ATOM      3  C2  UNL d   1      -0.301   0.379   0.530  0.00  0.00    -0.005 A 
ATOM      4  C3  UNL d   1      -1.502   1.071   0.376  0.00  0.00     0.006 A 
ATOM      5  C4  UNL d   1      -1.775   1.747  -0.814  0.00  0.00    -0.005 A 
ATOM      6  C5  UNL d   1      -0.847   1.737  -1.861  0.00  0.00    -0.074 A 
ATOM      7  C6  UNL d   1      -1.121   2.466  -3.142  0.00  0.00     0.077 C 
ATOM      8  C7  UNL d   1       0.360   1.044  -1.695  0.00  0.00    -0.001 A 
ENDROOT
TORSDOF 0
ENDMDL
