MODEL 1
REMARK minimizedAffinity -5.75314999
REMARK minimizedRMSD -1
REMARK  0 active torsions:
REMARK  status: ('A' for Active; 'I' for Inactive)
ROOT
ATOM      1  C   UNL d   1      -1.093   0.864  -0.711  0.00  0.00     0.077 C 
ATOM      2  C1  UNL d   1      -0.063  -0.013  -0.062  0.00  0.00    -0.074 A 
ATOM      3  C2  UNL d   1       1.219  -0.139  -0.606  0.00  0.00    -0.005 A 
ATOM      4  C3  UNL d   1       2.169  -0.950   0.014  0.00  0.00     0.006 A 
ATOM      5  C4  UNL d   1       1.848  -1.642   1.182  0.00  0.00    -0.005 A 
ATOM      6  C5  UNL d   1       0.571  -1.527   1.742  0.00  0.00    -0.074 A 
ATOM      7  C6  UNL d   1       0.212  -2.256   3.002  0.00  0.00     0.077 C 
ATOM      8  C7  UNL d   1      -0.376  -0.704   1.117  0.00  0.00    -0.001 A 
ENDROOT
TORSDOF 0
ENDMDL
