MODEL 1
REMARK minimizedAffinity -1.55475867
REMARK minimizedRMSD -1
REMARK  0 active torsions:
REMARK  status: ('A' for Active; 'I' for Inactive)
ROOT
ATOM      1  C   UNL d   1      -1.179   2.707  -2.208  0.00  0.00     0.077 C 
ATOM      2  C1  UNL d   1      -0.759   1.631  -1.252  0.00  0.00    -0.074 A 
ATOM      3  C2  UNL d   1      -1.603   1.223  -0.213  0.00  0.00    -0.005 A 
ATOM      4  C3  UNL d   1      -1.203   0.215   0.663  0.00  0.00     0.006 A 
ATOM      5  C4  UNL d   1       0.043  -0.396   0.510  0.00  0.00    -0.005 A 
ATOM      6  C5  UNL d   1       0.900  -0.002  -0.523  0.00  0.00    -0.074 A 
ATOM      7  C6  UNL d   1       2.238  -0.654  -0.707  0.00  0.00     0.077 C 
ATOM      8  C7  UNL d   1       0.487   1.008  -1.403  0.00  0.00    -0.001 A 
ENDROOT
TORSDOF 0
ENDMDL
