MODEL 1
REMARK minimizedAffinity -3.27270937
REMARK minimizedRMSD -1
REMARK  0 active torsions:
REMARK  status: ('A' for Active; 'I' for Inactive)
ROOT
ATOM      1  C   UNL d   1      -0.782  -0.283   1.268  0.00  0.00     0.078 C 
ATOM      2  C1  UNL d   1       0.214  -0.005   0.181  0.00  0.00    -0.077 A 
ATOM      3  C2  UNL d   1       0.502   1.307  -0.214  0.00  0.00    -0.001 A 
ATOM      4  C3  UNL d   1       1.423   1.551  -1.234  0.00  0.00     0.003 A 
ATOM      5  C4  UNL d   1       2.063   0.487  -1.867  0.00  0.00    -0.005 A 
ATOM      6  C5  UNL d   1       1.782  -0.822  -1.482  0.00  0.00     0.003 A 
ATOM      7  C6  UNL d   1       0.860  -1.067  -0.462  0.00  0.00    -0.001 A 
ENDROOT
TORSDOF 0
ENDMDL
