MODEL 1
REMARK minimizedAffinity -2.75373244
REMARK minimizedRMSD -1
REMARK  0 active torsions:
REMARK  status: ('A' for Active; 'I' for Inactive)
ROOT
ATOM      1  C   UNL d   1      -3.353   3.482   4.461  0.00  0.00     0.078 C 
ATOM      2  C1  UNL d   1      -3.463   2.291   3.557  0.00  0.00    -0.077 A 
ATOM      3  C2  UNL d   1      -4.349   2.289   2.472  0.00  0.00    -0.001 A 
ATOM      4  C3  UNL d   1      -4.449   1.170   1.645  0.00  0.00     0.003 A 
ATOM      5  C4  UNL d   1      -3.666   0.044   1.893  0.00  0.00    -0.005 A 
ATOM      6  C5  UNL d   1      -2.783   0.036   2.971  0.00  0.00     0.003 A 
ATOM      7  C6  UNL d   1      -2.682   1.155   3.800  0.00  0.00    -0.001 A 
ENDROOT
TORSDOF 0
ENDMDL
