MODEL 1
REMARK minimizedAffinity -5.20532417
REMARK minimizedRMSD -1
REMARK  0 active torsions:
REMARK  status: ('A' for Active; 'I' for Inactive)
ROOT
ATOM      1  C   UNL d   1       1.842   2.404   0.535  0.00  0.00     0.078 C 
ATOM      2  C1  UNL d   1       1.385   1.520  -0.587  0.00  0.00    -0.077 A 
ATOM      3  C2  UNL d   1       0.205   0.773  -0.482  0.00  0.00    -0.001 A 
ATOM      4  C3  UNL d   1      -0.203  -0.053  -1.531  0.00  0.00     0.003 A 
ATOM      5  C4  UNL d   1       0.564  -0.141  -2.691  0.00  0.00    -0.005 A 
ATOM      6  C5  UNL d   1       1.741   0.596  -2.803  0.00  0.00     0.003 A 
ATOM      7  C6  UNL d   1       2.150   1.423  -1.756  0.00  0.00    -0.001 A 
ENDROOT
TORSDOF 0
ENDMDL
