MODEL 1
REMARK minimizedAffinity -4.69874334
REMARK minimizedRMSD -1
REMARK  0 active torsions:
REMARK  status: ('A' for Active; 'I' for Inactive)
ROOT
ATOM      1  C   UNL d   1      -0.796   0.428   0.701  0.00  0.00     0.078 C 
ATOM      2  C1  UNL d   1       0.242   0.276  -0.370  0.00  0.00    -0.077 A 
ATOM      3  C2  UNL d   1       0.137  -0.729  -1.339  0.00  0.00    -0.001 A 
ATOM      4  C3  UNL d   1       1.116  -0.865  -2.324  0.00  0.00     0.003 A 
ATOM      5  C4  UNL d   1       2.208   0.000  -2.350  0.00  0.00    -0.005 A 
ATOM      6  C5  UNL d   1       2.323   1.002  -1.388  0.00  0.00     0.003 A 
ATOM      7  C6  UNL d   1       1.345   1.140  -0.402  0.00  0.00    -0.001 A 
ENDROOT
TORSDOF 0
ENDMDL
