MODEL 1
REMARK minimizedAffinity -5.26011562
REMARK minimizedRMSD -1
REMARK  0 active torsions:
REMARK  status: ('A' for Active; 'I' for Inactive)
ROOT
ATOM      1  C   UNL d   1      -0.616  -0.048   1.070  0.00  0.00     0.078 C 
ATOM      2  C1  UNL d   1       0.195   0.097  -0.183  0.00  0.00    -0.077 A 
ATOM      3  C2  UNL d   1       1.161   1.103  -0.305  0.00  0.00    -0.001 A 
ATOM      4  C3  UNL d   1       1.902   1.232  -1.481  0.00  0.00     0.003 A 
ATOM      5  C4  UNL d   1       1.683   0.359  -2.545  0.00  0.00    -0.005 A 
ATOM      6  C5  UNL d   1       0.721  -0.644  -2.434  0.00  0.00     0.003 A 
ATOM      7  C6  UNL d   1      -0.020  -0.774  -1.258  0.00  0.00    -0.001 A 
ENDROOT
TORSDOF 0
ENDMDL
