MODEL 1
REMARK minimizedAffinity -2.23502803
REMARK minimizedRMSD -1
REMARK  0 active torsions:
REMARK  status: ('A' for Active; 'I' for Inactive)
ROOT
ATOM      1  C   UNL d   1      -0.228  -0.787  -0.056  0.00  0.00     0.078 C 
ATOM      2  C1  UNL d   1      -1.316  -0.119   0.731  0.00  0.00    -0.077 A 
ATOM      3  C2  UNL d   1      -2.657  -0.226   0.342  0.00  0.00    -0.001 A 
ATOM      4  C3  UNL d   1      -3.658   0.410   1.078  0.00  0.00     0.003 A 
ATOM      5  C4  UNL d   1      -3.329   1.157   2.207  0.00  0.00    -0.005 A 
ATOM      6  C5  UNL d   1      -1.997   1.271   2.601  0.00  0.00     0.003 A 
ATOM      7  C6  UNL d   1      -0.994   0.636   1.865  0.00  0.00    -0.001 A 
ENDROOT
TORSDOF 0
ENDMDL
