MODEL 1
REMARK minimizedAffinity -4.1563983
REMARK minimizedRMSD -1
REMARK  0 active torsions:
REMARK  status: ('A' for Active; 'I' for Inactive)
ROOT
ATOM      1  C   UNL d   1       0.661   2.246  -0.096  0.00  0.00     0.078 C 
ATOM      2  C1  UNL d   1       0.417   0.769  -0.014  0.00  0.00    -0.077 A 
ATOM      3  C2  UNL d   1       0.119   0.154   1.208  0.00  0.00    -0.001 A 
ATOM      4  C3  UNL d   1      -0.096  -1.224   1.270  0.00  0.00     0.003 A 
ATOM      5  C4  UNL d   1      -0.013  -1.999   0.115  0.00  0.00    -0.005 A 
ATOM      6  C5  UNL d   1       0.286  -1.396  -1.105  0.00  0.00     0.003 A 
ATOM      7  C6  UNL d   1       0.501  -0.018  -1.170  0.00  0.00    -0.001 A 
ENDROOT
TORSDOF 0
ENDMDL
