MODEL 1
REMARK minimizedAffinity -1.96835661
REMARK minimizedRMSD -1
REMARK  0 active torsions:
REMARK  status: ('A' for Active; 'I' for Inactive)
ROOT
ATOM      1  C   UNL d   1       0.637  -2.122  -0.003  0.00  0.00     0.078 C 
ATOM      2  C1  UNL d   1       1.111  -0.732  -0.306  0.00  0.00    -0.077 A 
ATOM      3  C2  UNL d   1       2.164  -0.509  -1.203  0.00  0.00    -0.001 A 
ATOM      4  C3  UNL d   1       2.601   0.790  -1.469  0.00  0.00     0.003 A 
ATOM      5  C4  UNL d   1       1.993   1.875  -0.841  0.00  0.00    -0.005 A 
ATOM      6  C5  UNL d   1       0.946   1.663   0.054  0.00  0.00     0.003 A 
ATOM      7  C6  UNL d   1       0.508   0.365   0.321  0.00  0.00    -0.001 A 
ENDROOT
TORSDOF 0
ENDMDL
