MODEL 1
REMARK minimizedAffinity -3.89758062
REMARK minimizedRMSD -1
REMARK  0 active torsions:
REMARK  status: ('A' for Active; 'I' for Inactive)
ROOT
ATOM      1  C   UNL d   1      -1.443   0.000   1.109  0.00  0.00     0.078 C 
ATOM      2  C1  UNL d   1      -0.287   0.249   0.186  0.00  0.00    -0.077 A 
ATOM      3  C2  UNL d   1       0.391  -0.814  -0.422  0.00  0.00    -0.001 A 
ATOM      4  C3  UNL d   1       1.471  -0.569  -1.272  0.00  0.00     0.003 A 
ATOM      5  C4  UNL d   1       1.884   0.739  -1.519  0.00  0.00    -0.005 A 
ATOM      6  C5  UNL d   1       1.216   1.803  -0.916  0.00  0.00     0.003 A 
ATOM      7  C6  UNL d   1       0.136   1.560  -0.067  0.00  0.00    -0.001 A 
ENDROOT
TORSDOF 0
ENDMDL
