MODEL 1
REMARK minimizedAffinity -2.46116185
REMARK minimizedRMSD -1
REMARK  0 active torsions:
REMARK  status: ('A' for Active; 'I' for Inactive)
ROOT
ATOM      1  C   UNL d   1      -0.529  -0.273   0.747  0.00  0.00     0.078 C 
ATOM      2  C1  UNL d   1       0.308   0.321  -0.346  0.00  0.00    -0.077 A 
ATOM      3  C2  UNL d   1      -0.157   1.403  -1.103  0.00  0.00    -0.001 A 
ATOM      4  C3  UNL d   1       0.629   1.939  -2.125  0.00  0.00     0.003 A 
ATOM      5  C4  UNL d   1       1.884   1.399  -2.399  0.00  0.00    -0.005 A 
ATOM      6  C5  UNL d   1       2.354   0.320  -1.653  0.00  0.00     0.003 A 
ATOM      7  C6  UNL d   1       1.570  -0.217  -0.631  0.00  0.00    -0.001 A 
ENDROOT
TORSDOF 0
ENDMDL
