MODEL 1
REMARK minimizedAffinity -2.93326545
REMARK minimizedRMSD -1
REMARK  0 active torsions:
REMARK  status: ('A' for Active; 'I' for Inactive)
ROOT
ATOM      1  C   UNL d   1       1.846   2.036  -1.349  0.00  0.00     0.078 C 
ATOM      2  C1  UNL d   1       1.661   0.577  -1.057  0.00  0.00    -0.077 A 
ATOM      3  C2  UNL d   1       2.598  -0.369  -1.490  0.00  0.00    -0.001 A 
ATOM      4  C3  UNL d   1       2.409  -1.726  -1.219  0.00  0.00     0.003 A 
ATOM      5  C4  UNL d   1       1.282  -2.148  -0.517  0.00  0.00    -0.005 A 
ATOM      6  C5  UNL d   1       0.343  -1.214  -0.084  0.00  0.00     0.003 A 
ATOM      7  C6  UNL d   1       0.531   0.142  -0.353  0.00  0.00    -0.001 A 
ENDROOT
TORSDOF 0
ENDMDL
