MODEL 1
REMARK minimizedAffinity -4.2603693
REMARK minimizedRMSD -1
REMARK  0 active torsions:
REMARK  status: ('A' for Active; 'I' for Inactive)
ROOT
ATOM      1  C   UNL d   1       0.122   0.026  -0.213  0.00  0.00     0.078 C 
ATOM      2  C1  UNL d   1      -1.181   0.110   0.525  0.00  0.00    -0.077 A 
ATOM      3  C2  UNL d   1      -1.215   0.381   1.899  0.00  0.00    -0.001 A 
ATOM      4  C3  UNL d   1      -2.434   0.446   2.575  0.00  0.00     0.003 A 
ATOM      5  C4  UNL d   1      -3.628   0.241   1.887  0.00  0.00    -0.005 A 
ATOM      6  C5  UNL d   1      -3.604  -0.032   0.520  0.00  0.00     0.003 A 
ATOM      7  C6  UNL d   1      -2.386  -0.098  -0.158  0.00  0.00    -0.001 A 
ENDROOT
TORSDOF 0
ENDMDL
