MODEL 1
REMARK minimizedAffinity -4.06257534
REMARK minimizedRMSD -1
REMARK  0 active torsions:
REMARK  status: ('A' for Active; 'I' for Inactive)
ROOT
ATOM      1  C   UNL d   1      -0.922  -0.732   1.934  0.00  0.00     0.077 C 
ATOM      2  C1  UNL d   1      -0.119  -0.406   0.710  0.00  0.00    -0.074 A 
ATOM      3  C2  UNL d   1       0.887   0.565   0.749  0.00  0.00    -0.005 A 
ATOM      4  C3  UNL d   1       1.632   0.851  -0.395  0.00  0.00     0.006 A 
ATOM      5  C4  UNL d   1       1.379   0.170  -1.587  0.00  0.00    -0.005 A 
ATOM      6  C5  UNL d   1       0.378  -0.804  -1.644  0.00  0.00    -0.074 A 
ATOM      7  C6  UNL d   1       0.100  -1.552  -2.914  0.00  0.00     0.077 C 
ATOM      8  C7  UNL d   1      -0.362  -1.091  -0.488  0.00  0.00    -0.001 A 
ENDROOT
TORSDOF 0
ENDMDL
