MODEL 1
REMARK minimizedAffinity -1.29930782
REMARK minimizedRMSD -1
REMARK  0 active torsions:
REMARK  status: ('A' for Active; 'I' for Inactive)
ROOT
ATOM      1  C   UNL d   1       0.214  -1.458  -3.583  0.00  0.00     0.077 C 
ATOM      2  C1  UNL d   1       0.254  -0.685  -2.299  0.00  0.00    -0.074 A 
ATOM      3  C2  UNL d   1       1.371   0.085  -1.957  0.00  0.00    -0.005 A 
ATOM      4  C3  UNL d   1       1.390   0.806  -0.764  0.00  0.00     0.006 A 
ATOM      5  C4  UNL d   1       0.294   0.765   0.099  0.00  0.00    -0.005 A 
ATOM      6  C5  UNL d   1      -0.832   0.002  -0.226  0.00  0.00    -0.074 A 
ATOM      7  C6  UNL d   1      -2.022  -0.045   0.686  0.00  0.00     0.077 C 
ATOM      8  C7  UNL d   1      -0.846  -0.714  -1.430  0.00  0.00    -0.001 A 
ENDROOT
TORSDOF 0
ENDMDL
