MODEL 1
REMARK minimizedAffinity -5.23261023
REMARK minimizedRMSD -1
REMARK  0 active torsions:
REMARK  status: ('A' for Active; 'I' for Inactive)
ROOT
ATOM      1  C   UNL d   1      -0.953  -1.103   3.315  0.00  0.00     0.077 C 
ATOM      2  C1  UNL d   1      -0.358  -0.531   2.063  0.00  0.00    -0.074 A 
ATOM      3  C2  UNL d   1      -1.042  -0.602   0.845  0.00  0.00    -0.005 A 
ATOM      4  C3  UNL d   1      -0.480  -0.057  -0.310  0.00  0.00     0.006 A 
ATOM      5  C4  UNL d   1       0.770   0.562  -0.258  0.00  0.00    -0.005 A 
ATOM      6  C5  UNL d   1       1.468   0.643   0.951  0.00  0.00    -0.074 A 
ATOM      7  C6  UNL d   1       2.807   1.315   1.025  0.00  0.00     0.077 C 
ATOM      8  C7  UNL d   1       0.893   0.100   2.108  0.00  0.00    -0.001 A 
ENDROOT
TORSDOF 0
ENDMDL
