MODEL 1
REMARK minimizedAffinity 1.04062605
REMARK minimizedRMSD -1
REMARK  0 active torsions:
REMARK  status: ('A' for Active; 'I' for Inactive)
ROOT
ATOM      1  C   UNL d   1       3.843  -1.187  -3.832  0.00  0.00     0.077 C 
ATOM      2  C1  UNL d   1       2.364  -1.133  -3.586  0.00  0.00    -0.074 A 
ATOM      3  C2  UNL d   1       1.493  -2.004  -4.248  0.00  0.00    -0.005 A 
ATOM      4  C3  UNL d   1       0.121  -1.948  -4.002  0.00  0.00     0.006 A 
ATOM      5  C4  UNL d   1      -0.392  -1.022  -3.093  0.00  0.00    -0.005 A 
ATOM      6  C5  UNL d   1       0.464  -0.144  -2.421  0.00  0.00    -0.074 A 
ATOM      7  C6  UNL d   1      -0.071   0.851  -1.434  0.00  0.00     0.077 C 
ATOM      8  C7  UNL d   1       1.842  -0.211  -2.669  0.00  0.00    -0.001 A 
ENDROOT
TORSDOF 0
ENDMDL
