MODEL 1
REMARK minimizedAffinity -5.64831877
REMARK minimizedRMSD -1
REMARK  0 active torsions:
REMARK  status: ('A' for Active; 'I' for Inactive)
ROOT
ATOM      1  C   UNL d   1      -0.166  -0.110  -1.739  0.00  0.00     0.077 C 
ATOM      2  C1  UNL d   1      -0.052  -0.084  -0.243  0.00  0.00    -0.074 A 
ATOM      3  C2  UNL d   1       1.172   0.178   0.380  0.00  0.00    -0.005 A 
ATOM      4  C3  UNL d   1       1.261   0.209   1.771  0.00  0.00     0.006 A 
ATOM      5  C4  UNL d   1       0.128  -0.021   2.553  0.00  0.00    -0.005 A 
ATOM      6  C5  UNL d   1      -1.105  -0.284   1.947  0.00  0.00    -0.074 A 
ATOM      7  C6  UNL d   1      -2.335  -0.523   2.772  0.00  0.00     0.077 C 
ATOM      8  C7  UNL d   1      -1.188  -0.306   0.548  0.00  0.00    -0.001 A 
ENDROOT
TORSDOF 0
ENDMDL
