MODEL 1
REMARK minimizedAffinity 5.00863743
REMARK minimizedRMSD -1
REMARK  0 active torsions:
REMARK  status: ('A' for Active; 'I' for Inactive)
ROOT
ATOM      1  C   UNL d   1      -0.808  -2.592  -6.000  0.00  0.00     0.077 C 
ATOM      2  C1  UNL d   1       0.275  -2.254  -5.019  0.00  0.00    -0.074 A 
ATOM      3  C2  UNL d   1       0.125  -2.534  -3.657  0.00  0.00    -0.005 A 
ATOM      4  C3  UNL d   1       1.146  -2.222  -2.759  0.00  0.00     0.006 A 
ATOM      5  C4  UNL d   1       2.324  -1.628  -3.212  0.00  0.00    -0.005 A 
ATOM      6  C5  UNL d   1       2.492  -1.342  -4.571  0.00  0.00    -0.074 A 
ATOM      7  C6  UNL d   1       3.756  -0.712  -5.076  0.00  0.00     0.077 C 
ATOM      8  C7  UNL d   1       1.465  -1.664  -5.468  0.00  0.00    -0.001 A 
ENDROOT
TORSDOF 0
ENDMDL
