MODEL 1
REMARK minimizedAffinity -2.8990736
REMARK minimizedRMSD -1
REMARK  0 active torsions:
REMARK  status: ('A' for Active; 'I' for Inactive)
ROOT
ATOM      1  C   UNL d   1      -2.511   0.506  -1.247  0.00  0.00     0.077 C 
ATOM      2  C1  UNL d   1      -1.253   0.241  -0.474  0.00  0.00    -0.074 A 
ATOM      3  C2  UNL d   1       0.003   0.471  -1.044  0.00  0.00    -0.005 A 
ATOM      4  C3  UNL d   1       1.164   0.229  -0.310  0.00  0.00     0.006 A 
ATOM      5  C4  UNL d   1       1.080  -0.245   1.000  0.00  0.00    -0.005 A 
ATOM      6  C5  UNL d   1      -0.167  -0.481   1.587  0.00  0.00    -0.074 A 
ATOM      7  C6  UNL d   1      -0.275  -0.981   2.997  0.00  0.00     0.077 C 
ATOM      8  C7  UNL d   1      -1.329  -0.228   0.845  0.00  0.00    -0.001 A 
ENDROOT
TORSDOF 0
ENDMDL
