MODEL 1
REMARK minimizedAffinity -4.03291988
REMARK minimizedRMSD -1
REMARK  0 active torsions:
REMARK  status: ('A' for Active; 'I' for Inactive)
ROOT
ATOM      1  C   UNL d   1       0.882   0.367  -1.339  0.00  0.00     0.077 C 
ATOM      2  C1  UNL d   1       0.428   0.488   0.085  0.00  0.00    -0.074 A 
ATOM      3  C2  UNL d   1       1.339   0.391   1.142  0.00  0.00    -0.005 A 
ATOM      4  C3  UNL d   1       0.903   0.515   2.461  0.00  0.00     0.006 A 
ATOM      5  C4  UNL d   1      -0.446   0.737   2.737  0.00  0.00    -0.005 A 
ATOM      6  C5  UNL d   1      -1.372   0.838   1.694  0.00  0.00    -0.074 A 
ATOM      7  C6  UNL d   1      -2.825   1.086   1.972  0.00  0.00     0.077 C 
ATOM      8  C7  UNL d   1      -0.926   0.719   0.370  0.00  0.00    -0.001 A 
ENDROOT
TORSDOF 0
ENDMDL
