MODEL 1
REMARK minimizedAffinity -2.68910265
REMARK minimizedRMSD -1
REMARK  0 active torsions:
REMARK  status: ('A' for Active; 'I' for Inactive)
ROOT
ATOM      1  C   UNL d   1      -0.001  -0.043  -1.387  0.00  0.00     0.077 C 
ATOM      2  C1  UNL d   1       0.248   0.227   0.067  0.00  0.00    -0.074 A 
ATOM      3  C2  UNL d   1       1.272   1.089   0.473  0.00  0.00    -0.005 A 
ATOM      4  C3  UNL d   1       1.485   1.338   1.829  0.00  0.00     0.006 A 
ATOM      5  C4  UNL d   1       0.678   0.729   2.791  0.00  0.00    -0.005 A 
ATOM      6  C5  UNL d   1      -0.351  -0.135   2.403  0.00  0.00    -0.074 A 
ATOM      7  C6  UNL d   1      -1.234  -0.790   3.424  0.00  0.00     0.077 C 
ATOM      8  C7  UNL d   1      -0.563  -0.375   1.039  0.00  0.00    -0.001 A 
ENDROOT
TORSDOF 0
ENDMDL
