MODEL 1
REMARK minimizedAffinity -0.533456981
REMARK minimizedRMSD -1
REMARK  0 active torsions:
REMARK  status: ('A' for Active; 'I' for Inactive)
ROOT
ATOM      1  C   UNL d   1       1.003  -0.995  -3.617  0.00  0.00     0.077 C 
ATOM      2  C1  UNL d   1       0.346  -0.387  -2.414  0.00  0.00    -0.074 A 
ATOM      3  C2  UNL d   1      -0.861   0.312  -2.530  0.00  0.00    -0.005 A 
ATOM      4  C3  UNL d   1      -1.465   0.864  -1.400  0.00  0.00     0.006 A 
ATOM      5  C4  UNL d   1      -0.870   0.724  -0.146  0.00  0.00    -0.005 A 
ATOM      6  C5  UNL d   1       0.335   0.028  -0.010  0.00  0.00    -0.074 A 
ATOM      7  C6  UNL d   1       0.983  -0.140   1.332  0.00  0.00     0.077 C 
ATOM      8  C7  UNL d   1       0.933  -0.530  -1.149  0.00  0.00    -0.001 A 
ENDROOT
TORSDOF 0
ENDMDL
