MODEL 1
REMARK minimizedAffinity -4.18267632
REMARK minimizedRMSD -1
REMARK  0 active torsions:
REMARK  status: ('A' for Active; 'I' for Inactive)
ROOT
ATOM      1  C   UNL d   1       0.008  -0.177  -1.499  0.00  0.00     0.077 C 
ATOM      2  C1  UNL d   1       0.305  -0.021  -0.037  0.00  0.00    -0.074 A 
ATOM      3  C2  UNL d   1       1.442   0.667   0.396  0.00  0.00    -0.005 A 
ATOM      4  C3  UNL d   1       1.700   0.813   1.759  0.00  0.00     0.006 A 
ATOM      5  C4  UNL d   1       0.824   0.272   2.701  0.00  0.00    -0.005 A 
ATOM      6  C5  UNL d   1      -0.319  -0.419   2.287  0.00  0.00    -0.074 A 
ATOM      7  C6  UNL d   1      -1.276  -0.997   3.286  0.00  0.00     0.077 C 
ATOM      8  C7  UNL d   1      -0.575  -0.554   0.916  0.00  0.00    -0.001 A 
ENDROOT
TORSDOF 0
ENDMDL
