MODEL 1
REMARK minimizedAffinity -0.343173772
REMARK minimizedRMSD -1
REMARK  0 active torsions:
REMARK  status: ('A' for Active; 'I' for Inactive)
ROOT
ATOM      1  C   UNL d   1       2.666  -1.898  -3.719  0.00  0.00     0.077 C 
ATOM      2  C1  UNL d   1       1.619  -1.129  -2.970  0.00  0.00    -0.074 A 
ATOM      3  C2  UNL d   1       0.297  -1.083  -3.425  0.00  0.00    -0.005 A 
ATOM      4  C3  UNL d   1      -0.668  -0.373  -2.712  0.00  0.00     0.006 A 
ATOM      5  C4  UNL d   1      -0.323   0.298  -1.538  0.00  0.00    -0.005 A 
ATOM      6  C5  UNL d   1       0.994   0.263  -1.067  0.00  0.00    -0.074 A 
ATOM      7  C6  UNL d   1       1.380   0.970   0.198  0.00  0.00     0.077 C 
ATOM      8  C7  UNL d   1       1.956  -0.459  -1.785  0.00  0.00    -0.001 A 
ENDROOT
TORSDOF 0
ENDMDL
