MODEL 1
REMARK minimizedAffinity -5.27868319
REMARK minimizedRMSD -1
REMARK  0 active torsions:
REMARK  status: ('A' for Active; 'I' for Inactive)
ROOT
ATOM      1  C   UNL d   1       0.380   0.216  -1.408  0.00  0.00     0.077 C 
ATOM      2  C1  UNL d   1       0.352   0.212   0.091  0.00  0.00    -0.074 A 
ATOM      3  C2  UNL d   1       1.489   0.551   0.832  0.00  0.00    -0.005 A 
ATOM      4  C3  UNL d   1       1.445   0.552   2.226  0.00  0.00     0.006 A 
ATOM      5  C4  UNL d   1       0.266   0.214   2.893  0.00  0.00    -0.005 A 
ATOM      6  C5  UNL d   1      -0.880  -0.127   2.168  0.00  0.00    -0.074 A 
ATOM      7  C6  UNL d   1      -2.158  -0.483   2.869  0.00  0.00     0.077 C 
ATOM      8  C7  UNL d   1      -0.831  -0.119   0.768  0.00  0.00    -0.001 A 
ENDROOT
TORSDOF 0
ENDMDL
