MODEL 1
REMARK minimizedAffinity -3.05929708
REMARK minimizedRMSD -1
REMARK  0 active torsions:
REMARK  status: ('A' for Active; 'I' for Inactive)
ROOT
ATOM      1  C   UNL d   1      -3.022  -0.347   2.555  0.00  0.00     0.077 C 
ATOM      2  C1  UNL d   1      -1.614  -0.169   2.068  0.00  0.00    -0.074 A 
ATOM      3  C2  UNL d   1      -0.570   0.080   2.965  0.00  0.00    -0.005 A 
ATOM      4  C3  UNL d   1       0.736   0.234   2.498  0.00  0.00     0.006 A 
ATOM      5  C4  UNL d   1       1.009   0.141   1.133  0.00  0.00    -0.005 A 
ATOM      6  C5  UNL d   1      -0.022  -0.108   0.222  0.00  0.00    -0.074 A 
ATOM      7  C6  UNL d   1       0.256  -0.221  -1.248  0.00  0.00     0.077 C 
ATOM      8  C7  UNL d   1      -1.330  -0.268   0.699  0.00  0.00    -0.001 A 
ENDROOT
TORSDOF 0
ENDMDL
