MODEL 1
REMARK minimizedAffinity -1.18106771
REMARK minimizedRMSD -1
REMARK  0 active torsions:
REMARK  status: ('A' for Active; 'I' for Inactive)
ROOT
ATOM      1  C   UNL d   1       1.013  -0.795   1.477  0.00  0.00     0.077 C 
ATOM      2  C1  UNL d   1       0.752  -0.353   0.067  0.00  0.00    -0.074 A 
ATOM      3  C2  UNL d   1       0.043   0.823  -0.198  0.00  0.00    -0.005 A 
ATOM      4  C3  UNL d   1      -0.184   1.226  -1.514  0.00  0.00     0.006 A 
ATOM      5  C4  UNL d   1       0.295   0.458  -2.576  0.00  0.00    -0.005 A 
ATOM      6  C5  UNL d   1       1.007  -0.720  -2.330  0.00  0.00    -0.074 A 
ATOM      7  C6  UNL d   1       1.537  -1.552  -3.460  0.00  0.00     0.077 C 
ATOM      8  C7  UNL d   1       1.236  -1.115  -1.005  0.00  0.00    -0.001 A 
ENDROOT
TORSDOF 0
ENDMDL
