MODEL 1
REMARK minimizedAffinity -4.03810549
REMARK minimizedRMSD -1
REMARK  0 active torsions:
REMARK  status: ('A' for Active; 'I' for Inactive)
ROOT
ATOM      1  C   UNL d   1       3.002   0.790  -3.551  0.00  0.00     0.077 C 
ATOM      2  C1  UNL d   1       1.866  -0.020  -3.002  0.00  0.00    -0.074 A 
ATOM      3  C2  UNL d   1       1.528  -1.257  -3.562  0.00  0.00    -0.005 A 
ATOM      4  C3  UNL d   1       0.475  -2.003  -3.034  0.00  0.00     0.006 A 
ATOM      5  C4  UNL d   1      -0.250  -1.522  -1.943  0.00  0.00    -0.005 A 
ATOM      6  C5  UNL d   1       0.074  -0.289  -1.370  0.00  0.00    -0.074 A 
ATOM      7  C6  UNL d   1      -0.689   0.238  -0.191  0.00  0.00     0.077 C 
ATOM      8  C7  UNL d   1       1.138   0.453  -1.901  0.00  0.00    -0.001 A 
ENDROOT
TORSDOF 0
ENDMDL
