MODEL 1
REMARK minimizedAffinity -1.41491985
REMARK minimizedRMSD -1
REMARK  0 active torsions:
REMARK  status: ('A' for Active; 'I' for Inactive)
ROOT
ATOM      1  C   UNL d   1      -1.650   0.277   3.021  0.00  0.00     0.077 C 
ATOM      2  C1  UNL d   1      -0.451   0.382   2.127  0.00  0.00    -0.074 A 
ATOM      3  C2  UNL d   1       0.719   1.012   2.564  0.00  0.00    -0.005 A 
ATOM      4  C3  UNL d   1       1.830   1.093   1.725  0.00  0.00     0.006 A 
ATOM      5  C4  UNL d   1       1.783   0.545   0.442  0.00  0.00    -0.005 A 
ATOM      6  C5  UNL d   1       0.622  -0.089  -0.012  0.00  0.00    -0.074 A 
ATOM      7  C6  UNL d   1       0.558  -0.692  -1.384  0.00  0.00     0.077 C 
ATOM      8  C7  UNL d   1      -0.487  -0.173   0.840  0.00  0.00    -0.001 A 
ENDROOT
TORSDOF 0
ENDMDL
