MODEL 1
REMARK minimizedAffinity 0.184079036
REMARK minimizedRMSD -1
REMARK  0 active torsions:
REMARK  status: ('A' for Active; 'I' for Inactive)
ROOT
ATOM      1  C2' OXE d   1      -1.069  -0.148   0.441  0.00  0.00     0.078 C 
ATOM      2  C1' OXE d   1      -2.586  -0.664   2.746  0.00  0.00     0.078 C 
ATOM      3  C1  OXE d   1      -1.091  -0.849   2.831  0.00  0.00    -0.078 A 
ATOM      4  C2  OXE d   1      -0.362  -0.639   1.686  0.00  0.00    -0.078 A 
ATOM      5  C3  OXE d   1       1.026  -0.743   1.723  0.00  0.00     0.003 A 
ATOM      6  C4  OXE d   1       1.671  -1.208   2.876  0.00  0.00    -0.002 A 
ATOM      7  C5  OXE d   1       0.943  -1.466   4.042  0.00  0.00    -0.002 A 
ATOM      8  C6  OXE d   1      -0.431  -1.251   4.049  0.00  0.00     0.003 A 
ENDROOT
TORSDOF 0
ENDMDL
