MODEL 1
REMARK minimizedAffinity -0.787292898
REMARK minimizedRMSD -1
REMARK  0 active torsions:
REMARK  status: ('A' for Active; 'I' for Inactive)
ROOT
ATOM      1  C2' OXE d   1      -2.576   0.390   2.523  0.00  0.00     0.078 C 
ATOM      2  C1' OXE d   1       0.017  -0.673   2.690  0.00  0.00     0.078 C 
ATOM      3  C1  OXE d   1      -0.583  -0.492   1.318  0.00  0.00    -0.078 A 
ATOM      4  C2  OXE d   1      -1.869  -0.016   1.248  0.00  0.00    -0.078 A 
ATOM      5  C3  OXE d   1      -2.450   0.221   0.005  0.00  0.00     0.003 A 
ATOM      6  C4  OXE d   1      -1.793  -0.166  -1.170  0.00  0.00    -0.002 A 
ATOM      7  C5  OXE d   1      -0.497  -0.690  -1.118  0.00  0.00    -0.002 A 
ATOM      8  C6  OXE d   1       0.137  -0.820   0.112  0.00  0.00     0.003 A 
ENDROOT
TORSDOF 0
ENDMDL
