MODEL 1
REMARK minimizedAffinity -1.9012506
REMARK minimizedRMSD -1
REMARK  0 active torsions:
REMARK  status: ('A' for Active; 'I' for Inactive)
ROOT
ATOM      1  C2' OXE d   1       1.598  -0.755   0.363  0.00  0.00     0.078 C 
ATOM      2  C1' OXE d   1       1.050  -0.786   3.116  0.00  0.00     0.078 C 
ATOM      3  C1  OXE d   1      -0.042  -0.319   2.186  0.00  0.00    -0.078 A 
ATOM      4  C2  OXE d   1       0.251  -0.262   0.845  0.00  0.00    -0.078 A 
ATOM      5  C3  OXE d   1      -0.738   0.110  -0.061  0.00  0.00     0.003 A 
ATOM      6  C4  OXE d   1      -1.979   0.574   0.394  0.00  0.00    -0.002 A 
ATOM      7  C5  OXE d   1      -2.283   0.562   1.759  0.00  0.00    -0.002 A 
ATOM      8  C6  OXE d   1      -1.343   0.080   2.663  0.00  0.00     0.003 A 
ENDROOT
TORSDOF 0
ENDMDL
