MODEL 1
REMARK minimizedAffinity -0.668540776
REMARK minimizedRMSD -1
REMARK  0 active torsions:
REMARK  status: ('A' for Active; 'I' for Inactive)
ROOT
ATOM      1  C2' OXE d   1       1.479  -0.635   0.377  0.00  0.00     0.078 C 
ATOM      2  C1' OXE d   1      -0.634  -1.689  -1.141  0.00  0.00     0.078 C 
ATOM      3  C1  OXE d   1      -0.980  -0.776   0.009  0.00  0.00    -0.078 A 
ATOM      4  C2  OXE d   1       0.058  -0.302   0.775  0.00  0.00    -0.078 A 
ATOM      5  C3  OXE d   1      -0.202   0.587   1.814  0.00  0.00     0.003 A 
ATOM      6  C4  OXE d   1      -1.521   0.882   2.181  0.00  0.00    -0.002 A 
ATOM      7  C5  OXE d   1      -2.594   0.379   1.439  0.00  0.00    -0.002 A 
ATOM      8  C6  OXE d   1      -2.340  -0.416   0.326  0.00  0.00     0.003 A 
ENDROOT
TORSDOF 0
ENDMDL
