MODEL 1
REMARK minimizedAffinity 2.48717499
REMARK minimizedRMSD -1
REMARK  0 active torsions:
REMARK  status: ('A' for Active; 'I' for Inactive)
ROOT
ATOM      1  C2' OXE d   1      -4.196   0.358  -1.148  0.00  0.00     0.078 C 
ATOM      2  C1' OXE d   1      -1.838  -0.997  -1.843  0.00  0.00     0.078 C 
ATOM      3  C1  OXE d   1      -1.909  -0.365  -0.476  0.00  0.00    -0.078 A 
ATOM      4  C2  OXE d   1      -3.048   0.336  -0.162  0.00  0.00    -0.078 A 
ATOM      5  C3  OXE d   1      -3.188   0.891   1.107  0.00  0.00     0.003 A 
ATOM      6  C4  OXE d   1      -2.118   0.875   2.010  0.00  0.00    -0.002 A 
ATOM      7  C5  OXE d   1      -0.934   0.201   1.695  0.00  0.00    -0.002 A 
ATOM      8  C6  OXE d   1      -0.829  -0.460   0.475  0.00  0.00     0.003 A 
ENDROOT
TORSDOF 0
ENDMDL
