MODEL 1
REMARK minimizedAffinity 1.88231575
REMARK minimizedRMSD -1
REMARK  0 active torsions:
REMARK  status: ('A' for Active; 'I' for Inactive)
ROOT
ATOM      1  C2' OXE d   1      -0.680  -0.578  -1.350  0.00  0.00     0.078 C 
ATOM      2  C1' OXE d   1      -3.323   0.247  -0.887  0.00  0.00     0.078 C 
ATOM      3  C1  OXE d   1      -2.400   0.141   0.302  0.00  0.00    -0.078 A 
ATOM      4  C2  OXE d   1      -1.122  -0.309   0.072  0.00  0.00    -0.078 A 
ATOM      5  C3  OXE d   1      -0.215  -0.373   1.126  0.00  0.00     0.003 A 
ATOM      6  C4  OXE d   1      -0.635  -0.131   2.439  0.00  0.00    -0.002 A 
ATOM      7  C5  OXE d   1      -1.943   0.290   2.700  0.00  0.00    -0.002 A 
ATOM      8  C6  OXE d   1      -2.824   0.471   1.640  0.00  0.00     0.003 A 
ENDROOT
TORSDOF 0
ENDMDL
