MODEL 1
REMARK minimizedAffinity 6.78671885
REMARK minimizedRMSD -1
REMARK  0 active torsions:
REMARK  status: ('A' for Active; 'I' for Inactive)
ROOT
ATOM      1  C2' OXE d   1      -2.063  -0.586  -1.201  0.00  0.00     0.078 C 
ATOM      2  C1' OXE d   1      -3.912  -2.586  -0.520  0.00  0.00     0.078 C 
ATOM      3  C1  OXE d   1      -3.348  -1.740   0.595  0.00  0.00    -0.078 A 
ATOM      4  C2  OXE d   1      -2.409  -0.795   0.258  0.00  0.00    -0.078 A 
ATOM      5  C3  OXE d   1      -1.897   0.048   1.240  0.00  0.00     0.003 A 
ATOM      6  C4  OXE d   1      -2.214  -0.159   2.588  0.00  0.00    -0.002 A 
ATOM      7  C5  OXE d   1      -3.138  -1.142   2.957  0.00  0.00    -0.002 A 
ATOM      8  C6  OXE d   1      -3.745  -1.911   1.971  0.00  0.00     0.003 A 
ENDROOT
TORSDOF 0
ENDMDL
