MODEL 1
REMARK minimizedAffinity 6.52418518
REMARK minimizedRMSD -1
REMARK  0 active torsions:
REMARK  status: ('A' for Active; 'I' for Inactive)
ROOT
ATOM      1  C   UNL d   1      -5.841  -3.873   5.981  0.00  0.00    -0.002 A 
ATOM      2  C1  UNL d   1      -5.998  -5.252   5.998  0.00  0.00     0.010 A 
ATOM      3  C2  UNL d   1      -5.947  -5.987   4.812  0.00  0.00     0.041 A 
ATOM      4  C3  UNL d   1      -5.731  -5.307   3.597  0.00  0.00    -0.075 A 
ATOM      5  S   UNL d   1      -5.630  -6.000   2.022  0.00  0.00     0.015 SA
ATOM      6  C4  UNL d   1      -5.374  -4.482   1.289  0.00  0.00     0.022 A 
ATOM      7  C5  UNL d   1      -5.364  -3.461   2.210  0.00  0.00     0.026 A 
ATOM      8  C6  UNL d   1      -5.569  -3.919   3.555  0.00  0.00    -0.082 A 
ATOM      9  C7  UNL d   1      -5.627  -3.202   4.774  0.00  0.00     0.045 A 
ENDROOT
TORSDOF 0
ENDMDL
