MODEL 1
REMARK minimizedAffinity 21.3594589
REMARK minimizedRMSD -1
REMARK  0 active torsions:
REMARK  status: ('A' for Active; 'I' for Inactive)
ROOT
ATOM      1  C   UNL d   1      -2.416  -0.750   1.040  0.00  0.00    -0.002 A 
ATOM      2  C1  UNL d   1      -2.442   0.145   2.100  0.00  0.00     0.010 A 
ATOM      3  C2  UNL d   1      -1.448   0.112   3.081  0.00  0.00     0.041 A 
ATOM      4  C3  UNL d   1      -0.418  -0.843   2.976  0.00  0.00    -0.075 A 
ATOM      5  S   UNL d   1       0.904  -1.069   4.059  0.00  0.00     0.015 SA
ATOM      6  C4  UNL d   1       1.535  -2.358   3.139  0.00  0.00     0.022 A 
ATOM      7  C5  UNL d   1       0.767  -2.623   2.030  0.00  0.00     0.026 A 
ATOM      8  C6  UNL d   1      -0.371  -1.754   1.917  0.00  0.00    -0.082 A 
ATOM      9  C7  UNL d   1      -1.393  -1.696   0.939  0.00  0.00     0.045 A 
ENDROOT
TORSDOF 0
ENDMDL
