MODEL 1
REMARK minimizedAffinity 6.40341377
REMARK minimizedRMSD -1
REMARK  0 active torsions:
REMARK  status: ('A' for Active; 'I' for Inactive)
ROOT
ATOM      1  C   UNL d   1       4.928   5.270  -1.689  0.00  0.00    -0.002 A 
ATOM      2  C1  UNL d   1       5.074   4.007  -2.246  0.00  0.00     0.010 A 
ATOM      3  C2  UNL d   1       4.050   3.445  -3.009  0.00  0.00     0.041 A 
ATOM      4  C3  UNL d   1       2.865   4.180  -3.208  0.00  0.00    -0.075 A 
ATOM      5  S   UNL d   1       1.477   3.693  -4.108  0.00  0.00     0.015 SA
ATOM      6  C4  UNL d   1       0.658   5.150  -3.775  0.00  0.00     0.022 A 
ATOM      7  C5  UNL d   1       1.409   5.999  -2.998  0.00  0.00     0.026 A 
ATOM      8  C6  UNL d   1       2.694   5.454  -2.658  0.00  0.00    -0.082 A 
ATOM      9  C7  UNL d   1       3.751   5.997  -1.888  0.00  0.00     0.045 A 
ENDROOT
TORSDOF 0
ENDMDL
