MODEL 1
REMARK minimizedAffinity 12.8805971
REMARK minimizedRMSD -1
REMARK  0 active torsions:
REMARK  status: ('A' for Active; 'I' for Inactive)
ROOT
ATOM      1  C   UNL d   1      -5.960   4.188   5.612  0.00  0.00    -0.002 A 
ATOM      2  C1  UNL d   1      -4.973   4.638   4.746  0.00  0.00     0.010 A 
ATOM      3  C2  UNL d   1      -4.007   3.759   4.252  0.00  0.00     0.041 A 
ATOM      4  C3  UNL d   1      -4.051   2.407   4.645  0.00  0.00    -0.075 A 
ATOM      5  S   UNL d   1      -2.973   1.150   4.166  0.00  0.00     0.015 SA
ATOM      6  C4  UNL d   1      -3.797  -0.015   5.098  0.00  0.00     0.022 A 
ATOM      7  C5  UNL d   1      -4.871   0.525   5.766  0.00  0.00     0.026 A 
ATOM      8  C6  UNL d   1      -5.035   1.930   5.515  0.00  0.00    -0.082 A 
ATOM      9  C7  UNL d   1      -6.000   2.846   6.000  0.00  0.00     0.045 A 
ENDROOT
TORSDOF 0
ENDMDL
