MODEL 1
REMARK minimizedAffinity 23.7447968
REMARK minimizedRMSD -1
REMARK  0 active torsions:
REMARK  status: ('A' for Active; 'I' for Inactive)
ROOT
ATOM      1  C   UNL d   1       0.920  -3.742   3.276  0.00  0.00    -0.002 A 
ATOM      2  C1  UNL d   1       1.064  -2.661   4.133  0.00  0.00     0.010 A 
ATOM      3  C2  UNL d   1       0.547  -1.409   3.791  0.00  0.00     0.041 A 
ATOM      4  C3  UNL d   1      -0.124  -1.262   2.561  0.00  0.00    -0.075 A 
ATOM      5  S   UNL d   1      -0.839   0.175   1.933  0.00  0.00     0.015 SA
ATOM      6  C4  UNL d   1      -1.354  -0.613   0.512  0.00  0.00     0.022 A 
ATOM      7  C5  UNL d   1      -0.997  -1.940   0.500  0.00  0.00     0.026 A 
ATOM      8  C6  UNL d   1      -0.283  -2.337   1.682  0.00  0.00    -0.082 A 
ATOM      9  C7  UNL d   1       0.253  -3.592   2.057  0.00  0.00     0.045 A 
ENDROOT
TORSDOF 0
ENDMDL
