MODEL 1
REMARK minimizedAffinity 13.3360662
REMARK minimizedRMSD -1
REMARK  0 active torsions:
REMARK  status: ('A' for Active; 'I' for Inactive)
ROOT
ATOM      1  C   UNL d   1      -1.970  -2.016   0.654  0.00  0.00    -0.002 A 
ATOM      2  C1  UNL d   1      -1.617  -0.674   0.688  0.00  0.00     0.010 A 
ATOM      3  C2  UNL d   1      -0.534  -0.244   1.459  0.00  0.00     0.041 A 
ATOM      4  C3  UNL d   1       0.195  -1.195   2.200  0.00  0.00    -0.075 A 
ATOM      5  S   UNL d   1       1.558  -0.899   3.213  0.00  0.00     0.015 SA
ATOM      6  C4  UNL d   1       1.705  -2.547   3.624  0.00  0.00     0.022 A 
ATOM      7  C5  UNL d   1       0.745  -3.318   3.012  0.00  0.00     0.026 A 
ATOM      8  C6  UNL d   1      -0.141  -2.551   2.180  0.00  0.00    -0.082 A 
ATOM      9  C7  UNL d   1      -1.244  -2.956   1.390  0.00  0.00     0.045 A 
ENDROOT
TORSDOF 0
ENDMDL
