MODEL 1
REMARK minimizedAffinity 19.9255314
REMARK minimizedRMSD -1
REMARK  0 active torsions:
REMARK  status: ('A' for Active; 'I' for Inactive)
ROOT
ATOM      1  C   UNL d   1      -2.932  -1.115   0.585  0.00  0.00    -0.002 A 
ATOM      2  C1  UNL d   1      -2.587   0.061   1.236  0.00  0.00     0.010 A 
ATOM      3  C2  UNL d   1      -1.343   0.192   1.856  0.00  0.00     0.041 A 
ATOM      4  C3  UNL d   1      -0.441  -0.889   1.810  0.00  0.00    -0.075 A 
ATOM      5  S   UNL d   1       1.138  -0.956   2.498  0.00  0.00     0.015 SA
ATOM      6  C4  UNL d   1       1.393  -2.548   1.944  0.00  0.00     0.022 A 
ATOM      7  C5  UNL d   1       0.310  -3.032   1.249  0.00  0.00     0.026 A 
ATOM      8  C6  UNL d   1      -0.765  -2.084   1.160  0.00  0.00    -0.082 A 
ATOM      9  C7  UNL d   1      -2.034  -2.186   0.541  0.00  0.00     0.045 A 
ENDROOT
TORSDOF 0
ENDMDL
