MODEL 1
REMARK minimizedAffinity 23.6121674
REMARK minimizedRMSD -1
REMARK  0 active torsions:
REMARK  status: ('A' for Active; 'I' for Inactive)
ROOT
ATOM      1  C   UNL d   1      -0.088  -1.468   1.159  0.00  0.00    -0.002 A 
ATOM      2  C1  UNL d   1      -1.300  -0.838   0.911  0.00  0.00     0.010 A 
ATOM      3  C2  UNL d   1      -1.986  -0.188   1.938  0.00  0.00     0.041 A 
ATOM      4  C3  UNL d   1      -1.427  -0.179   3.232  0.00  0.00    -0.075 A 
ATOM      5  S   UNL d   1      -2.089   0.556   4.644  0.00  0.00     0.015 SA
ATOM      6  C4  UNL d   1      -0.778   0.052   5.610  0.00  0.00     0.022 A 
ATOM      7  C5  UNL d   1       0.150  -0.661   4.889  0.00  0.00     0.026 A 
ATOM      8  C6  UNL d   1      -0.208  -0.805   3.506  0.00  0.00    -0.082 A 
ATOM      9  C7  UNL d   1       0.463  -1.457   2.443  0.00  0.00     0.045 A 
ENDROOT
TORSDOF 0
ENDMDL
