MODEL 1
REMARK minimizedAffinity 12.507947
REMARK minimizedRMSD -1
REMARK  0 active torsions:
REMARK  status: ('A' for Active; 'I' for Inactive)
ROOT
ATOM      1  C   UNL d   1       1.805   2.994  -3.189  0.00  0.00    -0.002 A 
ATOM      2  C1  UNL d   1       1.672   4.174  -2.471  0.00  0.00     0.010 A 
ATOM      3  C2  UNL d   1       0.773   5.160  -2.884  0.00  0.00     0.041 A 
ATOM      4  C3  UNL d   1       0.001   4.936  -4.041  0.00  0.00    -0.075 A 
ATOM      5  S   UNL d   1      -1.165   6.000  -4.735  0.00  0.00     0.015 SA
ATOM      6  C4  UNL d   1      -1.515   4.913  -6.000  0.00  0.00     0.022 A 
ATOM      7  C5  UNL d   1      -0.769   3.761  -5.911  0.00  0.00     0.026 A 
ATOM      8  C6  UNL d   1       0.116   3.755  -4.780  0.00  0.00    -0.082 A 
ATOM      9  C7  UNL d   1       1.037   2.776  -4.336  0.00  0.00     0.045 A 
ENDROOT
TORSDOF 0
ENDMDL
