MODEL 1
REMARK minimizedAffinity 3.67747808
REMARK minimizedRMSD -1
REMARK  0 active torsions:
REMARK  status: ('A' for Active; 'I' for Inactive)
ROOT
ATOM      1  C   UNL d   1      -5.389  -4.689   1.518  0.00  0.00    -0.002 A 
ATOM      2  C1  UNL d   1      -5.786  -5.884   2.101  0.00  0.00     0.010 A 
ATOM      3  C2  UNL d   1      -5.932  -5.985   3.486  0.00  0.00     0.041 A 
ATOM      4  C3  UNL d   1      -5.671  -4.853   4.283  0.00  0.00    -0.075 A 
ATOM      5  S   UNL d   1      -5.784  -4.741   6.000  0.00  0.00     0.015 SA
ATOM      6  C4  UNL d   1      -5.308  -3.105   6.000  0.00  0.00     0.022 A 
ATOM      7  C5  UNL d   1      -5.064  -2.639   4.730  0.00  0.00     0.026 A 
ATOM      8  C6  UNL d   1      -5.270  -3.638   3.719  0.00  0.00    -0.082 A 
ATOM      9  C7  UNL d   1      -5.130  -3.568   2.312  0.00  0.00     0.045 A 
ENDROOT
TORSDOF 0
ENDMDL
