MODEL 1
REMARK minimizedAffinity -5.02245951
REMARK minimizedRMSD -1
REMARK  0 active torsions:
REMARK  status: ('A' for Active; 'I' for Inactive)
ROOT
ATOM      1  O1  BZF d   1      -0.681  -0.561   0.015  0.00  0.00    -0.204 OA
ATOM      2  C2  BZF d   1      -1.624  -0.411   1.014  0.00  0.00     0.174 A 
ATOM      3  C3  BZF d   1      -1.060  -0.561   2.230  0.00  0.00    -0.012 A 
ATOM      4  C3A BZF d   1       0.338  -0.729   1.979  0.00  0.00    -0.107 A 
ATOM      5  C4  BZF d   1       1.423  -0.907   2.789  0.00  0.00     0.055 A 
ATOM      6  C5  BZF d   1       2.642  -1.113   2.225  0.00  0.00    -0.016 A 
ATOM      7  C6  BZF d   1       2.812  -1.152   0.857  0.00  0.00     0.022 A 
ATOM      8  C7  BZF d   1       1.766  -0.976   0.013  0.00  0.00     0.029 A 
ATOM      9  C7A BZF d   1       0.539  -0.735   0.579  0.00  0.00     0.058 A 
ENDROOT
TORSDOF 0
ENDMDL
