MODEL 1
REMARK minimizedAffinity -1.38224232
REMARK minimizedRMSD -1
REMARK  0 active torsions:
REMARK  status: ('A' for Active; 'I' for Inactive)
ROOT
ATOM      1  O1  BZF d   1      -0.597  -0.641   2.410  0.00  0.00    -0.204 OA
ATOM      2  C2  BZF d   1       0.629  -0.531   3.037  0.00  0.00     0.174 A 
ATOM      3  C3  BZF d   1       1.584  -0.163   2.158  0.00  0.00    -0.012 A 
ATOM      4  C3A BZF d   1       0.895   0.055   0.923  0.00  0.00    -0.107 A 
ATOM      5  C4  BZF d   1       1.298   0.452  -0.320  0.00  0.00     0.055 A 
ATOM      6  C5  BZF d   1       0.388   0.495  -1.327  0.00  0.00    -0.016 A 
ATOM      7  C6  BZF d   1      -0.932   0.144  -1.129  0.00  0.00     0.022 A 
ATOM      8  C7  BZF d   1      -1.380  -0.251   0.087  0.00  0.00     0.029 A 
ATOM      9  C7A BZF d   1      -0.469  -0.264   1.115  0.00  0.00     0.058 A 
ENDROOT
TORSDOF 0
ENDMDL
