MODEL 1
REMARK minimizedAffinity -2.26117396
REMARK minimizedRMSD -1
REMARK  0 active torsions:
REMARK  status: ('A' for Active; 'I' for Inactive)
ROOT
ATOM      1  O1  BZF d   1       2.251  -2.375  -0.101  0.00  0.00    -0.204 OA
ATOM      2  C2  BZF d   1       2.404  -3.272   0.939  0.00  0.00     0.174 A 
ATOM      3  C3  BZF d   1       1.545  -2.993   1.941  0.00  0.00    -0.012 A 
ATOM      4  C3A BZF d   1       0.746  -1.908   1.460  0.00  0.00    -0.107 A 
ATOM      5  C4  BZF d   1      -0.292  -1.198   1.994  0.00  0.00     0.055 A 
ATOM      6  C5  BZF d   1      -0.804  -0.151   1.295  0.00  0.00    -0.016 A 
ATOM      7  C6  BZF d   1      -0.300   0.217   0.064  0.00  0.00     0.022 A 
ATOM      8  C7  BZF d   1       0.726  -0.460  -0.508  0.00  0.00     0.029 A 
ATOM      9  C7A BZF d   1       1.223  -1.539   0.181  0.00  0.00     0.058 A 
ENDROOT
TORSDOF 0
ENDMDL
