MODEL 1
REMARK minimizedAffinity -6.3187232
REMARK minimizedRMSD -1
REMARK  0 active torsions:
REMARK  status: ('A' for Active; 'I' for Inactive)
ROOT
ATOM      1  O1  BZF d   1       0.397  -0.544  -0.900  0.00  0.00    -0.204 OA
ATOM      2  C2  BZF d   1      -0.777   0.062  -0.495  0.00  0.00     0.174 A 
ATOM      3  C3  BZF d   1      -0.881   0.050   0.850  0.00  0.00    -0.012 A 
ATOM      4  C3A BZF d   1       0.344  -0.521   1.318  0.00  0.00    -0.107 A 
ATOM      5  C4  BZF d   1       0.842  -0.784   2.562  0.00  0.00     0.055 A 
ATOM      6  C5  BZF d   1       2.041  -1.415   2.673  0.00  0.00    -0.016 A 
ATOM      7  C6  BZF d   1       2.763  -1.803   1.564  0.00  0.00     0.022 A 
ATOM      8  C7  BZF d   1       2.312  -1.559   0.309  0.00  0.00     0.029 A 
ATOM      9  C7A BZF d   1       1.117  -0.892   0.193  0.00  0.00     0.058 A 
ENDROOT
TORSDOF 0
ENDMDL
