MODEL 1
REMARK minimizedAffinity -2.78331041
REMARK minimizedRMSD -1
REMARK  0 active torsions:
REMARK  status: ('A' for Active; 'I' for Inactive)
ROOT
ATOM      1  O1  BZF d   1       1.169  -1.324  -0.449  0.00  0.00    -0.204 OA
ATOM      2  C2  BZF d   1       0.442  -0.665  -1.421  0.00  0.00     0.174 A 
ATOM      3  C3  BZF d   1      -0.650  -0.080  -0.887  0.00  0.00    -0.012 A 
ATOM      4  C3A BZF d   1      -0.553  -0.315   0.521  0.00  0.00    -0.107 A 
ATOM      5  C4  BZF d   1      -1.332   0.033   1.587  0.00  0.00     0.055 A 
ATOM      6  C5  BZF d   1      -0.996  -0.417   2.825  0.00  0.00    -0.016 A 
ATOM      7  C6  BZF d   1       0.107  -1.219   3.032  0.00  0.00     0.022 A 
ATOM      8  C7  BZF d   1       0.913  -1.586   2.006  0.00  0.00     0.029 A 
ATOM      9  C7A BZF d   1       0.595  -1.107   0.758  0.00  0.00     0.058 A 
ENDROOT
TORSDOF 0
ENDMDL
