MODEL 1
REMARK minimizedAffinity 0.672325909
REMARK minimizedRMSD -1
REMARK  0 active torsions:
REMARK  status: ('A' for Active; 'I' for Inactive)
ROOT
ATOM      1  O1  BZF d   1       0.026  -0.986   1.585  0.00  0.00    -0.204 OA
ATOM      2  C2  BZF d   1      -1.298  -0.620   1.740  0.00  0.00     0.174 A 
ATOM      3  C3  BZF d   1      -1.823  -0.217   0.566  0.00  0.00    -0.012 A 
ATOM      4  C3A BZF d   1      -0.789  -0.425  -0.401  0.00  0.00    -0.107 A 
ATOM      5  C4  BZF d   1      -0.712  -0.229  -1.750  0.00  0.00     0.055 A 
ATOM      6  C5  BZF d   1       0.466  -0.465  -2.385  0.00  0.00    -0.016 A 
ATOM      7  C6  BZF d   1       1.587  -0.891  -1.702  0.00  0.00     0.022 A 
ATOM      8  C7  BZF d   1       1.557  -1.104  -0.364  0.00  0.00     0.029 A 
ATOM      9  C7A BZF d   1       0.359  -0.899   0.275  0.00  0.00     0.058 A 
ENDROOT
TORSDOF 0
ENDMDL
